MODEL 1
REMARK VINA RESULT:     -11.7      0.000      0.000
REMARK SMILES CC(C)N1C[C@H](C(=O)N[C@@H]2C=C[C@@H](C(=O)NCCCCNC(=O)c3ccc(-c4c5nc(c(-c6cccc(S(=O)(=O)[O-])c6F)c6ccc([nH]6)c(-c6cccc(S(=O)(=O)[O-])c6F)c6nc(c(-c7cccc(S(=O)(=O)[O-])c7F)c7ccc4[nH]7)C=C6)C=C5)cc3)C2)CC1=O
REMARK SMILES IDX 18 1 17 2 16 3 14 4 15 5 13 7 10 8 11 9 87 10 12 11 9 12
REMARK SMILES IDX 7 13 8 14 6 16 4 17 5 18 89 19 88 20 90 21 2 22 1 23 3 24
REMARK SMILES IDX 19 25 20 26 21 27 22 28 23 30 24 31 25 32 86 33 26 34 85 35
REMARK SMILES IDX 27 36 28 37 29 38 79 39 30 40 84 41 78 42 80 43 31 44 83 45
REMARK SMILES IDX 77 46 76 47 32 49 64 50 44 51 63 52 45 53 48 54 62 55 81 56
REMARK SMILES IDX 46 57 47 58 61 60 82 61 49 62 33 63 34 64 42 65 35 66 37 67
REMARK SMILES IDX 43 68 36 69 38 70 39 71 40 72 41 73 65 74 66 75 74 76 67 77
REMARK SMILES IDX 69 78 75 79 68 80 70 81 71 82 72 83 73 84 50 85 51 86 59 87
REMARK SMILES IDX 52 88 54 89 60 90 53 91 55 92 56 93 57 94 58 95
REMARK H PARENT 16 6 9 15 21 29 80 48 48 59
REMARK Flexibility Score: inf
ROOT
ATOM      1  C   UNL A   1      37.173  21.538  24.824  1.00  0.00     0.023 C 
ENDROOT
BRANCH   1   2
ATOM      2  C   UNL A   1      35.799  21.568  25.499  1.00  0.00     0.116 C 
BRANCH   2   3
ATOM      3  N   UNL A   1      34.751  21.048  24.643  1.00  0.00    -0.356 N 
ATOM      4  C   UNL A   1      33.439  21.395  24.545  1.00  0.00     0.227 C 
ATOM      5  O   UNL A   1      32.762  20.843  23.673  1.00  0.00    -0.274 OA
ATOM      6  H   UNL A   1      35.035  20.326  24.037  1.00  0.00     0.163 HD
BRANCH   4   7
ATOM      7  C   UNL A   1      32.790  22.414  25.484  1.00  0.00     0.103 C 
ATOM      8  C   UNL A   1      31.466  24.484  25.407  1.00  0.00     0.106 C 
ATOM      9  C   UNL A   1      30.654  23.301  25.847  1.00  0.00    -0.006 C 
ATOM     10  C   UNL A   1      32.740  23.818  24.900  1.00  0.00     0.047 C 
ATOM     11  C   UNL A   1      31.369  22.167  25.874  1.00  0.00    -0.016 C 
BRANCH   8  12
ATOM     12  N   UNL A   1      31.591  25.397  26.521  1.00  0.00    -0.350 N 
ATOM     13  C   UNL A   1      31.714  26.759  26.517  1.00  0.00     0.225 C 
ATOM     14  O   UNL A   1      31.337  27.374  27.514  1.00  0.00    -0.275 OA
ATOM     15  H   UNL A   1      31.586  24.978  27.413  1.00  0.00     0.164 HD
BRANCH  13  16
ATOM     16  C   UNL A   1      32.353  27.452  25.323  1.00  0.00     0.107 C 
ATOM     17  N   UNL A   1      30.782  28.842  24.250  1.00  0.00    -0.339 N 
ATOM     18  C   UNL A   1      31.439  27.556  24.116  1.00  0.00     0.133 C 
ATOM     19  C   UNL A   1      31.472  29.674  25.119  1.00  0.00     0.223 C 
ATOM     20  C   UNL A   1      32.638  28.913  25.667  1.00  0.00     0.115 C 
ATOM     21  O   UNL A   1      31.256  30.841  25.392  1.00  0.00    -0.275 OA
BRANCH  17  22
ATOM     22  C   UNL A   1      29.692  29.250  23.356  1.00  0.00     0.078 C 
ATOM     23  C   UNL A   1      30.235  29.705  21.999  1.00  0.00     0.031 C 
ATOM     24  C   UNL A   1      28.628  28.174  23.128  1.00  0.00     0.031 C 
ENDBRANCH  17  22
ENDBRANCH  13  16
ENDBRANCH   8  12
ENDBRANCH   4   7
ENDBRANCH   2   3
ENDBRANCH   1   2
BRANCH   1  25
ATOM     25  C   UNL A   1      37.981  20.272  25.078  1.00  0.00     0.023 C 
BRANCH  25  26
ATOM     26  C   UNL A   1      39.107  20.444  26.080  1.00  0.00     0.116 C 
BRANCH  26  27
ATOM     27  N   UNL A   1      40.048  19.330  26.068  1.00  0.00    -0.352 N 
ATOM     28  C   UNL A   1      41.417  19.380  26.145  1.00  0.00     0.251 C 
ATOM     29  H   UNL A   1      39.651  18.431  25.996  1.00  0.00     0.163 HD
ATOM     30  O   UNL A   1      42.090  18.368  25.984  1.00  0.00    -0.269 OA
BRANCH  28  31
ATOM     31  C   UNL A   1      42.056  20.686  26.392  1.00  0.00     0.039 A 
ATOM     32  C   UNL A   1      42.360  21.507  25.306  1.00  0.00     0.014 A 
ATOM     33  C   UNL A   1      42.261  21.126  27.704  1.00  0.00     0.014 A 
ATOM     34  C   UNL A   1      42.819  22.802  25.542  1.00  0.00     0.010 A 
ATOM     35  C   UNL A   1      42.622  22.446  27.932  1.00  0.00     0.010 A 
ATOM     36  C   UNL A   1      42.917  23.294  26.854  1.00  0.00    -0.014 A 
BRANCH  36  37
ATOM     37  C   UNL A   1      43.330  24.693  27.122  1.00  0.00     0.031 A 
ATOM     38  C   UNL A   1      42.358  25.656  27.747  1.00  0.00     0.074 A 
ATOM     39  C   UNL A   1      44.550  25.115  26.734  1.00  0.00     0.049 A 
ATOM     40  N   UNL A   1      42.511  26.926  28.012  1.00  0.00    -0.248 NA
ATOM     41  C   UNL A   1      41.026  25.129  28.096  1.00  0.00     0.031 C 
ATOM     42  C   UNL A   1      45.550  24.297  26.041  1.00  0.00     0.029 A 
ATOM     43  N   UNL A   1      45.149  26.344  26.845  1.00  0.00    -0.354 N 
ATOM     44  C   UNL A   1      41.297  27.354  28.532  1.00  0.00     0.074 A 
ATOM     45  C   UNL A   1      40.398  26.223  28.497  1.00  0.00     0.031 C 
ATOM     46  C   UNL A   1      46.637  25.046  25.796  1.00  0.00     0.029 A 
ATOM     47  C   UNL A   1      46.401  26.402  26.281  1.00  0.00     0.049 A 
ATOM     48  H   UNL A   1      44.722  27.113  27.287  1.00  0.00     0.167 HD
ATOM     49  C   UNL A   1      40.968  28.570  29.031  1.00  0.00     0.034 A 
ATOM     50  C   UNL A   1      47.258  27.435  26.156  1.00  0.00     0.034 A 
ATOM     51  C   UNL A   1      41.875  29.682  29.090  1.00  0.00     0.049 A 
ATOM     52  C   UNL A   1      46.874  28.770  26.735  1.00  0.00     0.074 A 
ATOM     53  C   UNL A   1      41.662  30.936  29.635  1.00  0.00     0.029 A 
ATOM     54  N   UNL A   1      43.164  29.680  28.582  1.00  0.00    -0.354 N 
ATOM     55  N   UNL A   1      45.774  29.116  27.358  1.00  0.00    -0.248 NA
ATOM     56  C   UNL A   1      47.866  29.850  26.629  1.00  0.00     0.031 C 
ATOM     57  C   UNL A   1      42.814  31.702  29.429  1.00  0.00     0.029 A 
ATOM     58  C   UNL A   1      43.758  30.912  28.793  1.00  0.00     0.049 A 
ATOM     59  H   UNL A   1      43.594  28.915  28.135  1.00  0.00     0.167 HD
ATOM     60  C   UNL A   1      45.956  30.435  27.751  1.00  0.00     0.074 A 
ATOM     61  C   UNL A   1      47.283  30.820  27.316  1.00  0.00     0.031 C 
ATOM     62  C   UNL A   1      45.099  31.261  28.402  1.00  0.00     0.034 A 
BRANCH  49  63
ATOM     63  C   UNL A   1      39.585  28.737  29.606  1.00  0.00     0.023 A 
ATOM     64  C   UNL A   1      39.326  28.314  30.927  1.00  0.00     0.012 A 
ATOM     65  C   UNL A   1      38.560  29.357  28.866  1.00  0.00     0.148 A 
ATOM     66  C   UNL A   1      38.060  28.471  31.488  1.00  0.00     0.002 A 
ATOM     67  C   UNL A   1      37.315  29.555  29.451  1.00  0.00     0.091 A 
ATOM     68  F   UNL A   1      38.819  29.735  27.606  1.00  0.00    -0.205 F 
ATOM     69  C   UNL A   1      37.059  29.101  30.755  1.00  0.00     0.022 A 
BRANCH  67  70
ATOM     70  S   UNL A   1      35.981  30.427  28.624  1.00  0.00     0.127 S 
ATOM     71  O   UNL A   1      36.718  31.262  27.675  1.00  0.00    -0.237 OA
ATOM     72  O   UNL A   1      35.231  29.329  28.013  1.00  0.00    -0.237 OA
ATOM     73  O   UNL A   1      35.265  31.152  29.664  1.00  0.00    -0.744 OA
ENDBRANCH  67  70
ENDBRANCH  49  63
BRANCH  50  74
ATOM     74  C   UNL A   1      48.579  27.240  25.493  1.00  0.00     0.023 A 
ATOM     75  C   UNL A   1      49.691  26.837  26.257  1.00  0.00     0.012 A 
ATOM     76  C   UNL A   1      48.737  27.450  24.110  1.00  0.00     0.148 A 
ATOM     77  C   UNL A   1      50.946  26.691  25.665  1.00  0.00     0.002 A 
ATOM     78  C   UNL A   1      49.977  27.242  23.515  1.00  0.00     0.091 A 
ATOM     79  F   UNL A   1      47.670  27.841  23.399  1.00  0.00    -0.205 F 
ATOM     80  C   UNL A   1      51.087  26.885  24.295  1.00  0.00     0.022 A 
BRANCH  78  81
ATOM     81  S   UNL A   1      50.217  27.339  21.738  1.00  0.00     0.127 S 
ATOM     82  O   UNL A   1      51.627  26.985  21.607  1.00  0.00    -0.237 OA
ATOM     83  O   UNL A   1      49.278  26.325  21.252  1.00  0.00    -0.237 OA
ATOM     84  O   UNL A   1      49.867  28.703  21.368  1.00  0.00    -0.744 OA
ENDBRANCH  78  81
ENDBRANCH  50  74
BRANCH  62  85
ATOM     85  C   UNL A   1      45.582  32.650  28.732  1.00  0.00     0.023 A 
ATOM     86  C   UNL A   1      46.324  32.881  29.906  1.00  0.00     0.012 A 
ATOM     87  C   UNL A   1      45.353  33.714  27.836  1.00  0.00     0.148 A 
ATOM     88  C   UNL A   1      46.799  34.157  30.203  1.00  0.00     0.002 A 
ATOM     89  C   UNL A   1      45.876  34.971  28.113  1.00  0.00     0.091 A 
ATOM     90  F   UNL A   1      44.629  33.477  26.733  1.00  0.00    -0.205 F 
ATOM     91  C   UNL A   1      46.586  35.198  29.302  1.00  0.00     0.022 A 
BRANCH  89  92
ATOM     92  S   UNL A   1      45.738  36.346  26.965  1.00  0.00     0.127 S 
ATOM     93  O   UNL A   1      46.358  35.794  25.762  1.00  0.00    -0.237 OA
ATOM     94  O   UNL A   1      44.289  36.528  26.876  1.00  0.00    -0.237 OA
ATOM     95  O   UNL A   1      46.451  37.457  27.580  1.00  0.00    -0.744 OA
ENDBRANCH  89  92
ENDBRANCH  62  85
ENDBRANCH  36  37
ENDBRANCH  28  31
ENDBRANCH  26  27
ENDBRANCH  25  26
ENDBRANCH   1  25
TORSDOF 17
ENDMDL
MODEL 2
REMARK VINA RESULT:     -11.7      4.978      8.890
REMARK SMILES CC(C)N1C[C@H](C(=O)N[C@@H]2C=C[C@@H](C(=O)NCCCCNC(=O)c3ccc(-c4c5nc(c(-c6cccc(S(=O)(=O)[O-])c6F)c6ccc([nH]6)c(-c6cccc(S(=O)(=O)[O-])c6F)c6nc(c(-c7cccc(S(=O)(=O)[O-])c7F)c7ccc4[nH]7)C=C6)C=C5)cc3)C2)CC1=O
REMARK SMILES IDX 18 1 17 2 16 3 14 4 15 5 13 7 10 8 11 9 87 10 12 11 9 12
REMARK SMILES IDX 7 13 8 14 6 16 4 17 5 18 89 19 88 20 90 21 2 22 1 23 3 24
REMARK SMILES IDX 19 25 20 26 21 27 22 28 23 30 24 31 25 32 86 33 26 34 85 35
REMARK SMILES IDX 27 36 28 37 29 38 79 39 30 40 84 41 78 42 80 43 31 44 83 45
REMARK SMILES IDX 77 46 76 47 32 49 64 50 44 51 63 52 45 53 48 54 62 55 81 56
REMARK SMILES IDX 46 57 47 58 61 60 82 61 49 62 33 63 34 64 42 65 35 66 37 67
REMARK SMILES IDX 43 68 36 69 38 70 39 71 40 72 41 73 65 74 66 75 74 76 67 77
REMARK SMILES IDX 69 78 75 79 68 80 70 81 71 82 72 83 73 84 50 85 51 86 59 87
REMARK SMILES IDX 52 88 54 89 60 90 53 91 55 92 56 93 57 94 58 95
REMARK H PARENT 16 6 9 15 21 29 80 48 48 59
REMARK Flexibility Score: inf
ROOT
ATOM      1  C   UNL A   1      32.202  28.126  27.041  1.00  0.00     0.023 C 
ENDROOT
BRANCH   1   2
ATOM      2  C   UNL A   1      31.152  27.696  26.012  1.00  0.00     0.116 C 
BRANCH   2   3
ATOM      3  N   UNL A   1      31.297  28.394  24.750  1.00  0.00    -0.356 N 
ATOM      4  C   UNL A   1      31.350  27.914  23.478  1.00  0.00     0.227 C 
ATOM      5  O   UNL A   1      31.404  28.733  22.556  1.00  0.00    -0.274 OA
ATOM      6  H   UNL A   1      31.368  29.373  24.826  1.00  0.00     0.163 HD
BRANCH   4   7
ATOM      7  C   UNL A   1      31.370  26.415  23.170  1.00  0.00     0.103 C 
ATOM      8  C   UNL A   1      32.260  24.309  24.073  1.00  0.00     0.106 C 
ATOM      9  C   UNL A   1      30.775  24.428  24.257  1.00  0.00    -0.006 C 
ATOM     10  C   UNL A   1      32.637  25.723  23.648  1.00  0.00     0.047 C 
ATOM     11  C   UNL A   1      30.288  25.584  23.780  1.00  0.00    -0.016 C 
BRANCH   8  12
ATOM     12  N   UNL A   1      32.522  23.240  23.136  1.00  0.00    -0.350 N 
ATOM     13  C   UNL A   1      32.398  21.888  23.305  1.00  0.00     0.225 C 
ATOM     14  O   UNL A   1      32.207  21.198  22.305  1.00  0.00    -0.275 OA
ATOM     15  H   UNL A   1      32.835  23.526  22.246  1.00  0.00     0.164 HD
BRANCH  13  16
ATOM     16  C   UNL A   1      32.555  21.288  24.694  1.00  0.00     0.107 C 
ATOM     17  N   UNL A   1      33.717  19.242  24.570  1.00  0.00    -0.339 N 
ATOM     18  C   UNL A   1      32.380  19.781  24.730  1.00  0.00     0.133 C 
ATOM     19  C   UNL A   1      34.684  20.193  24.858  1.00  0.00     0.223 C 
ATOM     20  C   UNL A   1      33.991  21.480  25.179  1.00  0.00     0.115 C 
ATOM     21  O   UNL A   1      35.893  20.061  24.913  1.00  0.00    -0.275 OA
BRANCH  17  22
ATOM     22  C   UNL A   1      33.954  17.804  24.391  1.00  0.00     0.078 C 
ATOM     23  C   UNL A   1      33.234  16.990  25.469  1.00  0.00     0.031 C 
ATOM     24  C   UNL A   1      33.555  17.266  23.015  1.00  0.00     0.031 C 
ENDBRANCH  17  22
ENDBRANCH  13  16
ENDBRANCH   8  12
ENDBRANCH   4   7
ENDBRANCH   2   3
ENDBRANCH   1   2
BRANCH   1  25
ATOM     25  C   UNL A   1      33.633  27.735  26.693  1.00  0.00     0.023 C 
BRANCH  25  26
ATOM     26  C   UNL A   1      34.508  28.897  26.263  1.00  0.00     0.116 C 
BRANCH  26  27
ATOM     27  N   UNL A   1      33.992  30.187  26.709  1.00  0.00    -0.352 N 
ATOM     28  C   UNL A   1      34.492  31.000  27.696  1.00  0.00     0.251 C 
ATOM     29  H   UNL A   1      33.187  30.513  26.246  1.00  0.00     0.163 HD
ATOM     30  O   UNL A   1      33.873  31.994  28.059  1.00  0.00    -0.269 OA
BRANCH  28  31
ATOM     31  C   UNL A   1      35.771  30.627  28.327  1.00  0.00     0.039 A 
ATOM     32  C   UNL A   1      35.762  29.737  29.400  1.00  0.00     0.014 A 
ATOM     33  C   UNL A   1      36.977  31.091  27.789  1.00  0.00     0.014 A 
ATOM     34  C   UNL A   1      36.975  29.262  29.899  1.00  0.00     0.010 A 
ATOM     35  C   UNL A   1      38.174  30.540  28.223  1.00  0.00     0.010 A 
ATOM     36  C   UNL A   1      38.187  29.630  29.290  1.00  0.00    -0.014 A 
BRANCH  36  37
ATOM     37  C   UNL A   1      39.481  29.077  29.757  1.00  0.00     0.031 A 
ATOM     38  C   UNL A   1      40.232  29.761  30.866  1.00  0.00     0.074 A 
ATOM     39  C   UNL A   1      40.014  28.007  29.134  1.00  0.00     0.049 A 
ATOM     40  N   UNL A   1      41.397  29.463  31.378  1.00  0.00    -0.248 NA
ATOM     41  C   UNL A   1      39.606  30.955  31.461  1.00  0.00     0.031 C 
ATOM     42  C   UNL A   1      39.421  27.309  27.990  1.00  0.00     0.029 A 
ATOM     43  N   UNL A   1      41.188  27.333  29.359  1.00  0.00    -0.354 N 
ATOM     44  C   UNL A   1      41.653  30.440  32.332  1.00  0.00     0.074 A 
ATOM     45  C   UNL A   1      40.549  31.371  32.293  1.00  0.00     0.031 C 
ATOM     46  C   UNL A   1      40.230  26.304  27.620  1.00  0.00     0.029 A 
ATOM     47  C   UNL A   1      41.414  26.306  28.474  1.00  0.00     0.049 A 
ATOM     48  H   UNL A   1      41.810  27.564  30.087  1.00  0.00     0.167 HD
ATOM     49  C   UNL A   1      42.695  30.535  33.192  1.00  0.00     0.034 A 
ATOM     50  C   UNL A   1      42.464  25.469  28.355  1.00  0.00     0.034 A 
ATOM     51  C   UNL A   1      43.775  29.590  33.247  1.00  0.00     0.049 A 
ATOM     52  C   UNL A   1      43.600  25.585  29.335  1.00  0.00     0.074 A 
ATOM     53  C   UNL A   1      44.846  29.559  34.123  1.00  0.00     0.029 A 
ATOM     54  N   UNL A   1      43.931  28.514  32.387  1.00  0.00    -0.354 N 
ATOM     55  N   UNL A   1      43.752  26.427  30.328  1.00  0.00    -0.248 NA
ATOM     56  C   UNL A   1      44.692  24.611  29.204  1.00  0.00     0.031 C 
ATOM     57  C   UNL A   1      45.663  28.479  33.774  1.00  0.00     0.029 A 
ATOM     58  C   UNL A   1      45.081  27.815  32.706  1.00  0.00     0.049 A 
ATOM     59  H   UNL A   1      43.313  28.282  31.656  1.00  0.00     0.167 HD
ATOM     60  C   UNL A   1      44.933  26.061  30.962  1.00  0.00     0.074 A 
ATOM     61  C   UNL A   1      45.444  24.905  30.254  1.00  0.00     0.031 C 
ATOM     62  C   UNL A   1      45.547  26.635  32.025  1.00  0.00     0.034 A 
BRANCH  49  63
ATOM     63  C   UNL A   1      42.681  31.670  34.183  1.00  0.00     0.023 A 
ATOM     64  C   UNL A   1      43.253  32.910  33.826  1.00  0.00     0.012 A 
ATOM     65  C   UNL A   1      42.058  31.533  35.438  1.00  0.00     0.148 A 
ATOM     66  C   UNL A   1      43.239  33.982  34.717  1.00  0.00     0.002 A 
ATOM     67  C   UNL A   1      42.004  32.622  36.300  1.00  0.00     0.091 A 
ATOM     68  F   UNL A   1      41.537  30.343  35.767  1.00  0.00    -0.205 F 
ATOM     69  C   UNL A   1      42.606  33.841  35.948  1.00  0.00     0.022 A 
BRANCH  67  70
ATOM     70  S   UNL A   1      41.144  32.571  37.875  1.00  0.00     0.127 S 
ATOM     71  O   UNL A   1      39.863  31.978  37.492  1.00  0.00    -0.237 OA
ATOM     72  O   UNL A   1      42.008  31.695  38.667  1.00  0.00    -0.237 OA
ATOM     73  O   UNL A   1      41.077  33.948  38.344  1.00  0.00    -0.744 OA
ENDBRANCH  67  70
ENDBRANCH  49  63
BRANCH  50  74
ATOM     74  C   UNL A   1      42.472  24.420  27.295  1.00  0.00     0.023 A 
ATOM     75  C   UNL A   1      43.268  24.596  26.146  1.00  0.00     0.012 A 
ATOM     76  C   UNL A   1      41.698  23.251  27.421  1.00  0.00     0.148 A 
ATOM     77  C   UNL A   1      43.257  23.648  25.122  1.00  0.00     0.002 A 
ATOM     78  C   UNL A   1      41.740  22.282  26.425  1.00  0.00     0.091 A 
ATOM     79  F   UNL A   1      40.940  23.105  28.517  1.00  0.00    -0.205 F 
ATOM     80  C   UNL A   1      42.502  22.489  25.264  1.00  0.00     0.022 A 
BRANCH  78  81
ATOM     81  S   UNL A   1      40.904  20.701  26.588  1.00  0.00     0.127 S 
ATOM     82  O   UNL A   1      39.559  21.024  26.120  1.00  0.00    -0.237 OA
ATOM     83  O   UNL A   1      41.685  19.853  25.686  1.00  0.00    -0.237 OA
ATOM     84  O   UNL A   1      41.018  20.340  27.995  1.00  0.00    -0.744 OA
ENDBRANCH  78  81
ENDBRANCH  50  74
BRANCH  62  85
ATOM     85  C   UNL A   1      46.817  25.998  32.526  1.00  0.00     0.023 A 
ATOM     86  C   UNL A   1      46.775  25.079  33.593  1.00  0.00     0.012 A 
ATOM     87  C   UNL A   1      48.047  26.263  31.889  1.00  0.00     0.148 A 
ATOM     88  C   UNL A   1      47.942  24.463  34.043  1.00  0.00     0.002 A 
ATOM     89  C   UNL A   1      49.195  25.604  32.308  1.00  0.00     0.091 A 
ATOM     90  F   UNL A   1      48.068  27.153  30.887  1.00  0.00    -0.205 F 
ATOM     91  C   UNL A   1      49.148  24.715  33.394  1.00  0.00     0.022 A 
BRANCH  89  92
ATOM     92  S   UNL A   1      50.773  25.790  31.469  1.00  0.00     0.127 S 
ATOM     93  O   UNL A   1      51.064  27.205  31.693  1.00  0.00    -0.237 OA
ATOM     94  O   UNL A   1      51.628  24.866  32.213  1.00  0.00    -0.237 OA
ATOM     95  O   UNL A   1      50.538  25.415  30.081  1.00  0.00    -0.744 OA
ENDBRANCH  89  92
ENDBRANCH  62  85
ENDBRANCH  36  37
ENDBRANCH  28  31
ENDBRANCH  26  27
ENDBRANCH  25  26
ENDBRANCH   1  25
TORSDOF 17
ENDMDL
MODEL 3
REMARK VINA RESULT:     -11.7      5.113      9.209
REMARK SMILES CC(C)N1C[C@H](C(=O)N[C@@H]2C=C[C@@H](C(=O)NCCCCNC(=O)c3ccc(-c4c5nc(c(-c6cccc(S(=O)(=O)[O-])c6F)c6ccc([nH]6)c(-c6cccc(S(=O)(=O)[O-])c6F)c6nc(c(-c7cccc(S(=O)(=O)[O-])c7F)c7ccc4[nH]7)C=C6)C=C5)cc3)C2)CC1=O
REMARK SMILES IDX 18 1 17 2 16 3 14 4 15 5 13 7 10 8 11 9 87 10 12 11 9 12
REMARK SMILES IDX 7 13 8 14 6 16 4 17 5 18 89 19 88 20 90 21 2 22 1 23 3 24
REMARK SMILES IDX 19 25 20 26 21 27 22 28 23 30 24 31 25 32 86 33 26 34 85 35
REMARK SMILES IDX 27 36 28 37 29 38 79 39 30 40 84 41 78 42 80 43 31 44 83 45
REMARK SMILES IDX 77 46 76 47 32 49 64 50 44 51 63 52 45 53 48 54 62 55 81 56
REMARK SMILES IDX 46 57 47 58 61 60 82 61 49 62 33 63 34 64 42 65 35 66 37 67
REMARK SMILES IDX 43 68 36 69 38 70 39 71 40 72 41 73 65 74 66 75 74 76 67 77
REMARK SMILES IDX 69 78 75 79 68 80 70 81 71 82 72 83 73 84 50 85 51 86 59 87
REMARK SMILES IDX 52 88 54 89 60 90 53 91 55 92 56 93 57 94 58 95
REMARK H PARENT 16 6 9 15 21 29 80 48 48 59
REMARK Flexibility Score: inf
ROOT
ATOM      1  C   UNL A   1      32.184  27.846  26.798  1.00  0.00     0.023 C 
ENDROOT
BRANCH   1   2
ATOM      2  C   UNL A   1      31.087  27.346  25.853  1.00  0.00     0.116 C 
BRANCH   2   3
ATOM      3  N   UNL A   1      31.154  27.973  24.547  1.00  0.00    -0.356 N 
ATOM      4  C   UNL A   1      31.166  27.421  23.303  1.00  0.00     0.227 C 
ATOM      5  O   UNL A   1      31.153  28.185  22.335  1.00  0.00    -0.274 OA
ATOM      6  H   UNL A   1      31.198  28.956  24.564  1.00  0.00     0.163 HD
BRANCH   4   7
ATOM      7  C   UNL A   1      31.219  25.908  23.081  1.00  0.00     0.103 C 
ATOM      8  C   UNL A   1      32.353  23.906  23.949  1.00  0.00     0.106 C 
ATOM      9  C   UNL A   1      30.910  23.970  24.359  1.00  0.00    -0.006 C 
ATOM     10  C   UNL A   1      32.581  25.306  23.390  1.00  0.00     0.047 C 
ATOM     11  C   UNL A   1      30.293  25.069  23.901  1.00  0.00    -0.016 C 
BRANCH   8  12
ATOM     12  N   UNL A   1      32.524  22.792  23.043  1.00  0.00    -0.350 N 
ATOM     13  C   UNL A   1      32.354  21.455  23.272  1.00  0.00     0.225 C 
ATOM     14  O   UNL A   1      32.084  20.736  22.311  1.00  0.00    -0.275 OA
ATOM     15  H   UNL A   1      32.802  23.031  22.128  1.00  0.00     0.164 HD
BRANCH  13  16
ATOM     16  C   UNL A   1      32.556  20.901  24.675  1.00  0.00     0.107 C 
ATOM     17  N   UNL A   1      33.861  18.941  24.596  1.00  0.00    -0.339 N 
ATOM     18  C   UNL A   1      32.489  19.387  24.748  1.00  0.00     0.133 C 
ATOM     19  C   UNL A   1      34.758  19.966  24.857  1.00  0.00     0.223 C 
ATOM     20  C   UNL A   1      33.975  21.207  25.149  1.00  0.00     0.115 C 
ATOM     21  O   UNL A   1      35.974  19.922  24.910  1.00  0.00    -0.275 OA
BRANCH  17  22
ATOM     22  C   UNL A   1      34.201  17.520  24.451  1.00  0.00     0.078 C 
ATOM     23  C   UNL A   1      33.385  16.659  25.419  1.00  0.00     0.031 C 
ATOM     24  C   UNL A   1      34.025  16.972  23.033  1.00  0.00     0.031 C 
ENDBRANCH  17  22
ENDBRANCH  13  16
ENDBRANCH   8  12
ENDBRANCH   4   7
ENDBRANCH   2   3
ENDBRANCH   1   2
BRANCH   1  25
ATOM     25  C   UNL A   1      33.594  27.407  26.425  1.00  0.00     0.023 C 
BRANCH  25  26
ATOM     26  C   UNL A   1      34.530  28.551  26.082  1.00  0.00     0.116 C 
BRANCH  26  27
ATOM     27  N   UNL A   1      34.008  29.849  26.492  1.00  0.00    -0.352 N 
ATOM     28  C   UNL A   1      34.492  30.682  27.470  1.00  0.00     0.251 C 
ATOM     29  H   UNL A   1      33.212  30.167  26.008  1.00  0.00     0.163 HD
ATOM     30  O   UNL A   1      33.868  31.684  27.803  1.00  0.00    -0.269 OA
BRANCH  28  31
ATOM     31  C   UNL A   1      35.759  30.321  28.132  1.00  0.00     0.039 A 
ATOM     32  C   UNL A   1      35.717  29.629  29.342  1.00  0.00     0.014 A 
ATOM     33  C   UNL A   1      36.978  30.589  27.501  1.00  0.00     0.014 A 
ATOM     34  C   UNL A   1      36.906  29.150  29.892  1.00  0.00     0.010 A 
ATOM     35  C   UNL A   1      38.143  30.026  28.000  1.00  0.00     0.010 A 
ATOM     36  C   UNL A   1      38.122  29.312  29.207  1.00  0.00    -0.014 A 
BRANCH  36  37
ATOM     37  C   UNL A   1      39.385  28.744  29.738  1.00  0.00     0.031 A 
ATOM     38  C   UNL A   1      40.045  29.374  30.934  1.00  0.00     0.074 A 
ATOM     39  C   UNL A   1      39.975  27.714  29.100  1.00  0.00     0.049 A 
ATOM     40  N   UNL A   1      41.173  29.058  31.513  1.00  0.00    -0.248 NA
ATOM     41  C   UNL A   1      39.363  30.529  31.544  1.00  0.00     0.031 C 
ATOM     42  C   UNL A   1      39.475  27.073  27.880  1.00  0.00     0.029 A 
ATOM     43  N   UNL A   1      41.137  27.038  29.374  1.00  0.00    -0.354 N 
ATOM     44  C   UNL A   1      41.347  29.984  32.534  1.00  0.00     0.074 A 
ATOM     45  C   UNL A   1      40.238  30.908  32.463  1.00  0.00     0.031 C 
ATOM     46  C   UNL A   1      40.321  26.096  27.517  1.00  0.00     0.029 A 
ATOM     47  C   UNL A   1      41.439  26.062  28.455  1.00  0.00     0.049 A 
ATOM     48  H   UNL A   1      41.702  27.234  30.157  1.00  0.00     0.167 HD
ATOM     49  C   UNL A   1      42.322  30.041  33.472  1.00  0.00     0.034 A 
ATOM     50  C   UNL A   1      42.504  25.241  28.370  1.00  0.00     0.034 A 
ATOM     51  C   UNL A   1      43.407  29.103  33.556  1.00  0.00     0.049 A 
ATOM     52  C   UNL A   1      43.564  25.313  29.435  1.00  0.00     0.074 A 
ATOM     53  C   UNL A   1      44.411  29.033  34.506  1.00  0.00     0.029 A 
ATOM     54  N   UNL A   1      43.637  28.076  32.654  1.00  0.00    -0.354 N 
ATOM     55  N   UNL A   1      43.634  26.102  30.480  1.00  0.00    -0.248 NA
ATOM     56  C   UNL A   1      44.675  24.356  29.332  1.00  0.00     0.031 C 
ATOM     57  C   UNL A   1      45.264  27.980  34.161  1.00  0.00     0.029 A 
ATOM     58  C   UNL A   1      44.770  27.370  33.019  1.00  0.00     0.049 A 
ATOM     59  H   UNL A   1      43.078  27.879  31.868  1.00  0.00     0.167 HD
ATOM     60  C   UNL A   1      44.769  25.711  31.178  1.00  0.00     0.074 A 
ATOM     61  C   UNL A   1      45.344  24.599  30.450  1.00  0.00     0.031 C 
ATOM     62  C   UNL A   1      45.298  26.232  32.313  1.00  0.00     0.034 A 
BRANCH  49  63
ATOM     63  C   UNL A   1      42.223  31.122  34.517  1.00  0.00     0.023 A 
ATOM     64  C   UNL A   1      41.561  30.852  35.734  1.00  0.00     0.012 A 
ATOM     65  C   UNL A   1      42.825  32.380  34.323  1.00  0.00     0.148 A 
ATOM     66  C   UNL A   1      41.468  31.828  36.725  1.00  0.00     0.002 A 
ATOM     67  C   UNL A   1      42.771  33.330  35.336  1.00  0.00     0.091 A 
ATOM     68  F   UNL A   1      43.432  32.624  33.153  1.00  0.00    -0.205 F 
ATOM     69  C   UNL A   1      42.082  33.062  36.529  1.00  0.00     0.022 A 
BRANCH  67  70
ATOM     70  S   UNL A   1      43.596  34.920  35.219  1.00  0.00     0.127 S 
ATOM     71  O   UNL A   1      43.292  35.507  36.524  1.00  0.00    -0.237 OA
ATOM     72  O   UNL A   1      44.994  34.526  35.039  1.00  0.00    -0.237 OA
ATOM     73  O   UNL A   1      43.002  35.601  34.078  1.00  0.00    -0.744 OA
ENDBRANCH  67  70
ENDBRANCH  49  63
BRANCH  50  74
ATOM     74  C   UNL A   1      42.602  24.251  27.259  1.00  0.00     0.023 A 
ATOM     75  C   UNL A   1      43.284  24.595  26.075  1.00  0.00     0.012 A 
ATOM     76  C   UNL A   1      42.025  22.971  27.370  1.00  0.00     0.148 A 
ATOM     77  C   UNL A   1      43.351  23.700  25.007  1.00  0.00     0.002 A 
ATOM     78  C   UNL A   1      42.149  22.063  26.325  1.00  0.00     0.091 A 
ATOM     79  F   UNL A   1      41.373  22.664  28.500  1.00  0.00    -0.205 F 
ATOM     80  C   UNL A   1      42.791  22.433  25.134  1.00  0.00     0.022 A 
BRANCH  78  81
ATOM     81  S   UNL A   1      41.576  20.366  26.457  1.00  0.00     0.127 S 
ATOM     82  O   UNL A   1      40.132  20.524  26.307  1.00  0.00    -0.237 OA
ATOM     83  O   UNL A   1      42.249  19.732  25.321  1.00  0.00    -0.237 OA
ATOM     84  O   UNL A   1      42.033  19.897  27.759  1.00  0.00    -0.744 OA
ENDBRANCH  78  81
ENDBRANCH  50  74
BRANCH  62  85
ATOM     85  C   UNL A   1      46.536  25.579  32.871  1.00  0.00     0.023 A 
ATOM     86  C   UNL A   1      47.811  26.068  32.528  1.00  0.00     0.012 A 
ATOM     87  C   UNL A   1      46.426  24.517  33.792  1.00  0.00     0.148 A 
ATOM     88  C   UNL A   1      48.960  25.487  33.063  1.00  0.00     0.002 A 
ATOM     89  C   UNL A   1      47.573  23.980  34.363  1.00  0.00     0.091 A 
ATOM     90  F   UNL A   1      45.204  24.055  34.093  1.00  0.00    -0.205 F 
ATOM     91  C   UNL A   1      48.841  24.453  33.989  1.00  0.00     0.022 A 
BRANCH  89  92
ATOM     92  S   UNL A   1      47.513  22.715  35.636  1.00  0.00     0.127 S 
ATOM     93  O   UNL A   1      48.256  21.624  35.007  1.00  0.00    -0.237 OA
ATOM     94  O   UNL A   1      48.207  23.363  36.748  1.00  0.00    -0.237 OA
ATOM     95  O   UNL A   1      46.101  22.449  35.875  1.00  0.00    -0.744 OA
ENDBRANCH  89  92
ENDBRANCH  62  85
ENDBRANCH  36  37
ENDBRANCH  28  31
ENDBRANCH  26  27
ENDBRANCH  25  26
ENDBRANCH   1  25
TORSDOF 17
ENDMDL
