MODEL 1
REMARK VINA RESULT:     -12.1      0.000      0.000
REMARK SMILES Cn1ncc(C(=O)NCCCCNC(=O)c2ccc(-c3c4nc(c(-c5cccc(S(=O)(=O)[O-])c5F)c5ccc([nH]5)c(-c5cccc(S(=O)(=O)[O-])c5F)c5nc(c(-c6cccc(S(=O)(=O)[O-])c6F)c6ccc3[nH]6)C=C5)C=C4)cc2)c1C(=O)Nc1ccccn1
REMARK SMILES IDX 11 1 10 2 9 3 8 4 6 5 7 6 5 8 1 9 2 10 3 11 79 12 4 13 80 14
REMARK SMILES IDX 81 15 82 16 83 18 84 19 88 20 85 21 87 22 86 23 12 24 13 25
REMARK SMILES IDX 14 26 15 28 16 29 17 30 78 31 18 32 77 33 19 34 20 35 21 36
REMARK SMILES IDX 71 37 22 38 76 39 70 40 72 41 23 42 75 43 69 44 68 45 24 47
REMARK SMILES IDX 56 48 36 49 55 50 37 51 40 52 54 53 73 54 38 55 39 56 53 58
REMARK SMILES IDX 74 59 41 60 25 61 26 62 34 63 27 64 29 65 35 66 28 67 30 68
REMARK SMILES IDX 31 69 32 70 33 71 57 72 58 73 66 74 59 75 61 76 67 77 60 78
REMARK SMILES IDX 62 79 63 80 64 81 65 82 42 83 43 84 51 85 44 86 46 87 52 88
REMARK SMILES IDX 45 89 47 90 48 91 49 92 50 93
REMARK H PARENT 8 7 82 17 13 27 72 46 40 57
REMARK Flexibility Score: inf
ROOT
ATOM      1  C   UNL A   1      31.636  29.727  25.185  1.00  0.00     0.023 C 
ENDROOT
BRANCH   1   2
ATOM      2  C   UNL A   1      32.452  29.115  24.050  1.00  0.00     0.023 C 
BRANCH   2   3
ATOM      3  C   UNL A   1      31.680  28.306  23.016  1.00  0.00     0.116 C 
BRANCH   3   4
ATOM      4  N   UNL A   1      32.508  27.468  22.182  1.00  0.00    -0.352 N 
ATOM      5  C   UNL A   1      32.808  26.132  22.247  1.00  0.00     0.255 C 
ATOM      6  O   UNL A   1      33.599  25.704  21.404  1.00  0.00    -0.269 OA
ATOM      7  H   UNL A   1      32.933  27.941  21.430  1.00  0.00     0.163 HD
BRANCH   5   8
ATOM      8  C   UNL A   1      32.302  25.234  23.281  1.00  0.00     0.090 A 
ATOM      9  C   UNL A   1      31.390  23.961  26.524  1.00  0.00     0.174 C 
ATOM     10  N   UNL A   1      31.682  24.220  25.132  1.00  0.00    -0.262 N 
ATOM     11  N   UNL A   1      30.744  23.853  24.240  1.00  0.00    -0.180 NA
ATOM     12  C   UNL A   1      32.727  24.930  24.579  1.00  0.00     0.139 A 
ATOM     13  C   UNL A   1      31.073  24.542  23.151  1.00  0.00     0.149 A 
BRANCH  12  14
ATOM     14  C   UNL A   1      33.860  25.470  25.283  1.00  0.00     0.275 C 
ATOM     15  O   UNL A   1      33.781  26.544  25.883  1.00  0.00    -0.267 OA
ATOM     16  N   UNL A   1      35.091  24.863  25.302  1.00  0.00    -0.305 N 
ATOM     17  H   UNL A   1      35.851  25.477  25.427  1.00  0.00     0.171 HD
BRANCH  16  18
ATOM     18  C   UNL A   1      35.443  23.527  25.174  1.00  0.00     0.132 A 
ATOM     19  C   UNL A   1      34.902  22.480  25.901  1.00  0.00     0.047 A 
ATOM     20  N   UNL A   1      36.442  23.362  24.282  1.00  0.00    -0.239 NA
ATOM     21  C   UNL A   1      35.478  21.214  25.748  1.00  0.00     0.005 A 
ATOM     22  C   UNL A   1      37.005  22.145  24.182  1.00  0.00     0.113 A 
ATOM     23  C   UNL A   1      36.569  21.048  24.897  1.00  0.00     0.020 A 
ENDBRANCH  16  18
ENDBRANCH  12  14
ENDBRANCH   5   8
ENDBRANCH   3   4
ENDBRANCH   2   3
ENDBRANCH   1   2
BRANCH   1  24
ATOM     24  C   UNL A   1      32.395  30.082  26.459  1.00  0.00     0.116 C 
BRANCH  24  25
ATOM     25  N   UNL A   1      32.372  31.503  26.787  1.00  0.00    -0.352 N 
ATOM     26  C   UNL A   1      33.307  32.269  27.443  1.00  0.00     0.251 C 
ATOM     27  H   UNL A   1      31.565  31.986  26.494  1.00  0.00     0.163 HD
ATOM     28  O   UNL A   1      33.070  33.449  27.694  1.00  0.00    -0.269 OA
BRANCH  26  29
ATOM     29  C   UNL A   1      34.579  31.660  27.887  1.00  0.00     0.039 A 
ATOM     30  C   UNL A   1      35.716  32.465  27.997  1.00  0.00     0.014 A 
ATOM     31  C   UNL A   1      34.637  30.311  28.247  1.00  0.00     0.014 A 
ATOM     32  C   UNL A   1      36.882  31.942  28.562  1.00  0.00     0.010 A 
ATOM     33  C   UNL A   1      35.767  29.820  28.891  1.00  0.00     0.010 A 
ATOM     34  C   UNL A   1      36.901  30.630  29.063  1.00  0.00    -0.014 A 
BRANCH  34  35
ATOM     35  C   UNL A   1      38.076  30.094  29.798  1.00  0.00     0.031 A 
ATOM     36  C   UNL A   1      38.376  30.565  31.196  1.00  0.00     0.074 A 
ATOM     37  C   UNL A   1      38.939  29.270  29.169  1.00  0.00     0.049 A 
ATOM     38  N   UNL A   1      39.395  30.275  31.963  1.00  0.00    -0.248 NA
ATOM     39  C   UNL A   1      37.424  31.513  31.798  1.00  0.00     0.031 C 
ATOM     40  C   UNL A   1      38.817  28.816  27.781  1.00  0.00     0.029 A 
ATOM     41  N   UNL A   1      40.107  28.692  29.603  1.00  0.00    -0.354 N 
ATOM     42  C   UNL A   1      39.230  31.034  33.116  1.00  0.00     0.074 A 
ATOM     43  C   UNL A   1      38.034  31.828  32.931  1.00  0.00     0.031 C 
ATOM     44  C   UNL A   1      39.863  28.030  27.480  1.00  0.00     0.029 A 
ATOM     45  C   UNL A   1      40.745  27.944  28.639  1.00  0.00     0.049 A 
ATOM     46  H   UNL A   1      40.456  28.804  30.517  1.00  0.00     0.167 HD
ATOM     47  C   UNL A   1      39.983  31.047  34.242  1.00  0.00     0.034 A 
ATOM     48  C   UNL A   1      41.909  27.267  28.684  1.00  0.00     0.034 A 
ATOM     49  C   UNL A   1      41.139  30.217  34.444  1.00  0.00     0.049 A 
ATOM     50  C   UNL A   1      42.695  27.244  29.968  1.00  0.00     0.074 A 
ATOM     51  C   UNL A   1      41.911  30.080  35.586  1.00  0.00     0.029 A 
ATOM     52  N   UNL A   1      41.693  29.385  33.484  1.00  0.00    -0.354 N 
ATOM     53  N   UNL A   1      42.427  27.834  31.107  1.00  0.00    -0.248 NA
ATOM     54  C   UNL A   1      43.919  26.430  29.985  1.00  0.00     0.031 C 
ATOM     55  C   UNL A   1      42.941  29.174  35.309  1.00  0.00     0.029 A 
ATOM     56  C   UNL A   1      42.799  28.733  34.003  1.00  0.00     0.049 A 
ATOM     57  H   UNL A   1      41.351  29.273  32.568  1.00  0.00     0.167 HD
ATOM     58  C   UNL A   1      43.429  27.438  31.986  1.00  0.00     0.074 A 
ATOM     59  C   UNL A   1      44.297  26.540  31.252  1.00  0.00     0.031 C 
ATOM     60  C   UNL A   1      43.622  27.799  33.279  1.00  0.00     0.034 A 
BRANCH  47  61
ATOM     61  C   UNL A   1      39.533  31.941  35.368  1.00  0.00     0.023 A 
ATOM     62  C   UNL A   1      39.897  33.303  35.357  1.00  0.00     0.012 A 
ATOM     63  C   UNL A   1      38.724  31.451  36.411  1.00  0.00     0.148 A 
ATOM     64  C   UNL A   1      39.500  34.155  36.387  1.00  0.00     0.002 A 
ATOM     65  C   UNL A   1      38.293  32.317  37.411  1.00  0.00     0.091 A 
ATOM     66  F   UNL A   1      38.405  30.149  36.418  1.00  0.00    -0.205 F 
ATOM     67  C   UNL A   1      38.691  33.664  37.407  1.00  0.00     0.022 A 
BRANCH  65  68
ATOM     68  S   UNL A   1      37.183  31.799  38.724  1.00  0.00     0.127 S 
ATOM     69  O   UNL A   1      36.877  30.426  38.327  1.00  0.00    -0.237 OA
ATOM     70  O   UNL A   1      38.031  31.915  39.911  1.00  0.00    -0.237 OA
ATOM     71  O   UNL A   1      36.062  32.729  38.689  1.00  0.00    -0.744 OA
ENDBRANCH  65  68
ENDBRANCH  47  61
BRANCH  48  72
ATOM     72  C   UNL A   1      42.360  26.489  27.494  1.00  0.00     0.023 A 
ATOM     73  C   UNL A   1      43.147  27.124  26.515  1.00  0.00     0.012 A 
ATOM     74  C   UNL A   1      42.054  25.122  27.349  1.00  0.00     0.148 A 
ATOM     75  C   UNL A   1      43.598  26.422  25.396  1.00  0.00     0.002 A 
ATOM     76  C   UNL A   1      42.551  24.414  26.259  1.00  0.00     0.091 A 
ATOM     77  F   UNL A   1      41.294  24.538  28.286  1.00  0.00    -0.205 F 
ATOM     78  C   UNL A   1      43.309  25.065  25.274  1.00  0.00     0.022 A 
BRANCH  76  79
ATOM     79  S   UNL A   1      42.343  22.637  26.087  1.00  0.00     0.127 S 
ATOM     80  O   UNL A   1      43.035  22.140  27.273  1.00  0.00    -0.237 OA
ATOM     81  O   UNL A   1      40.887  22.499  26.119  1.00  0.00    -0.237 OA
ATOM     82  O   UNL A   1      42.950  22.294  24.808  1.00  0.00    -0.744 OA
ENDBRANCH  76  79
ENDBRANCH  48  72
BRANCH  60  83
ATOM     83  C   UNL A   1      44.799  27.201  34.004  1.00  0.00     0.023 A 
ATOM     84  C   UNL A   1      46.044  27.861  33.978  1.00  0.00     0.012 A 
ATOM     85  C   UNL A   1      44.650  26.035  34.779  1.00  0.00     0.148 A 
ATOM     86  C   UNL A   1      47.130  27.351  34.688  1.00  0.00     0.002 A 
ATOM     87  C   UNL A   1      45.724  25.559  35.521  1.00  0.00     0.091 A 
ATOM     88  F   UNL A   1      43.463  25.410  34.776  1.00  0.00    -0.205 F 
ATOM     89  C   UNL A   1      46.968  26.210  35.469  1.00  0.00     0.022 A 
BRANCH  87  90
ATOM     90  S   UNL A   1      45.579  24.152  36.629  1.00  0.00     0.127 S 
ATOM     91  O   UNL A   1      44.576  24.625  37.581  1.00  0.00    -0.237 OA
ATOM     92  O   UNL A   1      45.116  23.093  35.731  1.00  0.00    -0.237 OA
ATOM     93  O   UNL A   1      46.911  23.935  37.178  1.00  0.00    -0.744 OA
ENDBRANCH  87  90
ENDBRANCH  60  83
ENDBRANCH  34  35
ENDBRANCH  26  29
ENDBRANCH  24  25
ENDBRANCH   1  24
TORSDOF 16
ENDMDL
MODEL 2
REMARK VINA RESULT:     -12.1      1.624      2.910
REMARK SMILES Cn1ncc(C(=O)NCCCCNC(=O)c2ccc(-c3c4nc(c(-c5cccc(S(=O)(=O)[O-])c5F)c5ccc([nH]5)c(-c5cccc(S(=O)(=O)[O-])c5F)c5nc(c(-c6cccc(S(=O)(=O)[O-])c6F)c6ccc3[nH]6)C=C5)C=C4)cc2)c1C(=O)Nc1ccccn1
REMARK SMILES IDX 11 1 10 2 9 3 8 4 6 5 7 6 5 8 1 9 2 10 3 11 79 12 4 13 80 14
REMARK SMILES IDX 81 15 82 16 83 18 84 19 88 20 85 21 87 22 86 23 12 24 13 25
REMARK SMILES IDX 14 26 15 28 16 29 17 30 78 31 18 32 77 33 19 34 20 35 21 36
REMARK SMILES IDX 71 37 22 38 76 39 70 40 72 41 23 42 75 43 69 44 68 45 24 47
REMARK SMILES IDX 56 48 36 49 55 50 37 51 40 52 54 53 73 54 38 55 39 56 53 58
REMARK SMILES IDX 74 59 41 60 25 61 26 62 34 63 27 64 29 65 35 66 28 67 30 68
REMARK SMILES IDX 31 69 32 70 33 71 57 72 58 73 66 74 59 75 61 76 67 77 60 78
REMARK SMILES IDX 62 79 63 80 64 81 65 82 42 83 43 84 51 85 44 86 46 87 52 88
REMARK SMILES IDX 45 89 47 90 48 91 49 92 50 93
REMARK H PARENT 8 7 82 17 13 27 72 46 40 57
REMARK Flexibility Score: inf
ROOT
ATOM      1  C   UNL A   1      31.452  29.054  26.374  1.00  0.00     0.023 C 
ENDROOT
BRANCH   1   2
ATOM      2  C   UNL A   1      31.724  27.778  27.166  1.00  0.00     0.023 C 
BRANCH   2   3
ATOM      3  C   UNL A   1      32.188  26.567  26.367  1.00  0.00     0.116 C 
BRANCH   3   4
ATOM      4  N   UNL A   1      31.422  25.368  26.612  1.00  0.00    -0.352 N 
ATOM      5  C   UNL A   1      31.703  24.046  26.382  1.00  0.00     0.255 C 
ATOM      6  O   UNL A   1      30.814  23.238  26.658  1.00  0.00    -0.269 OA
ATOM      7  H   UNL A   1      30.539  25.529  27.017  1.00  0.00     0.163 HD
BRANCH   5   8
ATOM      8  C   UNL A   1      32.945  23.571  25.780  1.00  0.00     0.090 A 
ATOM      9  C   UNL A   1      35.557  23.032  23.359  1.00  0.00     0.174 C 
ATOM     10  N   UNL A   1      34.654  23.072  24.489  1.00  0.00    -0.262 N 
ATOM     11  N   UNL A   1      35.213  23.243  25.701  1.00  0.00    -0.180 NA
ATOM     12  C   UNL A   1      33.276  23.110  24.501  1.00  0.00     0.139 A 
ATOM     13  C   UNL A   1      34.189  23.634  26.455  1.00  0.00     0.149 A 
BRANCH  12  14
ATOM     14  C   UNL A   1      32.408  22.979  23.361  1.00  0.00     0.275 C 
ATOM     15  O   UNL A   1      31.886  21.899  23.081  1.00  0.00    -0.267 OA
ATOM     16  N   UNL A   1      32.140  24.014  22.499  1.00  0.00    -0.305 N 
ATOM     17  H   UNL A   1      31.912  23.737  21.582  1.00  0.00     0.171 HD
BRANCH  16  18
ATOM     18  C   UNL A   1      32.139  25.386  22.705  1.00  0.00     0.132 A 
ATOM     19  C   UNL A   1      31.018  26.160  22.957  1.00  0.00     0.047 A 
ATOM     20  N   UNL A   1      33.375  25.908  22.568  1.00  0.00    -0.239 NA
ATOM     21  C   UNL A   1      31.180  27.549  22.994  1.00  0.00     0.005 A 
ATOM     22  C   UNL A   1      33.499  27.247  22.568  1.00  0.00     0.113 A 
ATOM     23  C   UNL A   1      32.436  28.106  22.764  1.00  0.00     0.020 A 
ENDBRANCH  16  18
ENDBRANCH  12  14
ENDBRANCH   5   8
ENDBRANCH   3   4
ENDBRANCH   2   3
ENDBRANCH   1   2
BRANCH   1  24
ATOM     24  C   UNL A   1      32.655  29.941  26.073  1.00  0.00     0.116 C 
BRANCH  24  25
ATOM     25  N   UNL A   1      32.508  31.316  26.535  1.00  0.00    -0.352 N 
ATOM     26  C   UNL A   1      33.344  32.072  27.325  1.00  0.00     0.251 C 
ATOM     27  H   UNL A   1      31.689  31.773  26.235  1.00  0.00     0.163 HD
ATOM     28  O   UNL A   1      33.006  33.202  27.672  1.00  0.00    -0.269 OA
BRANCH  26  29
ATOM     29  C   UNL A   1      34.626  31.506  27.795  1.00  0.00     0.039 A 
ATOM     30  C   UNL A   1      35.710  32.362  28.005  1.00  0.00     0.014 A 
ATOM     31  C   UNL A   1      34.743  30.143  28.080  1.00  0.00     0.014 A 
ATOM     32  C   UNL A   1      36.876  31.870  28.596  1.00  0.00     0.010 A 
ATOM     33  C   UNL A   1      35.868  29.676  28.749  1.00  0.00     0.010 A 
ATOM     34  C   UNL A   1      36.946  30.533  29.022  1.00  0.00    -0.014 A 
BRANCH  34  35
ATOM     35  C   UNL A   1      38.115  30.018  29.781  1.00  0.00     0.031 A 
ATOM     36  C   UNL A   1      38.372  30.487  31.188  1.00  0.00     0.074 A 
ATOM     37  C   UNL A   1      39.009  29.215  29.168  1.00  0.00     0.049 A 
ATOM     38  N   UNL A   1      39.379  30.214  31.978  1.00  0.00    -0.248 NA
ATOM     39  C   UNL A   1      37.386  31.412  31.773  1.00  0.00     0.031 C 
ATOM     40  C   UNL A   1      38.929  28.767  27.775  1.00  0.00     0.029 A 
ATOM     41  N   UNL A   1      40.179  28.660  29.626  1.00  0.00    -0.354 N 
ATOM     42  C   UNL A   1      39.170  30.963  33.130  1.00  0.00     0.074 A 
ATOM     43  C   UNL A   1      37.963  31.733  32.921  1.00  0.00     0.031 C 
ATOM     44  C   UNL A   1      39.998  28.005  27.496  1.00  0.00     0.029 A 
ATOM     45  C   UNL A   1      40.855  27.931  28.675  1.00  0.00     0.049 A 
ATOM     46  H   UNL A   1      40.504  28.774  30.549  1.00  0.00     0.167 HD
ATOM     47  C   UNL A   1      39.897  30.985  34.273  1.00  0.00     0.034 A 
ATOM     48  C   UNL A   1      42.032  27.278  28.742  1.00  0.00     0.034 A 
ATOM     49  C   UNL A   1      41.065  30.179  34.499  1.00  0.00     0.049 A 
ATOM     50  C   UNL A   1      42.787  27.264  30.044  1.00  0.00     0.074 A 
ATOM     51  C   UNL A   1      41.813  30.052  35.657  1.00  0.00     0.029 A 
ATOM     52  N   UNL A   1      41.659  29.364  33.548  1.00  0.00    -0.354 N 
ATOM     53  N   UNL A   1      42.481  27.842  31.180  1.00  0.00    -0.248 NA
ATOM     54  C   UNL A   1      44.028  26.477  30.087  1.00  0.00     0.031 C 
ATOM     55  C   UNL A   1      42.868  29.170  35.400  1.00  0.00     0.029 A 
ATOM     56  C   UNL A   1      42.766  28.733  34.089  1.00  0.00     0.049 A 
ATOM     57  H   UNL A   1      41.341  29.250  32.623  1.00  0.00     0.167 HD
ATOM     58  C   UNL A   1      43.470  27.463  32.081  1.00  0.00     0.074 A 
ATOM     59  C   UNL A   1      44.374  26.587  31.362  1.00  0.00     0.031 C 
ATOM     60  C   UNL A   1      43.625  27.820  33.380  1.00  0.00     0.034 A 
BRANCH  47  61
ATOM     61  C   UNL A   1      39.402  31.863  35.394  1.00  0.00     0.023 A 
ATOM     62  C   UNL A   1      38.499  31.335  36.339  1.00  0.00     0.012 A 
ATOM     63  C   UNL A   1      39.854  33.189  35.537  1.00  0.00     0.148 A 
ATOM     64  C   UNL A   1      38.020  32.123  37.384  1.00  0.00     0.002 A 
ATOM     65  C   UNL A   1      39.408  33.955  36.609  1.00  0.00     0.091 A 
ATOM     66  F   UNL A   1      40.696  33.683  34.618  1.00  0.00    -0.205 F 
ATOM     67  C   UNL A   1      38.482  33.429  37.524  1.00  0.00     0.022 A 
BRANCH  65  68
ATOM     68  S   UNL A   1      40.006  35.619  36.921  1.00  0.00     0.127 S 
ATOM     69  O   UNL A   1      39.338  35.941  38.181  1.00  0.00    -0.237 OA
ATOM     70  O   UNL A   1      41.451  35.413  37.035  1.00  0.00    -0.237 OA
ATOM     71  O   UNL A   1      39.598  36.413  35.770  1.00  0.00    -0.744 OA
ENDBRANCH  65  68
ENDBRANCH  47  61
BRANCH  48  72
ATOM     72  C   UNL A   1      42.526  26.516  27.560  1.00  0.00     0.023 A 
ATOM     73  C   UNL A   1      43.396  27.147  26.650  1.00  0.00     0.012 A 
ATOM     74  C   UNL A   1      42.179  25.167  27.355  1.00  0.00     0.148 A 
ATOM     75  C   UNL A   1      43.889  26.460  25.541  1.00  0.00     0.002 A 
ATOM     76  C   UNL A   1      42.716  24.471  26.277  1.00  0.00     0.091 A 
ATOM     77  F   UNL A   1      41.341  24.588  28.226  1.00  0.00    -0.205 F 
ATOM     78  C   UNL A   1      43.558  25.119  25.361  1.00  0.00     0.022 A 
BRANCH  76  79
ATOM     79  S   UNL A   1      42.454  22.709  26.039  1.00  0.00     0.127 S 
ATOM     80  O   UNL A   1      43.050  22.494  24.723  1.00  0.00    -0.237 OA
ATOM     81  O   UNL A   1      43.205  22.138  27.158  1.00  0.00    -0.237 OA
ATOM     82  O   UNL A   1      41.013  22.513  26.122  1.00  0.00    -0.744 OA
ENDBRANCH  76  79
ENDBRANCH  48  72
BRANCH  60  83
ATOM     83  C   UNL A   1      44.797  27.243  34.129  1.00  0.00     0.023 A 
ATOM     84  C   UNL A   1      46.048  27.889  34.073  1.00  0.00     0.012 A 
ATOM     85  C   UNL A   1      44.638  26.112  34.953  1.00  0.00     0.148 A 
ATOM     86  C   UNL A   1      47.131  27.401  34.804  1.00  0.00     0.002 A 
ATOM     87  C   UNL A   1      45.709  25.659  35.715  1.00  0.00     0.091 A 
ATOM     88  F   UNL A   1      43.445  25.500  34.978  1.00  0.00    -0.205 F 
ATOM     89  C   UNL A   1      46.959  26.295  35.633  1.00  0.00     0.022 A 
BRANCH  87  90
ATOM     90  S   UNL A   1      45.552  24.302  36.882  1.00  0.00     0.127 S 
ATOM     91  O   UNL A   1      45.293  23.172  35.991  1.00  0.00    -0.237 OA
ATOM     92  O   UNL A   1      46.868  24.285  37.521  1.00  0.00    -0.237 OA
ATOM     93  O   UNL A   1      44.455  24.664  37.771  1.00  0.00    -0.744 OA
ENDBRANCH  87  90
ENDBRANCH  60  83
ENDBRANCH  34  35
ENDBRANCH  26  29
ENDBRANCH  24  25
ENDBRANCH   1  24
TORSDOF 16
ENDMDL
MODEL 3
REMARK VINA RESULT:     -12.1      1.936      7.985
REMARK SMILES Cn1ncc(C(=O)NCCCCNC(=O)c2ccc(-c3c4nc(c(-c5cccc(S(=O)(=O)[O-])c5F)c5ccc([nH]5)c(-c5cccc(S(=O)(=O)[O-])c5F)c5nc(c(-c6cccc(S(=O)(=O)[O-])c6F)c6ccc3[nH]6)C=C5)C=C4)cc2)c1C(=O)Nc1ccccn1
REMARK SMILES IDX 11 1 10 2 9 3 8 4 6 5 7 6 5 8 1 9 2 10 3 11 79 12 4 13 80 14
REMARK SMILES IDX 81 15 82 16 83 18 84 19 88 20 85 21 87 22 86 23 12 24 13 25
REMARK SMILES IDX 14 26 15 28 16 29 17 30 78 31 18 32 77 33 19 34 20 35 21 36
REMARK SMILES IDX 71 37 22 38 76 39 70 40 72 41 23 42 75 43 69 44 68 45 24 47
REMARK SMILES IDX 56 48 36 49 55 50 37 51 40 52 54 53 73 54 38 55 39 56 53 58
REMARK SMILES IDX 74 59 41 60 25 61 26 62 34 63 27 64 29 65 35 66 28 67 30 68
REMARK SMILES IDX 31 69 32 70 33 71 57 72 58 73 66 74 59 75 61 76 67 77 60 78
REMARK SMILES IDX 62 79 63 80 64 81 65 82 42 83 43 84 51 85 44 86 46 87 52 88
REMARK SMILES IDX 45 89 47 90 48 91 49 92 50 93
REMARK H PARENT 8 7 82 17 13 27 72 46 40 57
REMARK Flexibility Score: inf
ROOT
ATOM      1  C   UNL A   1      31.592  27.948  25.616  1.00  0.00     0.023 C 
ENDROOT
BRANCH   1   2
ATOM      2  C   UNL A   1      31.899  26.753  26.514  1.00  0.00     0.023 C 
BRANCH   2   3
ATOM      3  C   UNL A   1      32.194  25.433  25.814  1.00  0.00     0.116 C 
BRANCH   3   4
ATOM      4  N   UNL A   1      31.186  24.419  26.013  1.00  0.00    -0.352 N 
ATOM      5  C   UNL A   1      31.285  23.070  26.237  1.00  0.00     0.255 C 
ATOM      6  O   UNL A   1      30.224  22.448  26.321  1.00  0.00    -0.269 OA
ATOM      7  H   UNL A   1      30.262  24.758  25.984  1.00  0.00     0.163 HD
BRANCH   5   8
ATOM      8  C   UNL A   1      32.550  22.348  26.309  1.00  0.00     0.090 A 
ATOM      9  C   UNL A   1      35.707  20.921  25.323  1.00  0.00     0.174 C 
ATOM     10  N   UNL A   1      34.486  21.362  25.960  1.00  0.00    -0.262 N 
ATOM     11  N   UNL A   1      34.598  21.846  27.210  1.00  0.00    -0.180 NA
ATOM     12  C   UNL A   1      33.225  21.503  25.420  1.00  0.00     0.139 A 
ATOM     13  C   UNL A   1      33.463  22.518  27.380  1.00  0.00     0.149 A 
BRANCH  12  14
ATOM     14  C   UNL A   1      32.811  21.102  24.101  1.00  0.00     0.275 C 
ATOM     15  O   UNL A   1      32.662  21.933  23.203  1.00  0.00    -0.267 OA
ATOM     16  N   UNL A   1      32.519  19.802  23.769  1.00  0.00    -0.305 N 
ATOM     17  H   UNL A   1      31.874  19.701  23.032  1.00  0.00     0.171 HD
BRANCH  16  18
ATOM     18  C   UNL A   1      32.980  18.607  24.302  1.00  0.00     0.132 A 
ATOM     19  C   UNL A   1      34.105  17.919  23.877  1.00  0.00     0.047 A 
ATOM     20  N   UNL A   1      32.156  18.143  25.263  1.00  0.00    -0.239 NA
ATOM     21  C   UNL A   1      34.341  16.654  24.426  1.00  0.00     0.005 A 
ATOM     22  C   UNL A   1      32.382  16.909  25.747  1.00  0.00     0.113 A 
ATOM     23  C   UNL A   1      33.448  16.125  25.355  1.00  0.00     0.020 A 
ENDBRANCH  16  18
ENDBRANCH  12  14
ENDBRANCH   5   8
ENDBRANCH   3   4
ENDBRANCH   2   3
ENDBRANCH   1   2
BRANCH   1  24
ATOM     24  C   UNL A   1      32.658  29.035  25.537  1.00  0.00     0.116 C 
BRANCH  24  25
ATOM     25  N   UNL A   1      32.219  30.334  26.032  1.00  0.00    -0.352 N 
ATOM     26  C   UNL A   1      32.849  31.208  26.888  1.00  0.00     0.251 C 
ATOM     27  H   UNL A   1      31.339  30.631  25.704  1.00  0.00     0.163 HD
ATOM     28  O   UNL A   1      32.278  32.234  27.251  1.00  0.00    -0.269 OA
BRANCH  26  29
ATOM     29  C   UNL A   1      34.196  30.889  27.407  1.00  0.00     0.039 A 
ATOM     30  C   UNL A   1      35.103  31.929  27.626  1.00  0.00     0.014 A 
ATOM     31  C   UNL A   1      34.544  29.575  27.728  1.00  0.00     0.014 A 
ATOM     32  C   UNL A   1      36.320  31.663  28.261  1.00  0.00     0.010 A 
ATOM     33  C   UNL A   1      35.713  29.327  28.439  1.00  0.00     0.010 A 
ATOM     34  C   UNL A   1      36.612  30.369  28.721  1.00  0.00    -0.014 A 
BRANCH  34  35
ATOM     35  C   UNL A   1      37.829  30.084  29.525  1.00  0.00     0.031 A 
ATOM     36  C   UNL A   1      38.867  29.120  29.015  1.00  0.00     0.074 A 
ATOM     37  C   UNL A   1      37.948  30.604  30.764  1.00  0.00     0.049 A 
ATOM     38  N   UNL A   1      39.949  28.685  29.606  1.00  0.00    -0.248 NA
ATOM     39  C   UNL A   1      38.640  28.542  27.679  1.00  0.00     0.031 C 
ATOM     40  C   UNL A   1      36.965  31.473  31.415  1.00  0.00     0.029 A 
ATOM     41  N   UNL A   1      38.932  30.451  31.710  1.00  0.00    -0.354 N 
ATOM     42  C   UNL A   1      40.508  27.755  28.737  1.00  0.00     0.074 A 
ATOM     43  C   UNL A   1      39.624  27.659  27.596  1.00  0.00     0.031 C 
ATOM     44  C   UNL A   1      37.397  31.778  32.650  1.00  0.00     0.029 A 
ATOM     45  C   UNL A   1      38.670  31.108  32.891  1.00  0.00     0.049 A 
ATOM     46  H   UNL A   1      39.747  29.920  31.559  1.00  0.00     0.167 HD
ATOM     47  C   UNL A   1      41.669  27.067  28.858  1.00  0.00     0.034 A 
ATOM     48  C   UNL A   1      39.373  31.163  34.039  1.00  0.00     0.034 A 
ATOM     49  C   UNL A   1      42.573  27.205  29.967  1.00  0.00     0.049 A 
ATOM     50  C   UNL A   1      40.692  30.442  34.125  1.00  0.00     0.074 A 
ATOM     51  C   UNL A   1      43.821  26.630  30.136  1.00  0.00     0.029 A 
ATOM     52  N   UNL A   1      42.326  27.968  31.097  1.00  0.00    -0.354 N 
ATOM     53  N   UNL A   1      41.287  29.703  33.220  1.00  0.00    -0.248 NA
ATOM     54  C   UNL A   1      41.455  30.594  35.372  1.00  0.00     0.031 C 
ATOM     55  C   UNL A   1      44.323  27.036  31.378  1.00  0.00     0.029 A 
ATOM     56  C   UNL A   1      43.396  27.878  31.972  1.00  0.00     0.049 A 
ATOM     57  H   UNL A   1      41.511  28.496  31.256  1.00  0.00     0.167 HD
ATOM     58  C   UNL A   1      42.507  29.329  33.773  1.00  0.00     0.074 A 
ATOM     59  C   UNL A   1      42.574  29.943  35.085  1.00  0.00     0.031 C 
ATOM     60  C   UNL A   1      43.475  28.538  33.250  1.00  0.00     0.034 A 
BRANCH  47  61
ATOM     61  C   UNL A   1      42.057  26.154  27.723  1.00  0.00     0.023 A 
ATOM     62  C   UNL A   1      42.874  26.649  26.686  1.00  0.00     0.012 A 
ATOM     63  C   UNL A   1      41.652  24.806  27.699  1.00  0.00     0.148 A 
ATOM     64  C   UNL A   1      43.246  25.831  25.621  1.00  0.00     0.002 A 
ATOM     65  C   UNL A   1      42.066  23.982  26.657  1.00  0.00     0.091 A 
ATOM     66  F   UNL A   1      40.858  24.356  28.682  1.00  0.00    -0.205 F 
ATOM     67  C   UNL A   1      42.851  24.496  25.612  1.00  0.00     0.022 A 
BRANCH  65  68
ATOM     68  S   UNL A   1      41.677  22.231  26.598  1.00  0.00     0.127 S 
ATOM     69  O   UNL A   1      42.364  21.817  25.376  1.00  0.00    -0.237 OA
ATOM     70  O   UNL A   1      42.284  21.736  27.834  1.00  0.00    -0.237 OA
ATOM     71  O   UNL A   1      40.223  22.145  26.563  1.00  0.00    -0.744 OA
ENDBRANCH  65  68
ENDBRANCH  47  61
BRANCH  48  72
ATOM     72  C   UNL A   1      38.880  31.997  35.172  1.00  0.00     0.023 A 
ATOM     73  C   UNL A   1      38.899  33.400  35.052  1.00  0.00     0.012 A 
ATOM     74  C   UNL A   1      38.353  31.414  36.341  1.00  0.00     0.148 A 
ATOM     75  C   UNL A   1      38.432  34.210  36.088  1.00  0.00     0.002 A 
ATOM     76  C   UNL A   1      37.839  32.226  37.347  1.00  0.00     0.091 A 
ATOM     77  F   UNL A   1      38.353  30.078  36.440  1.00  0.00    -0.205 F 
ATOM     78  C   UNL A   1      37.892  33.624  37.230  1.00  0.00     0.022 A 
BRANCH  76  79
ATOM     79  S   UNL A   1      37.005  31.561  38.792  1.00  0.00     0.127 S 
ATOM     80  O   UNL A   1      37.998  31.782  39.840  1.00  0.00    -0.237 OA
ATOM     81  O   UNL A   1      35.819  32.414  38.876  1.00  0.00    -0.237 OA
ATOM     82  O   UNL A   1      36.719  30.168  38.473  1.00  0.00    -0.744 OA
ENDBRANCH  76  79
ENDBRANCH  48  72
BRANCH  60  83
ATOM     83  C   UNL A   1      44.713  28.308  34.076  1.00  0.00     0.023 A 
ATOM     84  C   UNL A   1      45.781  29.224  34.005  1.00  0.00     0.012 A 
ATOM     85  C   UNL A   1      44.783  27.232  34.983  1.00  0.00     0.148 A 
ATOM     86  C   UNL A   1      46.912  29.056  34.804  1.00  0.00     0.002 A 
ATOM     87  C   UNL A   1      45.893  27.098  35.808  1.00  0.00     0.091 A 
ATOM     88  F   UNL A   1      43.765  26.360  35.021  1.00  0.00    -0.205 F 
ATOM     89  C   UNL A   1      46.963  28.003  35.713  1.00  0.00     0.022 A 
BRANCH  87  90
ATOM     90  S   UNL A   1      46.000  25.828  37.075  1.00  0.00     0.127 S 
ATOM     91  O   UNL A   1      47.308  26.107  37.666  1.00  0.00    -0.237 OA
ATOM     92  O   UNL A   1      44.862  26.148  37.937  1.00  0.00    -0.237 OA
ATOM     93  O   UNL A   1      45.887  24.555  36.375  1.00  0.00    -0.744 OA
ENDBRANCH  87  90
ENDBRANCH  60  83
ENDBRANCH  34  35
ENDBRANCH  26  29
ENDBRANCH  24  25
ENDBRANCH   1  24
TORSDOF 16
ENDMDL
