MODEL 1
REMARK VINA RESULT:     -13.4      0.000      0.000
REMARK SMILES O=C(NCCCCNC(=O)[C@@]12C[C@H]3C[C@@H](C1)C[C@](n1cc([N+](=O)[O-])cn1)(C3)C2)c1ccc(-c2c3nc(c(-c4cccc(S(=O)(=O)[O-])c4F)c4ccc([nH]4)c(-c4cccc(S(=O)(=O)[O-])c4F)c4nc(c(-c5cccc(S(=O)(=O)[O-])c5F)c5ccc2[nH]5)C=C4)C=C3)cc1
REMARK SMILES IDX 5 1 4 2 3 3 1 4 2 5 29 7 30 8 91 9 31 10 90 11 32 12 33 13
REMARK SMILES IDX 34 14 84 15 35 16 89 17 83 18 85 19 36 20 88 21 82 22 81 23
REMARK SMILES IDX 37 25 69 26 49 27 68 28 50 29 53 30 67 31 86 32 51 33 52 34
REMARK SMILES IDX 66 36 87 37 54 38 38 39 39 40 47 41 40 42 42 43 48 44 41 45
REMARK SMILES IDX 43 46 44 47 45 48 46 49 70 50 71 51 79 52 72 53 74 54 80 55
REMARK SMILES IDX 73 56 75 57 76 58 77 59 78 60 55 61 56 62 64 63 57 64 59 65
REMARK SMILES IDX 65 66 58 67 60 68 61 69 62 70 63 71 6 72 7 73 8 74 9 75
REMARK SMILES IDX 10 77 11 78 12 79 16 80 28 81 13 82 15 83 18 84 14 85 27 86
REMARK SMILES IDX 17 87 19 88 20 89 26 90 21 91 25 92 22 93 23 94 24 95
REMARK H PARENT 3 6 85 24 53 35 8 76
REMARK Flexibility Score: inf
ROOT
ATOM      1  C   UNL A   1      32.527  29.252  26.600  1.00  0.00     0.023 C 
ENDROOT
BRANCH   1   2
ATOM      2  C   UNL A   1      33.913  29.533  27.195  1.00  0.00     0.116 C 
BRANCH   2   3
ATOM      3  N   UNL A   1      34.241  30.936  27.355  1.00  0.00    -0.352 N 
ATOM      4  O   UNL A   1      35.301  32.848  27.671  1.00  0.00    -0.269 OA
ATOM      5  C   UNL A   1      35.375  31.617  27.698  1.00  0.00     0.251 C 
ATOM      6  H   UNL A   1      33.476  31.530  27.177  1.00  0.00     0.163 HD
BRANCH   5   7
ATOM      7  C   UNL A   1      36.627  30.967  28.161  1.00  0.00     0.039 A 
ATOM      8  C   UNL A   1      37.631  31.609  28.885  1.00  0.00     0.014 A 
ATOM      9  C   UNL A   1      36.808  29.622  27.799  1.00  0.00     0.014 A 
ATOM     10  C   UNL A   1      38.850  30.993  29.099  1.00  0.00     0.010 A 
ATOM     11  C   UNL A   1      38.003  28.972  28.074  1.00  0.00     0.010 A 
ATOM     12  C   UNL A   1      39.038  29.682  28.675  1.00  0.00    -0.014 A 
BRANCH  12  13
ATOM     13  C   UNL A   1      40.309  29.063  29.018  1.00  0.00     0.031 A 
ATOM     14  C   UNL A   1      40.509  28.806  30.473  1.00  0.00     0.074 A 
ATOM     15  C   UNL A   1      41.184  28.647  28.085  1.00  0.00     0.049 A 
ATOM     16  N   UNL A   1      41.454  29.236  31.246  1.00  0.00    -0.248 NA
ATOM     17  C   UNL A   1      39.449  28.064  31.175  1.00  0.00     0.031 C 
ATOM     18  C   UNL A   1      40.973  28.575  26.637  1.00  0.00     0.029 A 
ATOM     19  N   UNL A   1      42.391  28.042  28.259  1.00  0.00    -0.354 N 
ATOM     20  C   UNL A   1      41.223  28.639  32.487  1.00  0.00     0.074 A 
ATOM     21  C   UNL A   1      39.901  28.073  32.428  1.00  0.00     0.031 C 
ATOM     22  C   UNL A   1      41.875  27.722  26.109  1.00  0.00     0.029 A 
ATOM     23  C   UNL A   1      42.792  27.303  27.154  1.00  0.00     0.049 A 
ATOM     24  H   UNL A   1      42.924  28.121  29.084  1.00  0.00     0.167 HD
ATOM     25  C   UNL A   1      42.217  28.450  33.398  1.00  0.00     0.034 A 
ATOM     26  C   UNL A   1      43.733  26.331  27.139  1.00  0.00     0.034 A 
ATOM     27  C   UNL A   1      43.352  29.294  33.139  1.00  0.00     0.049 A 
ATOM     28  C   UNL A   1      44.587  26.506  28.334  1.00  0.00     0.074 A 
ATOM     29  C   UNL A   1      43.575  30.654  33.062  1.00  0.00     0.029 A 
ATOM     30  N   UNL A   1      44.464  28.701  32.593  1.00  0.00    -0.354 N 
ATOM     31  N   UNL A   1      45.385  27.521  28.514  1.00  0.00    -0.248 NA
ATOM     32  C   UNL A   1      44.267  25.743  29.529  1.00  0.00     0.031 C 
ATOM     33  C   UNL A   1      44.572  30.806  32.054  1.00  0.00     0.029 A 
ATOM     34  C   UNL A   1      44.913  29.530  31.602  1.00  0.00     0.049 A 
ATOM     35  H   UNL A   1      44.863  27.843  32.863  1.00  0.00     0.167 HD
ATOM     36  C   UNL A   1      45.312  27.786  29.874  1.00  0.00     0.074 A 
ATOM     37  C   UNL A   1      44.716  26.589  30.461  1.00  0.00     0.031 C 
ATOM     38  C   UNL A   1      45.471  29.056  30.355  1.00  0.00     0.034 A 
BRANCH  25  39
ATOM     39  C   UNL A   1      42.328  27.246  34.310  1.00  0.00     0.023 A 
ATOM     40  C   UNL A   1      41.919  27.410  35.654  1.00  0.00     0.012 A 
ATOM     41  C   UNL A   1      43.074  26.083  34.009  1.00  0.00     0.148 A 
ATOM     42  C   UNL A   1      42.298  26.509  36.655  1.00  0.00     0.002 A 
ATOM     43  C   UNL A   1      43.381  25.149  34.994  1.00  0.00     0.091 A 
ATOM     44  F   UNL A   1      43.619  25.925  32.800  1.00  0.00    -0.205 F 
ATOM     45  C   UNL A   1      43.027  25.374  36.325  1.00  0.00     0.022 A 
BRANCH  43  46
ATOM     46  S   UNL A   1      44.274  23.642  34.592  1.00  0.00     0.127 S 
ATOM     47  O   UNL A   1      44.371  23.007  35.910  1.00  0.00    -0.237 OA
ATOM     48  O   UNL A   1      43.348  22.984  33.661  1.00  0.00    -0.237 OA
ATOM     49  O   UNL A   1      45.514  24.077  33.988  1.00  0.00    -0.744 OA
ENDBRANCH  43  46
ENDBRANCH  25  39
BRANCH  26  50
ATOM     50  C   UNL A   1      43.766  25.103  26.315  1.00  0.00     0.023 A 
ATOM     51  C   UNL A   1      44.809  24.908  25.393  1.00  0.00     0.012 A 
ATOM     52  C   UNL A   1      42.916  24.010  26.607  1.00  0.00     0.148 A 
ATOM     53  C   UNL A   1      45.011  23.659  24.792  1.00  0.00     0.002 A 
ATOM     54  C   UNL A   1      43.110  22.779  25.994  1.00  0.00     0.091 A 
ATOM     55  F   UNL A   1      41.976  24.155  27.551  1.00  0.00    -0.205 F 
ATOM     56  C   UNL A   1      44.165  22.595  25.093  1.00  0.00     0.022 A 
BRANCH  54  57
ATOM     57  S   UNL A   1      42.054  21.364  26.339  1.00  0.00     0.127 S 
ATOM     58  O   UNL A   1      42.625  20.340  25.464  1.00  0.00    -0.237 OA
ATOM     59  O   UNL A   1      42.290  21.152  27.765  1.00  0.00    -0.237 OA
ATOM     60  O   UNL A   1      40.705  21.776  25.973  1.00  0.00    -0.744 OA
ENDBRANCH  54  57
ENDBRANCH  26  50
BRANCH  38  61
ATOM     61  C   UNL A   1      45.976  30.117  29.410  1.00  0.00     0.023 A 
ATOM     62  C   UNL A   1      47.356  30.353  29.230  1.00  0.00     0.012 A 
ATOM     63  C   UNL A   1      45.063  30.757  28.555  1.00  0.00     0.148 A 
ATOM     64  C   UNL A   1      47.814  31.229  28.244  1.00  0.00     0.002 A 
ATOM     65  C   UNL A   1      45.523  31.593  27.545  1.00  0.00     0.091 A 
ATOM     66  F   UNL A   1      43.755  30.512  28.727  1.00  0.00    -0.205 F 
ATOM     67  C   UNL A   1      46.898  31.840  27.392  1.00  0.00     0.022 A 
BRANCH  65  68
ATOM     68  S   UNL A   1      44.410  32.307  26.331  1.00  0.00     0.127 S 
ATOM     69  O   UNL A   1      43.525  31.185  26.030  1.00  0.00    -0.237 OA
ATOM     70  O   UNL A   1      43.783  33.397  27.081  1.00  0.00    -0.237 OA
ATOM     71  O   UNL A   1      45.254  32.755  25.230  1.00  0.00    -0.744 OA
ENDBRANCH  65  68
ENDBRANCH  38  61
ENDBRANCH  12  13
ENDBRANCH   5   7
ENDBRANCH   2   3
ENDBRANCH   1   2
BRANCH   1  72
ATOM     72  C   UNL A   1      31.806  28.040  27.188  1.00  0.00     0.023 C 
BRANCH  72  73
ATOM     73  C   UNL A   1      31.523  26.948  26.175  1.00  0.00     0.116 C 
BRANCH  73  74
ATOM     74  N   UNL A   1      31.077  25.753  26.850  1.00  0.00    -0.356 N 
ATOM     75  C   UNL A   1      31.160  24.458  26.495  1.00  0.00     0.226 C 
ATOM     76  H   UNL A   1      30.641  25.913  27.717  1.00  0.00     0.163 HD
ATOM     77  O   UNL A   1      30.492  23.668  27.169  1.00  0.00    -0.274 OA
BRANCH  75  78
ATOM     78  C   UNL A   1      32.058  23.995  25.345  1.00  0.00     0.052 C 
ATOM     79  C   UNL A   1      31.418  24.158  23.954  1.00  0.00     0.020 C 
ATOM     80  C   UNL A   1      33.477  24.612  25.404  1.00  0.00     0.020 C 
ATOM     81  C   UNL A   1      32.235  22.490  25.568  1.00  0.00     0.047 C 
ATOM     82  C   UNL A   1      32.338  23.544  22.877  1.00  0.00    -0.007 C 
ATOM     83  C   UNL A   1      34.366  24.042  24.289  1.00  0.00    -0.007 C 
ATOM     84  C   UNL A   1      33.186  21.824  24.547  1.00  0.00     0.065 C 
ATOM     85  C   UNL A   1      33.692  24.270  22.927  1.00  0.00     0.007 C 
ATOM     86  C   UNL A   1      32.545  22.032  23.146  1.00  0.00     0.034 C 
ATOM     87  C   UNL A   1      34.556  22.539  24.533  1.00  0.00     0.034 C 
BRANCH  84  88
ATOM     88  N   UNL A   1      33.316  20.419  24.995  1.00  0.00    -0.259 N 
ATOM     89  C   UNL A   1      32.495  19.425  24.473  1.00  0.00     0.195 A 
ATOM     90  N   UNL A   1      34.542  19.919  25.294  1.00  0.00    -0.173 NA
ATOM     91  C   UNL A   1      33.387  18.526  23.918  1.00  0.00     0.307 A 
ATOM     92  C   UNL A   1      34.610  18.808  24.546  1.00  0.00     0.220 A 
BRANCH  91  93
ATOM     93  N   UNL A   1      33.125  17.615  22.849  1.00  0.00     0.066 N 
ATOM     94  O   UNL A   1      33.719  16.530  22.880  1.00  0.00    -0.258 OA
ATOM     95  O   UNL A   1      32.351  17.998  21.960  1.00  0.00    -0.258 OA
ENDBRANCH  91  93
ENDBRANCH  84  88
ENDBRANCH  75  78
ENDBRANCH  73  74
ENDBRANCH  72  73
ENDBRANCH   1  72
TORSDOF 16
ENDMDL
MODEL 2
REMARK VINA RESULT:     -13.4      1.392      1.656
REMARK SMILES O=C(NCCCCNC(=O)[C@@]12C[C@H]3C[C@@H](C1)C[C@](n1cc([N+](=O)[O-])cn1)(C3)C2)c1ccc(-c2c3nc(c(-c4cccc(S(=O)(=O)[O-])c4F)c4ccc([nH]4)c(-c4cccc(S(=O)(=O)[O-])c4F)c4nc(c(-c5cccc(S(=O)(=O)[O-])c5F)c5ccc2[nH]5)C=C4)C=C3)cc1
REMARK SMILES IDX 5 1 4 2 3 3 1 4 2 5 29 7 30 8 91 9 31 10 90 11 32 12 33 13
REMARK SMILES IDX 34 14 84 15 35 16 89 17 83 18 85 19 36 20 88 21 82 22 81 23
REMARK SMILES IDX 37 25 69 26 49 27 68 28 50 29 53 30 67 31 86 32 51 33 52 34
REMARK SMILES IDX 66 36 87 37 54 38 38 39 39 40 47 41 40 42 42 43 48 44 41 45
REMARK SMILES IDX 43 46 44 47 45 48 46 49 70 50 71 51 79 52 72 53 74 54 80 55
REMARK SMILES IDX 73 56 75 57 76 58 77 59 78 60 55 61 56 62 64 63 57 64 59 65
REMARK SMILES IDX 65 66 58 67 60 68 61 69 62 70 63 71 6 72 7 73 8 74 9 75
REMARK SMILES IDX 10 77 11 78 12 79 16 80 28 81 13 82 15 83 18 84 14 85 27 86
REMARK SMILES IDX 17 87 19 88 20 89 26 90 21 91 25 92 22 93 23 94 24 95
REMARK H PARENT 3 6 85 24 53 35 8 76
REMARK Flexibility Score: inf
ROOT
ATOM      1  C   UNL A   1      33.050  28.875  27.290  1.00  0.00     0.023 C 
ENDROOT
BRANCH   1   2
ATOM      2  C   UNL A   1      33.667  30.230  26.921  1.00  0.00     0.116 C 
BRANCH   2   3
ATOM      3  N   UNL A   1      33.798  31.166  28.019  1.00  0.00    -0.352 N 
ATOM      4  O   UNL A   1      34.584  32.440  29.642  1.00  0.00    -0.269 OA
ATOM      5  C   UNL A   1      34.829  31.541  28.835  1.00  0.00     0.251 C 
ATOM      6  H   UNL A   1      32.958  31.637  28.222  1.00  0.00     0.163 HD
BRANCH   5   7
ATOM      7  C   UNL A   1      36.160  30.886  28.846  1.00  0.00     0.039 A 
ATOM      8  C   UNL A   1      36.366  29.510  28.756  1.00  0.00     0.014 A 
ATOM      9  C   UNL A   1      37.274  31.728  28.999  1.00  0.00     0.014 A 
ATOM     10  C   UNL A   1      37.618  28.967  28.979  1.00  0.00     0.010 A 
ATOM     11  C   UNL A   1      38.546  31.195  29.153  1.00  0.00     0.010 A 
ATOM     12  C   UNL A   1      38.701  29.812  29.196  1.00  0.00    -0.014 A 
BRANCH  12  13
ATOM     13  C   UNL A   1      40.003  29.179  29.328  1.00  0.00     0.031 A 
ATOM     14  C   UNL A   1      40.494  29.038  30.728  1.00  0.00     0.074 A 
ATOM     15  C   UNL A   1      40.660  28.653  28.277  1.00  0.00     0.049 A 
ATOM     16  N   UNL A   1      41.586  29.498  31.252  1.00  0.00    -0.248 NA
ATOM     17  C   UNL A   1      39.588  28.398  31.695  1.00  0.00     0.031 C 
ATOM     18  C   UNL A   1      40.154  28.467  26.915  1.00  0.00     0.029 A 
ATOM     19  N   UNL A   1      41.866  28.022  28.257  1.00  0.00    -0.354 N 
ATOM     20  C   UNL A   1      41.604  29.017  32.562  1.00  0.00     0.074 A 
ATOM     21  C   UNL A   1      40.289  28.496  32.825  1.00  0.00     0.031 C 
ATOM     22  C   UNL A   1      40.913  27.540  26.294  1.00  0.00     0.029 A 
ATOM     23  C   UNL A   1      42.017  27.178  27.164  1.00  0.00     0.049 A 
ATOM     24  H   UNL A   1      42.559  28.151  28.945  1.00  0.00     0.167 HD
ATOM     25  C   UNL A   1      42.761  28.870  33.265  1.00  0.00     0.034 A 
ATOM     26  C   UNL A   1      42.916  26.174  27.046  1.00  0.00     0.034 A 
ATOM     27  C   UNL A   1      43.834  29.646  32.705  1.00  0.00     0.049 A 
ATOM     28  C   UNL A   1      44.002  26.418  28.022  1.00  0.00     0.074 A 
ATOM     29  C   UNL A   1      44.061  30.986  32.462  1.00  0.00     0.029 A 
ATOM     30  N   UNL A   1      44.798  28.970  32.000  1.00  0.00    -0.354 N 
ATOM     31  N   UNL A   1      44.838  27.415  27.943  1.00  0.00    -0.248 NA
ATOM     32  C   UNL A   1      43.921  25.772  29.321  1.00  0.00     0.031 C 
ATOM     33  C   UNL A   1      44.831  31.016  31.262  1.00  0.00     0.029 A 
ATOM     34  C   UNL A   1      45.049  29.694  30.868  1.00  0.00     0.049 A 
ATOM     35  H   UNL A   1      45.228  28.123  32.260  1.00  0.00     0.167 HD
ATOM     36  C   UNL A   1      45.052  27.798  29.260  1.00  0.00     0.074 A 
ATOM     37  C   UNL A   1      44.567  26.677  30.061  1.00  0.00     0.031 C 
ATOM     38  C   UNL A   1      45.329  29.097  29.581  1.00  0.00     0.034 A 
BRANCH  25  39
ATOM     39  C   UNL A   1      43.035  27.744  34.240  1.00  0.00     0.023 A 
ATOM     40  C   UNL A   1      43.197  28.090  35.602  1.00  0.00     0.012 A 
ATOM     41  C   UNL A   1      43.434  26.440  33.863  1.00  0.00     0.148 A 
ATOM     42  C   UNL A   1      43.794  27.217  36.518  1.00  0.00     0.002 A 
ATOM     43  C   UNL A   1      43.954  25.548  34.796  1.00  0.00     0.091 A 
ATOM     44  F   UNL A   1      43.449  26.086  32.575  1.00  0.00    -0.205 F 
ATOM     45  C   UNL A   1      44.170  25.943  36.116  1.00  0.00     0.022 A 
BRANCH  43  46
ATOM     46  S   UNL A   1      44.398  23.873  34.322  1.00  0.00     0.127 S 
ATOM     47  O   UNL A   1      44.961  23.360  35.575  1.00  0.00    -0.237 OA
ATOM     48  O   UNL A   1      43.093  23.307  33.960  1.00  0.00    -0.237 OA
ATOM     49  O   UNL A   1      45.313  24.015  33.211  1.00  0.00    -0.744 OA
ENDBRANCH  43  46
ENDBRANCH  25  39
BRANCH  26  50
ATOM     50  C   UNL A   1      42.757  24.881  26.347  1.00  0.00     0.023 A 
ATOM     51  C   UNL A   1      43.726  24.465  25.417  1.00  0.00     0.012 A 
ATOM     52  C   UNL A   1      41.788  23.941  26.772  1.00  0.00     0.148 A 
ATOM     53  C   UNL A   1      43.740  23.149  24.936  1.00  0.00     0.002 A 
ATOM     54  C   UNL A   1      41.796  22.643  26.278  1.00  0.00     0.091 A 
ATOM     55  F   UNL A   1      40.917  24.296  27.726  1.00  0.00    -0.205 F 
ATOM     56  C   UNL A   1      42.779  22.239  25.367  1.00  0.00     0.022 A 
BRANCH  54  57
ATOM     57  S   UNL A   1      40.585  21.417  26.794  1.00  0.00     0.127 S 
ATOM     58  O   UNL A   1      41.030  20.227  26.067  1.00  0.00    -0.237 OA
ATOM     59  O   UNL A   1      40.800  21.369  28.238  1.00  0.00    -0.237 OA
ATOM     60  O   UNL A   1      39.291  21.931  26.362  1.00  0.00    -0.744 OA
ENDBRANCH  54  57
ENDBRANCH  26  50
BRANCH  38  61
ATOM     61  C   UNL A   1      45.648  30.055  28.461  1.00  0.00     0.023 A 
ATOM     62  C   UNL A   1      44.633  30.755  27.775  1.00  0.00     0.012 A 
ATOM     63  C   UNL A   1      46.989  30.395  28.219  1.00  0.00     0.148 A 
ATOM     64  C   UNL A   1      44.948  31.750  26.846  1.00  0.00     0.002 A 
ATOM     65  C   UNL A   1      47.298  31.416  27.329  1.00  0.00     0.091 A 
ATOM     66  F   UNL A   1      47.944  29.732  28.890  1.00  0.00    -0.205 F 
ATOM     67  C   UNL A   1      46.281  32.090  26.632  1.00  0.00     0.022 A 
BRANCH  65  68
ATOM     68  S   UNL A   1      48.983  31.995  27.104  1.00  0.00     0.127 S 
ATOM     69  O   UNL A   1      49.364  32.363  28.466  1.00  0.00    -0.237 OA
ATOM     70  O   UNL A   1      49.658  30.806  26.581  1.00  0.00    -0.237 OA
ATOM     71  O   UNL A   1      48.903  33.098  26.154  1.00  0.00    -0.744 OA
ENDBRANCH  65  68
ENDBRANCH  38  61
ENDBRANCH  12  13
ENDBRANCH   5   7
ENDBRANCH   2   3
ENDBRANCH   1   2
BRANCH   1  72
ATOM     72  C   UNL A   1      33.338  27.744  26.304  1.00  0.00     0.023 C 
BRANCH  72  73
ATOM     73  C   UNL A   1      32.097  27.008  25.840  1.00  0.00     0.116 C 
BRANCH  73  74
ATOM     74  N   UNL A   1      31.821  25.900  26.723  1.00  0.00    -0.356 N 
ATOM     75  C   UNL A   1      31.817  24.574  26.497  1.00  0.00     0.226 C 
ATOM     76  H   UNL A   1      31.602  26.159  27.647  1.00  0.00     0.163 HD
ATOM     77  O   UNL A   1      31.326  23.874  27.388  1.00  0.00    -0.274 OA
BRANCH  75  78
ATOM     78  C   UNL A   1      32.418  23.972  25.224  1.00  0.00     0.052 C 
ATOM     79  C   UNL A   1      31.495  24.073  23.995  1.00  0.00     0.020 C 
ATOM     80  C   UNL A   1      33.841  24.502  24.924  1.00  0.00     0.020 C 
ATOM     81  C   UNL A   1      32.572  22.479  25.531  1.00  0.00     0.047 C 
ATOM     82  C   UNL A   1      32.127  23.325  22.802  1.00  0.00    -0.007 C 
ATOM     83  C   UNL A   1      34.437  23.797  23.695  1.00  0.00    -0.007 C 
ATOM     84  C   UNL A   1      33.244  21.682  24.390  1.00  0.00     0.065 C 
ATOM     85  C   UNL A   1      33.490  23.967  22.497  1.00  0.00     0.007 C 
ATOM     86  C   UNL A   1      32.320  21.827  23.148  1.00  0.00     0.034 C 
ATOM     87  C   UNL A   1      34.608  22.307  24.020  1.00  0.00     0.034 C 
BRANCH  84  88
ATOM     88  N   UNL A   1      33.406  20.308  24.918  1.00  0.00    -0.259 N 
ATOM     89  C   UNL A   1      32.600  19.270  24.462  1.00  0.00     0.195 A 
ATOM     90  N   UNL A   1      34.644  19.850  25.233  1.00  0.00    -0.173 NA
ATOM     91  C   UNL A   1      33.506  18.358  23.951  1.00  0.00     0.307 A 
ATOM     92  C   UNL A   1      34.728  18.699  24.550  1.00  0.00     0.220 A 
BRANCH  91  93
ATOM     93  N   UNL A   1      33.253  17.381  22.940  1.00  0.00     0.066 N 
ATOM     94  O   UNL A   1      33.891  16.324  23.010  1.00  0.00    -0.258 OA
ATOM     95  O   UNL A   1      32.440  17.684  22.055  1.00  0.00    -0.258 OA
ENDBRANCH  91  93
ENDBRANCH  84  88
ENDBRANCH  75  78
ENDBRANCH  73  74
ENDBRANCH  72  73
ENDBRANCH   1  72
TORSDOF 16
ENDMDL
MODEL 3
REMARK VINA RESULT:     -13.4      3.177      7.324
REMARK SMILES O=C(NCCCCNC(=O)[C@@]12C[C@H]3C[C@@H](C1)C[C@](n1cc([N+](=O)[O-])cn1)(C3)C2)c1ccc(-c2c3nc(c(-c4cccc(S(=O)(=O)[O-])c4F)c4ccc([nH]4)c(-c4cccc(S(=O)(=O)[O-])c4F)c4nc(c(-c5cccc(S(=O)(=O)[O-])c5F)c5ccc2[nH]5)C=C4)C=C3)cc1
REMARK SMILES IDX 5 1 4 2 3 3 1 4 2 5 29 7 30 8 91 9 31 10 90 11 32 12 33 13
REMARK SMILES IDX 34 14 84 15 35 16 89 17 83 18 85 19 36 20 88 21 82 22 81 23
REMARK SMILES IDX 37 25 69 26 49 27 68 28 50 29 53 30 67 31 86 32 51 33 52 34
REMARK SMILES IDX 66 36 87 37 54 38 38 39 39 40 47 41 40 42 42 43 48 44 41 45
REMARK SMILES IDX 43 46 44 47 45 48 46 49 70 50 71 51 79 52 72 53 74 54 80 55
REMARK SMILES IDX 73 56 75 57 76 58 77 59 78 60 55 61 56 62 64 63 57 64 59 65
REMARK SMILES IDX 65 66 58 67 60 68 61 69 62 70 63 71 6 72 7 73 8 74 9 75
REMARK SMILES IDX 10 77 11 78 12 79 16 80 28 81 13 82 15 83 18 84 14 85 27 86
REMARK SMILES IDX 17 87 19 88 20 89 26 90 21 91 25 92 22 93 23 94 24 95
REMARK H PARENT 3 6 85 24 53 35 8 76
REMARK Flexibility Score: inf
ROOT
ATOM      1  C   UNL A   1      38.674  20.415  25.034  1.00  0.00     0.023 C 
ENDROOT
BRANCH   1   2
ATOM      2  C   UNL A   1      39.075  19.154  25.809  1.00  0.00     0.116 C 
BRANCH   2   3
ATOM      3  N   UNL A   1      40.433  18.699  25.584  1.00  0.00    -0.352 N 
ATOM      4  O   UNL A   1      42.626  18.448  25.638  1.00  0.00    -0.269 OA
ATOM      5  C   UNL A   1      41.665  19.144  25.974  1.00  0.00     0.251 C 
ATOM      6  H   UNL A   1      40.477  17.888  25.027  1.00  0.00     0.163 HD
BRANCH   5   7
ATOM      7  C   UNL A   1      41.898  20.422  26.692  1.00  0.00     0.039 A 
ATOM      8  C   UNL A   1      41.493  20.680  28.001  1.00  0.00     0.014 A 
ATOM      9  C   UNL A   1      42.539  21.441  25.968  1.00  0.00     0.014 A 
ATOM     10  C   UNL A   1      41.566  21.958  28.523  1.00  0.00     0.010 A 
ATOM     11  C   UNL A   1      42.681  22.710  26.511  1.00  0.00     0.010 A 
ATOM     12  C   UNL A   1      42.142  22.974  27.768  1.00  0.00    -0.014 A 
BRANCH  12  13
ATOM     13  C   UNL A   1      42.274  24.270  28.414  1.00  0.00     0.031 A 
ATOM     14  C   UNL A   1      41.165  25.226  28.134  1.00  0.00     0.074 A 
ATOM     15  C   UNL A   1      43.257  24.543  29.291  1.00  0.00     0.049 A 
ATOM     16  N   UNL A   1      41.230  26.407  27.607  1.00  0.00    -0.248 NA
ATOM     17  C   UNL A   1      39.792  24.748  28.368  1.00  0.00     0.031 C 
ATOM     18  C   UNL A   1      44.221  23.602  29.867  1.00  0.00     0.029 A 
ATOM     19  N   UNL A   1      43.490  25.696  29.977  1.00  0.00    -0.354 N 
ATOM     20  C   UNL A   1      39.927  26.907  27.646  1.00  0.00     0.074 A 
ATOM     21  C   UNL A   1      39.072  25.794  27.964  1.00  0.00     0.031 C 
ATOM     22  C   UNL A   1      44.733  24.141  30.994  1.00  0.00     0.029 A 
ATOM     23  C   UNL A   1      44.232  25.497  31.134  1.00  0.00     0.049 A 
ATOM     24  H   UNL A   1      43.165  26.578  29.683  1.00  0.00     0.167 HD
ATOM     25  C   UNL A   1      39.662  28.242  27.640  1.00  0.00     0.034 A 
ATOM     26  C   UNL A   1      44.325  26.347  32.182  1.00  0.00     0.034 A 
ATOM     27  C   UNL A   1      40.776  29.011  27.159  1.00  0.00     0.049 A 
ATOM     28  C   UNL A   1      43.920  27.692  31.715  1.00  0.00     0.074 A 
ATOM     29  C   UNL A   1      41.502  29.072  25.986  1.00  0.00     0.029 A 
ATOM     30  N   UNL A   1      41.514  29.701  28.089  1.00  0.00    -0.354 N 
ATOM     31  N   UNL A   1      44.600  28.397  30.855  1.00  0.00    -0.248 NA
ATOM     32  C   UNL A   1      42.539  28.103  31.906  1.00  0.00     0.031 C 
ATOM     33  C   UNL A   1      42.835  29.372  26.393  1.00  0.00     0.029 A 
ATOM     34  C   UNL A   1      42.831  29.503  27.783  1.00  0.00     0.049 A 
ATOM     35  H   UNL A   1      41.161  30.237  28.836  1.00  0.00     0.167 HD
ATOM     36  C   UNL A   1      43.638  29.038  30.089  1.00  0.00     0.074 A 
ATOM     37  C   UNL A   1      42.402  28.920  30.859  1.00  0.00     0.031 C 
ATOM     38  C   UNL A   1      43.870  29.345  28.777  1.00  0.00     0.034 A 
BRANCH  25  39
ATOM     39  C   UNL A   1      38.534  28.896  28.413  1.00  0.00     0.023 A 
ATOM     40  C   UNL A   1      37.704  29.799  27.709  1.00  0.00     0.012 A 
ATOM     41  C   UNL A   1      38.435  28.907  29.823  1.00  0.00     0.148 A 
ATOM     42  C   UNL A   1      36.880  30.714  28.373  1.00  0.00     0.002 A 
ATOM     43  C   UNL A   1      37.555  29.765  30.476  1.00  0.00     0.091 A 
ATOM     44  F   UNL A   1      39.283  28.191  30.565  1.00  0.00    -0.205 F 
ATOM     45  C   UNL A   1      36.802  30.695  29.759  1.00  0.00     0.022 A 
BRANCH  43  46
ATOM     46  S   UNL A   1      37.386  29.728  32.265  1.00  0.00     0.127 S 
ATOM     47  O   UNL A   1      38.614  30.412  32.683  1.00  0.00    -0.237 OA
ATOM     48  O   UNL A   1      36.155  30.501  32.467  1.00  0.00    -0.237 OA
ATOM     49  O   UNL A   1      37.273  28.329  32.614  1.00  0.00    -0.744 OA
ENDBRANCH  43  46
ENDBRANCH  25  39
BRANCH  26  50
ATOM     50  C   UNL A   1      44.468  26.018  33.617  1.00  0.00     0.023 A 
ATOM     51  C   UNL A   1      45.750  25.896  34.181  1.00  0.00     0.012 A 
ATOM     52  C   UNL A   1      43.354  26.068  34.488  1.00  0.00     0.148 A 
ATOM     53  C   UNL A   1      45.920  25.841  35.570  1.00  0.00     0.002 A 
ATOM     54  C   UNL A   1      43.527  25.995  35.864  1.00  0.00     0.091 A 
ATOM     55  F   UNL A   1      42.136  26.277  33.970  1.00  0.00    -0.205 F 
ATOM     56  C   UNL A   1      44.811  25.893  36.411  1.00  0.00     0.022 A 
BRANCH  54  57
ATOM     57  S   UNL A   1      42.138  26.059  37.006  1.00  0.00     0.127 S 
ATOM     58  O   UNL A   1      41.373  27.194  36.488  1.00  0.00    -0.237 OA
ATOM     59  O   UNL A   1      41.516  24.754  36.797  1.00  0.00    -0.237 OA
ATOM     60  O   UNL A   1      42.718  26.282  38.324  1.00  0.00    -0.744 OA
ENDBRANCH  54  57
ENDBRANCH  26  50
BRANCH  38  61
ATOM     61  C   UNL A   1      45.275  29.204  28.251  1.00  0.00     0.023 A 
ATOM     62  C   UNL A   1      46.229  30.234  28.401  1.00  0.00     0.012 A 
ATOM     63  C   UNL A   1      45.697  27.955  27.766  1.00  0.00     0.148 A 
ATOM     64  C   UNL A   1      47.565  30.034  28.047  1.00  0.00     0.002 A 
ATOM     65  C   UNL A   1      47.036  27.745  27.457  1.00  0.00     0.091 A 
ATOM     66  F   UNL A   1      44.784  26.980  27.642  1.00  0.00    -0.205 F 
ATOM     67  C   UNL A   1      47.972  28.785  27.586  1.00  0.00     0.022 A 
BRANCH  65  68
ATOM     68  S   UNL A   1      47.653  26.125  26.986  1.00  0.00     0.127 S 
ATOM     69  O   UNL A   1      49.077  26.385  26.793  1.00  0.00    -0.237 OA
ATOM     70  O   UNL A   1      47.333  25.313  28.161  1.00  0.00    -0.237 OA
ATOM     71  O   UNL A   1      46.913  25.750  25.787  1.00  0.00    -0.744 OA
ENDBRANCH  65  68
ENDBRANCH  38  61
ENDBRANCH  12  13
ENDBRANCH   5   7
ENDBRANCH   2   3
ENDBRANCH   1   2
BRANCH   1  72
ATOM     72  C   UNL A   1      38.791  21.720  25.820  1.00  0.00     0.023 C 
BRANCH  72  73
ATOM     73  C   UNL A   1      37.600  22.642  25.651  1.00  0.00     0.116 C 
BRANCH  73  74
ATOM     74  N   UNL A   1      37.382  22.916  24.251  1.00  0.00    -0.356 N 
ATOM     75  C   UNL A   1      36.244  23.072  23.551  1.00  0.00     0.226 C 
ATOM     76  H   UNL A   1      38.205  23.004  23.719  1.00  0.00     0.163 HD
ATOM     77  O   UNL A   1      36.360  23.077  22.321  1.00  0.00    -0.274 OA
BRANCH  75  78
ATOM     78  C   UNL A   1      34.893  23.267  24.244  1.00  0.00     0.052 C 
ATOM     79  C   UNL A   1      35.009  23.685  25.722  1.00  0.00     0.020 C 
ATOM     80  C   UNL A   1      33.941  24.197  23.453  1.00  0.00     0.020 C 
ATOM     81  C   UNL A   1      34.243  21.880  24.234  1.00  0.00     0.047 C 
ATOM     82  C   UNL A   1      33.607  23.727  26.367  1.00  0.00    -0.007 C 
ATOM     83  C   UNL A   1      32.569  24.283  24.138  1.00  0.00    -0.007 C 
ATOM     84  C   UNL A   1      32.815  21.865  24.826  1.00  0.00     0.065 C 
ATOM     85  C   UNL A   1      32.749  24.741  25.594  1.00  0.00     0.007 C 
ATOM     86  C   UNL A   1      32.946  22.326  26.304  1.00  0.00     0.034 C 
ATOM     87  C   UNL A   1      31.916  22.895  24.103  1.00  0.00     0.034 C 
BRANCH  84  88
ATOM     88  N   UNL A   1      32.324  20.483  24.621  1.00  0.00    -0.259 N 
ATOM     89  C   UNL A   1      32.824  19.694  23.590  1.00  0.00     0.195 A 
ATOM     90  N   UNL A   1      31.999  19.719  25.695  1.00  0.00    -0.173 NA
ATOM     91  C   UNL A   1      33.344  18.594  24.248  1.00  0.00     0.307 A 
ATOM     92  C   UNL A   1      32.713  18.600  25.501  1.00  0.00     0.220 A 
BRANCH  91  93
ATOM     93  N   UNL A   1      34.388  17.737  23.781  1.00  0.00     0.066 N 
ATOM     94  O   UNL A   1      34.121  17.001  22.823  1.00  0.00    -0.258 OA
ATOM     95  O   UNL A   1      35.463  17.774  24.395  1.00  0.00    -0.258 OA
ENDBRANCH  91  93
ENDBRANCH  84  88
ENDBRANCH  75  78
ENDBRANCH  73  74
ENDBRANCH  72  73
ENDBRANCH   1  72
TORSDOF 16
ENDMDL
