MODEL 1
REMARK VINA RESULT:     -11.9      0.000      0.000
REMARK SMILES O=C(NCCCCNC(=O)c1ccc(-c2c3nc(c(-c4cccc(S(=O)(=O)[O-])c4F)c4ccc([nH]4)c(-c4cccc(S(=O)(=O)[O-])c4F)c4nc(c(-c5cccc(S(=O)(=O)[O-])c5F)c5ccc2[nH]5)C=C4)C=C3)cc1)c1ccc(/N=C\c2ccccc2O)cc1
REMARK SMILES IDX 5 1 4 2 3 3 1 4 2 5 74 7 75 8 88 9 76 10 87 11 77 12 78 13
REMARK SMILES IDX 79 14 80 15 81 16 85 17 82 18 84 19 83 20 86 21 6 23 7 24
REMARK SMILES IDX 8 25 9 26 10 28 11 29 12 30 73 31 13 32 72 33 14 34 15 35
REMARK SMILES IDX 16 36 66 37 17 38 71 39 65 40 67 41 18 42 70 43 64 44 63 45
REMARK SMILES IDX 19 47 51 48 31 49 50 50 32 51 35 52 49 53 68 54 33 55 34 56
REMARK SMILES IDX 48 58 69 59 36 60 20 61 21 62 29 63 22 64 24 65 30 66 23 67
REMARK SMILES IDX 25 68 26 69 27 70 28 71 52 72 53 73 61 74 54 75 56 76 62 77
REMARK SMILES IDX 55 78 57 79 58 80 59 81 60 82 37 83 38 84 46 85 39 86 41 87
REMARK SMILES IDX 47 88 40 89 42 90 43 91 44 92 45 93
REMARK H PARENT 3 6 86 22 8 27 67 46 35 57
REMARK Flexibility Score: inf
ROOT
ATOM      1  C   UNL A   1      32.848  29.425  24.828  1.00  0.00     0.023 C 
ENDROOT
BRANCH   1   2
ATOM      2  C   UNL A   1      31.353  29.671  24.996  1.00  0.00     0.116 C 
BRANCH   2   3
ATOM      3  N   UNL A   1      30.634  29.806  23.741  1.00  0.00    -0.352 N 
ATOM      4  O   UNL A   1      29.721  29.191  21.775  1.00  0.00    -0.269 OA
ATOM      5  C   UNL A   1      30.287  28.857  22.808  1.00  0.00     0.251 C 
ATOM      6  H   UNL A   1      30.349  30.723  23.524  1.00  0.00     0.163 HD
BRANCH   5   7
ATOM      7  C   UNL A   1      30.647  27.434  23.008  1.00  0.00     0.039 A 
ATOM      8  C   UNL A   1      31.516  26.750  22.158  1.00  0.00     0.016 A 
ATOM      9  C   UNL A   1      30.092  26.764  24.098  1.00  0.00     0.016 A 
ATOM     10  C   UNL A   1      31.661  25.366  22.284  1.00  0.00     0.029 A 
ATOM     11  C   UNL A   1      30.309  25.393  24.260  1.00  0.00     0.029 A 
ATOM     12  C   UNL A   1      31.005  24.657  23.296  1.00  0.00     0.063 A 
BRANCH  12  13
ATOM     13  N   UNL A   1      31.129  23.257  23.257  1.00  0.00    -0.256 NA
ATOM     14  C   UNL A   1      32.119  22.564  23.731  1.00  0.00     0.123 C 
BRANCH  14  15
ATOM     15  C   UNL A   1      33.335  23.027  24.411  1.00  0.00     0.035 A 
ATOM     16  C   UNL A   1      33.277  23.072  25.809  1.00  0.00     0.013 A 
ATOM     17  C   UNL A   1      34.519  23.337  23.740  1.00  0.00     0.124 A 
ATOM     18  C   UNL A   1      34.429  23.366  26.538  1.00  0.00     0.001 A 
ATOM     19  C   UNL A   1      35.664  23.642  24.472  1.00  0.00     0.047 A 
ATOM     20  C   UNL A   1      35.623  23.638  25.869  1.00  0.00     0.004 A 
BRANCH  17  21
ATOM     21  O   UNL A   1      34.639  23.335  22.380  1.00  0.00    -0.507 OA
ATOM     22  H   UNL A   1      34.226  22.663  21.874  1.00  0.00     0.293 HD
ENDBRANCH  17  21
ENDBRANCH  14  15
ENDBRANCH  12  13
ENDBRANCH   5   7
ENDBRANCH   2   3
ENDBRANCH   1   2
BRANCH   1  23
ATOM     23  C   UNL A   1      33.491  28.483  25.841  1.00  0.00     0.023 C 
BRANCH  23  24
ATOM     24  C   UNL A   1      33.380  28.902  27.302  1.00  0.00     0.116 C 
BRANCH  24  25
ATOM     25  N   UNL A   1      33.548  30.334  27.509  1.00  0.00    -0.352 N 
ATOM     26  C   UNL A   1      34.621  31.016  28.033  1.00  0.00     0.251 C 
ATOM     27  H   UNL A   1      32.785  30.892  27.235  1.00  0.00     0.163 HD
ATOM     28  O   UNL A   1      34.545  32.227  28.224  1.00  0.00    -0.269 OA
BRANCH  26  29
ATOM     29  C   UNL A   1      35.851  30.281  28.403  1.00  0.00     0.039 A 
ATOM     30  C   UNL A   1      36.934  30.288  27.519  1.00  0.00     0.014 A 
ATOM     31  C   UNL A   1      35.949  29.620  29.630  1.00  0.00     0.014 A 
ATOM     32  C   UNL A   1      38.145  29.704  27.903  1.00  0.00     0.010 A 
ATOM     33  C   UNL A   1      37.177  29.108  30.040  1.00  0.00     0.010 A 
ATOM     34  C   UNL A   1      38.289  29.148  29.184  1.00  0.00    -0.014 A 
BRANCH  34  35
ATOM     35  C   UNL A   1      39.595  28.625  29.667  1.00  0.00     0.031 A 
ATOM     36  C   UNL A   1      40.335  29.341  30.766  1.00  0.00     0.074 A 
ATOM     37  C   UNL A   1      40.172  27.581  29.036  1.00  0.00     0.049 A 
ATOM     38  N   UNL A   1      41.525  29.100  31.250  1.00  0.00    -0.248 NA
ATOM     39  C   UNL A   1      39.662  30.497  31.383  1.00  0.00     0.031 C 
ATOM     40  C   UNL A   1      39.598  26.855  27.901  1.00  0.00     0.029 A 
ATOM     41  N   UNL A   1      41.388  26.974  29.234  1.00  0.00    -0.354 N 
ATOM     42  C   UNL A   1      41.768  30.101  32.183  1.00  0.00     0.074 A 
ATOM     43  C   UNL A   1      40.606  30.963  32.190  1.00  0.00     0.031 C 
ATOM     44  C   UNL A   1      40.462  25.907  27.501  1.00  0.00     0.029 A 
ATOM     45  C   UNL A   1      41.663  25.976  28.327  1.00  0.00     0.049 A 
ATOM     46  H   UNL A   1      42.005  27.229  29.957  1.00  0.00     0.167 HD
ATOM     47  C   UNL A   1      42.848  30.274  32.979  1.00  0.00     0.034 A 
ATOM     48  C   UNL A   1      42.762  25.212  28.168  1.00  0.00     0.034 A 
ATOM     49  C   UNL A   1      43.968  29.375  33.024  1.00  0.00     0.049 A 
ATOM     50  C   UNL A   1      43.921  25.390  29.114  1.00  0.00     0.074 A 
ATOM     51  C   UNL A   1      45.048  29.393  33.891  1.00  0.00     0.029 A 
ATOM     52  N   UNL A   1      44.161  28.305  32.165  1.00  0.00    -0.354 N 
ATOM     53  N   UNL A   1      44.045  26.222  30.119  1.00  0.00    -0.248 NA
ATOM     54  C   UNL A   1      45.078  24.501  28.925  1.00  0.00     0.031 C 
ATOM     55  C   UNL A   1      45.905  28.346  33.540  1.00  0.00     0.029 A 
ATOM     56  C   UNL A   1      45.349  27.664  32.470  1.00  0.00     0.049 A 
ATOM     57  H   UNL A   1      43.544  28.041  31.445  1.00  0.00     0.167 HD
ATOM     58  C   UNL A   1      45.271  25.928  30.707  1.00  0.00     0.074 A 
ATOM     59  C   UNL A   1      45.843  24.831  29.957  1.00  0.00     0.031 C 
ATOM     60  C   UNL A   1      45.875  26.527  31.763  1.00  0.00     0.034 A 
BRANCH  47  61
ATOM     61  C   UNL A   1      42.858  31.451  33.917  1.00  0.00     0.023 A 
ATOM     62  C   UNL A   1      43.375  32.686  33.480  1.00  0.00     0.012 A 
ATOM     63  C   UNL A   1      42.271  31.358  35.195  1.00  0.00     0.148 A 
ATOM     64  C   UNL A   1      43.330  33.808  34.308  1.00  0.00     0.002 A 
ATOM     65  C   UNL A   1      42.191  32.490  35.998  1.00  0.00     0.091 A 
ATOM     66  F   UNL A   1      41.803  30.169  35.599  1.00  0.00    -0.205 F 
ATOM     67  C   UNL A   1      42.728  33.713  35.559  1.00  0.00     0.022 A 
BRANCH  65  68
ATOM     68  S   UNL A   1      41.363  32.493  37.592  1.00  0.00     0.127 S 
ATOM     69  O   UNL A   1      41.442  33.906  37.962  1.00  0.00    -0.237 OA
ATOM     70  O   UNL A   1      40.020  32.030  37.241  1.00  0.00    -0.237 OA
ATOM     71  O   UNL A   1      42.119  31.583  38.441  1.00  0.00    -0.744 OA
ENDBRANCH  65  68
ENDBRANCH  47  61
BRANCH  48  72
ATOM     72  C   UNL A   1      42.803  24.161  27.111  1.00  0.00     0.023 A 
ATOM     73  C   UNL A   1      43.508  24.413  25.917  1.00  0.00     0.012 A 
ATOM     74  C   UNL A   1      42.157  22.922  27.276  1.00  0.00     0.148 A 
ATOM     75  C   UNL A   1      43.532  23.467  24.890  1.00  0.00     0.002 A 
ATOM     76  C   UNL A   1      42.232  21.962  26.271  1.00  0.00     0.091 A 
ATOM     77  F   UNL A   1      41.476  22.704  28.411  1.00  0.00    -0.205 F 
ATOM     78  C   UNL A   1      42.903  22.240  25.071  1.00  0.00     0.022 A 
BRANCH  76  79
ATOM     79  S   UNL A   1      41.559  20.309  26.480  1.00  0.00     0.127 S 
ATOM     80  O   UNL A   1      40.122  20.559  26.410  1.00  0.00    -0.237 OA
ATOM     81  O   UNL A   1      42.117  19.603  25.326  1.00  0.00    -0.237 OA
ATOM     82  O   UNL A   1      42.067  19.846  27.764  1.00  0.00    -0.744 OA
ENDBRANCH  76  79
ENDBRANCH  48  72
BRANCH  60  83
ATOM     83  C   UNL A   1      47.206  25.985  32.213  1.00  0.00     0.023 A 
ATOM     84  C   UNL A   1      48.393  26.474  31.632  1.00  0.00     0.012 A 
ATOM     85  C   UNL A   1      47.282  25.062  33.274  1.00  0.00     0.148 A 
ATOM     86  C   UNL A   1      49.635  26.031  32.083  1.00  0.00     0.002 A 
ATOM     87  C   UNL A   1      48.525  24.662  33.752  1.00  0.00     0.091 A 
ATOM     88  F   UNL A   1      46.141  24.596  33.801  1.00  0.00    -0.205 F 
ATOM     89  C   UNL A   1      49.702  25.138  33.150  1.00  0.00     0.022 A 
BRANCH  87  90
ATOM     90  S   UNL A   1      48.707  23.594  35.184  1.00  0.00     0.127 S 
ATOM     91  O   UNL A   1      48.177  22.328  34.680  1.00  0.00    -0.237 OA
ATOM     92  O   UNL A   1      50.153  23.606  35.401  1.00  0.00    -0.237 OA
ATOM     93  O   UNL A   1      47.932  24.217  36.249  1.00  0.00    -0.744 OA
ENDBRANCH  87  90
ENDBRANCH  60  83
ENDBRANCH  34  35
ENDBRANCH  26  29
ENDBRANCH  24  25
ENDBRANCH  23  24
ENDBRANCH   1  23
TORSDOF 17
ENDMDL
MODEL 2
REMARK VINA RESULT:     -11.9      5.208      8.614
REMARK SMILES O=C(NCCCCNC(=O)c1ccc(-c2c3nc(c(-c4cccc(S(=O)(=O)[O-])c4F)c4ccc([nH]4)c(-c4cccc(S(=O)(=O)[O-])c4F)c4nc(c(-c5cccc(S(=O)(=O)[O-])c5F)c5ccc2[nH]5)C=C4)C=C3)cc1)c1ccc(/N=C\c2ccccc2O)cc1
REMARK SMILES IDX 5 1 4 2 3 3 1 4 2 5 74 7 75 8 88 9 76 10 87 11 77 12 78 13
REMARK SMILES IDX 79 14 80 15 81 16 85 17 82 18 84 19 83 20 86 21 6 23 7 24
REMARK SMILES IDX 8 25 9 26 10 28 11 29 12 30 73 31 13 32 72 33 14 34 15 35
REMARK SMILES IDX 16 36 66 37 17 38 71 39 65 40 67 41 18 42 70 43 64 44 63 45
REMARK SMILES IDX 19 47 51 48 31 49 50 50 32 51 35 52 49 53 68 54 33 55 34 56
REMARK SMILES IDX 48 58 69 59 36 60 20 61 21 62 29 63 22 64 24 65 30 66 23 67
REMARK SMILES IDX 25 68 26 69 27 70 28 71 52 72 53 73 61 74 54 75 56 76 62 77
REMARK SMILES IDX 55 78 57 79 58 80 59 81 60 82 37 83 38 84 46 85 39 86 41 87
REMARK SMILES IDX 47 88 40 89 42 90 43 91 44 92 45 93
REMARK H PARENT 3 6 86 22 8 27 67 46 35 57
REMARK Flexibility Score: inf
ROOT
ATOM      1  C   UNL A   1      37.331  21.247  24.513  1.00  0.00     0.023 C 
ENDROOT
BRANCH   1   2
ATOM      2  C   UNL A   1      37.043  22.120  25.729  1.00  0.00     0.116 C 
BRANCH   2   3
ATOM      3  N   UNL A   1      35.838  21.748  26.450  1.00  0.00    -0.352 N 
ATOM      4  O   UNL A   1      33.658  21.747  27.022  1.00  0.00    -0.269 OA
ATOM      5  C   UNL A   1      34.532  22.138  26.259  1.00  0.00     0.251 C 
ATOM      6  H   UNL A   1      35.977  21.117  27.191  1.00  0.00     0.163 HD
BRANCH   5   7
ATOM      7  C   UNL A   1      34.176  23.082  25.174  1.00  0.00     0.039 A 
ATOM      8  C   UNL A   1      33.502  22.683  24.020  1.00  0.00     0.016 A 
ATOM      9  C   UNL A   1      34.528  24.422  25.329  1.00  0.00     0.016 A 
ATOM     10  C   UNL A   1      33.371  23.575  22.952  1.00  0.00     0.029 A 
ATOM     11  C   UNL A   1      34.319  25.326  24.283  1.00  0.00     0.029 A 
ATOM     12  C   UNL A   1      33.838  24.891  23.044  1.00  0.00     0.063 A 
BRANCH  12  13
ATOM     13  N   UNL A   1      33.759  25.664  21.873  1.00  0.00    -0.256 NA
ATOM     14  C   UNL A   1      33.211  26.836  21.766  1.00  0.00     0.123 C 
BRANCH  14  15
ATOM     15  C   UNL A   1      32.548  27.648  22.794  1.00  0.00     0.035 A 
ATOM     16  C   UNL A   1      31.259  27.243  23.158  1.00  0.00     0.013 A 
ATOM     17  C   UNL A   1      33.166  28.718  23.445  1.00  0.00     0.124 A 
ATOM     18  C   UNL A   1      30.613  27.872  24.223  1.00  0.00     0.001 A 
ATOM     19  C   UNL A   1      32.513  29.351  24.499  1.00  0.00     0.047 A 
ATOM     20  C   UNL A   1      31.246  28.916  24.899  1.00  0.00     0.004 A 
BRANCH  17  21
ATOM     21  O   UNL A   1      34.410  29.179  23.124  1.00  0.00    -0.507 OA
ATOM     22  H   UNL A   1      34.939  29.596  23.777  1.00  0.00     0.293 HD
ENDBRANCH  17  21
ENDBRANCH  14  15
ENDBRANCH  12  13
ENDBRANCH   5   7
ENDBRANCH   2   3
ENDBRANCH   1   2
BRANCH   1  23
ATOM     23  C   UNL A   1      37.903  19.863  24.802  1.00  0.00     0.023 C 
BRANCH  23  24
ATOM     24  C   UNL A   1      38.736  19.739  26.071  1.00  0.00     0.116 C 
BRANCH  24  25
ATOM     25  N   UNL A   1      39.980  19.006  25.879  1.00  0.00    -0.352 N 
ATOM     26  C   UNL A   1      41.277  19.449  25.999  1.00  0.00     0.251 C 
ATOM     27  H   UNL A   1      39.878  18.060  25.628  1.00  0.00     0.163 HD
ATOM     28  O   UNL A   1      42.209  18.708  25.701  1.00  0.00    -0.269 OA
BRANCH  26  29
ATOM     29  C   UNL A   1      41.543  20.833  26.450  1.00  0.00     0.039 A 
ATOM     30  C   UNL A   1      42.281  21.032  27.621  1.00  0.00     0.014 A 
ATOM     31  C   UNL A   1      41.099  21.927  25.704  1.00  0.00     0.014 A 
ATOM     32  C   UNL A   1      42.647  22.329  27.996  1.00  0.00     0.010 A 
ATOM     33  C   UNL A   1      41.530  23.208  26.038  1.00  0.00     0.010 A 
ATOM     34  C   UNL A   1      42.311  23.423  27.184  1.00  0.00    -0.014 A 
BRANCH  34  35
ATOM     35  C   UNL A   1      42.786  24.799  27.492  1.00  0.00     0.031 A 
ATOM     36  C   UNL A   1      41.851  25.797  28.123  1.00  0.00     0.074 A 
ATOM     37  C   UNL A   1      44.015  25.187  27.094  1.00  0.00     0.049 A 
ATOM     38  N   UNL A   1      42.047  27.065  28.373  1.00  0.00    -0.248 NA
ATOM     39  C   UNL A   1      40.510  25.315  28.494  1.00  0.00     0.031 C 
ATOM     40  C   UNL A   1      44.986  24.341  26.396  1.00  0.00     0.029 A 
ATOM     41  N   UNL A   1      44.645  26.404  27.185  1.00  0.00    -0.354 N 
ATOM     42  C   UNL A   1      40.843  27.545  28.876  1.00  0.00     0.074 A 
ATOM     43  C   UNL A   1      39.916  26.434  28.884  1.00  0.00     0.031 C 
ATOM     44  C   UNL A   1      46.083  25.064  26.117  1.00  0.00     0.029 A 
ATOM     45  C   UNL A   1      45.885  26.432  26.587  1.00  0.00     0.049 A 
ATOM     46  H   UNL A   1      44.248  27.183  27.636  1.00  0.00     0.167 HD
ATOM     47  C   UNL A   1      40.544  28.790  29.313  1.00  0.00     0.034 A 
ATOM     48  C   UNL A   1      46.757  27.446  26.422  1.00  0.00     0.034 A 
ATOM     49  C   UNL A   1      41.488  29.872  29.373  1.00  0.00     0.049 A 
ATOM     50  C   UNL A   1      46.418  28.804  26.978  1.00  0.00     0.074 A 
ATOM     51  C   UNL A   1      41.316  31.130  29.924  1.00  0.00     0.029 A 
ATOM     52  N   UNL A   1      42.774  29.831  28.860  1.00  0.00    -0.354 N 
ATOM     53  N   UNL A   1      45.343  29.183  27.627  1.00  0.00    -0.248 NA
ATOM     54  C   UNL A   1      47.423  29.864  26.811  1.00  0.00     0.031 C 
ATOM     55  C   UNL A   1      42.493  31.858  29.722  1.00  0.00     0.029 A 
ATOM     56  C   UNL A   1      43.403  31.046  29.066  1.00  0.00     0.049 A 
ATOM     57  H   UNL A   1      43.180  29.052  28.414  1.00  0.00     0.167 HD
ATOM     58  C   UNL A   1      45.562  30.510  27.981  1.00  0.00     0.074 A 
ATOM     59  C   UNL A   1      46.877  30.863  27.491  1.00  0.00     0.031 C 
ATOM     60  C   UNL A   1      44.740  31.364  28.638  1.00  0.00     0.034 A 
BRANCH  47  61
ATOM     61  C   UNL A   1      39.151  29.048  29.821  1.00  0.00     0.023 A 
ATOM     62  C   UNL A   1      38.803  28.657  31.130  1.00  0.00     0.012 A 
ATOM     63  C   UNL A   1      38.220  29.760  29.041  1.00  0.00     0.148 A 
ATOM     64  C   UNL A   1      37.541  28.949  31.646  1.00  0.00     0.002 A 
ATOM     65  C   UNL A   1      36.979  30.085  29.577  1.00  0.00     0.091 A 
ATOM     66  F   UNL A   1      38.564  30.105  27.791  1.00  0.00    -0.205 F 
ATOM     67  C   UNL A   1      36.636  29.673  30.875  1.00  0.00     0.022 A 
BRANCH  65  68
ATOM     68  S   UNL A   1      35.773  31.084  28.697  1.00  0.00     0.127 S 
ATOM     69  O   UNL A   1      34.917  31.543  29.790  1.00  0.00    -0.237 OA
ATOM     70  O   UNL A   1      36.612  32.125  28.101  1.00  0.00    -0.237 OA
ATOM     71  O   UNL A   1      35.134  30.193  27.737  1.00  0.00    -0.744 OA
ENDBRANCH  65  68
ENDBRANCH  47  61
BRANCH  48  72
ATOM     72  C   UNL A   1      48.070  27.210  25.754  1.00  0.00     0.023 A 
ATOM     73  C   UNL A   1      49.167  26.780  26.526  1.00  0.00     0.012 A 
ATOM     74  C   UNL A   1      48.241  27.404  24.371  1.00  0.00     0.148 A 
ATOM     75  C   UNL A   1      50.420  26.589  25.941  1.00  0.00     0.002 A 
ATOM     76  C   UNL A   1      49.478  27.159  23.783  1.00  0.00     0.091 A 
ATOM     77  F   UNL A   1      47.191  27.830  23.653  1.00  0.00    -0.205 F 
ATOM     78  C   UNL A   1      50.574  26.769  24.569  1.00  0.00     0.022 A 
BRANCH  76  79
ATOM     79  S   UNL A   1      49.723  27.242  22.006  1.00  0.00     0.127 S 
ATOM     80  O   UNL A   1      49.446  28.649  21.730  1.00  0.00    -0.237 OA
ATOM     81  O   UNL A   1      51.128  26.854  21.871  1.00  0.00    -0.237 OA
ATOM     82  O   UNL A   1      48.784  26.282  21.443  1.00  0.00    -0.744 OA
ENDBRANCH  76  79
ENDBRANCH  48  72
BRANCH  60  83
ATOM     83  C   UNL A   1      45.244  32.755  28.916  1.00  0.00     0.023 A 
ATOM     84  C   UNL A   1      46.014  33.002  30.070  1.00  0.00     0.012 A 
ATOM     85  C   UNL A   1      45.032  33.793  27.988  1.00  0.00     0.148 A 
ATOM     86  C   UNL A   1      46.543  34.270  30.308  1.00  0.00     0.002 A 
ATOM     87  C   UNL A   1      45.604  35.041  28.208  1.00  0.00     0.091 A 
ATOM     88  F   UNL A   1      44.281  33.542  26.906  1.00  0.00    -0.205 F 
ATOM     89  C   UNL A   1      46.351  35.284  29.372  1.00  0.00     0.022 A 
BRANCH  87  90
ATOM     90  S   UNL A   1      45.492  36.375  27.010  1.00  0.00     0.127 S 
ATOM     91  O   UNL A   1      46.264  37.429  27.666  1.00  0.00    -0.237 OA
ATOM     92  O   UNL A   1      46.134  35.792  25.832  1.00  0.00    -0.237 OA
ATOM     93  O   UNL A   1      44.070  36.649  26.847  1.00  0.00    -0.744 OA
ENDBRANCH  87  90
ENDBRANCH  60  83
ENDBRANCH  34  35
ENDBRANCH  26  29
ENDBRANCH  24  25
ENDBRANCH  23  24
ENDBRANCH   1  23
TORSDOF 17
ENDMDL
MODEL 3
REMARK VINA RESULT:     -11.7      3.392      8.664
REMARK SMILES O=C(NCCCCNC(=O)c1ccc(-c2c3nc(c(-c4cccc(S(=O)(=O)[O-])c4F)c4ccc([nH]4)c(-c4cccc(S(=O)(=O)[O-])c4F)c4nc(c(-c5cccc(S(=O)(=O)[O-])c5F)c5ccc2[nH]5)C=C4)C=C3)cc1)c1ccc(/N=C\c2ccccc2O)cc1
REMARK SMILES IDX 5 1 4 2 3 3 1 4 2 5 74 7 75 8 88 9 76 10 87 11 77 12 78 13
REMARK SMILES IDX 79 14 80 15 81 16 85 17 82 18 84 19 83 20 86 21 6 23 7 24
REMARK SMILES IDX 8 25 9 26 10 28 11 29 12 30 73 31 13 32 72 33 14 34 15 35
REMARK SMILES IDX 16 36 66 37 17 38 71 39 65 40 67 41 18 42 70 43 64 44 63 45
REMARK SMILES IDX 19 47 51 48 31 49 50 50 32 51 35 52 49 53 68 54 33 55 34 56
REMARK SMILES IDX 48 58 69 59 36 60 20 61 21 62 29 63 22 64 24 65 30 66 23 67
REMARK SMILES IDX 25 68 26 69 27 70 28 71 52 72 53 73 61 74 54 75 56 76 62 77
REMARK SMILES IDX 55 78 57 79 58 80 59 81 60 82 37 83 38 84 46 85 39 86 41 87
REMARK SMILES IDX 47 88 40 89 42 90 43 91 44 92 45 93
REMARK H PARENT 3 6 86 22 8 27 67 46 35 57
REMARK Flexibility Score: inf
ROOT
ATOM      1  C   UNL A   1      32.242  29.972  26.403  1.00  0.00     0.023 C 
ENDROOT
BRANCH   1   2
ATOM      2  C   UNL A   1      32.301  29.688  24.907  1.00  0.00     0.116 C 
BRANCH   2   3
ATOM      3  N   UNL A   1      31.025  29.835  24.228  1.00  0.00    -0.352 N 
ATOM      4  O   UNL A   1      29.188  29.231  23.071  1.00  0.00    -0.269 OA
ATOM      5  C   UNL A   1      30.211  28.889  23.651  1.00  0.00     0.251 C 
ATOM      6  H   UNL A   1      30.690  30.759  24.173  1.00  0.00     0.163 HD
BRANCH   5   7
ATOM      7  C   UNL A   1      30.589  27.456  23.665  1.00  0.00     0.039 A 
ATOM      8  C   UNL A   1      31.251  26.841  22.603  1.00  0.00     0.016 A 
ATOM      9  C   UNL A   1      30.269  26.705  24.795  1.00  0.00     0.016 A 
ATOM     10  C   UNL A   1      31.403  25.452  22.593  1.00  0.00     0.029 A 
ATOM     11  C   UNL A   1      30.499  25.326  24.807  1.00  0.00     0.029 A 
ATOM     12  C   UNL A   1      30.968  24.667  23.666  1.00  0.00     0.063 A 
BRANCH  12  13
ATOM     13  N   UNL A   1      31.065  23.275  23.500  1.00  0.00    -0.256 NA
ATOM     14  C   UNL A   1      32.076  22.533  23.836  1.00  0.00     0.123 C 
BRANCH  14  15
ATOM     15  C   UNL A   1      33.348  22.924  24.456  1.00  0.00     0.035 A 
ATOM     16  C   UNL A   1      33.423  22.776  25.846  1.00  0.00     0.013 A 
ATOM     17  C   UNL A   1      34.461  23.347  23.727  1.00  0.00     0.124 A 
ATOM     18  C   UNL A   1      34.637  22.992  26.498  1.00  0.00     0.001 A 
ATOM     19  C   UNL A   1      35.668  23.572  24.383  1.00  0.00     0.047 A 
ATOM     20  C   UNL A   1      35.760  23.377  25.764  1.00  0.00     0.004 A 
BRANCH  17  21
ATOM     21  O   UNL A   1      34.450  23.533  22.374  1.00  0.00    -0.507 OA
ATOM     22  H   UNL A   1      33.975  22.942  21.823  1.00  0.00     0.293 HD
ENDBRANCH  17  21
ENDBRANCH  14  15
ENDBRANCH  12  13
ENDBRANCH   5   7
ENDBRANCH   2   3
ENDBRANCH   1   2
BRANCH   1  23
ATOM     23  C   UNL A   1      31.853  31.392  26.802  1.00  0.00     0.023 C 
BRANCH  23  24
ATOM     24  C   UNL A   1      32.991  32.284  27.281  1.00  0.00     0.116 C 
BRANCH  24  25
ATOM     25  N   UNL A   1      32.575  33.649  27.571  1.00  0.00    -0.352 N 
ATOM     26  C   UNL A   1      33.074  34.530  28.502  1.00  0.00     0.251 C 
ATOM     27  H   UNL A   1      31.832  33.989  27.022  1.00  0.00     0.163 HD
ATOM     28  O   UNL A   1      32.529  35.617  28.673  1.00  0.00    -0.269 OA
BRANCH  26  29
ATOM     29  C   UNL A   1      34.243  34.148  29.324  1.00  0.00     0.039 A 
ATOM     30  C   UNL A   1      34.032  33.456  30.520  1.00  0.00     0.014 A 
ATOM     31  C   UNL A   1      35.542  34.439  28.900  1.00  0.00     0.014 A 
ATOM     32  C   UNL A   1      35.127  32.979  31.247  1.00  0.00     0.010 A 
ATOM     33  C   UNL A   1      36.627  33.898  29.584  1.00  0.00     0.010 A 
ATOM     34  C   UNL A   1      36.432  33.159  30.762  1.00  0.00    -0.014 A 
BRANCH  34  35
ATOM     35  C   UNL A   1      37.610  32.563  31.449  1.00  0.00     0.031 A 
ATOM     36  C   UNL A   1      38.362  31.426  30.809  1.00  0.00     0.074 A 
ATOM     37  C   UNL A   1      37.929  32.963  32.697  1.00  0.00     0.049 A 
ATOM     38  N   UNL A   1      39.344  30.713  31.293  1.00  0.00    -0.248 NA
ATOM     39  C   UNL A   1      37.933  31.016  29.461  1.00  0.00     0.031 C 
ATOM     40  C   UNL A   1      37.226  33.996  33.461  1.00  0.00     0.029 A 
ATOM     41  N   UNL A   1      38.901  32.520  33.560  1.00  0.00    -0.354 N 
ATOM     42  C   UNL A   1      39.615  29.739  30.340  1.00  0.00     0.074 A 
ATOM     43  C   UNL A   1      38.683  29.942  29.252  1.00  0.00     0.031 C 
ATOM     44  C   UNL A   1      37.785  34.103  34.678  1.00  0.00     0.029 A 
ATOM     45  C   UNL A   1      38.864  33.128  34.795  1.00  0.00     0.049 A 
ATOM     46  H   UNL A   1      39.563  31.833  33.318  1.00  0.00     0.167 HD
ATOM     47  C   UNL A   1      40.567  28.777  30.357  1.00  0.00     0.034 A 
ATOM     48  C   UNL A   1      39.605  32.914  35.900  1.00  0.00     0.034 A 
ATOM     49  C   UNL A   1      41.538  28.624  31.405  1.00  0.00     0.049 A 
ATOM     50  C   UNL A   1      40.699  31.880  35.862  1.00  0.00     0.074 A 
ATOM     51  C   UNL A   1      42.624  27.766  31.448  1.00  0.00     0.029 A 
ATOM     52  N   UNL A   1      41.541  29.334  32.594  1.00  0.00    -0.354 N 
ATOM     53  N   UNL A   1      41.062  31.100  34.872  1.00  0.00    -0.248 NA
ATOM     54  C   UNL A   1      41.507  31.717  37.080  1.00  0.00     0.031 C 
ATOM     55  C   UNL A   1      43.270  27.942  32.676  1.00  0.00     0.029 A 
ATOM     56  C   UNL A   1      42.599  28.924  33.386  1.00  0.00     0.049 A 
ATOM     57  H   UNL A   1      40.886  30.027  32.838  1.00  0.00     0.167 HD
ATOM     58  C   UNL A   1      42.165  30.389  35.333  1.00  0.00     0.074 A 
ATOM     59  C   UNL A   1      42.421  30.842  36.684  1.00  0.00     0.031 C 
ATOM     60  C   UNL A   1      42.888  29.433  34.701  1.00  0.00     0.034 A 
BRANCH  47  61
ATOM     61  C   UNL A   1      40.653  27.842  29.181  1.00  0.00     0.023 A 
ATOM     62  C   UNL A   1      39.791  26.729  29.113  1.00  0.00     0.012 A 
ATOM     63  C   UNL A   1      41.518  28.115  28.104  1.00  0.00     0.148 A 
ATOM     64  C   UNL A   1      39.804  25.889  27.999  1.00  0.00     0.002 A 
ATOM     65  C   UNL A   1      41.495  27.298  26.980  1.00  0.00     0.091 A 
ATOM     66  F   UNL A   1      42.344  29.167  28.198  1.00  0.00    -0.205 F 
ATOM     67  C   UNL A   1      40.645  26.180  26.930  1.00  0.00     0.022 A 
BRANCH  65  68
ATOM     68  S   UNL A   1      42.480  27.634  25.515  1.00  0.00     0.127 S 
ATOM     69  O   UNL A   1      41.905  28.898  25.057  1.00  0.00    -0.237 OA
ATOM     70  O   UNL A   1      43.829  27.745  26.072  1.00  0.00    -0.237 OA
ATOM     71  O   UNL A   1      42.280  26.499  24.625  1.00  0.00    -0.744 OA
ENDBRANCH  65  68
ENDBRANCH  47  61
BRANCH  48  72
ATOM     72  C   UNL A   1      39.387  33.738  37.124  1.00  0.00     0.023 A 
ATOM     73  C   UNL A   1      39.858  35.066  37.153  1.00  0.00     0.012 A 
ATOM     74  C   UNL A   1      38.720  33.225  38.252  1.00  0.00     0.148 A 
ATOM     75  C   UNL A   1      39.708  35.852  38.297  1.00  0.00     0.002 A 
ATOM     76  C   UNL A   1      38.524  34.031  39.369  1.00  0.00     0.091 A 
ATOM     77  F   UNL A   1      38.293  31.954  38.215  1.00  0.00    -0.205 F 
ATOM     78  C   UNL A   1      39.033  35.338  39.401  1.00  0.00     0.022 A 
BRANCH  76  79
ATOM     79  S   UNL A   1      37.552  33.487  40.779  1.00  0.00     0.127 S 
ATOM     80  O   UNL A   1      38.376  32.405  41.312  1.00  0.00    -0.237 OA
ATOM     81  O   UNL A   1      37.510  34.693  41.606  1.00  0.00    -0.237 OA
ATOM     82  O   UNL A   1      36.261  33.097  40.229  1.00  0.00    -0.744 OA
ENDBRANCH  76  79
ENDBRANCH  48  72
BRANCH  60  83
ATOM     83  C   UNL A   1      44.062  28.838  35.431  1.00  0.00     0.023 A 
ATOM     84  C   UNL A   1      45.331  29.439  35.324  1.00  0.00     0.012 A 
ATOM     85  C   UNL A   1      43.886  27.740  36.296  1.00  0.00     0.148 A 
ATOM     86  C   UNL A   1      46.414  28.938  36.045  1.00  0.00     0.002 A 
ATOM     87  C   UNL A   1      44.958  27.277  37.050  1.00  0.00     0.091 A 
ATOM     88  F   UNL A   1      42.673  27.171  36.371  1.00  0.00    -0.205 F 
ATOM     89  C   UNL A   1      46.225  27.869  36.918  1.00  0.00     0.022 A 
BRANCH  87  90
ATOM     90  S   UNL A   1      44.784  25.971  38.271  1.00  0.00     0.127 S 
ATOM     91  O   UNL A   1      44.411  24.831  37.435  1.00  0.00    -0.237 OA
ATOM     92  O   UNL A   1      46.128  25.895  38.841  1.00  0.00    -0.237 OA
ATOM     93  O   UNL A   1      43.759  26.427  39.201  1.00  0.00    -0.744 OA
ENDBRANCH  87  90
ENDBRANCH  60  83
ENDBRANCH  34  35
ENDBRANCH  26  29
ENDBRANCH  24  25
ENDBRANCH  23  24
ENDBRANCH   1  23
TORSDOF 17
ENDMDL
