MODEL 1
REMARK VINA RESULT:     -11.6      0.000      0.000
REMARK SMILES O=C(NCCCCNC(=O)c1cccc(Br)c1C(F)(F)F)c1ccc(-c2c3nc(c(-c4cccc(S(=O)(=O)[O-])c4F)c4ccc([nH]4)c(-c4cccc(S(=O)(=O)[O-])c4F)c4nc(c(-c5cccc(S(=O)(=O)[O-])c5F)c5ccc2[nH]5)C=C4)C=C3)cc1
REMARK SMILES IDX 4 1 3 2 1 3 2 4 22 6 23 7 84 8 24 9 83 10 25 11 26 12 27 13
REMARK SMILES IDX 77 14 28 15 82 16 76 17 78 18 29 19 81 20 75 21 74 22 30 24
REMARK SMILES IDX 62 25 42 26 61 27 43 28 46 29 60 30 79 31 44 32 45 33 59 35
REMARK SMILES IDX 80 36 47 37 31 38 32 39 40 40 33 41 35 42 41 43 34 44 36 45
REMARK SMILES IDX 37 46 38 47 39 48 63 49 64 50 72 51 65 52 67 53 73 54 66 55
REMARK SMILES IDX 68 56 69 57 70 58 71 59 48 60 49 61 57 62 50 63 52 64 58 65
REMARK SMILES IDX 51 66 53 67 54 68 55 69 56 70 5 71 6 72 7 73 8 74 9 75 10 77
REMARK SMILES IDX 11 78 12 79 17 80 13 81 15 82 14 83 16 84 18 85 19 86 20 87
REMARK SMILES IDX 21 88
REMARK H PARENT 3 5 78 23 46 34 8 76
REMARK Flexibility Score: inf
ROOT
ATOM      1  C   UNL A   1      38.918  20.070  25.781  1.00  0.00     0.116 C 
ENDROOT
BRANCH   1   2
ATOM      2  N   UNL A   1      40.085  19.211  25.896  1.00  0.00    -0.352 N 
ATOM      3  O   UNL A   1      42.274  18.708  26.033  1.00  0.00    -0.269 OA
ATOM      4  C   UNL A   1      41.394  19.558  26.134  1.00  0.00     0.251 C 
ATOM      5  H   UNL A   1      39.914  18.248  25.789  1.00  0.00     0.163 HD
BRANCH   4   6
ATOM      6  C   UNL A   1      41.732  20.954  26.489  1.00  0.00     0.039 A 
ATOM      7  C   UNL A   1      41.855  21.338  27.828  1.00  0.00     0.014 A 
ATOM      8  C   UNL A   1      41.941  21.887  25.470  1.00  0.00     0.014 A 
ATOM      9  C   UNL A   1      42.064  22.675  28.149  1.00  0.00     0.010 A 
ATOM     10  C   UNL A   1      42.234  23.215  25.795  1.00  0.00     0.010 A 
ATOM     11  C   UNL A   1      42.281  23.623  27.137  1.00  0.00    -0.014 A 
BRANCH  11  12
ATOM     12  C   UNL A   1      42.690  25.002  27.505  1.00  0.00     0.031 A 
ATOM     13  C   UNL A   1      41.722  25.975  28.115  1.00  0.00     0.074 A 
ATOM     14  C   UNL A   1      43.956  25.380  27.235  1.00  0.00     0.049 A 
ATOM     15  N   UNL A   1      41.927  27.219  28.464  1.00  0.00    -0.248 NA
ATOM     16  C   UNL A   1      40.350  25.504  28.360  1.00  0.00     0.031 C 
ATOM     17  C   UNL A   1      44.966  24.532  26.592  1.00  0.00     0.029 A 
ATOM     18  N   UNL A   1      44.605  26.570  27.437  1.00  0.00    -0.354 N 
ATOM     19  C   UNL A   1      40.705  27.695  28.926  1.00  0.00     0.074 A 
ATOM     20  C   UNL A   1      39.762  26.601  28.822  1.00  0.00     0.031 C 
ATOM     21  C   UNL A   1      46.101  25.229  26.449  1.00  0.00     0.029 A 
ATOM     22  C   UNL A   1      45.886  26.585  26.935  1.00  0.00     0.049 A 
ATOM     23  H   UNL A   1      44.196  27.338  27.897  1.00  0.00     0.167 HD
ATOM     24  C   UNL A   1      40.405  28.930  29.396  1.00  0.00     0.034 A 
ATOM     25  C   UNL A   1      46.779  27.588  26.836  1.00  0.00     0.034 A 
ATOM     26  C   UNL A   1      41.363  29.996  29.534  1.00  0.00     0.049 A 
ATOM     27  C   UNL A   1      46.413  28.939  27.376  1.00  0.00     0.074 A 
ATOM     28  C   UNL A   1      41.182  31.241  30.114  1.00  0.00     0.029 A 
ATOM     29  N   UNL A   1      42.665  29.961  29.062  1.00  0.00    -0.354 N 
ATOM     30  N   UNL A   1      45.313  29.313  27.980  1.00  0.00    -0.248 NA
ATOM     31  C   UNL A   1      47.419  30.003  27.242  1.00  0.00     0.031 C 
ATOM     32  C   UNL A   1      42.364  31.972  29.958  1.00  0.00     0.029 A 
ATOM     33  C   UNL A   1      43.288  31.174  29.304  1.00  0.00     0.049 A 
ATOM     34  H   UNL A   1      43.086  29.188  28.622  1.00  0.00     0.167 HD
ATOM     35  C   UNL A   1      45.496  30.650  28.309  1.00  0.00     0.074 A 
ATOM     36  C   UNL A   1      46.829  31.009  27.872  1.00  0.00     0.031 C 
ATOM     37  C   UNL A   1      44.628  31.508  28.899  1.00  0.00     0.034 A 
BRANCH  24  38
ATOM     38  C   UNL A   1      38.992  29.211  29.832  1.00  0.00     0.023 A 
ATOM     39  C   UNL A   1      38.594  28.909  31.150  1.00  0.00     0.012 A 
ATOM     40  C   UNL A   1      38.101  29.892  28.978  1.00  0.00     0.148 A 
ATOM     41  C   UNL A   1      37.327  29.273  31.608  1.00  0.00     0.002 A 
ATOM     42  C   UNL A   1      36.855  30.283  29.453  1.00  0.00     0.091 A 
ATOM     43  F   UNL A   1      38.497  30.155  27.724  1.00  0.00    -0.205 F 
ATOM     44  C   UNL A   1      36.465  29.969  30.765  1.00  0.00     0.022 A 
BRANCH  42  45
ATOM     45  S   UNL A   1      35.700  31.251  28.473  1.00  0.00     0.127 S 
ATOM     46  O   UNL A   1      35.270  30.272  27.476  1.00  0.00    -0.237 OA
ATOM     47  O   UNL A   1      34.680  31.604  29.461  1.00  0.00    -0.237 OA
ATOM     48  O   UNL A   1      36.460  32.378  27.950  1.00  0.00    -0.744 OA
ENDBRANCH  42  45
ENDBRANCH  24  38
BRANCH  25  49
ATOM     49  C   UNL A   1      48.101  27.342  26.196  1.00  0.00     0.023 A 
ATOM     50  C   UNL A   1      49.180  26.887  26.976  1.00  0.00     0.012 A 
ATOM     51  C   UNL A   1      48.284  27.528  24.812  1.00  0.00     0.148 A 
ATOM     52  C   UNL A   1      50.425  26.649  26.393  1.00  0.00     0.002 A 
ATOM     53  C   UNL A   1      49.509  27.229  24.227  1.00  0.00     0.091 A 
ATOM     54  F   UNL A   1      47.251  27.983  24.087  1.00  0.00    -0.205 F 
ATOM     55  C   UNL A   1      50.586  26.808  25.018  1.00  0.00     0.022 A 
BRANCH  53  56
ATOM     56  S   UNL A   1      49.743  27.265  22.447  1.00  0.00     0.127 S 
ATOM     57  O   UNL A   1      51.130  26.829  22.318  1.00  0.00    -0.237 OA
ATOM     58  O   UNL A   1      48.748  26.296  21.986  1.00  0.00    -0.237 OA
ATOM     59  O   UNL A   1      49.461  28.639  22.050  1.00  0.00    -0.744 OA
ENDBRANCH  53  56
ENDBRANCH  25  49
BRANCH  37  60
ATOM     60  C   UNL A   1      45.091  32.925  29.110  1.00  0.00     0.023 A 
ATOM     61  C   UNL A   1      45.775  33.259  30.296  1.00  0.00     0.012 A 
ATOM     62  C   UNL A   1      44.915  33.901  28.111  1.00  0.00     0.148 A 
ATOM     63  C   UNL A   1      46.255  34.553  30.494  1.00  0.00     0.002 A 
ATOM     64  C   UNL A   1      45.438  35.175  28.296  1.00  0.00     0.091 A 
ATOM     65  F   UNL A   1      44.247  33.563  26.999  1.00  0.00    -0.205 F 
ATOM     66  C   UNL A   1      46.098  35.505  29.491  1.00  0.00     0.022 A 
BRANCH  64  67
ATOM     67  S   UNL A   1      45.366  36.443  27.026  1.00  0.00     0.127 S 
ATOM     68  O   UNL A   1      46.086  37.545  27.663  1.00  0.00    -0.237 OA
ATOM     69  O   UNL A   1      46.076  35.810  25.916  1.00  0.00    -0.237 OA
ATOM     70  O   UNL A   1      43.951  36.688  26.780  1.00  0.00    -0.744 OA
ENDBRANCH  64  67
ENDBRANCH  37  60
ENDBRANCH  11  12
ENDBRANCH   4   6
ENDBRANCH   1   2
BRANCH   1  71
ATOM     71  C   UNL A   1      37.792  19.429  24.980  1.00  0.00     0.023 C 
BRANCH  71  72
ATOM     72  C   UNL A   1      36.484  20.218  24.946  1.00  0.00     0.023 C 
BRANCH  72  73
ATOM     73  C   UNL A   1      36.555  21.629  25.520  1.00  0.00     0.116 C 
BRANCH  73  74
ATOM     74  N   UNL A   1      35.553  21.878  26.549  1.00  0.00    -0.352 N 
ATOM     75  C   UNL A   1      34.255  22.283  26.419  1.00  0.00     0.251 C 
ATOM     76  H   UNL A   1      35.856  21.732  27.473  1.00  0.00     0.163 HD
ATOM     77  O   UNL A   1      33.542  22.461  27.404  1.00  0.00    -0.269 OA
BRANCH  75  78
ATOM     78  C   UNL A   1      33.680  22.514  25.078  1.00  0.00     0.053 A 
ATOM     79  C   UNL A   1      33.066  21.419  24.445  1.00  0.00     0.014 A 
ATOM     80  C   UNL A   1      33.693  23.799  24.491  1.00  0.00     0.082 A 
ATOM     81  C   UNL A   1      32.518  21.566  23.180  1.00  0.00     0.002 A 
ATOM     82  C   UNL A   1      33.086  23.930  23.231  1.00  0.00     0.031 A 
ATOM     83  C   UNL A   1      32.530  22.818  22.576  1.00  0.00     0.016 A 
ATOM     84  Br  UNL A   1      32.916  25.581  22.301  1.00  0.00    -0.050 Br
BRANCH  80  85
ATOM     85  C   UNL A   1      34.307  24.953  25.248  1.00  0.00     0.418 C 
ATOM     86  F   UNL A   1      34.436  26.074  24.487  1.00  0.00    -0.166 F 
ATOM     87  F   UNL A   1      33.600  25.308  26.360  1.00  0.00    -0.166 F 
ATOM     88  F   UNL A   1      35.558  24.707  25.734  1.00  0.00    -0.166 F 
ENDBRANCH  80  85
ENDBRANCH  75  78
ENDBRANCH  73  74
ENDBRANCH  72  73
ENDBRANCH  71  72
ENDBRANCH   1  71
TORSDOF 15
ENDMDL
MODEL 2
REMARK VINA RESULT:     -11.4      6.100     11.256
REMARK SMILES O=C(NCCCCNC(=O)c1cccc(Br)c1C(F)(F)F)c1ccc(-c2c3nc(c(-c4cccc(S(=O)(=O)[O-])c4F)c4ccc([nH]4)c(-c4cccc(S(=O)(=O)[O-])c4F)c4nc(c(-c5cccc(S(=O)(=O)[O-])c5F)c5ccc2[nH]5)C=C4)C=C3)cc1
REMARK SMILES IDX 4 1 3 2 1 3 2 4 22 6 23 7 84 8 24 9 83 10 25 11 26 12 27 13
REMARK SMILES IDX 77 14 28 15 82 16 76 17 78 18 29 19 81 20 75 21 74 22 30 24
REMARK SMILES IDX 62 25 42 26 61 27 43 28 46 29 60 30 79 31 44 32 45 33 59 35
REMARK SMILES IDX 80 36 47 37 31 38 32 39 40 40 33 41 35 42 41 43 34 44 36 45
REMARK SMILES IDX 37 46 38 47 39 48 63 49 64 50 72 51 65 52 67 53 73 54 66 55
REMARK SMILES IDX 68 56 69 57 70 58 71 59 48 60 49 61 57 62 50 63 52 64 58 65
REMARK SMILES IDX 51 66 53 67 54 68 55 69 56 70 5 71 6 72 7 73 8 74 9 75 10 77
REMARK SMILES IDX 11 78 12 79 17 80 13 81 15 82 14 83 16 84 18 85 19 86 20 87
REMARK SMILES IDX 21 88
REMARK H PARENT 3 5 78 23 46 34 8 76
REMARK Flexibility Score: inf
ROOT
ATOM      1  C   UNL A   1      32.713  32.604  27.084  1.00  0.00     0.116 C 
ENDROOT
BRANCH   1   2
ATOM      2  N   UNL A   1      32.652  33.951  27.625  1.00  0.00    -0.352 N 
ATOM      3  O   UNL A   1      33.117  35.626  29.055  1.00  0.00    -0.269 OA
ATOM      4  C   UNL A   1      33.422  34.523  28.610  1.00  0.00     0.251 C 
ATOM      5  H   UNL A   1      31.964  34.535  27.232  1.00  0.00     0.163 HD
BRANCH   4   6
ATOM      6  C   UNL A   1      34.598  33.797  29.139  1.00  0.00     0.039 A 
ATOM      7  C   UNL A   1      35.894  34.224  28.834  1.00  0.00     0.014 A 
ATOM      8  C   UNL A   1      34.402  32.684  29.960  1.00  0.00     0.014 A 
ATOM      9  C   UNL A   1      36.988  33.469  29.246  1.00  0.00     0.010 A 
ATOM     10  C   UNL A   1      35.507  31.974  30.442  1.00  0.00     0.010 A 
ATOM     11  C   UNL A   1      36.807  32.351  30.075  1.00  0.00    -0.014 A 
BRANCH  11  12
ATOM     12  C   UNL A   1      37.994  31.676  30.657  1.00  0.00     0.031 A 
ATOM     13  C   UNL A   1      38.744  30.613  29.906  1.00  0.00     0.074 A 
ATOM     14  C   UNL A   1      38.362  32.011  31.910  1.00  0.00     0.049 A 
ATOM     15  N   UNL A   1      39.781  29.917  30.294  1.00  0.00    -0.248 NA
ATOM     16  C   UNL A   1      38.273  30.279  28.552  1.00  0.00     0.031 C 
ATOM     17  C   UNL A   1      37.670  32.992  32.753  1.00  0.00     0.029 A 
ATOM     18  N   UNL A   1      39.383  31.555  32.704  1.00  0.00    -0.354 N 
ATOM     19  C   UNL A   1      40.060  29.032  29.259  1.00  0.00     0.074 A 
ATOM     20  C   UNL A   1      39.088  29.285  28.217  1.00  0.00     0.031 C 
ATOM     21  C   UNL A   1      38.281  33.060  33.944  1.00  0.00     0.029 A 
ATOM     22  C   UNL A   1      39.369  32.090  33.971  1.00  0.00     0.049 A 
ATOM     23  H   UNL A   1      40.058  30.908  32.398  1.00  0.00     0.167 HD
ATOM     24  C   UNL A   1      41.042  28.101  29.188  1.00  0.00     0.034 A 
ATOM     25  C   UNL A   1      40.120  31.807  35.052  1.00  0.00     0.034 A 
ATOM     26  C   UNL A   1      42.029  27.889  30.214  1.00  0.00     0.049 A 
ATOM     27  C   UNL A   1      41.203  30.776  34.932  1.00  0.00     0.074 A 
ATOM     28  C   UNL A   1      43.135  27.055  30.180  1.00  0.00     0.029 A 
ATOM     29  N   UNL A   1      42.017  28.485  31.464  1.00  0.00    -0.354 N 
ATOM     30  N   UNL A   1      41.568  30.085  33.880  1.00  0.00    -0.248 NA
ATOM     31  C   UNL A   1      41.993  30.498  36.140  1.00  0.00     0.031 C 
ATOM     32  C   UNL A   1      43.768  27.118  31.425  1.00  0.00     0.029 A 
ATOM     33  C   UNL A   1      43.073  28.010  32.225  1.00  0.00     0.049 A 
ATOM     34  H   UNL A   1      41.356  29.148  31.768  1.00  0.00     0.167 HD
ATOM     35  C   UNL A   1      42.637  29.301  34.294  1.00  0.00     0.074 A 
ATOM     36  C   UNL A   1      42.885  29.630  35.683  1.00  0.00     0.031 C 
ATOM     37  C   UNL A   1      43.333  28.373  33.593  1.00  0.00     0.034 A 
BRANCH  24  38
ATOM     38  C   UNL A   1      41.136  27.246  27.953  1.00  0.00     0.023 A 
ATOM     39  C   UNL A   1      41.790  27.742  26.807  1.00  0.00     0.012 A 
ATOM     40  C   UNL A   1      40.692  25.908  27.972  1.00  0.00     0.148 A 
ATOM     41  C   UNL A   1      41.992  26.922  25.696  1.00  0.00     0.002 A 
ATOM     42  C   UNL A   1      40.930  25.087  26.876  1.00  0.00     0.091 A 
ATOM     43  F   UNL A   1      40.059  25.463  29.067  1.00  0.00    -0.205 F 
ATOM     44  C   UNL A   1      41.574  25.595  25.736  1.00  0.00     0.022 A 
BRANCH  42  45
ATOM     45  S   UNL A   1      40.501  23.342  26.856  1.00  0.00     0.127 S 
ATOM     46  O   UNL A   1      41.335  22.848  25.761  1.00  0.00    -0.237 OA
ATOM     47  O   UNL A   1      40.922  22.906  28.188  1.00  0.00    -0.237 OA
ATOM     48  O   UNL A   1      39.066  23.282  26.619  1.00  0.00    -0.744 OA
ENDBRANCH  42  45
ENDBRANCH  24  38
BRANCH  25  49
ATOM     49  C   UNL A   1      39.863  32.513  36.338  1.00  0.00     0.023 A 
ATOM     50  C   UNL A   1      40.645  33.630  36.689  1.00  0.00     0.012 A 
ATOM     51  C   UNL A   1      38.826  32.102  37.199  1.00  0.00     0.148 A 
ATOM     52  C   UNL A   1      40.417  34.305  37.889  1.00  0.00     0.002 A 
ATOM     53  C   UNL A   1      38.565  32.818  38.361  1.00  0.00     0.091 A 
ATOM     54  F   UNL A   1      38.105  31.024  36.859  1.00  0.00    -0.205 F 
ATOM     55  C   UNL A   1      39.370  33.907  38.717  1.00  0.00     0.022 A 
BRANCH  53  56
ATOM     56  S   UNL A   1      37.142  32.456  39.396  1.00  0.00     0.127 S 
ATOM     57  O   UNL A   1      37.385  31.064  39.763  1.00  0.00    -0.237 OA
ATOM     58  O   UNL A   1      37.303  33.417  40.488  1.00  0.00    -0.237 OA
ATOM     59  O   UNL A   1      35.980  32.705  38.553  1.00  0.00    -0.744 OA
ENDBRANCH  53  56
ENDBRANCH  25  49
BRANCH  37  60
ATOM     60  C   UNL A   1      44.436  27.645  34.313  1.00  0.00     0.023 A 
ATOM     61  C   UNL A   1      45.730  28.204  34.342  1.00  0.00     0.012 A 
ATOM     62  C   UNL A   1      44.178  26.454  35.017  1.00  0.00     0.148 A 
ATOM     63  C   UNL A   1      46.757  27.573  35.042  1.00  0.00     0.002 A 
ATOM     64  C   UNL A   1      45.196  25.857  35.752  1.00  0.00     0.091 A 
ATOM     65  F   UNL A   1      42.945  25.933  34.961  1.00  0.00    -0.205 F 
ATOM     66  C   UNL A   1      46.487  26.409  35.756  1.00  0.00     0.022 A 
BRANCH  64  67
ATOM     67  S   UNL A   1      44.925  24.406  36.775  1.00  0.00     0.127 S 
ATOM     68  O   UNL A   1      46.273  24.138  37.276  1.00  0.00    -0.237 OA
ATOM     69  O   UNL A   1      43.989  24.907  37.780  1.00  0.00    -0.237 OA
ATOM     70  O   UNL A   1      44.377  23.385  35.892  1.00  0.00    -0.744 OA
ENDBRANCH  64  67
ENDBRANCH  37  60
ENDBRANCH  11  12
ENDBRANCH   4   6
ENDBRANCH   1   2
BRANCH   1  71
ATOM     71  C   UNL A   1      31.378  32.135  26.520  1.00  0.00     0.023 C 
BRANCH  71  72
ATOM     72  C   UNL A   1      31.393  30.752  25.871  1.00  0.00     0.023 C 
BRANCH  72  73
ATOM     73  C   UNL A   1      32.641  29.917  26.135  1.00  0.00     0.116 C 
BRANCH  73  74
ATOM     74  N   UNL A   1      33.371  29.581  24.919  1.00  0.00    -0.352 N 
ATOM     75  C   UNL A   1      33.151  28.574  24.023  1.00  0.00     0.251 C 
ATOM     76  H   UNL A   1      34.135  30.166  24.713  1.00  0.00     0.163 HD
ATOM     77  O   UNL A   1      33.879  28.422  23.045  1.00  0.00    -0.269 OA
BRANCH  75  78
ATOM     78  C   UNL A   1      32.020  27.643  24.214  1.00  0.00     0.053 A 
ATOM     79  C   UNL A   1      30.788  28.002  23.640  1.00  0.00     0.014 A 
ATOM     80  C   UNL A   1      32.193  26.416  24.893  1.00  0.00     0.082 A 
ATOM     81  C   UNL A   1      29.683  27.179  23.794  1.00  0.00     0.002 A 
ATOM     82  C   UNL A   1      31.069  25.579  24.990  1.00  0.00     0.031 A 
ATOM     83  C   UNL A   1      29.825  25.972  24.469  1.00  0.00     0.016 A 
ATOM     84  Br  UNL A   1      31.100  23.849  25.784  1.00  0.00    -0.050 Br
BRANCH  80  85
ATOM     85  C   UNL A   1      33.557  26.053  25.430  1.00  0.00     0.418 C 
ATOM     86  F   UNL A   1      34.095  27.032  26.207  1.00  0.00    -0.166 F 
ATOM     87  F   UNL A   1      33.559  24.910  26.174  1.00  0.00    -0.166 F 
ATOM     88  F   UNL A   1      34.494  25.807  24.469  1.00  0.00    -0.166 F 
ENDBRANCH  80  85
ENDBRANCH  75  78
ENDBRANCH  73  74
ENDBRANCH  72  73
ENDBRANCH  71  72
ENDBRANCH   1  71
TORSDOF 15
ENDMDL
MODEL 3
REMARK VINA RESULT:     -11.2      6.597     11.563
REMARK SMILES O=C(NCCCCNC(=O)c1cccc(Br)c1C(F)(F)F)c1ccc(-c2c3nc(c(-c4cccc(S(=O)(=O)[O-])c4F)c4ccc([nH]4)c(-c4cccc(S(=O)(=O)[O-])c4F)c4nc(c(-c5cccc(S(=O)(=O)[O-])c5F)c5ccc2[nH]5)C=C4)C=C3)cc1
REMARK SMILES IDX 4 1 3 2 1 3 2 4 22 6 23 7 84 8 24 9 83 10 25 11 26 12 27 13
REMARK SMILES IDX 77 14 28 15 82 16 76 17 78 18 29 19 81 20 75 21 74 22 30 24
REMARK SMILES IDX 62 25 42 26 61 27 43 28 46 29 60 30 79 31 44 32 45 33 59 35
REMARK SMILES IDX 80 36 47 37 31 38 32 39 40 40 33 41 35 42 41 43 34 44 36 45
REMARK SMILES IDX 37 46 38 47 39 48 63 49 64 50 72 51 65 52 67 53 73 54 66 55
REMARK SMILES IDX 68 56 69 57 70 58 71 59 48 60 49 61 57 62 50 63 52 64 58 65
REMARK SMILES IDX 51 66 53 67 54 68 55 69 56 70 5 71 6 72 7 73 8 74 9 75 10 77
REMARK SMILES IDX 11 78 12 79 17 80 13 81 15 82 14 83 16 84 18 85 19 86 20 87
REMARK SMILES IDX 21 88
REMARK H PARENT 3 5 78 23 46 34 8 76
REMARK Flexibility Score: inf
ROOT
ATOM      1  C   UNL A   1      32.635  32.814  27.363  1.00  0.00     0.116 C 
ENDROOT
BRANCH   1   2
ATOM      2  N   UNL A   1      32.537  34.197  27.801  1.00  0.00    -0.352 N 
ATOM      3  O   UNL A   1      32.931  35.980  29.117  1.00  0.00    -0.269 OA
ATOM      4  C   UNL A   1      33.267  34.852  28.764  1.00  0.00     0.251 C 
ATOM      5  H   UNL A   1      31.855  34.738  27.344  1.00  0.00     0.163 HD
BRANCH   4   6
ATOM      6  C   UNL A   1      34.435  34.187  29.383  1.00  0.00     0.039 A 
ATOM      7  C   UNL A   1      35.727  34.429  28.905  1.00  0.00     0.014 A 
ATOM      8  C   UNL A   1      34.238  33.322  30.462  1.00  0.00     0.014 A 
ATOM      9  C   UNL A   1      36.802  33.714  29.421  1.00  0.00     0.010 A 
ATOM     10  C   UNL A   1      35.332  32.667  31.035  1.00  0.00     0.010 A 
ATOM     11  C   UNL A   1      36.621  32.845  30.509  1.00  0.00    -0.014 A 
BRANCH  11  12
ATOM     12  C   UNL A   1      37.807  32.241  31.165  1.00  0.00     0.031 A 
ATOM     13  C   UNL A   1      38.556  31.097  30.542  1.00  0.00     0.074 A 
ATOM     14  C   UNL A   1      38.175  32.719  32.371  1.00  0.00     0.049 A 
ATOM     15  N   UNL A   1      39.593  30.450  31.008  1.00  0.00    -0.248 NA
ATOM     16  C   UNL A   1      38.085  30.609  29.236  1.00  0.00     0.031 C 
ATOM     17  C   UNL A   1      37.484  33.791  33.095  1.00  0.00     0.029 A 
ATOM     18  N   UNL A   1      39.195  32.356  33.213  1.00  0.00    -0.354 N 
ATOM     19  C   UNL A   1      39.871  29.452  30.083  1.00  0.00     0.074 A 
ATOM     20  C   UNL A   1      38.899  29.583  29.018  1.00  0.00     0.031 C 
ATOM     21  C   UNL A   1      38.095  33.995  34.270  1.00  0.00     0.029 A 
ATOM     22  C   UNL A   1      39.181  33.035  34.409  1.00  0.00     0.049 A 
ATOM     23  H   UNL A   1      39.870  31.678  32.983  1.00  0.00     0.167 HD
ATOM     24  C   UNL A   1      40.852  28.518  30.120  1.00  0.00     0.034 A 
ATOM     25  C   UNL A   1      39.932  32.878  35.516  1.00  0.00     0.034 A 
ATOM     26  C   UNL A   1      41.839  28.425  31.164  1.00  0.00     0.049 A 
ATOM     27  C   UNL A   1      41.014  31.839  35.516  1.00  0.00     0.074 A 
ATOM     28  C   UNL A   1      42.945  27.593  31.227  1.00  0.00     0.029 A 
ATOM     29  N   UNL A   1      41.827  29.162  32.337  1.00  0.00    -0.354 N 
ATOM     30  N   UNL A   1      41.379  31.031  34.552  1.00  0.00    -0.248 NA
ATOM     31  C   UNL A   1      41.804  31.702  36.748  1.00  0.00     0.031 C 
ATOM     32  C   UNL A   1      43.578  27.799  32.456  1.00  0.00     0.029 A 
ATOM     33  C   UNL A   1      42.883  28.778  33.148  1.00  0.00     0.049 A 
ATOM     34  H   UNL A   1      41.167  29.857  32.562  1.00  0.00     0.167 HD
ATOM     35  C   UNL A   1      42.447  30.299  35.053  1.00  0.00     0.074 A 
ATOM     36  C   UNL A   1      42.696  30.787  36.395  1.00  0.00     0.031 C 
ATOM     37  C   UNL A   1      43.143  29.297  34.465  1.00  0.00     0.034 A 
BRANCH  24  38
ATOM     38  C   UNL A   1      40.946  27.525  28.992  1.00  0.00     0.023 A 
ATOM     39  C   UNL A   1      40.038  26.450  28.930  1.00  0.00     0.012 A 
ATOM     40  C   UNL A   1      41.848  27.733  27.929  1.00  0.00     0.148 A 
ATOM     41  C   UNL A   1      40.032  25.590  27.831  1.00  0.00     0.002 A 
ATOM     42  C   UNL A   1      41.811  26.895  26.821  1.00  0.00     0.091 A 
ATOM     43  F   UNL A   1      42.713  28.754  28.017  1.00  0.00    -0.205 F 
ATOM     44  C   UNL A   1      40.909  25.820  26.774  1.00  0.00     0.022 A 
BRANCH  42  45
ATOM     45  S   UNL A   1      42.844  27.151  25.372  1.00  0.00     0.127 S 
ATOM     46  O   UNL A   1      44.159  27.351  25.981  1.00  0.00    -0.237 OA
ATOM     47  O   UNL A   1      42.690  25.884  24.657  1.00  0.00    -0.237 OA
ATOM     48  O   UNL A   1      42.295  28.311  24.685  1.00  0.00    -0.744 OA
ENDBRANCH  42  45
ENDBRANCH  24  38
BRANCH  25  49
ATOM     49  C   UNL A   1      39.675  33.729  36.711  1.00  0.00     0.023 A 
ATOM     50  C   UNL A   1      40.033  35.090  36.689  1.00  0.00     0.012 A 
ATOM     51  C   UNL A   1      39.050  33.201  37.858  1.00  0.00     0.148 A 
ATOM     52  C   UNL A   1      39.798  35.902  37.799  1.00  0.00     0.002 A 
ATOM     53  C   UNL A   1      38.762  34.030  38.935  1.00  0.00     0.091 A 
ATOM     54  F   UNL A   1      38.736  31.897  37.870  1.00  0.00    -0.205 F 
ATOM     55  C   UNL A   1      39.152  35.376  38.916  1.00  0.00     0.022 A 
BRANCH  53  56
ATOM     56  S   UNL A   1      37.801  33.459  40.341  1.00  0.00     0.127 S 
ATOM     57  O   UNL A   1      37.704  34.670  41.150  1.00  0.00    -0.237 OA
ATOM     58  O   UNL A   1      36.550  33.040  39.707  1.00  0.00    -0.237 OA
ATOM     59  O   UNL A   1      38.571  32.363  40.914  1.00  0.00    -0.744 OA
ENDBRANCH  53  56
ENDBRANCH  25  49
BRANCH  37  60
ATOM     60  C   UNL A   1      44.246  28.656  35.264  1.00  0.00     0.023 A 
ATOM     61  C   UNL A   1      45.561  29.150  35.149  1.00  0.00     0.012 A 
ATOM     62  C   UNL A   1      43.970  27.621  36.178  1.00  0.00     0.148 A 
ATOM     63  C   UNL A   1      46.591  28.605  35.914  1.00  0.00     0.002 A 
ATOM     64  C   UNL A   1      44.993  27.116  36.972  1.00  0.00     0.091 A 
ATOM     65  F   UNL A   1      42.715  27.157  36.259  1.00  0.00    -0.205 F 
ATOM     66  C   UNL A   1      46.305  27.598  36.833  1.00  0.00     0.022 A 
BRANCH  64  67
ATOM     67  S   UNL A   1      44.708  25.883  38.246  1.00  0.00     0.127 S 
ATOM     68  O   UNL A   1      46.054  25.694  38.785  1.00  0.00    -0.237 OA
ATOM     69  O   UNL A   1      43.782  26.573  39.143  1.00  0.00    -0.237 OA
ATOM     70  O   UNL A   1      44.144  24.723  37.568  1.00  0.00    -0.744 OA
ENDBRANCH  64  67
ENDBRANCH  37  60
ENDBRANCH  11  12
ENDBRANCH   4   6
ENDBRANCH   1   2
BRANCH   1  71
ATOM     71  C   UNL A   1      31.470  32.393  26.478  1.00  0.00     0.023 C 
BRANCH  71  72
ATOM     72  C   UNL A   1      31.345  30.890  26.235  1.00  0.00     0.023 C 
BRANCH  72  73
ATOM     73  C   UNL A   1      32.638  30.093  26.372  1.00  0.00     0.116 C 
BRANCH  73  74
ATOM     74  N   UNL A   1      33.310  29.873  25.097  1.00  0.00    -0.352 N 
ATOM     75  C   UNL A   1      33.054  28.944  24.129  1.00  0.00     0.251 C 
ATOM     76  H   UNL A   1      34.058  30.483  24.906  1.00  0.00     0.163 HD
ATOM     77  O   UNL A   1      33.735  28.886  23.107  1.00  0.00    -0.269 OA
BRANCH  75  78
ATOM     78  C   UNL A   1      31.942  27.986  24.293  1.00  0.00     0.053 A 
ATOM     79  C   UNL A   1      30.698  28.347  23.747  1.00  0.00     0.014 A 
ATOM     80  C   UNL A   1      32.143  26.735  24.919  1.00  0.00     0.082 A 
ATOM     81  C   UNL A   1      29.609  27.498  23.878  1.00  0.00     0.002 A 
ATOM     82  C   UNL A   1      31.036  25.875  24.993  1.00  0.00     0.031 A 
ATOM     83  C   UNL A   1      29.780  26.267  24.501  1.00  0.00     0.016 A 
ATOM     84  Br  UNL A   1      31.106  24.115  25.713  1.00  0.00    -0.050 Br
BRANCH  80  85
ATOM     85  C   UNL A   1      33.520  26.375  25.426  1.00  0.00     0.418 C 
ATOM     86  F   UNL A   1      33.521  25.248  26.190  1.00  0.00    -0.166 F 
ATOM     87  F   UNL A   1      34.431  26.180  24.430  1.00  0.00    -0.166 F 
ATOM     88  F   UNL A   1      34.102  27.332  26.205  1.00  0.00    -0.166 F 
ENDBRANCH  80  85
ENDBRANCH  75  78
ENDBRANCH  73  74
ENDBRANCH  72  73
ENDBRANCH  71  72
ENDBRANCH   1  71
TORSDOF 15
ENDMDL
