MODEL 1
REMARK VINA RESULT:     -11.5      0.000      0.000
REMARK SMILES CC(C)[NH2+][C@]1(C(=O)NCCCCNC(=O)c2ccc(-c3c4nc(c(-c5cccc(S(=O)(=O)[O-])c5F)c5ccc([nH]5)c(-c5cccc(S(=O)(=O)[O-])c5F)c5nc(c(-c6cccc(S(=O)(=O)[O-])c6F)c6ccc3[nH]6)C=C5)C=C4)cc2)CCC[C@H]([N@H+](C)C2CCCCC2)C1
REMARK SMILES IDX 11 1 10 2 9 3 8 4 6 5 7 6 5 8 79 9 91 10 80 11 82 12 81 13
REMARK SMILES IDX 4 14 2 17 1 18 3 19 83 20 84 21 85 23 86 24 90 25 87 26
REMARK SMILES IDX 89 27 88 28 12 29 13 30 14 31 15 33 16 34 17 35 78 36 18 37
REMARK SMILES IDX 77 38 19 39 20 40 21 41 71 42 22 43 76 44 70 45 72 46 23 47
REMARK SMILES IDX 75 48 69 49 68 50 24 52 56 53 36 54 55 55 37 56 40 57 54 58
REMARK SMILES IDX 73 59 38 60 39 61 53 63 74 64 41 65 25 66 26 67 34 68 27 69
REMARK SMILES IDX 29 70 35 71 28 72 30 73 31 74 32 75 33 76 57 77 58 78 66 79
REMARK SMILES IDX 59 80 61 81 67 82 60 83 62 84 63 85 64 86 65 87 42 88 43 89
REMARK SMILES IDX 51 90 44 91 46 92 52 93 45 94 47 95 48 96 49 97 50 98
REMARK H PARENT 8 7 4 15 4 16 83 22 13 32 72 51 40 62
REMARK Flexibility Score: inf
ROOT
ATOM      1  C   UNL A   1      37.770  19.662  24.884  1.00  0.00     0.023 C 
ENDROOT
BRANCH   1   2
ATOM      2  C   UNL A   1      36.838  20.832  24.588  1.00  0.00     0.023 C 
BRANCH   2   3
ATOM      3  C   UNL A   1      35.601  20.897  25.474  1.00  0.00     0.116 C 
BRANCH   3   4
ATOM      4  N   UNL A   1      34.405  20.452  24.794  1.00  0.00    -0.351 N 
ATOM      5  C   UNL A   1      33.358  21.073  24.196  1.00  0.00     0.281 C 
ATOM      6  O   UNL A   1      32.586  20.296  23.612  1.00  0.00    -0.268 OA
ATOM      7  H   UNL A   1      34.335  19.470  24.755  1.00  0.00     0.163 HD
BRANCH   5   8
ATOM      8  C   UNL A   1      33.086  22.626  24.182  1.00  0.00     0.181 C 
ATOM      9  C   UNL A   1      34.397  23.189  23.545  1.00  0.00     0.079 C 
ATOM     10  C   UNL A   1      31.906  23.138  23.328  1.00  0.00     0.144 C 
ATOM     11  C   UNL A   1      34.370  24.666  23.174  1.00  0.00     0.013 C 
ATOM     12  C   UNL A   1      31.822  24.683  23.084  1.00  0.00     0.190 C 
ATOM     13  C   UNL A   1      33.132  25.023  22.359  1.00  0.00     0.065 C 
BRANCH   8  14
ATOM     14  N   UNL A   1      33.001  23.179  25.566  1.00  0.00    -0.331 N 
ATOM     15  H   UNL A   1      33.954  23.228  25.927  1.00  0.00     0.347 HD
ATOM     16  H   UNL A   1      32.511  24.066  25.444  1.00  0.00     0.347 HD
BRANCH  14  17
ATOM     17  C   UNL A   1      32.198  22.473  26.569  1.00  0.00     0.176 C 
ATOM     18  C   UNL A   1      33.041  22.380  27.847  1.00  0.00     0.075 C 
ATOM     19  C   UNL A   1      30.870  23.139  26.925  1.00  0.00     0.075 C 
ENDBRANCH  14  17
ENDBRANCH   8  14
BRANCH  12  20
ATOM     20  N   UNL A   1      31.415  25.404  24.338  1.00  0.00    -0.332 N 
ATOM     21  C   UNL A   1      29.951  25.675  24.250  1.00  0.00     0.333 C 
ATOM     22  H   UNL A   1      31.699  24.769  25.084  1.00  0.00     0.348 HD
BRANCH  20  23
ATOM     23  C   UNL A   1      32.109  26.694  24.700  1.00  0.00     0.184 C 
ATOM     24  C   UNL A   1      31.072  27.868  24.773  1.00  0.00     0.065 C 
ATOM     25  C   UNL A   1      32.852  26.698  26.056  1.00  0.00     0.065 C 
ATOM     26  C   UNL A   1      31.647  29.215  25.204  1.00  0.00     0.006 C 
ATOM     27  C   UNL A   1      33.471  28.048  26.411  1.00  0.00     0.006 C 
ATOM     28  C   UNL A   1      32.408  29.122  26.512  1.00  0.00     0.000 C 
ENDBRANCH  20  23
ENDBRANCH  12  20
ENDBRANCH   5   8
ENDBRANCH   3   4
ENDBRANCH   2   3
ENDBRANCH   1   2
BRANCH   1  29
ATOM     29  C   UNL A   1      38.734  19.876  26.046  1.00  0.00     0.116 C 
BRANCH  29  30
ATOM     30  N   UNL A   1      39.986  19.136  25.917  1.00  0.00    -0.352 N 
ATOM     31  C   UNL A   1      41.269  19.586  26.137  1.00  0.00     0.251 C 
ATOM     32  H   UNL A   1      39.902  18.196  25.637  1.00  0.00     0.163 HD
ATOM     33  O   UNL A   1      42.232  18.862  25.943  1.00  0.00    -0.269 OA
BRANCH  31  34
ATOM     34  C   UNL A   1      41.444  20.985  26.567  1.00  0.00     0.039 A 
ATOM     35  C   UNL A   1      42.046  21.237  27.800  1.00  0.00     0.014 A 
ATOM     36  C   UNL A   1      41.136  22.027  25.689  1.00  0.00     0.014 A 
ATOM     37  C   UNL A   1      42.419  22.542  28.121  1.00  0.00     0.010 A 
ATOM     38  C   UNL A   1      41.578  23.311  25.979  1.00  0.00     0.010 A 
ATOM     39  C   UNL A   1      42.230  23.579  27.194  1.00  0.00    -0.014 A 
BRANCH  39  40
ATOM     40  C   UNL A   1      42.727  24.952  27.457  1.00  0.00     0.031 A 
ATOM     41  C   UNL A   1      41.829  25.957  28.124  1.00  0.00     0.074 A 
ATOM     42  C   UNL A   1      43.941  25.321  27.000  1.00  0.00     0.049 A 
ATOM     43  N   UNL A   1      42.053  27.219  28.376  1.00  0.00    -0.248 NA
ATOM     44  C   UNL A   1      40.491  25.494  28.531  1.00  0.00     0.031 C 
ATOM     45  C   UNL A   1      44.864  24.463  26.250  1.00  0.00     0.029 A 
ATOM     46  N   UNL A   1      44.595  26.526  27.068  1.00  0.00    -0.354 N 
ATOM     47  C   UNL A   1      40.873  27.712  28.919  1.00  0.00     0.074 A 
ATOM     48  C   UNL A   1      39.926  26.620  28.940  1.00  0.00     0.031 C 
ATOM     49  C   UNL A   1      45.963  25.168  25.933  1.00  0.00     0.029 A 
ATOM     50  C   UNL A   1      45.817  26.531  26.433  1.00  0.00     0.049 A 
ATOM     51  H   UNL A   1      44.226  27.313  27.529  1.00  0.00     0.167 HD
ATOM     52  C   UNL A   1      40.613  28.953  29.388  1.00  0.00     0.034 A 
ATOM     53  C   UNL A   1      46.715  27.523  26.275  1.00  0.00     0.034 A 
ATOM     54  C   UNL A   1      41.584  30.011  29.441  1.00  0.00     0.049 A 
ATOM     55  C   UNL A   1      46.427  28.869  26.886  1.00  0.00     0.074 A 
ATOM     56  C   UNL A   1      41.459  31.262  30.017  1.00  0.00     0.029 A 
ATOM     57  N   UNL A   1      42.856  29.942  28.898  1.00  0.00    -0.354 N 
ATOM     58  N   UNL A   1      45.381  29.257  27.574  1.00  0.00    -0.248 NA
ATOM     59  C   UNL A   1      47.460  29.905  26.733  1.00  0.00     0.031 C 
ATOM     60  C   UNL A   1      42.656  31.956  29.812  1.00  0.00     0.029 A 
ATOM     61  C   UNL A   1      43.528  31.131  29.119  1.00  0.00     0.049 A 
ATOM     62  H   UNL A   1      43.228  29.162  28.425  1.00  0.00     0.167 HD
ATOM     63  C   UNL A   1      45.647  30.562  27.970  1.00  0.00     0.074 A 
ATOM     64  C   UNL A   1      46.962  30.893  27.463  1.00  0.00     0.031 C 
ATOM     65  C   UNL A   1      44.866  31.417  28.673  1.00  0.00     0.034 A 
BRANCH  52  66
ATOM     66  C   UNL A   1      39.246  29.223  29.954  1.00  0.00     0.023 A 
ATOM     67  C   UNL A   1      38.932  28.770  31.251  1.00  0.00     0.012 A 
ATOM     68  C   UNL A   1      38.308  29.994  29.242  1.00  0.00     0.148 A 
ATOM     69  C   UNL A   1      37.696  29.061  31.824  1.00  0.00     0.002 A 
ATOM     70  C   UNL A   1      37.093  30.317  29.837  1.00  0.00     0.091 A 
ATOM     71  F   UNL A   1      38.620  30.396  28.002  1.00  0.00    -0.205 F 
ATOM     72  C   UNL A   1      36.783  29.844  31.123  1.00  0.00     0.022 A 
BRANCH  70  73
ATOM     73  S   UNL A   1      35.878  31.381  29.051  1.00  0.00     0.127 S 
ATOM     74  O   UNL A   1      35.252  30.461  28.102  1.00  0.00    -0.237 OA
ATOM     75  O   UNL A   1      35.031  31.764  30.180  1.00  0.00    -0.237 OA
ATOM     76  O   UNL A   1      36.629  32.476  28.452  1.00  0.00    -0.744 OA
ENDBRANCH  70  73
ENDBRANCH  52  66
BRANCH  53  77
ATOM     77  C   UNL A   1      48.009  27.267  25.579  1.00  0.00     0.023 A 
ATOM     78  C   UNL A   1      49.109  26.798  26.325  1.00  0.00     0.012 A 
ATOM     79  C   UNL A   1      48.163  27.482  24.197  1.00  0.00     0.148 A 
ATOM     80  C   UNL A   1      50.347  26.590  25.717  1.00  0.00     0.002 A 
ATOM     81  C   UNL A   1      49.385  27.220  23.586  1.00  0.00     0.091 A 
ATOM     82  F   UNL A   1      47.113  27.944  23.501  1.00  0.00    -0.205 F 
ATOM     83  C   UNL A   1      50.483  26.792  24.347  1.00  0.00     0.022 A 
BRANCH  81  84
ATOM     84  S   UNL A   1      49.598  27.331  21.806  1.00  0.00     0.127 S 
ATOM     85  O   UNL A   1      50.984  26.905  21.641  1.00  0.00    -0.237 OA
ATOM     86  O   UNL A   1      48.599  26.381  21.313  1.00  0.00    -0.237 OA
ATOM     87  O   UNL A   1      49.306  28.721  21.476  1.00  0.00    -0.744 OA
ENDBRANCH  81  84
ENDBRANCH  53  77
BRANCH  65  88
ATOM     88  C   UNL A   1      45.419  32.782  28.980  1.00  0.00     0.023 A 
ATOM     89  C   UNL A   1      46.203  32.972  30.135  1.00  0.00     0.012 A 
ATOM     90  C   UNL A   1      45.240  33.849  28.079  1.00  0.00     0.148 A 
ATOM     91  C   UNL A   1      46.776  34.214  30.402  1.00  0.00     0.002 A 
ATOM     92  C   UNL A   1      45.854  35.070  28.329  1.00  0.00     0.091 A 
ATOM     93  F   UNL A   1      44.474  33.651  26.995  1.00  0.00    -0.205 F 
ATOM     94  C   UNL A   1      46.613  35.258  29.494  1.00  0.00     0.022 A 
BRANCH  92  95
ATOM     95  S   UNL A   1      45.776  36.435  27.162  1.00  0.00     0.127 S 
ATOM     96  O   UNL A   1      46.585  37.449  27.836  1.00  0.00    -0.237 OA
ATOM     97  O   UNL A   1      46.392  35.860  25.965  1.00  0.00    -0.237 OA
ATOM     98  O   UNL A   1      44.363  36.753  27.015  1.00  0.00    -0.744 OA
ENDBRANCH  92  95
ENDBRANCH  65  88
ENDBRANCH  39  40
ENDBRANCH  31  34
ENDBRANCH  29  30
ENDBRANCH   1  29
TORSDOF 18
ENDMDL
MODEL 2
REMARK VINA RESULT:     -11.4      1.667      7.812
REMARK SMILES CC(C)[NH2+][C@]1(C(=O)NCCCCNC(=O)c2ccc(-c3c4nc(c(-c5cccc(S(=O)(=O)[O-])c5F)c5ccc([nH]5)c(-c5cccc(S(=O)(=O)[O-])c5F)c5nc(c(-c6cccc(S(=O)(=O)[O-])c6F)c6ccc3[nH]6)C=C5)C=C4)cc2)CCC[C@H]([N@H+](C)C2CCCCC2)C1
REMARK SMILES IDX 11 1 10 2 9 3 8 4 6 5 7 6 5 8 79 9 91 10 80 11 82 12 81 13
REMARK SMILES IDX 4 14 2 17 1 18 3 19 83 20 84 21 85 23 86 24 90 25 87 26
REMARK SMILES IDX 89 27 88 28 12 29 13 30 14 31 15 33 16 34 17 35 78 36 18 37
REMARK SMILES IDX 77 38 19 39 20 40 21 41 71 42 22 43 76 44 70 45 72 46 23 47
REMARK SMILES IDX 75 48 69 49 68 50 24 52 56 53 36 54 55 55 37 56 40 57 54 58
REMARK SMILES IDX 73 59 38 60 39 61 53 63 74 64 41 65 25 66 26 67 34 68 27 69
REMARK SMILES IDX 29 70 35 71 28 72 30 73 31 74 32 75 33 76 57 77 58 78 66 79
REMARK SMILES IDX 59 80 61 81 67 82 60 83 62 84 63 85 64 86 65 87 42 88 43 89
REMARK SMILES IDX 51 90 44 91 46 92 52 93 45 94 47 95 48 96 49 97 50 98
REMARK H PARENT 8 7 4 15 4 16 83 22 13 32 72 51 40 62
REMARK Flexibility Score: inf
ROOT
ATOM      1  C   UNL A   1      37.058  21.719  24.301  1.00  0.00     0.023 C 
ENDROOT
BRANCH   1   2
ATOM      2  C   UNL A   1      36.344  23.026  23.972  1.00  0.00     0.023 C 
BRANCH   2   3
ATOM      3  C   UNL A   1      36.124  23.947  25.164  1.00  0.00     0.116 C 
BRANCH   3   4
ATOM      4  N   UNL A   1      35.104  23.459  26.064  1.00  0.00    -0.351 N 
ATOM      5  C   UNL A   1      33.806  23.776  26.300  1.00  0.00     0.281 C 
ATOM      6  O   UNL A   1      33.242  23.008  27.096  1.00  0.00    -0.268 OA
ATOM      7  H   UNL A   1      35.425  22.726  26.638  1.00  0.00     0.163 HD
BRANCH   5   8
ATOM      8  C   UNL A   1      33.012  24.976  25.655  1.00  0.00     0.181 C 
ATOM      9  C   UNL A   1      31.672  24.959  26.459  1.00  0.00     0.079 C 
ATOM     10  C   UNL A   1      33.613  26.391  25.797  1.00  0.00     0.144 C 
ATOM     11  C   UNL A   1      30.753  26.153  26.235  1.00  0.00     0.013 C 
ATOM     12  C   UNL A   1      32.690  27.598  25.419  1.00  0.00     0.190 C 
ATOM     13  C   UNL A   1      31.498  27.476  26.379  1.00  0.00     0.065 C 
BRANCH   8  14
ATOM     14  N   UNL A   1      32.669  24.700  24.228  1.00  0.00    -0.331 N 
ATOM     15  H   UNL A   1      32.067  25.462  23.913  1.00  0.00     0.347 HD
ATOM     16  H   UNL A   1      33.578  24.616  23.772  1.00  0.00     0.347 HD
BRANCH  14  17
ATOM     17  C   UNL A   1      31.990  23.447  23.886  1.00  0.00     0.176 C 
ATOM     18  C   UNL A   1      30.679  23.815  23.180  1.00  0.00     0.075 C 
ATOM     19  C   UNL A   1      32.775  22.512  22.968  1.00  0.00     0.075 C 
ENDBRANCH  14  17
ENDBRANCH   8  14
BRANCH  12  20
ATOM     20  N   UNL A   1      32.489  27.676  23.932  1.00  0.00    -0.332 N 
ATOM     21  C   UNL A   1      33.787  28.077  23.320  1.00  0.00     0.333 C 
ATOM     22  H   UNL A   1      32.157  26.744  23.685  1.00  0.00     0.348 HD
BRANCH  20  23
ATOM     23  C   UNL A   1      31.413  28.582  23.385  1.00  0.00     0.184 C 
ATOM     24  C   UNL A   1      30.144  27.747  22.997  1.00  0.00     0.065 C 
ATOM     25  C   UNL A   1      30.917  29.690  24.342  1.00  0.00     0.065 C 
ATOM     26  C   UNL A   1      28.957  28.567  22.496  1.00  0.00     0.006 C 
ATOM     27  C   UNL A   1      29.777  30.529  23.770  1.00  0.00     0.006 C 
ATOM     28  C   UNL A   1      28.571  29.667  23.465  1.00  0.00     0.000 C 
ENDBRANCH  20  23
ENDBRANCH  12  20
ENDBRANCH   5   8
ENDBRANCH   3   4
ENDBRANCH   2   3
ENDBRANCH   1   2
BRANCH   1  29
ATOM     29  C   UNL A   1      37.645  21.634  25.706  1.00  0.00     0.116 C 
BRANCH  29  30
ATOM     30  N   UNL A   1      38.815  20.768  25.804  1.00  0.00    -0.352 N 
ATOM     31  C   UNL A   1      40.058  21.068  26.317  1.00  0.00     0.251 C 
ATOM     32  H   UNL A   1      38.703  19.852  25.460  1.00  0.00     0.163 HD
ATOM     33  O   UNL A   1      40.964  20.252  26.291  1.00  0.00    -0.269 OA
BRANCH  31  34
ATOM     34  C   UNL A   1      40.272  22.425  26.853  1.00  0.00     0.039 A 
ATOM     35  C   UNL A   1      41.135  22.588  27.938  1.00  0.00     0.014 A 
ATOM     36  C   UNL A   1      39.727  23.528  26.193  1.00  0.00     0.014 A 
ATOM     37  C   UNL A   1      41.520  23.875  28.312  1.00  0.00     0.010 A 
ATOM     38  C   UNL A   1      40.172  24.802  26.520  1.00  0.00     0.010 A 
ATOM     39  C   UNL A   1      41.078  24.987  27.577  1.00  0.00    -0.014 A 
BRANCH  39  40
ATOM     40  C   UNL A   1      41.568  26.355  27.876  1.00  0.00     0.031 A 
ATOM     41  C   UNL A   1      42.979  26.737  27.524  1.00  0.00     0.074 A 
ATOM     42  C   UNL A   1      40.781  27.211  28.560  1.00  0.00     0.049 A 
ATOM     43  N   UNL A   1      43.612  27.854  27.767  1.00  0.00    -0.248 NA
ATOM     44  C   UNL A   1      43.798  25.721  26.841  1.00  0.00     0.031 C 
ATOM     45  C   UNL A   1      39.428  26.920  29.045  1.00  0.00     0.029 A 
ATOM     46  N   UNL A   1      41.017  28.491  28.997  1.00  0.00    -0.354 N 
ATOM     47  C   UNL A   1      44.912  27.658  27.316  1.00  0.00     0.074 A 
ATOM     48  C   UNL A   1      44.986  26.307  26.806  1.00  0.00     0.031 C 
ATOM     49  C   UNL A   1      38.957  27.989  29.707  1.00  0.00     0.029 A 
ATOM     50  C   UNL A   1      39.975  29.033  29.716  1.00  0.00     0.049 A 
ATOM     51  H   UNL A   1      41.854  28.976  28.813  1.00  0.00     0.167 HD
ATOM     52  C   UNL A   1      45.941  28.535  27.298  1.00  0.00     0.034 A 
ATOM     53  C   UNL A   1      39.859  30.236  30.312  1.00  0.00     0.034 A 
ATOM     54  C   UNL A   1      45.839  29.901  27.730  1.00  0.00     0.049 A 
ATOM     55  C   UNL A   1      40.995  31.218  30.197  1.00  0.00     0.074 A 
ATOM     56  C   UNL A   1      46.785  30.905  27.631  1.00  0.00     0.029 A 
ATOM     57  N   UNL A   1      44.727  30.454  28.341  1.00  0.00    -0.354 N 
ATOM     58  N   UNL A   1      42.147  31.080  29.588  1.00  0.00    -0.248 NA
ATOM     59  C   UNL A   1      40.801  32.537  30.818  1.00  0.00     0.031 C 
ATOM     60  C   UNL A   1      46.247  32.066  28.194  1.00  0.00     0.029 A 
ATOM     61  C   UNL A   1      44.962  31.786  28.632  1.00  0.00     0.049 A 
ATOM     62  H   UNL A   1      43.892  29.971  28.540  1.00  0.00     0.167 HD
ATOM     63  C   UNL A   1      42.796  32.302  29.716  1.00  0.00     0.074 A 
ATOM     64  C   UNL A   1      41.900  33.177  30.443  1.00  0.00     0.031 C 
ATOM     65  C   UNL A   1      44.030  32.663  29.289  1.00  0.00     0.034 A 
BRANCH  52  66
ATOM     66  C   UNL A   1      47.253  28.072  26.727  1.00  0.00     0.023 A 
ATOM     67  C   UNL A   1      48.279  27.654  27.598  1.00  0.00     0.012 A 
ATOM     68  C   UNL A   1      47.440  27.969  25.335  1.00  0.00     0.148 A 
ATOM     69  C   UNL A   1      49.480  27.161  27.094  1.00  0.00     0.002 A 
ATOM     70  C   UNL A   1      48.625  27.436  24.840  1.00  0.00     0.091 A 
ATOM     71  F   UNL A   1      46.459  28.392  24.525  1.00  0.00    -0.205 F 
ATOM     72  C   UNL A   1      49.648  27.039  25.718  1.00  0.00     0.022 A 
BRANCH  70  73
ATOM     73  S   UNL A   1      48.913  27.167  23.088  1.00  0.00     0.127 S 
ATOM     74  O   UNL A   1      48.218  25.899  22.867  1.00  0.00    -0.237 OA
ATOM     75  O   UNL A   1      48.262  28.331  22.488  1.00  0.00    -0.237 OA
ATOM     76  O   UNL A   1      50.359  27.121  22.919  1.00  0.00    -0.744 OA
ENDBRANCH  70  73
ENDBRANCH  52  66
BRANCH  53  77
ATOM     77  C   UNL A   1      38.593  30.618  31.001  1.00  0.00     0.023 A 
ATOM     78  C   UNL A   1      38.402  30.244  32.346  1.00  0.00     0.012 A 
ATOM     79  C   UNL A   1      37.581  31.344  30.344  1.00  0.00     0.148 A 
ATOM     80  C   UNL A   1      37.213  30.545  33.009  1.00  0.00     0.002 A 
ATOM     81  C   UNL A   1      36.420  31.689  31.027  1.00  0.00     0.091 A 
ATOM     82  F   UNL A   1      37.767  31.680  29.058  1.00  0.00    -0.205 F 
ATOM     83  C   UNL A   1      36.226  31.275  32.354  1.00  0.00     0.022 A 
BRANCH  81  84
ATOM     84  S   UNL A   1      35.163  32.739  30.290  1.00  0.00     0.127 S 
ATOM     85  O   UNL A   1      35.954  33.876  29.828  1.00  0.00    -0.237 OA
ATOM     86  O   UNL A   1      34.630  31.887  29.226  1.00  0.00    -0.237 OA
ATOM     87  O   UNL A   1      34.215  33.007  31.365  1.00  0.00    -0.744 OA
ENDBRANCH  81  84
ENDBRANCH  53  77
BRANCH  65  88
ATOM     88  C   UNL A   1      44.478  34.076  29.551  1.00  0.00     0.023 A 
ATOM     89  C   UNL A   1      45.056  34.403  30.793  1.00  0.00     0.012 A 
ATOM     90  C   UNL A   1      44.409  35.051  28.539  1.00  0.00     0.148 A 
ATOM     91  C   UNL A   1      45.535  35.690  31.032  1.00  0.00     0.002 A 
ATOM     92  C   UNL A   1      44.931  36.319  28.768  1.00  0.00     0.091 A 
ATOM     93  F   UNL A   1      43.837  34.724  27.370  1.00  0.00    -0.205 F 
ATOM     94  C   UNL A   1      45.485  36.643  30.017  1.00  0.00     0.022 A 
BRANCH  92  95
ATOM     95  S   UNL A   1      44.996  37.573  27.483  1.00  0.00     0.127 S 
ATOM     96  O   UNL A   1      43.588  37.696  27.115  1.00  0.00    -0.237 OA
ATOM     97  O   UNL A   1      45.544  38.727  28.198  1.00  0.00    -0.237 OA
ATOM     98  O   UNL A   1      45.872  37.037  26.449  1.00  0.00    -0.744 OA
ENDBRANCH  92  95
ENDBRANCH  65  88
ENDBRANCH  39  40
ENDBRANCH  31  34
ENDBRANCH  29  30
ENDBRANCH   1  29
TORSDOF 18
ENDMDL
MODEL 3
REMARK VINA RESULT:     -11.2      5.290      8.901
REMARK SMILES CC(C)[NH2+][C@]1(C(=O)NCCCCNC(=O)c2ccc(-c3c4nc(c(-c5cccc(S(=O)(=O)[O-])c5F)c5ccc([nH]5)c(-c5cccc(S(=O)(=O)[O-])c5F)c5nc(c(-c6cccc(S(=O)(=O)[O-])c6F)c6ccc3[nH]6)C=C5)C=C4)cc2)CCC[C@H]([N@H+](C)C2CCCCC2)C1
REMARK SMILES IDX 11 1 10 2 9 3 8 4 6 5 7 6 5 8 79 9 91 10 80 11 82 12 81 13
REMARK SMILES IDX 4 14 2 17 1 18 3 19 83 20 84 21 85 23 86 24 90 25 87 26
REMARK SMILES IDX 89 27 88 28 12 29 13 30 14 31 15 33 16 34 17 35 78 36 18 37
REMARK SMILES IDX 77 38 19 39 20 40 21 41 71 42 22 43 76 44 70 45 72 46 23 47
REMARK SMILES IDX 75 48 69 49 68 50 24 52 56 53 36 54 55 55 37 56 40 57 54 58
REMARK SMILES IDX 73 59 38 60 39 61 53 63 74 64 41 65 25 66 26 67 34 68 27 69
REMARK SMILES IDX 29 70 35 71 28 72 30 73 31 74 32 75 33 76 57 77 58 78 66 79
REMARK SMILES IDX 59 80 61 81 67 82 60 83 62 84 63 85 64 86 65 87 42 88 43 89
REMARK SMILES IDX 51 90 44 91 46 92 52 93 45 94 47 95 48 96 49 97 50 98
REMARK H PARENT 8 7 4 15 4 16 83 22 13 32 72 51 40 62
REMARK Flexibility Score: inf
ROOT
ATOM      1  C   UNL A   1      31.274  30.812  25.818  1.00  0.00     0.023 C 
ENDROOT
BRANCH   1   2
ATOM      2  C   UNL A   1      31.632  29.690  24.849  1.00  0.00     0.023 C 
BRANCH   2   3
ATOM      3  C   UNL A   1      31.422  28.286  25.398  1.00  0.00     0.116 C 
BRANCH   3   4
ATOM      4  N   UNL A   1      30.411  27.550  24.674  1.00  0.00    -0.351 N 
ATOM      5  C   UNL A   1      30.244  26.251  24.318  1.00  0.00     0.281 C 
ATOM      6  O   UNL A   1      29.145  26.016  23.792  1.00  0.00    -0.268 OA
ATOM      7  H   UNL A   1      29.671  28.123  24.369  1.00  0.00     0.163 HD
BRANCH   5   8
ATOM      8  C   UNL A   1      31.289  25.090  24.532  1.00  0.00     0.181 C 
ATOM      9  C   UNL A   1      31.776  25.345  25.995  1.00  0.00     0.079 C 
ATOM     10  C   UNL A   1      30.767  23.638  24.471  1.00  0.00     0.144 C 
ATOM     11  C   UNL A   1      32.639  24.248  26.605  1.00  0.00     0.013 C 
ATOM     12  C   UNL A   1      31.735  22.512  24.970  1.00  0.00     0.190 C 
ATOM     13  C   UNL A   1      32.007  22.871  26.438  1.00  0.00     0.065 C 
BRANCH   8  14
ATOM     14  N   UNL A   1      32.476  25.251  23.642  1.00  0.00    -0.331 N 
ATOM     15  H   UNL A   1      33.254  25.549  24.232  1.00  0.00     0.347 HD
ATOM     16  H   UNL A   1      32.566  24.340  23.191  1.00  0.00     0.347 HD
BRANCH  14  17
ATOM     17  C   UNL A   1      32.405  26.190  22.520  1.00  0.00     0.176 C 
ATOM     18  C   UNL A   1      33.563  27.184  22.679  1.00  0.00     0.075 C 
ATOM     19  C   UNL A   1      32.512  25.557  21.134  1.00  0.00     0.075 C 
ENDBRANCH  14  17
ENDBRANCH   8  14
BRANCH  12  20
ATOM     20  N   UNL A   1      32.861  22.301  23.998  1.00  0.00    -0.332 N 
ATOM     21  C   UNL A   1      32.668  20.967  23.363  1.00  0.00     0.333 C 
ATOM     22  H   UNL A   1      32.789  23.101  23.369  1.00  0.00     0.348 HD
BRANCH  20  23
ATOM     23  C   UNL A   1      34.284  22.381  24.496  1.00  0.00     0.184 C 
ATOM     24  C   UNL A   1      34.827  20.948  24.824  1.00  0.00     0.065 C 
ATOM     25  C   UNL A   1      35.303  23.008  23.516  1.00  0.00     0.065 C 
ATOM     26  C   UNL A   1      36.287  20.894  25.269  1.00  0.00     0.006 C 
ATOM     27  C   UNL A   1      36.739  22.996  24.034  1.00  0.00     0.006 C 
ATOM     28  C   UNL A   1      37.212  21.579  24.284  1.00  0.00     0.000 C 
ENDBRANCH  20  23
ENDBRANCH  12  20
ENDBRANCH   5   8
ENDBRANCH   3   4
ENDBRANCH   2   3
ENDBRANCH   1   2
BRANCH   1  29
ATOM     29  C   UNL A   1      32.362  31.177  26.822  1.00  0.00     0.116 C 
BRANCH  29  30
ATOM     30  N   UNL A   1      32.427  32.603  27.128  1.00  0.00    -0.352 N 
ATOM     31  C   UNL A   1      33.457  33.301  27.719  1.00  0.00     0.251 C 
ATOM     32  H   UNL A   1      31.635  33.132  26.881  1.00  0.00     0.163 HD
ATOM     33  O   UNL A   1      33.353  34.493  27.958  1.00  0.00    -0.269 OA
BRANCH  31  34
ATOM     34  C   UNL A   1      34.668  32.553  28.099  1.00  0.00     0.039 A 
ATOM     35  C   UNL A   1      35.898  33.212  28.078  1.00  0.00     0.014 A 
ATOM     36  C   UNL A   1      34.556  31.254  28.600  1.00  0.00     0.014 A 
ATOM     37  C   UNL A   1      37.013  32.592  28.643  1.00  0.00     0.010 A 
ATOM     38  C   UNL A   1      35.649  30.672  29.230  1.00  0.00     0.010 A 
ATOM     39  C   UNL A   1      36.885  31.338  29.263  1.00  0.00    -0.014 A 
BRANCH  39  40
ATOM     40  C   UNL A   1      38.023  30.711  29.978  1.00  0.00     0.031 A 
ATOM     41  C   UNL A   1      38.344  31.130  31.386  1.00  0.00     0.074 A 
ATOM     42  C   UNL A   1      38.828  29.849  29.323  1.00  0.00     0.049 A 
ATOM     43  N   UNL A   1      39.335  30.752  32.149  1.00  0.00    -0.248 NA
ATOM     44  C   UNL A   1      37.457  32.129  32.006  1.00  0.00     0.031 C 
ATOM     45  C   UNL A   1      38.678  29.441  27.923  1.00  0.00     0.029 A 
ATOM     46  N   UNL A   1      39.956  29.185  29.739  1.00  0.00    -0.354 N 
ATOM     47  C   UNL A   1      39.222  31.502  33.314  1.00  0.00     0.074 A 
ATOM     48  C   UNL A   1      38.081  32.374  33.149  1.00  0.00     0.031 C 
ATOM     49  C   UNL A   1      39.672  28.597  27.600  1.00  0.00     0.029 A 
ATOM     50  C   UNL A   1      40.543  28.419  28.757  1.00  0.00     0.049 A 
ATOM     51  H   UNL A   1      40.312  29.251  30.654  1.00  0.00     0.167 HD
ATOM     52  C   UNL A   1      39.980  31.445  34.432  1.00  0.00     0.034 A 
ATOM     53  C   UNL A   1      41.657  27.661  28.789  1.00  0.00     0.034 A 
ATOM     54  C   UNL A   1      41.062  30.520  34.621  1.00  0.00     0.049 A 
ATOM     55  C   UNL A   1      42.428  27.556  30.079  1.00  0.00     0.074 A 
ATOM     56  C   UNL A   1      41.807  30.293  35.765  1.00  0.00     0.029 A 
ATOM     57  N   UNL A   1      41.552  29.668  33.646  1.00  0.00    -0.354 N 
ATOM     58  N   UNL A   1      42.185  28.124  31.235  1.00  0.00    -0.248 NA
ATOM     59  C   UNL A   1      43.605  26.675  30.081  1.00  0.00     0.031 C 
ATOM     60  C   UNL A   1      42.757  29.309  35.476  1.00  0.00     0.029 A 
ATOM     61  C   UNL A   1      42.595  28.917  34.157  1.00  0.00     0.049 A 
ATOM     62  H   UNL A   1      41.210  29.607  32.724  1.00  0.00     0.167 HD
ATOM     63  C   UNL A   1      43.150  27.639  32.109  1.00  0.00     0.074 A 
ATOM     64  C   UNL A   1      43.970  26.714  31.355  1.00  0.00     0.031 C 
ATOM     65  C   UNL A   1      43.352  27.945  33.413  1.00  0.00     0.034 A 
BRANCH  52  66
ATOM     66  C   UNL A   1      39.626  32.359  35.573  1.00  0.00     0.023 A 
ATOM     67  C   UNL A   1      38.879  31.856  36.657  1.00  0.00     0.012 A 
ATOM     68  C   UNL A   1      40.103  33.683  35.614  1.00  0.00     0.148 A 
ATOM     69  C   UNL A   1      38.593  32.663  37.756  1.00  0.00     0.002 A 
ATOM     70  C   UNL A   1      39.849  34.469  36.733  1.00  0.00     0.091 A 
ATOM     71  F   UNL A   1      40.793  34.147  34.563  1.00  0.00    -0.205 F 
ATOM     72  C   UNL A   1      39.088  33.963  37.799  1.00  0.00     0.022 A 
BRANCH  70  73
ATOM     73  S   UNL A   1      40.504  36.131  36.922  1.00  0.00     0.127 S 
ATOM     74  O   UNL A   1      39.889  36.820  35.789  1.00  0.00    -0.237 OA
ATOM     75  O   UNL A   1      39.979  36.519  38.231  1.00  0.00    -0.237 OA
ATOM     76  O   UNL A   1      41.953  36.002  36.860  1.00  0.00    -0.744 OA
ENDBRANCH  70  73
ENDBRANCH  52  66
BRANCH  53  77
ATOM     77  C   UNL A   1      42.069  26.873  27.592  1.00  0.00     0.023 A 
ATOM     78  C   UNL A   1      42.711  27.531  26.524  1.00  0.00     0.012 A 
ATOM     79  C   UNL A   1      41.836  25.488  27.500  1.00  0.00     0.148 A 
ATOM     80  C   UNL A   1      43.072  26.836  25.370  1.00  0.00     0.002 A 
ATOM     81  C   UNL A   1      42.247  24.789  26.369  1.00  0.00     0.091 A 
ATOM     82  F   UNL A   1      41.209  24.876  28.516  1.00  0.00    -0.205 F 
ATOM     83  C   UNL A   1      42.848  25.464  25.296  1.00  0.00     0.022 A 
BRANCH  81  84
ATOM     84  S   UNL A   1      42.111  23.002  26.259  1.00  0.00     0.127 S 
ATOM     85  O   UNL A   1      40.667  22.803  26.342  1.00  0.00    -0.237 OA
ATOM     86  O   UNL A   1      42.697  22.725  24.946  1.00  0.00    -0.237 OA
ATOM     87  O   UNL A   1      42.897  22.493  27.377  1.00  0.00    -0.744 OA
ENDBRANCH  81  84
ENDBRANCH  53  77
BRANCH  65  88
ATOM     88  C   UNL A   1      44.476  27.248  34.131  1.00  0.00     0.023 A 
ATOM     89  C   UNL A   1      45.765  27.816  34.124  1.00  0.00     0.012 A 
ATOM     90  C   UNL A   1      44.234  26.085  34.886  1.00  0.00     0.148 A 
ATOM     91  C   UNL A   1      46.804  27.218  34.835  1.00  0.00     0.002 A 
ATOM     92  C   UNL A   1      45.263  25.522  35.631  1.00  0.00     0.091 A 
ATOM     93  F   UNL A   1      43.003  25.550  34.864  1.00  0.00    -0.205 F 
ATOM     94  C   UNL A   1      46.551  26.080  35.599  1.00  0.00     0.022 A 
BRANCH  92  95
ATOM     95  S   UNL A   1      44.998  24.116  36.718  1.00  0.00     0.127 S 
ATOM     96  O   UNL A   1      44.291  23.188  35.838  1.00  0.00    -0.237 OA
ATOM     97  O   UNL A   1      46.366  23.716  37.054  1.00  0.00    -0.237 OA
ATOM     98  O   UNL A   1      44.228  24.625  37.845  1.00  0.00    -0.744 OA
ENDBRANCH  92  95
ENDBRANCH  65  88
ENDBRANCH  39  40
ENDBRANCH  31  34
ENDBRANCH  29  30
ENDBRANCH   1  29
TORSDOF 18
ENDMDL
