MODEL 1
REMARK VINA RESULT:      -9.7      0.000      0.000
REMARK SMILES CCCCC[NH2+][C@](C)(C(=O)NCCCCNC(=O)c1ccc(-c2c3nc(c(-c4cccc(S(=O)(=O)[O-])c4F)c4ccc([nH]4)c(-c4cccc(S(=O)(=O)[O-])c4F)c4nc(c(-c5cccc(S(=O)(=O)[O-])c5F)c5ccc2[nH]5)C=C4)C=C3)cc1)C(F)(F)F
REMARK SMILES IDX 12 1 11 2 9 3 10 4 7 6 8 7 6 8 5 11 4 12 3 13 2 14 1 15
REMARK SMILES IDX 82 16 83 17 84 18 85 19 13 20 14 21 15 22 16 23 17 24 18 26
REMARK SMILES IDX 19 27 20 28 81 29 21 30 80 31 22 32 23 33 24 34 74 35 25 36
REMARK SMILES IDX 79 37 73 38 75 39 26 40 78 41 72 42 71 43 27 45 59 46 39 47
REMARK SMILES IDX 58 48 40 49 43 50 57 51 76 52 41 53 42 54 56 56 77 57 44 58
REMARK SMILES IDX 28 59 29 60 37 61 30 62 32 63 38 64 31 65 33 66 34 67 35 68
REMARK SMILES IDX 36 69 60 70 61 71 69 72 62 73 64 74 70 75 63 76 65 77 66 78
REMARK SMILES IDX 67 79 68 80 45 81 46 82 54 83 47 84 49 85 55 86 48 87 50 88
REMARK SMILES IDX 51 89 52 90 53 91
REMARK H PARENT 11 5 6 9 6 10 16 25 75 44 43 55
REMARK Flexibility Score: inf
ROOT
ATOM      1  C   UNL A   1      31.976  29.277  25.794  1.00  0.00     0.116 C 
ENDROOT
BRANCH   1   2
ATOM      2  N   UNL A   1      32.974  29.539  24.770  1.00  0.00    -0.350 N 
ATOM      3  C   UNL A   1      33.271  28.853  23.619  1.00  0.00     0.290 C 
ATOM      4  O   UNL A   1      34.116  29.363  22.880  1.00  0.00    -0.267 OA
ATOM      5  H   UNL A   1      33.526  30.339  24.927  1.00  0.00     0.163 HD
BRANCH   3   6
ATOM      6  C   UNL A   1      32.591  27.499  23.297  1.00  0.00     0.268 C 
ATOM      7  C   UNL A   1      33.296  26.881  22.073  1.00  0.00     0.101 C 
BRANCH   6   8
ATOM      8  N   UNL A   1      32.641  26.669  24.557  1.00  0.00    -0.326 N 
ATOM      9  H   UNL A   1      32.341  27.260  25.331  1.00  0.00     0.347 HD
ATOM     10  H   UNL A   1      32.033  25.868  24.382  1.00  0.00     0.347 HD
BRANCH   8  11
ATOM     11  C   UNL A   1      33.937  26.106  24.901  1.00  0.00     0.261 C 
BRANCH  11  12
ATOM     12  C   UNL A   1      33.850  24.579  25.011  1.00  0.00     0.061 C 
BRANCH  12  13
ATOM     13  C   UNL A   1      34.348  23.810  23.784  1.00  0.00     0.006 C 
BRANCH  13  14
ATOM     14  C   UNL A   1      35.385  22.722  24.078  1.00  0.00    -0.003 C 
ATOM     15  C   UNL A   1      36.655  22.853  23.250  1.00  0.00     0.004 C 
ENDBRANCH  13  14
ENDBRANCH  12  13
ENDBRANCH  11  12
ENDBRANCH   8  11
ENDBRANCH   6   8
BRANCH   6  16
ATOM     16  C   UNL A   1      31.131  27.820  22.872  1.00  0.00     0.453 C 
ATOM     17  F   UNL A   1      30.932  29.111  22.532  1.00  0.00    -0.164 F 
ATOM     18  F   UNL A   1      30.803  27.085  21.769  1.00  0.00    -0.164 F 
ATOM     19  F   UNL A   1      30.230  27.475  23.822  1.00  0.00    -0.164 F 
ENDBRANCH   6  16
ENDBRANCH   3   6
ENDBRANCH   1   2
BRANCH   1  20
ATOM     20  C   UNL A   1      32.153  30.169  27.019  1.00  0.00     0.023 C 
BRANCH  20  21
ATOM     21  C   UNL A   1      31.614  31.588  26.859  1.00  0.00     0.023 C 
BRANCH  21  22
ATOM     22  C   UNL A   1      32.671  32.661  26.619  1.00  0.00     0.116 C 
BRANCH  22  23
ATOM     23  N   UNL A   1      32.478  33.855  27.430  1.00  0.00    -0.352 N 
ATOM     24  C   UNL A   1      33.187  34.269  28.532  1.00  0.00     0.251 C 
ATOM     25  H   UNL A   1      31.740  34.446  27.151  1.00  0.00     0.163 HD
ATOM     26  O   UNL A   1      32.820  35.253  29.168  1.00  0.00    -0.269 OA
BRANCH  24  27
ATOM     27  C   UNL A   1      34.374  33.500  28.962  1.00  0.00     0.039 A 
ATOM     28  C   UNL A   1      35.639  34.080  28.836  1.00  0.00     0.014 A 
ATOM     29  C   UNL A   1      34.232  32.230  29.527  1.00  0.00     0.014 A 
ATOM     30  C   UNL A   1      36.756  33.413  29.342  1.00  0.00     0.010 A 
ATOM     31  C   UNL A   1      35.335  31.603  30.097  1.00  0.00     0.010 A 
ATOM     32  C   UNL A   1      36.609  32.185  30.010  1.00  0.00    -0.014 A 
BRANCH  32  33
ATOM     33  C   UNL A   1      37.769  31.503  30.637  1.00  0.00     0.031 A 
ATOM     34  C   UNL A   1      38.164  31.827  32.053  1.00  0.00     0.074 A 
ATOM     35  C   UNL A   1      38.528  30.667  29.900  1.00  0.00     0.049 A 
ATOM     36  N   UNL A   1      39.178  31.380  32.747  1.00  0.00    -0.248 NA
ATOM     37  C   UNL A   1      37.330  32.805  32.771  1.00  0.00     0.031 C 
ATOM     38  C   UNL A   1      38.308  30.347  28.488  1.00  0.00     0.029 A 
ATOM     39  N   UNL A   1      39.658  29.960  30.226  1.00  0.00    -0.354 N 
ATOM     40  C   UNL A   1      39.129  32.049  33.964  1.00  0.00     0.074 A 
ATOM     41  C   UNL A   1      38.005  32.956  33.902  1.00  0.00     0.031 C 
ATOM     42  C   UNL A   1      39.271  29.509  28.070  1.00  0.00     0.029 A 
ATOM     43  C   UNL A   1      40.189  29.250  29.175  1.00  0.00     0.049 A 
ATOM     44  H   UNL A   1      40.052  29.961  31.129  1.00  0.00     0.167 HD
ATOM     45  C   UNL A   1      39.929  31.902  35.046  1.00  0.00     0.034 A 
ATOM     46  C   UNL A   1      41.294  28.480  29.106  1.00  0.00     0.034 A 
ATOM     47  C   UNL A   1      41.010  30.957  35.125  1.00  0.00     0.049 A 
ATOM     48  C   UNL A   1      42.120  28.275  30.346  1.00  0.00     0.074 A 
ATOM     49  C   UNL A   1      41.807  30.652  36.214  1.00  0.00     0.029 A 
ATOM     50  N   UNL A   1      41.448  30.166  34.074  1.00  0.00    -0.354 N 
ATOM     51  N   UNL A   1      41.948  28.778  31.544  1.00  0.00    -0.248 NA
ATOM     52  C   UNL A   1      43.270  27.364  30.238  1.00  0.00     0.031 C 
ATOM     53  C   UNL A   1      42.740  29.689  35.816  1.00  0.00     0.029 A 
ATOM     54  C   UNL A   1      42.509  29.378  34.486  1.00  0.00     0.049 A 
ATOM     55  H   UNL A   1      41.061  30.165  33.169  1.00  0.00     0.167 HD
ATOM     56  C   UNL A   1      42.943  28.220  32.339  1.00  0.00     0.074 A 
ATOM     57  C   UNL A   1      43.699  27.321  31.492  1.00  0.00     0.031 C 
ATOM     58  C   UNL A   1      43.216  28.444  33.648  1.00  0.00     0.034 A 
BRANCH  45  59
ATOM     59  C   UNL A   1      39.627  32.738  36.261  1.00  0.00     0.023 A 
ATOM     60  C   UNL A   1      40.218  34.012  36.392  1.00  0.00     0.012 A 
ATOM     61  C   UNL A   1      38.712  32.297  37.237  1.00  0.00     0.148 A 
ATOM     62  C   UNL A   1      39.930  34.820  37.489  1.00  0.00     0.002 A 
ATOM     63  C   UNL A   1      38.394  33.128  38.306  1.00  0.00     0.091 A 
ATOM     64  F   UNL A   1      38.176  31.076  37.107  1.00  0.00    -0.205 F 
ATOM     65  C   UNL A   1      39.010  34.384  38.440  1.00  0.00     0.022 A 
BRANCH  63  66
ATOM     66  S   UNL A   1      37.164  32.691  39.541  1.00  0.00     0.127 S 
ATOM     67  O   UNL A   1      35.942  32.658  38.740  1.00  0.00    -0.237 OA
ATOM     68  O   UNL A   1      37.634  31.381  39.993  1.00  0.00    -0.237 OA
ATOM     69  O   UNL A   1      37.223  33.738  40.551  1.00  0.00    -0.744 OA
ENDBRANCH  63  66
ENDBRANCH  45  59
BRANCH  46  70
ATOM     70  C   UNL A   1      41.637  27.784  27.833  1.00  0.00     0.023 A 
ATOM     71  C   UNL A   1      42.064  28.541  26.725  1.00  0.00     0.012 A 
ATOM     72  C   UNL A   1      41.571  26.382  27.721  1.00  0.00     0.148 A 
ATOM     73  C   UNL A   1      42.385  27.919  25.518  1.00  0.00     0.002 A 
ATOM     74  C   UNL A   1      41.945  25.763  26.534  1.00  0.00     0.091 A 
ATOM     75  F   UNL A   1      41.150  25.679  28.782  1.00  0.00    -0.205 F 
ATOM     76  C   UNL A   1      42.337  26.531  25.426  1.00  0.00     0.022 A 
BRANCH  74  77
ATOM     77  S   UNL A   1      42.042  23.978  26.372  1.00  0.00     0.127 S 
ATOM     78  O   UNL A   1      42.865  23.616  27.523  1.00  0.00    -0.237 OA
ATOM     79  O   UNL A   1      40.635  23.586  26.472  1.00  0.00    -0.237 OA
ATOM     80  O   UNL A   1      42.635  23.737  25.062  1.00  0.00    -0.744 OA
ENDBRANCH  74  77
ENDBRANCH  46  70
BRANCH  58  81
ATOM     81  C   UNL A   1      44.359  27.682  34.264  1.00  0.00     0.023 A 
ATOM     82  C   UNL A   1      45.668  28.196  34.179  1.00  0.00     0.012 A 
ATOM     83  C   UNL A   1      44.126  26.500  34.993  1.00  0.00     0.148 A 
ATOM     84  C   UNL A   1      46.733  27.527  34.782  1.00  0.00     0.002 A 
ATOM     85  C   UNL A   1      45.184  25.865  35.633  1.00  0.00     0.091 A 
ATOM     86  F   UNL A   1      42.877  26.015  35.046  1.00  0.00    -0.205 F 
ATOM     87  C   UNL A   1      46.490  26.370  35.519  1.00  0.00     0.022 A 
BRANCH  85  88
ATOM     88  S   UNL A   1      44.946  24.424  36.680  1.00  0.00     0.127 S 
ATOM     89  O   UNL A   1      44.375  23.462  35.739  1.00  0.00    -0.237 OA
ATOM     90  O   UNL A   1      46.311  24.120  37.109  1.00  0.00    -0.237 OA
ATOM     91  O   UNL A   1      44.060  24.855  37.753  1.00  0.00    -0.744 OA
ENDBRANCH  85  88
ENDBRANCH  58  81
ENDBRANCH  32  33
ENDBRANCH  24  27
ENDBRANCH  22  23
ENDBRANCH  21  22
ENDBRANCH  20  21
ENDBRANCH   1  20
TORSDOF 20
ENDMDL
MODEL 2
REMARK VINA RESULT:      -9.7      5.260     10.044
REMARK SMILES CCCCC[NH2+][C@](C)(C(=O)NCCCCNC(=O)c1ccc(-c2c3nc(c(-c4cccc(S(=O)(=O)[O-])c4F)c4ccc([nH]4)c(-c4cccc(S(=O)(=O)[O-])c4F)c4nc(c(-c5cccc(S(=O)(=O)[O-])c5F)c5ccc2[nH]5)C=C4)C=C3)cc1)C(F)(F)F
REMARK SMILES IDX 12 1 11 2 9 3 10 4 7 6 8 7 6 8 5 11 4 12 3 13 2 14 1 15
REMARK SMILES IDX 82 16 83 17 84 18 85 19 13 20 14 21 15 22 16 23 17 24 18 26
REMARK SMILES IDX 19 27 20 28 81 29 21 30 80 31 22 32 23 33 24 34 74 35 25 36
REMARK SMILES IDX 79 37 73 38 75 39 26 40 78 41 72 42 71 43 27 45 59 46 39 47
REMARK SMILES IDX 58 48 40 49 43 50 57 51 76 52 41 53 42 54 56 56 77 57 44 58
REMARK SMILES IDX 28 59 29 60 37 61 30 62 32 63 38 64 31 65 33 66 34 67 35 68
REMARK SMILES IDX 36 69 60 70 61 71 69 72 62 73 64 74 70 75 63 76 65 77 66 78
REMARK SMILES IDX 67 79 68 80 45 81 46 82 54 83 47 84 49 85 55 86 48 87 50 88
REMARK SMILES IDX 51 89 52 90 53 91
REMARK H PARENT 11 5 6 9 6 10 16 25 75 44 43 55
REMARK Flexibility Score: inf
ROOT
ATOM      1  C   UNL A   1      33.808  22.874  27.270  1.00  0.00     0.116 C 
ENDROOT
BRANCH   1   2
ATOM      2  N   UNL A   1      32.412  22.528  27.060  1.00  0.00    -0.350 N 
ATOM      3  C   UNL A   1      31.467  23.093  26.240  1.00  0.00     0.290 C 
ATOM      4  O   UNL A   1      30.373  22.528  26.194  1.00  0.00    -0.267 OA
ATOM      5  H   UNL A   1      32.092  21.763  27.591  1.00  0.00     0.163 HD
BRANCH   3   6
ATOM      6  C   UNL A   1      31.770  24.389  25.447  1.00  0.00     0.268 C 
ATOM      7  C   UNL A   1      30.435  24.967  24.935  1.00  0.00     0.101 C 
BRANCH   6   8
ATOM      8  N   UNL A   1      32.557  25.295  26.362  1.00  0.00    -0.326 N 
ATOM      9  H   UNL A   1      32.273  25.093  27.320  1.00  0.00     0.347 HD
ATOM     10  H   UNL A   1      33.539  25.097  26.166  1.00  0.00     0.347 HD
BRANCH   8  11
ATOM     11  C   UNL A   1      32.394  26.724  26.141  1.00  0.00     0.261 C 
BRANCH  11  12
ATOM     12  C   UNL A   1      33.721  27.355  25.702  1.00  0.00     0.061 C 
BRANCH  12  13
ATOM     13  C   UNL A   1      33.703  28.013  24.319  1.00  0.00     0.006 C 
BRANCH  13  14
ATOM     14  C   UNL A   1      32.483  27.676  23.456  1.00  0.00    -0.003 C 
ATOM     15  C   UNL A   1      31.873  28.887  22.766  1.00  0.00     0.004 C 
ENDBRANCH  13  14
ENDBRANCH  12  13
ENDBRANCH  11  12
ENDBRANCH   8  11
ENDBRANCH   6   8
BRANCH   6  16
ATOM     16  C   UNL A   1      32.595  23.967  24.198  1.00  0.00     0.453 C 
ATOM     17  F   UNL A   1      32.151  24.505  23.043  1.00  0.00    -0.164 F 
ATOM     18  F   UNL A   1      33.886  24.389  24.339  1.00  0.00    -0.164 F 
ATOM     19  F   UNL A   1      32.664  22.622  24.057  1.00  0.00    -0.164 F 
ENDBRANCH   6  16
ENDBRANCH   3   6
ENDBRANCH   1   2
BRANCH   1  20
ATOM     20  C   UNL A   1      34.755  21.764  26.825  1.00  0.00     0.023 C 
BRANCH  20  21
ATOM     21  C   UNL A   1      35.649  22.125  25.641  1.00  0.00     0.023 C 
BRANCH  21  22
ATOM     22  C   UNL A   1      36.886  22.948  25.987  1.00  0.00     0.116 C 
BRANCH  22  23
ATOM     23  N   UNL A   1      38.090  22.144  26.144  1.00  0.00    -0.352 N 
ATOM     24  C   UNL A   1      39.351  22.549  26.512  1.00  0.00     0.251 C 
ATOM     25  H   UNL A   1      37.988  21.182  25.963  1.00  0.00     0.163 HD
ATOM     26  O   UNL A   1      40.286  21.754  26.489  1.00  0.00    -0.269 OA
BRANCH  24  27
ATOM     27  C   UNL A   1      39.577  23.958  26.901  1.00  0.00     0.039 A 
ATOM     28  C   UNL A   1      39.384  24.331  28.233  1.00  0.00     0.014 A 
ATOM     29  C   UNL A   1      40.020  24.893  25.962  1.00  0.00     0.014 A 
ATOM     30  C   UNL A   1      39.702  25.629  28.638  1.00  0.00     0.010 A 
ATOM     31  C   UNL A   1      40.407  26.161  26.383  1.00  0.00     0.010 A 
ATOM     32  C   UNL A   1      40.251  26.544  27.724  1.00  0.00    -0.014 A 
BRANCH  32  33
ATOM     33  C   UNL A   1      40.683  27.898  28.152  1.00  0.00     0.031 A 
ATOM     34  C   UNL A   1      42.146  28.249  28.191  1.00  0.00     0.074 A 
ATOM     35  C   UNL A   1      39.766  28.779  28.601  1.00  0.00     0.049 A 
ATOM     36  N   UNL A   1      42.716  29.356  28.592  1.00  0.00    -0.248 NA
ATOM     37  C   UNL A   1      43.094  27.211  27.755  1.00  0.00     0.031 C 
ATOM     38  C   UNL A   1      38.327  28.524  28.706  1.00  0.00     0.029 A 
ATOM     39  N   UNL A   1      39.911  30.054  29.086  1.00  0.00    -0.354 N 
ATOM     40  C   UNL A   1      44.085  29.134  28.496  1.00  0.00     0.074 A 
ATOM     41  C   UNL A   1      44.261  27.777  28.029  1.00  0.00     0.031 C 
ATOM     42  C   UNL A   1      37.723  29.607  29.222  1.00  0.00     0.029 A 
ATOM     43  C   UNL A   1      38.731  30.624  29.507  1.00  0.00     0.049 A 
ATOM     44  H   UNL A   1      40.778  30.519  29.129  1.00  0.00     0.167 HD
ATOM     45  C   UNL A   1      45.103  29.992  28.745  1.00  0.00     0.034 A 
ATOM     46  C   UNL A   1      38.488  31.827  30.064  1.00  0.00     0.034 A 
ATOM     47  C   UNL A   1      44.922  31.359  29.152  1.00  0.00     0.049 A 
ATOM     48  C   UNL A   1      39.631  32.787  30.257  1.00  0.00     0.074 A 
ATOM     49  C   UNL A   1      45.884  32.339  29.320  1.00  0.00     0.029 A 
ATOM     50  N   UNL A   1      43.701  31.939  29.457  1.00  0.00    -0.354 N 
ATOM     51  N   UNL A   1      40.902  32.621  29.986  1.00  0.00    -0.248 NA
ATOM     52  C   UNL A   1      39.301  34.115  30.795  1.00  0.00     0.031 C 
ATOM     53  C   UNL A   1      45.245  33.509  29.745  1.00  0.00     0.029 A 
ATOM     54  C   UNL A   1      43.884  33.262  29.820  1.00  0.00     0.049 A 
ATOM     55  H   UNL A   1      42.832  31.478  29.421  1.00  0.00     0.167 HD
ATOM     56  C   UNL A   1      41.518  33.831  30.286  1.00  0.00     0.074 A 
ATOM     57  C   UNL A   1      40.475  34.729  30.736  1.00  0.00     0.031 C 
ATOM     58  C   UNL A   1      42.830  34.163  30.211  1.00  0.00     0.034 A 
BRANCH  45  59
ATOM     59  C   UNL A   1      46.507  29.497  28.521  1.00  0.00     0.023 A 
ATOM     60  C   UNL A   1      47.128  29.710  27.273  1.00  0.00     0.012 A 
ATOM     61  C   UNL A   1      47.234  28.883  29.559  1.00  0.00     0.148 A 
ATOM     62  C   UNL A   1      48.438  29.292  27.050  1.00  0.00     0.002 A 
ATOM     63  C   UNL A   1      48.556  28.508  29.343  1.00  0.00     0.091 A 
ATOM     64  F   UNL A   1      46.621  28.669  30.731  1.00  0.00    -0.205 F 
ATOM     65  C   UNL A   1      49.156  28.701  28.087  1.00  0.00     0.022 A 
BRANCH  63  66
ATOM     66  S   UNL A   1      49.590  27.812  30.638  1.00  0.00     0.127 S 
ATOM     67  O   UNL A   1      50.750  27.357  29.874  1.00  0.00    -0.237 OA
ATOM     68  O   UNL A   1      49.839  28.975  31.490  1.00  0.00    -0.237 OA
ATOM     69  O   UNL A   1      48.799  26.761  31.261  1.00  0.00    -0.744 OA
ENDBRANCH  63  66
ENDBRANCH  45  59
BRANCH  46  70
ATOM     70  C   UNL A   1      37.092  32.220  30.405  1.00  0.00     0.023 A 
ATOM     71  C   UNL A   1      36.606  31.982  31.706  1.00  0.00     0.012 A 
ATOM     72  C   UNL A   1      36.254  32.850  29.466  1.00  0.00     0.148 A 
ATOM     73  C   UNL A   1      35.302  32.333  32.055  1.00  0.00     0.002 A 
ATOM     74  C   UNL A   1      34.974  33.247  29.835  1.00  0.00     0.091 A 
ATOM     75  F   UNL A   1      36.729  33.056  28.229  1.00  0.00    -0.205 F 
ATOM     76  C   UNL A   1      34.490  32.975  31.124  1.00  0.00     0.022 A 
BRANCH  74  77
ATOM     77  S   UNL A   1      33.912  34.197  28.742  1.00  0.00     0.127 S 
ATOM     78  O   UNL A   1      33.501  33.188  27.770  1.00  0.00    -0.237 OA
ATOM     79  O   UNL A   1      32.856  34.641  29.654  1.00  0.00    -0.237 OA
ATOM     80  O   UNL A   1      34.747  35.275  28.228  1.00  0.00    -0.744 OA
ENDBRANCH  74  77
ENDBRANCH  46  70
BRANCH  58  81
ATOM     81  C   UNL A   1      43.219  35.567  30.590  1.00  0.00     0.023 A 
ATOM     82  C   UNL A   1      43.618  35.849  31.911  1.00  0.00     0.012 A 
ATOM     83  C   UNL A   1      43.263  36.588  29.621  1.00  0.00     0.148 A 
ATOM     84  C   UNL A   1      44.025  37.134  32.270  1.00  0.00     0.002 A 
ATOM     85  C   UNL A   1      43.716  37.854  29.975  1.00  0.00     0.091 A 
ATOM     86  F   UNL A   1      42.861  36.306  28.373  1.00  0.00    -0.205 F 
ATOM     87  C   UNL A   1      44.085  38.132  31.300  1.00  0.00     0.022 A 
BRANCH  85  88
ATOM     88  S   UNL A   1      43.916  39.171  28.769  1.00  0.00     0.127 S 
ATOM     89  O   UNL A   1      44.690  38.504  27.724  1.00  0.00    -0.237 OA
ATOM     90  O   UNL A   1      42.532  39.475  28.404  1.00  0.00    -0.237 OA
ATOM     91  O   UNL A   1      44.604  40.249  29.469  1.00  0.00    -0.744 OA
ENDBRANCH  85  88
ENDBRANCH  58  81
ENDBRANCH  32  33
ENDBRANCH  24  27
ENDBRANCH  22  23
ENDBRANCH  21  22
ENDBRANCH  20  21
ENDBRANCH   1  20
TORSDOF 20
ENDMDL
MODEL 3
REMARK VINA RESULT:      -9.6      6.290      9.779
REMARK SMILES CCCCC[NH2+][C@](C)(C(=O)NCCCCNC(=O)c1ccc(-c2c3nc(c(-c4cccc(S(=O)(=O)[O-])c4F)c4ccc([nH]4)c(-c4cccc(S(=O)(=O)[O-])c4F)c4nc(c(-c5cccc(S(=O)(=O)[O-])c5F)c5ccc2[nH]5)C=C4)C=C3)cc1)C(F)(F)F
REMARK SMILES IDX 12 1 11 2 9 3 10 4 7 6 8 7 6 8 5 11 4 12 3 13 2 14 1 15
REMARK SMILES IDX 82 16 83 17 84 18 85 19 13 20 14 21 15 22 16 23 17 24 18 26
REMARK SMILES IDX 19 27 20 28 81 29 21 30 80 31 22 32 23 33 24 34 74 35 25 36
REMARK SMILES IDX 79 37 73 38 75 39 26 40 78 41 72 42 71 43 27 45 59 46 39 47
REMARK SMILES IDX 58 48 40 49 43 50 57 51 76 52 41 53 42 54 56 56 77 57 44 58
REMARK SMILES IDX 28 59 29 60 37 61 30 62 32 63 38 64 31 65 33 66 34 67 35 68
REMARK SMILES IDX 36 69 60 70 61 71 69 72 62 73 64 74 70 75 63 76 65 77 66 78
REMARK SMILES IDX 67 79 68 80 45 81 46 82 54 83 47 84 49 85 55 86 48 87 50 88
REMARK SMILES IDX 51 89 52 90 53 91
REMARK H PARENT 11 5 6 9 6 10 16 25 75 44 43 55
REMARK Flexibility Score: inf
ROOT
ATOM      1  C   UNL A   1      35.977  21.519  24.228  1.00  0.00     0.116 C 
ENDROOT
BRANCH   1   2
ATOM      2  N   UNL A   1      35.519  22.669  23.467  1.00  0.00    -0.350 N 
ATOM      3  C   UNL A   1      34.473  23.529  23.694  1.00  0.00     0.290 C 
ATOM      4  O   UNL A   1      34.373  24.486  22.924  1.00  0.00    -0.267 OA
ATOM      5  H   UNL A   1      36.045  22.865  22.658  1.00  0.00     0.163 HD
BRANCH   3   6
ATOM      6  C   UNL A   1      33.466  23.276  24.843  1.00  0.00     0.268 C 
ATOM      7  C   UNL A   1      32.102  23.869  24.433  1.00  0.00     0.101 C 
BRANCH   6   8
ATOM      8  N   UNL A   1      33.468  21.791  25.116  1.00  0.00    -0.326 N 
ATOM      9  H   UNL A   1      34.224  21.376  24.573  1.00  0.00     0.347 HD
ATOM     10  H   UNL A   1      33.577  21.698  26.126  1.00  0.00     0.347 HD
BRANCH   8  11
ATOM     11  C   UNL A   1      32.242  21.080  24.788  1.00  0.00     0.261 C 
BRANCH  11  12
ATOM     12  C   UNL A   1      32.556  19.801  24.002  1.00  0.00     0.061 C 
BRANCH  12  13
ATOM     13  C   UNL A   1      33.281  18.710  24.796  1.00  0.00     0.006 C 
BRANCH  13  14
ATOM     14  C   UNL A   1      32.973  17.276  24.360  1.00  0.00    -0.003 C 
ATOM     15  C   UNL A   1      33.228  16.241  25.446  1.00  0.00     0.004 C 
ENDBRANCH  13  14
ENDBRANCH  12  13
ENDBRANCH  11  12
ENDBRANCH   8  11
ENDBRANCH   6   8
BRANCH   6  16
ATOM     16  C   UNL A   1      33.970  24.090  26.069  1.00  0.00     0.453 C 
ATOM     17  F   UNL A   1      34.001  23.384  27.218  1.00  0.00    -0.164 F 
ATOM     18  F   UNL A   1      35.251  24.506  25.846  1.00  0.00    -0.164 F 
ATOM     19  F   UNL A   1      33.249  25.219  26.268  1.00  0.00    -0.164 F 
ENDBRANCH   6  16
ENDBRANCH   3   6
ENDBRANCH   1   2
BRANCH   1  20
ATOM     20  C   UNL A   1      37.496  21.477  24.360  1.00  0.00     0.023 C 
BRANCH  20  21
ATOM     21  C   UNL A   1      38.050  20.188  24.962  1.00  0.00     0.023 C 
BRANCH  21  22
ATOM     22  C   UNL A   1      39.149  20.376  26.001  1.00  0.00     0.116 C 
BRANCH  22  23
ATOM     23  N   UNL A   1      40.139  19.307  25.996  1.00  0.00    -0.352 N 
ATOM     24  C   UNL A   1      41.503  19.399  26.133  1.00  0.00     0.251 C 
ATOM     25  H   UNL A   1      39.782  18.396  25.880  1.00  0.00     0.163 HD
ATOM     26  O   UNL A   1      42.206  18.401  25.995  1.00  0.00    -0.269 OA
BRANCH  24  27
ATOM     27  C   UNL A   1      42.118  20.714  26.413  1.00  0.00     0.039 A 
ATOM     28  C   UNL A   1      42.378  21.580  25.349  1.00  0.00     0.014 A 
ATOM     29  C   UNL A   1      42.397  21.104  27.726  1.00  0.00     0.014 A 
ATOM     30  C   UNL A   1      42.853  22.867  25.607  1.00  0.00     0.010 A 
ATOM     31  C   UNL A   1      42.797  22.410  27.986  1.00  0.00     0.010 A 
ATOM     32  C   UNL A   1      43.032  23.306  26.931  1.00  0.00    -0.014 A 
BRANCH  32  33
ATOM     33  C   UNL A   1      43.446  24.699  27.234  1.00  0.00     0.031 A 
ATOM     34  C   UNL A   1      42.462  25.670  27.828  1.00  0.00     0.074 A 
ATOM     35  C   UNL A   1      44.678  25.119  26.880  1.00  0.00     0.049 A 
ATOM     36  N   UNL A   1      42.622  26.938  28.105  1.00  0.00    -0.248 NA
ATOM     37  C   UNL A   1      41.112  25.159  28.119  1.00  0.00     0.031 C 
ATOM     38  C   UNL A   1      45.690  24.302  26.207  1.00  0.00     0.029 A 
ATOM     39  N   UNL A   1      45.276  26.347  27.007  1.00  0.00    -0.354 N 
ATOM     40  C   UNL A   1      41.388  27.385  28.562  1.00  0.00     0.074 A 
ATOM     41  C   UNL A   1      40.481  26.261  28.496  1.00  0.00     0.031 C 
ATOM     42  C   UNL A   1      46.783  25.050  25.981  1.00  0.00     0.029 A 
ATOM     43  C   UNL A   1      46.541  26.404  26.469  1.00  0.00     0.049 A 
ATOM     44  H   UNL A   1      44.841  27.116  27.442  1.00  0.00     0.167 HD
ATOM     45  C   UNL A   1      41.048  28.612  29.023  1.00  0.00     0.034 A 
ATOM     46  C   UNL A   1      47.409  27.432  26.375  1.00  0.00     0.034 A 
ATOM     47  C   UNL A   1      41.968  29.711  29.143  1.00  0.00     0.049 A 
ATOM     48  C   UNL A   1      47.030  28.764  26.966  1.00  0.00     0.074 A 
ATOM     49  C   UNL A   1      41.750  30.957  29.702  1.00  0.00     0.029 A 
ATOM     50  N   UNL A   1      43.279  29.696  28.694  1.00  0.00    -0.354 N 
ATOM     51  N   UNL A   1      45.917  29.114  27.562  1.00  0.00    -0.248 NA
ATOM     52  C   UNL A   1      48.042  29.830  26.907  1.00  0.00     0.031 C 
ATOM     53  C   UNL A   1      42.926  31.704  29.574  1.00  0.00     0.029 A 
ATOM     54  C   UNL A   1      43.882  30.915  28.956  1.00  0.00     0.049 A 
ATOM     55  H   UNL A   1      43.718  28.933  28.254  1.00  0.00     0.167 HD
ATOM     56  C   UNL A   1      46.106  30.427  27.980  1.00  0.00     0.074 A 
ATOM     57  C   UNL A   1      47.450  30.800  27.591  1.00  0.00     0.031 C 
ATOM     58  C   UNL A   1      45.239  31.254  28.615  1.00  0.00     0.034 A 
BRANCH  45  59
ATOM     59  C   UNL A   1      39.633  28.816  29.496  1.00  0.00     0.023 A 
ATOM     60  C   UNL A   1      39.273  28.420  30.800  1.00  0.00     0.012 A 
ATOM     61  C   UNL A   1      38.680  29.456  28.680  1.00  0.00     0.148 A 
ATOM     62  C   UNL A   1      37.980  28.627  31.275  1.00  0.00     0.002 A 
ATOM     63  C   UNL A   1      37.404  29.700  29.176  1.00  0.00     0.091 A 
ATOM     64  F   UNL A   1      39.034  29.807  27.436  1.00  0.00    -0.205 F 
ATOM     65  C   UNL A   1      37.049  29.276  30.468  1.00  0.00     0.022 A 
BRANCH  63  66
ATOM     66  S   UNL A   1      36.157  30.599  28.246  1.00  0.00     0.127 S 
ATOM     67  O   UNL A   1      35.865  29.662  27.163  1.00  0.00    -0.237 OA
ATOM     68  O   UNL A   1      35.086  30.747  29.231  1.00  0.00    -0.237 OA
ATOM     69  O   UNL A   1      36.785  31.849  27.840  1.00  0.00    -0.744 OA
ENDBRANCH  63  66
ENDBRANCH  45  59
BRANCH  46  70
ATOM     70  C   UNL A   1      48.751  27.219  25.764  1.00  0.00     0.023 A 
ATOM     71  C   UNL A   1      49.810  26.754  26.569  1.00  0.00     0.012 A 
ATOM     72  C   UNL A   1      48.979  27.445  24.394  1.00  0.00     0.148 A 
ATOM     73  C   UNL A   1      51.080  26.552  26.027  1.00  0.00     0.002 A 
ATOM     74  C   UNL A   1      50.232  27.189  23.848  1.00  0.00     0.091 A 
ATOM     75  F   UNL A   1      47.963  27.899  23.647  1.00  0.00    -0.205 F 
ATOM     76  C   UNL A   1      51.289  26.758  24.666  1.00  0.00     0.022 A 
BRANCH  74  77
ATOM     77  S   UNL A   1      50.551  27.298  22.084  1.00  0.00     0.127 S 
ATOM     78  O   UNL A   1      50.417  28.732  21.843  1.00  0.00    -0.237 OA
ATOM     79  O   UNL A   1      51.917  26.781  21.989  1.00  0.00    -0.237 OA
ATOM     80  O   UNL A   1      49.548  26.449  21.454  1.00  0.00    -0.744 OA
ENDBRANCH  74  77
ENDBRANCH  46  70
BRANCH  58  81
ATOM     81  C   UNL A   1      45.721  32.637  28.964  1.00  0.00     0.023 A 
ATOM     82  C   UNL A   1      46.275  32.884  30.236  1.00  0.00     0.012 A 
ATOM     83  C   UNL A   1      45.695  33.671  28.008  1.00  0.00     0.148 A 
ATOM     84  C   UNL A   1      46.767  34.148  30.561  1.00  0.00     0.002 A 
ATOM     85  C   UNL A   1      46.231  34.914  28.323  1.00  0.00     0.091 A 
ATOM     86  F   UNL A   1      45.145  33.422  26.810  1.00  0.00    -0.205 F 
ATOM     87  C   UNL A   1      46.756  35.159  29.602  1.00  0.00     0.022 A 
BRANCH  85  88
ATOM     88  S   UNL A   1      46.344  36.242  27.117  1.00  0.00     0.127 S 
ATOM     89  O   UNL A   1      47.306  37.141  27.753  1.00  0.00    -0.237 OA
ATOM     90  O   UNL A   1      46.850  35.547  25.933  1.00  0.00    -0.237 OA
ATOM     91  O   UNL A   1      44.993  36.766  26.975  1.00  0.00    -0.744 OA
ENDBRANCH  85  88
ENDBRANCH  58  81
ENDBRANCH  32  33
ENDBRANCH  24  27
ENDBRANCH  22  23
ENDBRANCH  21  22
ENDBRANCH  20  21
ENDBRANCH   1  20
TORSDOF 20
ENDMDL
