MODEL 1
REMARK VINA RESULT:     -12.1      0.000      0.000
REMARK SMILES Cc1cc(N2CCC[C@H](C(=O)NCCCCNC(=O)c3ccc(-c4c5nc(c(-c6cccc(S(=O)(=O)[O-])c6F)c6ccc([nH]6)c(-c6cccc(S(=O)(=O)[O-])c6F)c6nc(c(-c7cccc(S(=O)(=O)[O-])c7F)c7ccc4[nH]7)C=C6)C=C5)cc3)C2)nc(C(C)C)n1
REMARK SMILES IDX 15 1 14 2 13 3 12 4 10 5 11 6 9 8 5 9 6 10 83 11 7 12 8 13
REMARK SMILES IDX 4 14 1 15 2 16 3 17 89 18 85 19 84 20 86 21 87 22 88 23
REMARK SMILES IDX 16 24 17 25 18 26 19 28 20 29 21 30 82 31 22 32 81 33 23 34
REMARK SMILES IDX 24 35 25 36 75 37 26 38 80 39 74 40 76 41 27 42 79 43 73 44
REMARK SMILES IDX 72 45 28 47 60 48 40 49 59 50 41 51 44 52 58 53 77 54 42 55
REMARK SMILES IDX 43 56 57 58 78 59 45 60 29 61 30 62 38 63 31 64 33 65 39 66
REMARK SMILES IDX 32 67 34 68 35 69 36 70 37 71 61 72 62 73 70 74 63 75 65 76
REMARK SMILES IDX 71 77 64 78 66 79 67 80 68 81 69 82 46 83 47 84 55 85 48 86
REMARK SMILES IDX 50 87 56 88 49 89 51 90 52 91 53 92 54 93
REMARK H PARENT 12 7 17 27 76 46 44 57
REMARK Flexibility Score: inf
ROOT
ATOM      1  C   UNL A   1      31.738  28.988  26.314  1.00  0.00     0.023 C 
ENDROOT
BRANCH   1   2
ATOM      2  C   UNL A   1      32.262  27.577  26.567  1.00  0.00     0.023 C 
BRANCH   2   3
ATOM      3  C   UNL A   1      31.764  26.531  25.574  1.00  0.00     0.116 C 
BRANCH   3   4
ATOM      4  N   UNL A   1      30.407  26.770  25.135  1.00  0.00    -0.356 N 
ATOM      5  C   UNL A   1      29.896  26.958  23.894  1.00  0.00     0.224 C 
ATOM      6  O   UNL A   1      28.661  26.958  23.796  1.00  0.00    -0.275 OA
ATOM      7  H   UNL A   1      29.742  26.801  25.861  1.00  0.00     0.163 HD
BRANCH   5   8
ATOM      8  C   UNL A   1      30.733  27.168  22.629  1.00  0.00     0.098 C 
ATOM      9  N   UNL A   1      32.807  25.848  22.555  1.00  0.00    -0.356 N 
ATOM     10  C   UNL A   1      33.686  26.960  22.260  1.00  0.00     0.118 C 
ATOM     11  C   UNL A   1      31.419  25.902  22.135  1.00  0.00     0.131 C 
ATOM     12  C   UNL A   1      33.095  28.254  22.826  1.00  0.00     0.022 C 
ATOM     13  C   UNL A   1      31.594  28.435  22.583  1.00  0.00     0.017 C 
BRANCH   9  14
ATOM     14  C   UNL A   1      33.313  24.594  22.820  1.00  0.00     0.132 A 
ATOM     15  C   UNL A   1      32.269  21.031  23.303  1.00  0.00     0.067 C 
ATOM     16  C   UNL A   1      33.075  22.289  23.223  1.00  0.00     0.043 A 
ATOM     17  C   UNL A   1      32.514  23.471  22.781  1.00  0.00     0.070 A 
ATOM     18  N   UNL A   1      34.346  22.214  23.661  1.00  0.00    -0.238 NA
ATOM     19  C   UNL A   1      35.059  23.353  23.660  1.00  0.00     0.133 A 
ATOM     20  N   UNL A   1      34.583  24.540  23.249  1.00  0.00    -0.216 NA
BRANCH  19  21
ATOM     21  C   UNL A   1      36.461  23.335  24.228  1.00  0.00     0.051 C 
ATOM     22  C   UNL A   1      36.463  23.835  25.673  1.00  0.00     0.016 C 
ATOM     23  C   UNL A   1      37.087  21.947  24.121  1.00  0.00     0.016 C 
ENDBRANCH  19  21
ENDBRANCH   9  14
ENDBRANCH   5   8
ENDBRANCH   3   4
ENDBRANCH   2   3
ENDBRANCH   1   2
BRANCH   1  24
ATOM     24  C   UNL A   1      32.805  30.033  25.997  1.00  0.00     0.116 C 
BRANCH  24  25
ATOM     25  N   UNL A   1      32.522  31.367  26.517  1.00  0.00    -0.352 N 
ATOM     26  C   UNL A   1      33.311  32.107  27.372  1.00  0.00     0.251 C 
ATOM     27  H   UNL A   1      31.679  31.783  26.226  1.00  0.00     0.163 HD
ATOM     28  O   UNL A   1      32.946  33.196  27.802  1.00  0.00    -0.269 OA
BRANCH  26  29
ATOM     29  C   UNL A   1      34.603  31.527  27.792  1.00  0.00     0.039 A 
ATOM     30  C   UNL A   1      35.692  32.369  28.024  1.00  0.00     0.014 A 
ATOM     31  C   UNL A   1      34.677  30.164  28.085  1.00  0.00     0.014 A 
ATOM     32  C   UNL A   1      36.836  31.854  28.639  1.00  0.00     0.010 A 
ATOM     33  C   UNL A   1      35.787  29.670  28.757  1.00  0.00     0.010 A 
ATOM     34  C   UNL A   1      36.872  30.512  29.050  1.00  0.00    -0.014 A 
BRANCH  34  35
ATOM     35  C   UNL A   1      38.016  29.947  29.808  1.00  0.00     0.031 A 
ATOM     36  C   UNL A   1      38.275  30.416  31.211  1.00  0.00     0.074 A 
ATOM     37  C   UNL A   1      38.895  29.133  29.188  1.00  0.00     0.049 A 
ATOM     38  N   UNL A   1      39.303  30.182  31.984  1.00  0.00    -0.248 NA
ATOM     39  C   UNL A   1      37.262  31.302  31.811  1.00  0.00     0.031 C 
ATOM     40  C   UNL A   1      38.796  28.674  27.801  1.00  0.00     0.029 A 
ATOM     41  N   UNL A   1      40.071  28.581  29.635  1.00  0.00    -0.354 N 
ATOM     42  C   UNL A   1      39.088  30.932  33.134  1.00  0.00     0.074 A 
ATOM     43  C   UNL A   1      37.846  31.649  32.948  1.00  0.00     0.031 C 
ATOM     44  C   UNL A   1      39.868  27.917  27.510  1.00  0.00     0.029 A 
ATOM     45  C   UNL A   1      40.743  27.859  28.676  1.00  0.00     0.049 A 
ATOM     46  H   UNL A   1      40.402  28.692  30.556  1.00  0.00     0.167 HD
ATOM     47  C   UNL A   1      39.843  30.996  34.255  1.00  0.00     0.034 A 
ATOM     48  C   UNL A   1      41.933  27.228  28.730  1.00  0.00     0.034 A 
ATOM     49  C   UNL A   1      41.038  30.226  34.462  1.00  0.00     0.049 A 
ATOM     50  C   UNL A   1      42.709  27.245  30.021  1.00  0.00     0.074 A 
ATOM     51  C   UNL A   1      41.824  30.146  35.596  1.00  0.00     0.029 A 
ATOM     52  N   UNL A   1      41.610  29.391  33.515  1.00  0.00    -0.354 N 
ATOM     53  N   UNL A   1      42.414  27.840  31.151  1.00  0.00    -0.248 NA
ATOM     54  C   UNL A   1      43.962  26.474  30.058  1.00  0.00     0.031 C 
ATOM     55  C   UNL A   1      42.874  29.260  35.336  1.00  0.00     0.029 A 
ATOM     56  C   UNL A   1      42.734  28.782  34.042  1.00  0.00     0.049 A 
ATOM     57  H   UNL A   1      41.267  29.252  32.603  1.00  0.00     0.167 HD
ATOM     58  C   UNL A   1      43.415  27.479  32.046  1.00  0.00     0.074 A 
ATOM     59  C   UNL A   1      44.324  26.607  31.329  1.00  0.00     0.031 C 
ATOM     60  C   UNL A   1      43.576  27.849  33.339  1.00  0.00     0.034 A 
BRANCH  47  61
ATOM     61  C   UNL A   1      39.357  31.877  35.374  1.00  0.00     0.023 A 
ATOM     62  C   UNL A   1      38.453  31.353  36.320  1.00  0.00     0.012 A 
ATOM     63  C   UNL A   1      39.824  33.197  35.520  1.00  0.00     0.148 A 
ATOM     64  C   UNL A   1      37.992  32.140  37.374  1.00  0.00     0.002 A 
ATOM     65  C   UNL A   1      39.392  33.962  36.598  1.00  0.00     0.091 A 
ATOM     66  F   UNL A   1      40.663  33.687  34.597  1.00  0.00    -0.205 F 
ATOM     67  C   UNL A   1      38.469  33.439  37.519  1.00  0.00     0.022 A 
BRANCH  65  68
ATOM     68  S   UNL A   1      40.010  35.619  36.912  1.00  0.00     0.127 S 
ATOM     69  O   UNL A   1      39.349  35.949  38.173  1.00  0.00    -0.237 OA
ATOM     70  O   UNL A   1      41.453  35.399  37.019  1.00  0.00    -0.237 OA
ATOM     71  O   UNL A   1      39.607  36.416  35.762  1.00  0.00    -0.744 OA
ENDBRANCH  65  68
ENDBRANCH  47  61
BRANCH  48  72
ATOM     72  C   UNL A   1      42.417  26.447  27.557  1.00  0.00     0.023 A 
ATOM     73  C   UNL A   1      43.242  27.082  26.607  1.00  0.00     0.012 A 
ATOM     74  C   UNL A   1      42.104  25.084  27.389  1.00  0.00     0.148 A 
ATOM     75  C   UNL A   1      43.719  26.385  25.497  1.00  0.00     0.002 A 
ATOM     76  C   UNL A   1      42.623  24.382  26.306  1.00  0.00     0.091 A 
ATOM     77  F   UNL A   1      41.308  24.499  28.295  1.00  0.00    -0.205 F 
ATOM     78  C   UNL A   1      43.418  25.034  25.351  1.00  0.00     0.022 A 
BRANCH  76  79
ATOM     79  S   UNL A   1      42.391  22.611  26.110  1.00  0.00     0.127 S 
ATOM     80  O   UNL A   1      40.935  22.499  26.093  1.00  0.00    -0.237 OA
ATOM     81  O   UNL A   1      43.043  22.358  24.825  1.00  0.00    -0.237 OA
ATOM     82  O   UNL A   1      43.064  22.004  27.250  1.00  0.00    -0.744 OA
ENDBRANCH  76  79
ENDBRANCH  48  72
BRANCH  60  83
ATOM     83  C   UNL A   1      44.738  27.273  34.101  1.00  0.00     0.023 A 
ATOM     84  C   UNL A   1      45.977  27.941  34.095  1.00  0.00     0.012 A 
ATOM     85  C   UNL A   1      44.563  26.140  34.920  1.00  0.00     0.148 A 
ATOM     86  C   UNL A   1      47.031  27.481  34.884  1.00  0.00     0.002 A 
ATOM     87  C   UNL A   1      45.603  25.712  35.735  1.00  0.00     0.091 A 
ATOM     88  F   UNL A   1      43.379  25.509  34.894  1.00  0.00    -0.205 F 
ATOM     89  C   UNL A   1      46.840  26.378  35.713  1.00  0.00     0.022 A 
BRANCH  87  90
ATOM     90  S   UNL A   1      45.416  24.361  36.904  1.00  0.00     0.127 S 
ATOM     91  O   UNL A   1      45.112  23.240  36.017  1.00  0.00    -0.237 OA
ATOM     92  O   UNL A   1      46.739  24.304  37.529  1.00  0.00    -0.237 OA
ATOM     93  O   UNL A   1      44.341  24.756  37.805  1.00  0.00    -0.744 OA
ENDBRANCH  87  90
ENDBRANCH  60  83
ENDBRANCH  34  35
ENDBRANCH  26  29
ENDBRANCH  24  25
ENDBRANCH   1  24
TORSDOF 16
ENDMDL
MODEL 2
REMARK VINA RESULT:     -12.1      1.363      2.037
REMARK SMILES Cc1cc(N2CCC[C@H](C(=O)NCCCCNC(=O)c3ccc(-c4c5nc(c(-c6cccc(S(=O)(=O)[O-])c6F)c6ccc([nH]6)c(-c6cccc(S(=O)(=O)[O-])c6F)c6nc(c(-c7cccc(S(=O)(=O)[O-])c7F)c7ccc4[nH]7)C=C6)C=C5)cc3)C2)nc(C(C)C)n1
REMARK SMILES IDX 15 1 14 2 13 3 12 4 10 5 11 6 9 8 5 9 6 10 83 11 7 12 8 13
REMARK SMILES IDX 4 14 1 15 2 16 3 17 89 18 85 19 84 20 86 21 87 22 88 23
REMARK SMILES IDX 16 24 17 25 18 26 19 28 20 29 21 30 82 31 22 32 81 33 23 34
REMARK SMILES IDX 24 35 25 36 75 37 26 38 80 39 74 40 76 41 27 42 79 43 73 44
REMARK SMILES IDX 72 45 28 47 60 48 40 49 59 50 41 51 44 52 58 53 77 54 42 55
REMARK SMILES IDX 43 56 57 58 78 59 45 60 29 61 30 62 38 63 31 64 33 65 39 66
REMARK SMILES IDX 32 67 34 68 35 69 36 70 37 71 61 72 62 73 70 74 63 75 65 76
REMARK SMILES IDX 71 77 64 78 66 79 67 80 68 81 69 82 46 83 47 84 55 85 48 86
REMARK SMILES IDX 50 87 56 88 49 89 51 90 52 91 53 92 54 93
REMARK H PARENT 12 7 17 27 76 46 44 57
REMARK Flexibility Score: inf
ROOT
ATOM      1  C   UNL A   1      31.379  30.459  25.486  1.00  0.00     0.023 C 
ENDROOT
BRANCH   1   2
ATOM      2  C   UNL A   1      31.775  29.201  24.720  1.00  0.00     0.023 C 
BRANCH   2   3
ATOM      3  C   UNL A   1      33.242  28.805  24.870  1.00  0.00     0.116 C 
BRANCH   3   4
ATOM      4  N   UNL A   1      33.589  27.626  24.110  1.00  0.00    -0.356 N 
ATOM      5  C   UNL A   1      33.487  26.310  24.418  1.00  0.00     0.224 C 
ATOM      6  O   UNL A   1      33.691  25.507  23.497  1.00  0.00    -0.275 OA
ATOM      7  H   UNL A   1      33.963  27.810  23.218  1.00  0.00     0.163 HD
BRANCH   5   8
ATOM      8  C   UNL A   1      33.144  25.763  25.807  1.00  0.00     0.098 C 
ATOM      9  N   UNL A   1      32.908  23.317  25.904  1.00  0.00    -0.356 N 
ATOM     10  C   UNL A   1      31.613  23.314  26.549  1.00  0.00     0.118 C 
ATOM     11  C   UNL A   1      33.813  24.432  26.119  1.00  0.00     0.131 C 
ATOM     12  C   UNL A   1      30.848  24.589  26.186  1.00  0.00     0.022 C 
ATOM     13  C   UNL A   1      31.678  25.874  26.241  1.00  0.00     0.017 C 
BRANCH   9  14
ATOM     14  C   UNL A   1      33.483  22.146  25.460  1.00  0.00     0.132 A 
ATOM     15  C   UNL A   1      32.885  18.456  25.255  1.00  0.00     0.067 C 
ATOM     16  C   UNL A   1      33.513  19.812  25.176  1.00  0.00     0.043 A 
ATOM     17  C   UNL A   1      32.796  20.951  25.484  1.00  0.00     0.070 A 
ATOM     18  N   UNL A   1      34.819  19.847  24.850  1.00  0.00    -0.238 NA
ATOM     19  C   UNL A   1      35.412  21.054  24.844  1.00  0.00     0.133 A 
ATOM     20  N   UNL A   1      34.783  22.205  25.135  1.00  0.00    -0.216 NA
BRANCH  19  21
ATOM     21  C   UNL A   1      36.898  21.132  24.574  1.00  0.00     0.051 C 
ATOM     22  C   UNL A   1      37.531  22.275  25.368  1.00  0.00     0.016 C 
ATOM     23  C   UNL A   1      37.589  19.803  24.869  1.00  0.00     0.016 C 
ENDBRANCH  19  21
ENDBRANCH   9  14
ENDBRANCH   5   8
ENDBRANCH   3   4
ENDBRANCH   2   3
ENDBRANCH   1   2
BRANCH   1  24
ATOM     24  C   UNL A   1      32.331  30.869  26.606  1.00  0.00     0.116 C 
BRANCH  24  25
ATOM     25  N   UNL A   1      32.287  32.286  26.953  1.00  0.00    -0.352 N 
ATOM     26  C   UNL A   1      33.257  33.005  27.619  1.00  0.00     0.251 C 
ATOM     27  H   UNL A   1      31.480  32.781  26.683  1.00  0.00     0.163 HD
ATOM     28  O   UNL A   1      33.090  34.182  27.919  1.00  0.00    -0.269 OA
BRANCH  26  29
ATOM     29  C   UNL A   1      34.499  32.300  27.997  1.00  0.00     0.039 A 
ATOM     30  C   UNL A   1      35.697  33.012  28.077  1.00  0.00     0.014 A 
ATOM     31  C   UNL A   1      34.430  30.967  28.406  1.00  0.00     0.014 A 
ATOM     32  C   UNL A   1      36.816  32.406  28.654  1.00  0.00     0.010 A 
ATOM     33  C   UNL A   1      35.522  30.391  29.040  1.00  0.00     0.010 A 
ATOM     34  C   UNL A   1      36.722  31.108  29.181  1.00  0.00    -0.014 A 
BRANCH  34  35
ATOM     35  C   UNL A   1      37.846  30.463  29.904  1.00  0.00     0.031 A 
ATOM     36  C   UNL A   1      38.156  30.887  31.312  1.00  0.00     0.074 A 
ATOM     37  C   UNL A   1      38.666  29.615  29.251  1.00  0.00     0.049 A 
ATOM     38  N   UNL A   1      39.182  30.579  32.060  1.00  0.00    -0.248 NA
ATOM     39  C   UNL A   1      37.205  31.815  31.949  1.00  0.00     0.031 C 
ATOM     40  C   UNL A   1      38.517  29.193  27.857  1.00  0.00     0.029 A 
ATOM     41  N   UNL A   1      39.817  28.990  29.664  1.00  0.00    -0.354 N 
ATOM     42  C   UNL A   1      39.031  31.315  33.229  1.00  0.00     0.074 A 
ATOM     43  C   UNL A   1      37.828  32.103  33.082  1.00  0.00     0.031 C 
ATOM     44  C   UNL A   1      39.539  28.384  27.530  1.00  0.00     0.029 A 
ATOM     45  C   UNL A   1      40.430  28.252  28.677  1.00  0.00     0.049 A 
ATOM     46  H   UNL A   1      40.170  29.062  30.580  1.00  0.00     0.167 HD
ATOM     47  C   UNL A   1      39.808  31.313  34.337  1.00  0.00     0.034 A 
ATOM     48  C   UNL A   1      41.584  27.555  28.696  1.00  0.00     0.034 A 
ATOM     49  C   UNL A   1      40.961  30.473  34.505  1.00  0.00     0.049 A 
ATOM     50  C   UNL A   1      42.383  27.501  29.972  1.00  0.00     0.074 A 
ATOM     51  C   UNL A   1      41.762  30.325  35.622  1.00  0.00     0.029 A 
ATOM     52  N   UNL A   1      41.468  29.628  33.530  1.00  0.00    -0.354 N 
ATOM     53  N   UNL A   1      42.142  28.087  31.119  1.00  0.00    -0.248 NA
ATOM     54  C   UNL A   1      43.591  26.661  29.969  1.00  0.00     0.031 C 
ATOM     55  C   UNL A   1      42.756  29.387  35.323  1.00  0.00     0.029 A 
ATOM     56  C   UNL A   1      42.566  28.946  34.023  1.00  0.00     0.049 A 
ATOM     57  H   UNL A   1      41.102  29.528  32.622  1.00  0.00     0.167 HD
ATOM     58  C   UNL A   1      43.137  27.652  31.987  1.00  0.00     0.074 A 
ATOM     59  C   UNL A   1      43.982  26.746  31.235  1.00  0.00     0.031 C 
ATOM     60  C   UNL A   1      43.342  27.983  33.285  1.00  0.00     0.034 A 
BRANCH  47  61
ATOM     61  C   UNL A   1      39.391  32.194  35.482  1.00  0.00     0.023 A 
ATOM     62  C   UNL A   1      38.510  31.686  36.458  1.00  0.00     0.012 A 
ATOM     63  C   UNL A   1      39.903  33.499  35.623  1.00  0.00     0.148 A 
ATOM     64  C   UNL A   1      38.114  32.474  37.537  1.00  0.00     0.002 A 
ATOM     65  C   UNL A   1      39.537  34.264  36.726  1.00  0.00     0.091 A 
ATOM     66  F   UNL A   1      40.719  33.975  34.674  1.00  0.00    -0.205 F 
ATOM     67  C   UNL A   1      38.635  33.758  37.677  1.00  0.00     0.022 A 
BRANCH  65  68
ATOM     68  S   UNL A   1      40.215  35.898  37.032  1.00  0.00     0.127 S 
ATOM     69  O   UNL A   1      39.686  36.656  35.899  1.00  0.00    -0.237 OA
ATOM     70  O   UNL A   1      39.624  36.244  38.325  1.00  0.00    -0.237 OA
ATOM     71  O   UNL A   1      41.661  35.729  37.056  1.00  0.00    -0.744 OA
ENDBRANCH  65  68
ENDBRANCH  47  61
BRANCH  48  72
ATOM     72  C   UNL A   1      42.003  26.774  27.498  1.00  0.00     0.023 A 
ATOM     73  C   UNL A   1      42.643  27.444  26.435  1.00  0.00     0.012 A 
ATOM     74  C   UNL A   1      41.809  25.382  27.412  1.00  0.00     0.148 A 
ATOM     75  C   UNL A   1      43.054  26.748  25.298  1.00  0.00     0.002 A 
ATOM     76  C   UNL A   1      42.265  24.687  26.297  1.00  0.00     0.091 A 
ATOM     77  F   UNL A   1      41.187  24.762  28.425  1.00  0.00    -0.205 F 
ATOM     78  C   UNL A   1      42.874  25.370  25.232  1.00  0.00     0.022 A 
BRANCH  76  79
ATOM     79  S   UNL A   1      42.189  22.894  26.185  1.00  0.00     0.127 S 
ATOM     80  O   UNL A   1      42.811  22.648  24.888  1.00  0.00    -0.237 OA
ATOM     81  O   UNL A   1      42.986  22.482  27.340  1.00  0.00    -0.237 OA
ATOM     82  O   UNL A   1      40.774  22.561  26.288  1.00  0.00    -0.744 OA
ENDBRANCH  76  79
ENDBRANCH  48  72
BRANCH  60  83
ATOM     83  C   UNL A   1      44.483  27.327  34.012  1.00  0.00     0.023 A 
ATOM     84  C   UNL A   1      45.757  27.925  33.995  1.00  0.00     0.012 A 
ATOM     85  C   UNL A   1      44.259  26.188  34.810  1.00  0.00     0.148 A 
ATOM     86  C   UNL A   1      46.797  27.390  34.755  1.00  0.00     0.002 A 
ATOM     87  C   UNL A   1      45.288  25.685  35.597  1.00  0.00     0.091 A 
ATOM     88  F   UNL A   1      43.042  25.625  34.795  1.00  0.00    -0.205 F 
ATOM     89  C   UNL A   1      46.560  26.282  35.565  1.00  0.00     0.022 A 
BRANCH  87  90
ATOM     90  S   UNL A   1      45.047  24.322  36.741  1.00  0.00     0.127 S 
ATOM     91  O   UNL A   1      46.396  24.139  37.274  1.00  0.00    -0.237 OA
ATOM     92  O   UNL A   1      44.085  24.880  37.694  1.00  0.00    -0.237 OA
ATOM     93  O   UNL A   1      44.532  23.216  35.945  1.00  0.00    -0.744 OA
ENDBRANCH  87  90
ENDBRANCH  60  83
ENDBRANCH  34  35
ENDBRANCH  26  29
ENDBRANCH  24  25
ENDBRANCH   1  24
TORSDOF 16
ENDMDL
MODEL 3
REMARK VINA RESULT:     -11.8      2.535      8.068
REMARK SMILES Cc1cc(N2CCC[C@H](C(=O)NCCCCNC(=O)c3ccc(-c4c5nc(c(-c6cccc(S(=O)(=O)[O-])c6F)c6ccc([nH]6)c(-c6cccc(S(=O)(=O)[O-])c6F)c6nc(c(-c7cccc(S(=O)(=O)[O-])c7F)c7ccc4[nH]7)C=C6)C=C5)cc3)C2)nc(C(C)C)n1
REMARK SMILES IDX 15 1 14 2 13 3 12 4 10 5 11 6 9 8 5 9 6 10 83 11 7 12 8 13
REMARK SMILES IDX 4 14 1 15 2 16 3 17 89 18 85 19 84 20 86 21 87 22 88 23
REMARK SMILES IDX 16 24 17 25 18 26 19 28 20 29 21 30 82 31 22 32 81 33 23 34
REMARK SMILES IDX 24 35 25 36 75 37 26 38 80 39 74 40 76 41 27 42 79 43 73 44
REMARK SMILES IDX 72 45 28 47 60 48 40 49 59 50 41 51 44 52 58 53 77 54 42 55
REMARK SMILES IDX 43 56 57 58 78 59 45 60 29 61 30 62 38 63 31 64 33 65 39 66
REMARK SMILES IDX 32 67 34 68 35 69 36 70 37 71 61 72 62 73 70 74 63 75 65 76
REMARK SMILES IDX 71 77 64 78 66 79 67 80 68 81 69 82 46 83 47 84 55 85 48 86
REMARK SMILES IDX 50 87 56 88 49 89 51 90 52 91 53 92 54 93
REMARK H PARENT 12 7 17 27 76 46 44 57
REMARK Flexibility Score: inf
ROOT
ATOM      1  C   UNL A   1      32.481  30.984  26.863  1.00  0.00     0.023 C 
ENDROOT
BRANCH   1   2
ATOM      2  C   UNL A   1      32.633  29.589  27.463  1.00  0.00     0.023 C 
BRANCH   2   3
ATOM      3  C   UNL A   1      32.134  28.459  26.567  1.00  0.00     0.116 C 
BRANCH   3   4
ATOM      4  N   UNL A   1      33.156  27.479  26.273  1.00  0.00    -0.356 N 
ATOM      5  C   UNL A   1      33.063  26.219  25.782  1.00  0.00     0.224 C 
ATOM      6  O   UNL A   1      34.124  25.670  25.455  1.00  0.00    -0.275 OA
ATOM      7  H   UNL A   1      34.075  27.778  26.461  1.00  0.00     0.163 HD
BRANCH   5   8
ATOM      8  C   UNL A   1      31.752  25.445  25.610  1.00  0.00     0.098 C 
ATOM      9  N   UNL A   1      32.013  23.220  24.596  1.00  0.00    -0.356 N 
ATOM     10  C   UNL A   1      31.016  23.404  23.564  1.00  0.00     0.118 C 
ATOM     11  C   UNL A   1      31.894  23.948  25.846  1.00  0.00     0.131 C 
ATOM     12  C   UNL A   1      30.902  24.889  23.210  1.00  0.00     0.022 C 
ATOM     13  C   UNL A   1      30.880  25.836  24.412  1.00  0.00     0.017 C 
BRANCH   9  14
ATOM     14  C   UNL A   1      32.808  22.095  24.623  1.00  0.00     0.132 A 
ATOM     15  C   UNL A   1      32.664  18.392  25.162  1.00  0.00     0.067 C 
ATOM     16  C   UNL A   1      33.151  19.788  24.931  1.00  0.00     0.043 A 
ATOM     17  C   UNL A   1      32.266  20.833  24.746  1.00  0.00     0.070 A 
ATOM     18  N   UNL A   1      34.484  19.972  24.976  1.00  0.00    -0.238 NA
ATOM     19  C   UNL A   1      34.930  21.233  24.840  1.00  0.00     0.133 A 
ATOM     20  N   UNL A   1      34.133  22.299  24.661  1.00  0.00    -0.216 NA
BRANCH  19  21
ATOM     21  C   UNL A   1      36.413  21.498  24.976  1.00  0.00     0.051 C 
ATOM     22  C   UNL A   1      37.210  20.206  24.801  1.00  0.00     0.016 C 
ATOM     23  C   UNL A   1      36.878  22.573  23.996  1.00  0.00     0.016 C 
ENDBRANCH  19  21
ENDBRANCH   9  14
ENDBRANCH   5   8
ENDBRANCH   3   4
ENDBRANCH   2   3
ENDBRANCH   1   2
BRANCH   1  24
ATOM     24  C   UNL A   1      33.398  32.052  27.454  1.00  0.00     0.116 C 
BRANCH  24  25
ATOM     25  N   UNL A   1      32.783  33.367  27.601  1.00  0.00    -0.352 N 
ATOM     26  C   UNL A   1      33.142  34.353  28.495  1.00  0.00     0.251 C 
ATOM     27  H   UNL A   1      32.033  33.573  26.998  1.00  0.00     0.163 HD
ATOM     28  O   UNL A   1      32.513  35.403  28.580  1.00  0.00    -0.269 OA
BRANCH  26  29
ATOM     29  C   UNL A   1      34.293  34.091  29.383  1.00  0.00     0.039 A 
ATOM     30  C   UNL A   1      34.087  33.442  30.602  1.00  0.00     0.014 A 
ATOM     31  C   UNL A   1      35.584  34.370  28.930  1.00  0.00     0.014 A 
ATOM     32  C   UNL A   1      35.191  32.989  31.330  1.00  0.00     0.010 A 
ATOM     33  C   UNL A   1      36.674  33.859  29.620  1.00  0.00     0.010 A 
ATOM     34  C   UNL A   1      36.488  33.155  30.821  1.00  0.00    -0.014 A 
BRANCH  34  35
ATOM     35  C   UNL A   1      37.683  32.593  31.498  1.00  0.00     0.031 A 
ATOM     36  C   UNL A   1      38.428  31.456  30.857  1.00  0.00     0.074 A 
ATOM     37  C   UNL A   1      38.004  33.002  32.743  1.00  0.00     0.049 A 
ATOM     38  N   UNL A   1      39.384  30.714  31.348  1.00  0.00    -0.248 NA
ATOM     39  C   UNL A   1      38.011  31.076  29.496  1.00  0.00     0.031 C 
ATOM     40  C   UNL A   1      37.304  34.038  33.503  1.00  0.00     0.029 A 
ATOM     41  N   UNL A   1      38.978  32.561  33.605  1.00  0.00    -0.354 N 
ATOM     42  C   UNL A   1      39.646  29.749  30.384  1.00  0.00     0.074 A 
ATOM     43  C   UNL A   1      38.731  29.983  29.289  1.00  0.00     0.031 C 
ATOM     44  C   UNL A   1      37.866  34.150  34.719  1.00  0.00     0.029 A 
ATOM     45  C   UNL A   1      38.946  33.176  34.836  1.00  0.00     0.049 A 
ATOM     46  H   UNL A   1      39.637  31.870  33.365  1.00  0.00     0.167 HD
ATOM     47  C   UNL A   1      40.583  28.773  30.396  1.00  0.00     0.034 A 
ATOM     48  C   UNL A   1      39.699  32.971  35.935  1.00  0.00     0.034 A 
ATOM     49  C   UNL A   1      41.537  28.591  31.454  1.00  0.00     0.049 A 
ATOM     50  C   UNL A   1      40.793  31.936  35.888  1.00  0.00     0.074 A 
ATOM     51  C   UNL A   1      42.587  27.694  31.521  1.00  0.00     0.029 A 
ATOM     52  N   UNL A   1      41.564  29.332  32.625  1.00  0.00    -0.354 N 
ATOM     53  N   UNL A   1      41.123  31.132  34.907  1.00  0.00    -0.248 NA
ATOM     54  C   UNL A   1      41.642  31.805  37.082  1.00  0.00     0.031 C 
ATOM     55  C   UNL A   1      43.252  27.893  32.735  1.00  0.00     0.029 A 
ATOM     56  C   UNL A   1      42.620  28.921  33.418  1.00  0.00     0.049 A 
ATOM     57  H   UNL A   1      40.928  30.045  32.858  1.00  0.00     0.167 HD
ATOM     58  C   UNL A   1      42.243  30.435  35.344  1.00  0.00     0.074 A 
ATOM     59  C   UNL A   1      42.541  30.916  36.679  1.00  0.00     0.031 C 
ATOM     60  C   UNL A   1      42.952  29.473  34.706  1.00  0.00     0.034 A 
BRANCH  47  61
ATOM     61  C   UNL A   1      40.669  27.873  29.193  1.00  0.00     0.023 A 
ATOM     62  C   UNL A   1      39.838  26.737  29.121  1.00  0.00     0.012 A 
ATOM     63  C   UNL A   1      41.527  28.172  28.118  1.00  0.00     0.148 A 
ATOM     64  C   UNL A   1      39.886  25.890  28.015  1.00  0.00     0.002 A 
ATOM     65  C   UNL A   1      41.538  27.346  26.999  1.00  0.00     0.091 A 
ATOM     66  F   UNL A   1      42.329  29.242  28.213  1.00  0.00    -0.205 F 
ATOM     67  C   UNL A   1      40.727  26.199  26.950  1.00  0.00     0.022 A 
BRANCH  65  68
ATOM     68  S   UNL A   1      42.532  27.705  25.546  1.00  0.00     0.127 S 
ATOM     69  O   UNL A   1      43.872  27.809  26.121  1.00  0.00    -0.237 OA
ATOM     70  O   UNL A   1      42.314  26.518  24.718  1.00  0.00    -0.237 OA
ATOM     71  O   UNL A   1      41.989  28.936  24.989  1.00  0.00    -0.744 OA
ENDBRANCH  65  68
ENDBRANCH  47  61
BRANCH  48  72
ATOM     72  C   UNL A   1      39.509  33.828  37.140  1.00  0.00     0.023 A 
ATOM     73  C   UNL A   1      39.985  35.154  37.117  1.00  0.00     0.012 A 
ATOM     74  C   UNL A   1      38.837  33.361  38.286  1.00  0.00     0.148 A 
ATOM     75  C   UNL A   1      39.823  35.989  38.222  1.00  0.00     0.002 A 
ATOM     76  C   UNL A   1      38.635  34.215  39.366  1.00  0.00     0.091 A 
ATOM     77  F   UNL A   1      38.402  32.093  38.296  1.00  0.00    -0.205 F 
ATOM     78  C   UNL A   1      39.141  35.524  39.342  1.00  0.00     0.022 A 
BRANCH  76  79
ATOM     79  S   UNL A   1      37.657  33.738  40.797  1.00  0.00     0.127 S 
ATOM     80  O   UNL A   1      36.487  33.130  40.171  1.00  0.00    -0.237 OA
ATOM     81  O   UNL A   1      38.550  32.800  41.478  1.00  0.00    -0.237 OA
ATOM     82  O   UNL A   1      37.418  34.974  41.530  1.00  0.00    -0.744 OA
ENDBRANCH  76  79
ENDBRANCH  48  72
BRANCH  60  83
ATOM     83  C   UNL A   1      44.162  28.906  35.398  1.00  0.00     0.023 A 
ATOM     84  C   UNL A   1      45.408  29.544  35.259  1.00  0.00     0.012 A 
ATOM     85  C   UNL A   1      44.031  27.817  36.282  1.00  0.00     0.148 A 
ATOM     86  C   UNL A   1      46.514  29.097  35.982  1.00  0.00     0.002 A 
ATOM     87  C   UNL A   1      45.127  27.403  37.030  1.00  0.00     0.091 A 
ATOM     88  F   UNL A   1      42.838  27.213  36.383  1.00  0.00    -0.205 F 
ATOM     89  C   UNL A   1      46.371  28.038  36.876  1.00  0.00     0.022 A 
BRANCH  87  90
ATOM     90  S   UNL A   1      45.010  26.113  38.274  1.00  0.00     0.127 S 
ATOM     91  O   UNL A   1      46.291  26.248  38.964  1.00  0.00    -0.237 OA
ATOM     92  O   UNL A   1      43.848  26.538  39.057  1.00  0.00    -0.237 OA
ATOM     93  O   UNL A   1      44.820  24.867  37.544  1.00  0.00    -0.744 OA
ENDBRANCH  87  90
ENDBRANCH  60  83
ENDBRANCH  34  35
ENDBRANCH  26  29
ENDBRANCH  24  25
ENDBRANCH   1  24
TORSDOF 16
ENDMDL
