MODEL 1
REMARK VINA RESULT:     -10.7      0.000      0.000
REMARK SMILES CC(C)CCn1cc(C(=O)NCCCCNC(=O)c2ccc(-c3c4nc(c(-c5cccc(S(=O)(=O)[O-])c5F)c5ccc([nH]5)c(-c5cccc(S(=O)(=O)[O-])c5F)c5nc(c(-c6cccc(S(=O)(=O)[O-])c6F)c6ccc3[nH]6)C=C5)C=C4)cc2)c(-c2ccoc2)n1
REMARK SMILES IDX 13 1 12 2 11 3 9 4 10 5 8 7 6 8 7 9 88 10 82 11 5 12 4 13
REMARK SMILES IDX 2 14 1 15 3 16 83 17 84 18 87 19 85 20 86 21 14 22 15 23
REMARK SMILES IDX 16 24 17 25 18 27 19 28 20 29 81 30 21 31 80 32 22 33 23 34
REMARK SMILES IDX 24 35 74 36 25 37 79 38 73 39 75 40 26 41 78 42 72 43 71 44
REMARK SMILES IDX 27 46 59 47 39 48 58 49 40 50 43 51 57 52 76 53 41 54 42 55
REMARK SMILES IDX 56 57 77 58 44 59 28 60 29 61 37 62 30 63 32 64 38 65 31 66
REMARK SMILES IDX 33 67 34 68 35 69 36 70 60 71 61 72 69 73 62 74 64 75 70 76
REMARK SMILES IDX 63 77 65 78 66 79 67 80 68 81 45 82 46 83 54 84 47 85 49 86
REMARK SMILES IDX 55 87 48 88 50 89 51 90 52 91 53 92
REMARK H PARENT 11 6 16 26 75 45 43 56
REMARK Flexibility Score: inf
ROOT
ATOM      1  C   UNL A   1      34.315  30.528  27.678  1.00  0.00     0.023 C 
ENDROOT
BRANCH   1   2
ATOM      2  C   UNL A   1      34.198  29.141  27.036  1.00  0.00     0.116 C 
BRANCH   2   3
ATOM      3  N   UNL A   1      32.982  28.483  27.457  1.00  0.00    -0.352 N 
ATOM      4  C   UNL A   1      32.208  27.499  26.895  1.00  0.00     0.255 C 
ATOM      5  O   UNL A   1      31.147  27.261  27.468  1.00  0.00    -0.269 OA
ATOM      6  H   UNL A   1      32.639  28.807  28.320  1.00  0.00     0.163 HD
BRANCH   4   7
ATOM      7  C   UNL A   1      32.625  26.769  25.704  1.00  0.00     0.085 A 
ATOM      8  N   UNL A   1      33.560  25.367  24.268  1.00  0.00    -0.271 N 
ATOM      9  C   UNL A   1      33.689  25.902  25.518  1.00  0.00     0.123 A 
ATOM     10  N   UNL A   1      32.553  25.900  23.571  1.00  0.00    -0.172 NA
ATOM     11  C   UNL A   1      32.024  26.803  24.408  1.00  0.00     0.108 A 
BRANCH   8  12
ATOM     12  C   UNL A   1      34.396  24.316  23.720  1.00  0.00     0.144 C 
BRANCH  12  13
ATOM     13  C   UNL A   1      33.728  22.971  23.419  1.00  0.00     0.027 C 
BRANCH  13  14
ATOM     14  C   UNL A   1      33.194  22.196  24.641  1.00  0.00    -0.016 C 
ATOM     15  C   UNL A   1      31.722  22.488  24.925  1.00  0.00     0.007 C 
ATOM     16  C   UNL A   1      33.407  20.696  24.431  1.00  0.00     0.007 C 
ENDBRANCH  13  14
ENDBRANCH  12  13
ENDBRANCH   8  12
BRANCH  11  17
ATOM     17  C   UNL A   1      30.978  27.710  23.948  1.00  0.00     0.041 A 
ATOM     18  C   UNL A   1      29.716  27.328  23.434  1.00  0.00     0.052 A 
ATOM     19  C   UNL A   1      31.032  29.082  23.852  1.00  0.00     0.205 A 
ATOM     20  C   UNL A   1      29.080  28.497  23.084  1.00  0.00     0.195 A 
ATOM     21  O   UNL A   1      29.882  29.569  23.314  1.00  0.00    -0.472 OA
ENDBRANCH  11  17
ENDBRANCH   4   7
ENDBRANCH   2   3
ENDBRANCH   1   2
BRANCH   1  22
ATOM     22  C   UNL A   1      33.579  31.647  26.923  1.00  0.00     0.023 C 
BRANCH  22  23
ATOM     23  C   UNL A   1      32.313  32.153  27.608  1.00  0.00     0.116 C 
BRANCH  23  24
ATOM     24  N   UNL A   1      32.236  33.613  27.636  1.00  0.00    -0.352 N 
ATOM     25  C   UNL A   1      32.997  34.494  28.384  1.00  0.00     0.251 C 
ATOM     26  H   UNL A   1      31.558  34.021  27.050  1.00  0.00     0.163 HD
ATOM     27  O   UNL A   1      32.605  35.624  28.621  1.00  0.00    -0.269 OA
BRANCH  25  28
ATOM     28  C   UNL A   1      34.311  34.037  28.868  1.00  0.00     0.039 A 
ATOM     29  C   UNL A   1      34.447  33.337  30.069  1.00  0.00     0.014 A 
ATOM     30  C   UNL A   1      35.412  34.292  28.054  1.00  0.00     0.014 A 
ATOM     31  C   UNL A   1      35.696  32.820  30.402  1.00  0.00     0.010 A 
ATOM     32  C   UNL A   1      36.601  33.660  28.308  1.00  0.00     0.010 A 
ATOM     33  C   UNL A   1      36.764  32.970  29.505  1.00  0.00    -0.014 A 
BRANCH  33  34
ATOM     34  C   UNL A   1      38.038  32.298  29.738  1.00  0.00     0.031 A 
ATOM     35  C   UNL A   1      38.096  30.895  29.240  1.00  0.00     0.074 A 
ATOM     36  C   UNL A   1      39.140  32.968  30.139  1.00  0.00     0.049 A 
ATOM     37  N   UNL A   1      38.226  29.814  29.937  1.00  0.00    -0.248 NA
ATOM     38  C   UNL A   1      37.837  30.651  27.811  1.00  0.00     0.031 C 
ATOM     39  C   UNL A   1      39.293  34.417  30.337  1.00  0.00     0.029 A 
ATOM     40  N   UNL A   1      40.413  32.515  30.294  1.00  0.00    -0.354 N 
ATOM     41  C   UNL A   1      38.318  28.779  29.009  1.00  0.00     0.074 A 
ATOM     42  C   UNL A   1      37.859  29.318  27.756  1.00  0.00     0.031 C 
ATOM     43  C   UNL A   1      40.603  34.740  30.309  1.00  0.00     0.029 A 
ATOM     44  C   UNL A   1      41.380  33.517  30.272  1.00  0.00     0.049 A 
ATOM     45  H   UNL A   1      40.631  31.561  30.413  1.00  0.00     0.167 HD
ATOM     46  C   UNL A   1      39.014  27.640  29.281  1.00  0.00     0.034 A 
ATOM     47  C   UNL A   1      42.722  33.351  30.170  1.00  0.00     0.034 A 
ATOM     48  C   UNL A   1      39.295  27.517  30.690  1.00  0.00     0.049 A 
ATOM     49  C   UNL A   1      43.017  31.956  30.571  1.00  0.00     0.074 A 
ATOM     50  C   UNL A   1      38.526  27.492  31.836  1.00  0.00     0.029 A 
ATOM     51  N   UNL A   1      40.570  27.824  31.100  1.00  0.00    -0.354 N 
ATOM     52  N   UNL A   1      42.831  31.505  31.780  1.00  0.00    -0.248 NA
ATOM     53  C   UNL A   1      43.083  30.950  29.526  1.00  0.00     0.031 C 
ATOM     54  C   UNL A   1      39.256  28.276  32.777  1.00  0.00     0.029 A 
ATOM     55  C   UNL A   1      40.461  28.655  32.183  1.00  0.00     0.049 A 
ATOM     56  H   UNL A   1      41.408  27.505  30.691  1.00  0.00     0.167 HD
ATOM     57  C   UNL A   1      42.287  30.241  31.591  1.00  0.00     0.074 A 
ATOM     58  C   UNL A   1      42.571  29.913  30.194  1.00  0.00     0.031 C 
ATOM     59  C   UNL A   1      41.403  29.711  32.487  1.00  0.00     0.034 A 
BRANCH  46  60
ATOM     60  C   UNL A   1      39.756  26.817  28.256  1.00  0.00     0.023 A 
ATOM     61  C   UNL A   1      39.540  25.421  28.252  1.00  0.00     0.012 A 
ATOM     62  C   UNL A   1      40.836  27.297  27.478  1.00  0.00     0.148 A 
ATOM     63  C   UNL A   1      40.374  24.550  27.539  1.00  0.00     0.002 A 
ATOM     64  C   UNL A   1      41.603  26.439  26.700  1.00  0.00     0.091 A 
ATOM     65  F   UNL A   1      41.226  28.570  27.592  1.00  0.00    -0.205 F 
ATOM     66  C   UNL A   1      41.397  25.060  26.751  1.00  0.00     0.022 A 
BRANCH  64  67
ATOM     67  S   UNL A   1      42.892  27.060  25.613  1.00  0.00     0.127 S 
ATOM     68  O   UNL A   1      42.150  28.010  24.791  1.00  0.00    -0.237 OA
ATOM     69  O   UNL A   1      43.824  27.660  26.569  1.00  0.00    -0.237 OA
ATOM     70  O   UNL A   1      43.417  25.886  24.927  1.00  0.00    -0.744 OA
ENDBRANCH  64  67
ENDBRANCH  46  60
BRANCH  47  71
ATOM     71  C   UNL A   1      43.734  34.210  29.514  1.00  0.00     0.023 A 
ATOM     72  C   UNL A   1      44.577  35.024  30.296  1.00  0.00     0.012 A 
ATOM     73  C   UNL A   1      44.063  34.027  28.152  1.00  0.00     0.148 A 
ATOM     74  C   UNL A   1      45.728  35.606  29.751  1.00  0.00     0.002 A 
ATOM     75  C   UNL A   1      45.204  34.615  27.613  1.00  0.00     0.091 A 
ATOM     76  F   UNL A   1      43.311  33.200  27.413  1.00  0.00    -0.205 F 
ATOM     77  C   UNL A   1      46.047  35.395  28.412  1.00  0.00     0.022 A 
BRANCH  75  78
ATOM     78  S   UNL A   1      45.688  34.363  25.899  1.00  0.00     0.127 S 
ATOM     79  O   UNL A   1      46.706  35.399  25.719  1.00  0.00    -0.237 OA
ATOM     80  O   UNL A   1      46.201  32.997  25.930  1.00  0.00    -0.237 OA
ATOM     81  O   UNL A   1      44.478  34.571  25.113  1.00  0.00    -0.744 OA
ENDBRANCH  75  78
ENDBRANCH  47  71
BRANCH  59  82
ATOM     82  C   UNL A   1      41.199  30.427  33.801  1.00  0.00     0.023 A 
ATOM     83  C   UNL A   1      42.095  30.297  34.887  1.00  0.00     0.012 A 
ATOM     84  C   UNL A   1      40.186  31.395  33.877  1.00  0.00     0.148 A 
ATOM     85  C   UNL A   1      41.966  31.098  36.026  1.00  0.00     0.002 A 
ATOM     86  C   UNL A   1      40.090  32.223  34.990  1.00  0.00     0.091 A 
ATOM     87  F   UNL A   1      39.344  31.513  32.839  1.00  0.00    -0.205 F 
ATOM     88  C   UNL A   1      40.972  32.073  36.071  1.00  0.00     0.022 A 
BRANCH  86  89
ATOM     89  S   UNL A   1      38.916  33.578  35.048  1.00  0.00     0.127 S 
ATOM     90  O   UNL A   1      37.636  32.873  35.029  1.00  0.00    -0.237 OA
ATOM     91  O   UNL A   1      39.241  34.222  36.322  1.00  0.00    -0.237 OA
ATOM     92  O   UNL A   1      39.198  34.402  33.878  1.00  0.00    -0.744 OA
ENDBRANCH  86  89
ENDBRANCH  59  82
ENDBRANCH  33  34
ENDBRANCH  25  28
ENDBRANCH  23  24
ENDBRANCH  22  23
ENDBRANCH   1  22
TORSDOF 18
ENDMDL
MODEL 2
REMARK VINA RESULT:     -10.6      3.536      7.561
REMARK SMILES CC(C)CCn1cc(C(=O)NCCCCNC(=O)c2ccc(-c3c4nc(c(-c5cccc(S(=O)(=O)[O-])c5F)c5ccc([nH]5)c(-c5cccc(S(=O)(=O)[O-])c5F)c5nc(c(-c6cccc(S(=O)(=O)[O-])c6F)c6ccc3[nH]6)C=C5)C=C4)cc2)c(-c2ccoc2)n1
REMARK SMILES IDX 13 1 12 2 11 3 9 4 10 5 8 7 6 8 7 9 88 10 82 11 5 12 4 13
REMARK SMILES IDX 2 14 1 15 3 16 83 17 84 18 87 19 85 20 86 21 14 22 15 23
REMARK SMILES IDX 16 24 17 25 18 27 19 28 20 29 81 30 21 31 80 32 22 33 23 34
REMARK SMILES IDX 24 35 74 36 25 37 79 38 73 39 75 40 26 41 78 42 72 43 71 44
REMARK SMILES IDX 27 46 59 47 39 48 58 49 40 50 43 51 57 52 76 53 41 54 42 55
REMARK SMILES IDX 56 57 77 58 44 59 28 60 29 61 37 62 30 63 32 64 38 65 31 66
REMARK SMILES IDX 33 67 34 68 35 69 36 70 60 71 61 72 69 73 62 74 64 75 70 76
REMARK SMILES IDX 63 77 65 78 66 79 67 80 68 81 45 82 46 83 54 84 47 85 49 86
REMARK SMILES IDX 55 87 48 88 50 89 51 90 52 91 53 92
REMARK H PARENT 11 6 16 26 75 45 43 56
REMARK Flexibility Score: inf
ROOT
ATOM      1  C   UNL A   1      32.182  30.963  26.914  1.00  0.00     0.023 C 
ENDROOT
BRANCH   1   2
ATOM      2  C   UNL A   1      31.594  30.011  25.867  1.00  0.00     0.116 C 
BRANCH   2   3
ATOM      3  N   UNL A   1      32.499  29.857  24.750  1.00  0.00    -0.352 N 
ATOM      4  C   UNL A   1      32.733  28.831  23.869  1.00  0.00     0.255 C 
ATOM      5  O   UNL A   1      33.684  28.987  23.108  1.00  0.00    -0.269 OA
ATOM      6  H   UNL A   1      33.063  30.648  24.589  1.00  0.00     0.163 HD
BRANCH   4   7
ATOM      7  C   UNL A   1      31.895  27.639  23.827  1.00  0.00     0.085 A 
ATOM      8  N   UNL A   1      31.043  25.610  24.066  1.00  0.00    -0.271 N 
ATOM      9  C   UNL A   1      32.209  26.320  24.110  1.00  0.00     0.123 A 
ATOM     10  N   UNL A   1      29.999  26.340  23.665  1.00  0.00    -0.172 NA
ATOM     11  C   UNL A   1      30.519  27.556  23.448  1.00  0.00     0.108 A 
BRANCH   8  12
ATOM     12  C   UNL A   1      30.903  24.211  24.425  1.00  0.00     0.144 C 
BRANCH  12  13
ATOM     13  C   UNL A   1      32.192  23.403  24.618  1.00  0.00     0.027 C 
BRANCH  13  14
ATOM     14  C   UNL A   1      32.916  22.975  23.326  1.00  0.00    -0.016 C 
ATOM     15  C   UNL A   1      34.392  22.656  23.557  1.00  0.00     0.007 C 
ATOM     16  C   UNL A   1      32.202  21.769  22.713  1.00  0.00     0.007 C 
ENDBRANCH  13  14
ENDBRANCH  12  13
ENDBRANCH   8  12
BRANCH  11  17
ATOM     17  C   UNL A   1      29.707  28.609  22.849  1.00  0.00     0.041 A 
ATOM     18  C   UNL A   1      28.299  28.719  22.931  1.00  0.00     0.052 A 
ATOM     19  C   UNL A   1      30.126  29.641  22.040  1.00  0.00     0.205 A 
ATOM     20  C   UNL A   1      27.960  29.825  22.187  1.00  0.00     0.195 A 
ATOM     21  O   UNL A   1      29.064  30.381  21.622  1.00  0.00    -0.472 OA
ENDBRANCH  11  17
ENDBRANCH   4   7
ENDBRANCH   2   3
ENDBRANCH   1   2
BRANCH   1  22
ATOM     22  C   UNL A   1      33.567  30.555  27.444  1.00  0.00     0.023 C 
BRANCH  22  23
ATOM     23  C   UNL A   1      34.509  31.720  27.730  1.00  0.00     0.116 C 
BRANCH  23  24
ATOM     24  N   UNL A   1      34.441  32.168  29.121  1.00  0.00    -0.352 N 
ATOM     25  C   UNL A   1      35.228  31.766  30.186  1.00  0.00     0.251 C 
ATOM     26  H   UNL A   1      33.750  32.839  29.325  1.00  0.00     0.163 HD
ATOM     27  O   UNL A   1      34.849  31.901  31.337  1.00  0.00    -0.269 OA
BRANCH  25  28
ATOM     28  C   UNL A   1      36.552  31.191  29.892  1.00  0.00     0.039 A 
ATOM     29  C   UNL A   1      37.681  31.997  29.729  1.00  0.00     0.014 A 
ATOM     30  C   UNL A   1      36.642  29.803  29.827  1.00  0.00     0.014 A 
ATOM     31  C   UNL A   1      38.922  31.384  29.584  1.00  0.00     0.010 A 
ATOM     32  C   UNL A   1      37.874  29.205  29.834  1.00  0.00     0.010 A 
ATOM     33  C   UNL A   1      39.012  29.985  29.657  1.00  0.00    -0.014 A 
BRANCH  33  34
ATOM     34  C   UNL A   1      40.309  29.318  29.682  1.00  0.00     0.031 A 
ATOM     35  C   UNL A   1      40.856  29.082  31.047  1.00  0.00     0.074 A 
ATOM     36  C   UNL A   1      40.842  28.744  28.581  1.00  0.00     0.049 A 
ATOM     37  N   UNL A   1      41.923  29.594  31.569  1.00  0.00    -0.248 NA
ATOM     38  C   UNL A   1      40.050  28.296  31.996  1.00  0.00     0.031 C 
ATOM     39  C   UNL A   1      40.235  28.615  27.247  1.00  0.00     0.029 A 
ATOM     40  N   UNL A   1      41.973  27.999  28.462  1.00  0.00    -0.354 N 
ATOM     41  C   UNL A   1      42.050  28.994  32.821  1.00  0.00     0.074 A 
ATOM     42  C   UNL A   1      40.778  28.387  33.110  1.00  0.00     0.031 C 
ATOM     43  C   UNL A   1      40.857  27.632  26.563  1.00  0.00     0.029 A 
ATOM     44  C   UNL A   1      42.004  27.189  27.329  1.00  0.00     0.049 A 
ATOM     45  H   UNL A   1      42.707  28.031  29.119  1.00  0.00     0.167 HD
ATOM     46  C   UNL A   1      43.270  28.814  33.402  1.00  0.00     0.034 A 
ATOM     47  C   UNL A   1      42.878  26.185  27.071  1.00  0.00     0.034 A 
ATOM     48  C   UNL A   1      44.284  29.610  32.757  1.00  0.00     0.049 A 
ATOM     49  C   UNL A   1      44.061  26.407  27.934  1.00  0.00     0.074 A 
ATOM     50  C   UNL A   1      44.445  30.957  32.500  1.00  0.00     0.029 A 
ATOM     51  N   UNL A   1      45.132  28.959  31.894  1.00  0.00    -0.354 N 
ATOM     52  N   UNL A   1      44.858  27.430  27.806  1.00  0.00    -0.248 NA
ATOM     53  C   UNL A   1      44.092  25.741  29.224  1.00  0.00     0.031 C 
ATOM     54  C   UNL A   1      44.977  31.010  31.178  1.00  0.00     0.029 A 
ATOM     55  C   UNL A   1      45.192  29.701  30.744  1.00  0.00     0.049 A 
ATOM     56  H   UNL A   1      45.609  28.115  32.070  1.00  0.00     0.167 HD
ATOM     57  C   UNL A   1      45.121  27.821  29.112  1.00  0.00     0.074 A 
ATOM     58  C   UNL A   1      44.717  26.682  29.937  1.00  0.00     0.031 C 
ATOM     59  C   UNL A   1      45.356  29.130  29.424  1.00  0.00     0.034 A 
BRANCH  46  60
ATOM     60  C   UNL A   1      43.631  27.663  34.309  1.00  0.00     0.023 A 
ATOM     61  C   UNL A   1      44.188  27.970  35.571  1.00  0.00     0.012 A 
ATOM     62  C   UNL A   1      43.697  26.312  33.895  1.00  0.00     0.148 A 
ATOM     63  C   UNL A   1      44.804  26.991  36.360  1.00  0.00     0.002 A 
ATOM     64  C   UNL A   1      44.226  25.329  34.721  1.00  0.00     0.091 A 
ATOM     65  F   UNL A   1      43.378  25.982  32.640  1.00  0.00    -0.205 F 
ATOM     66  C   UNL A   1      44.811  25.666  35.942  1.00  0.00     0.022 A 
BRANCH  64  67
ATOM     67  S   UNL A   1      44.194  23.594  34.253  1.00  0.00     0.127 S 
ATOM     68  O   UNL A   1      45.006  22.992  35.305  1.00  0.00    -0.237 OA
ATOM     69  O   UNL A   1      42.763  23.293  34.324  1.00  0.00    -0.237 OA
ATOM     70  O   UNL A   1      44.746  23.548  32.906  1.00  0.00    -0.744 OA
ENDBRANCH  64  67
ENDBRANCH  46  60
BRANCH  47  71
ATOM     71  C   UNL A   1      42.670  24.917  26.334  1.00  0.00     0.023 A 
ATOM     72  C   UNL A   1      43.616  24.498  25.377  1.00  0.00     0.012 A 
ATOM     73  C   UNL A   1      41.700  23.984  26.763  1.00  0.00     0.148 A 
ATOM     74  C   UNL A   1      43.618  23.184  24.891  1.00  0.00     0.002 A 
ATOM     75  C   UNL A   1      41.701  22.682  26.271  1.00  0.00     0.091 A 
ATOM     76  F   UNL A   1      40.838  24.345  27.724  1.00  0.00    -0.205 F 
ATOM     77  C   UNL A   1      42.667  22.274  25.343  1.00  0.00     0.022 A 
BRANCH  75  78
ATOM     78  S   UNL A   1      40.518  21.449  26.830  1.00  0.00     0.127 S 
ATOM     79  O   UNL A   1      40.945  20.262  26.086  1.00  0.00    -0.237 OA
ATOM     80  O   UNL A   1      40.787  21.404  28.264  1.00  0.00    -0.237 OA
ATOM     81  O   UNL A   1      39.207  21.956  26.444  1.00  0.00    -0.744 OA
ENDBRANCH  75  78
ENDBRANCH  47  71
BRANCH  59  82
ATOM     82  C   UNL A   1      45.548  30.113  28.293  1.00  0.00     0.023 A 
ATOM     83  C   UNL A   1      44.466  30.716  27.615  1.00  0.00     0.012 A 
ATOM     84  C   UNL A   1      46.848  30.577  28.035  1.00  0.00     0.148 A 
ATOM     85  C   UNL A   1      44.679  31.742  26.688  1.00  0.00     0.002 A 
ATOM     86  C   UNL A   1      47.052  31.630  27.149  1.00  0.00     0.091 A 
ATOM     87  F   UNL A   1      47.868  29.999  28.688  1.00  0.00    -0.205 F 
ATOM     88  C   UNL A   1      45.972  32.209  26.466  1.00  0.00     0.022 A 
BRANCH  86  89
ATOM     89  S   UNL A   1      48.676  32.357  26.923  1.00  0.00     0.127 S 
ATOM     90  O   UNL A   1      48.420  33.358  25.888  1.00  0.00    -0.237 OA
ATOM     91  O   UNL A   1      48.962  32.908  28.248  1.00  0.00    -0.237 OA
ATOM     92  O   UNL A   1      49.555  31.261  26.533  1.00  0.00    -0.744 OA
ENDBRANCH  86  89
ENDBRANCH  59  82
ENDBRANCH  33  34
ENDBRANCH  25  28
ENDBRANCH  23  24
ENDBRANCH  22  23
ENDBRANCH   1  22
TORSDOF 18
ENDMDL
MODEL 3
REMARK VINA RESULT:     -10.5      4.216      9.590
REMARK SMILES CC(C)CCn1cc(C(=O)NCCCCNC(=O)c2ccc(-c3c4nc(c(-c5cccc(S(=O)(=O)[O-])c5F)c5ccc([nH]5)c(-c5cccc(S(=O)(=O)[O-])c5F)c5nc(c(-c6cccc(S(=O)(=O)[O-])c6F)c6ccc3[nH]6)C=C5)C=C4)cc2)c(-c2ccoc2)n1
REMARK SMILES IDX 13 1 12 2 11 3 9 4 10 5 8 7 6 8 7 9 88 10 82 11 5 12 4 13
REMARK SMILES IDX 2 14 1 15 3 16 83 17 84 18 87 19 85 20 86 21 14 22 15 23
REMARK SMILES IDX 16 24 17 25 18 27 19 28 20 29 81 30 21 31 80 32 22 33 23 34
REMARK SMILES IDX 24 35 74 36 25 37 79 38 73 39 75 40 26 41 78 42 72 43 71 44
REMARK SMILES IDX 27 46 59 47 39 48 58 49 40 50 43 51 57 52 76 53 41 54 42 55
REMARK SMILES IDX 56 57 77 58 44 59 28 60 29 61 37 62 30 63 32 64 38 65 31 66
REMARK SMILES IDX 33 67 34 68 35 69 36 70 60 71 61 72 69 73 62 74 64 75 70 76
REMARK SMILES IDX 63 77 65 78 66 79 67 80 68 81 45 82 46 83 54 84 47 85 49 86
REMARK SMILES IDX 55 87 48 88 50 89 51 90 52 91 53 92
REMARK H PARENT 11 6 16 26 75 45 43 56
REMARK Flexibility Score: inf
ROOT
ATOM      1  C   UNL A   1      38.653  22.757  26.170  1.00  0.00     0.023 C 
ENDROOT
BRANCH   1   2
ATOM      2  C   UNL A   1      37.409  23.546  25.750  1.00  0.00     0.116 C 
BRANCH   2   3
ATOM      3  N   UNL A   1      37.134  23.357  24.343  1.00  0.00    -0.352 N 
ATOM      4  C   UNL A   1      35.979  23.386  23.602  1.00  0.00     0.255 C 
ATOM      5  O   UNL A   1      36.089  23.045  22.427  1.00  0.00    -0.269 OA
ATOM      6  H   UNL A   1      37.938  23.167  23.808  1.00  0.00     0.163 HD
BRANCH   4   7
ATOM      7  C   UNL A   1      34.705  23.812  24.169  1.00  0.00     0.085 A 
ATOM      8  N   UNL A   1      32.964  24.969  24.897  1.00  0.00    -0.271 N 
ATOM      9  C   UNL A   1      34.289  25.067  24.582  1.00  0.00     0.123 A 
ATOM     10  N   UNL A   1      32.500  23.719  24.831  1.00  0.00    -0.172 NA
ATOM     11  C   UNL A   1      33.567  22.998  24.459  1.00  0.00     0.108 A 
BRANCH   8  12
ATOM     12  C   UNL A   1      32.107  26.083  25.256  1.00  0.00     0.144 C 
BRANCH  12  13
ATOM     13  C   UNL A   1      32.165  27.330  24.366  1.00  0.00     0.027 C 
BRANCH  13  14
ATOM     14  C   UNL A   1      31.510  28.600  24.944  1.00  0.00    -0.016 C 
ATOM     15  C   UNL A   1      32.535  29.616  25.444  1.00  0.00     0.007 C 
ATOM     16  C   UNL A   1      30.603  29.235  23.888  1.00  0.00     0.007 C 
ENDBRANCH  13  14
ENDBRANCH  12  13
ENDBRANCH   8  12
BRANCH  11  17
ATOM     17  C   UNL A   1      33.495  21.541  24.422  1.00  0.00     0.041 A 
ATOM     18  C   UNL A   1      32.482  20.776  23.798  1.00  0.00     0.052 A 
ATOM     19  C   UNL A   1      34.336  20.638  25.033  1.00  0.00     0.205 A 
ATOM     20  C   UNL A   1      32.789  19.459  24.052  1.00  0.00     0.195 A 
ATOM     21  O   UNL A   1      33.905  19.366  24.823  1.00  0.00    -0.472 OA
ENDBRANCH  11  17
ENDBRANCH   4   7
ENDBRANCH   2   3
ENDBRANCH   1   2
BRANCH   1  22
ATOM     22  C   UNL A   1      38.450  21.235  26.247  1.00  0.00     0.023 C 
BRANCH  22  23
ATOM     23  C   UNL A   1      39.076  20.450  25.098  1.00  0.00     0.116 C 
BRANCH  23  24
ATOM     24  N   UNL A   1      39.894  19.330  25.563  1.00  0.00    -0.352 N 
ATOM     25  C   UNL A   1      41.181  19.367  26.071  1.00  0.00     0.251 C 
ATOM     26  H   UNL A   1      39.478  18.440  25.509  1.00  0.00     0.163 HD
ATOM     27  O   UNL A   1      41.891  18.375  26.063  1.00  0.00    -0.269 OA
BRANCH  25  28
ATOM     28  C   UNL A   1      41.664  20.633  26.646  1.00  0.00     0.039 A 
ATOM     29  C   UNL A   1      42.224  21.634  25.848  1.00  0.00     0.014 A 
ATOM     30  C   UNL A   1      41.499  20.813  28.017  1.00  0.00     0.014 A 
ATOM     31  C   UNL A   1      42.539  22.857  26.435  1.00  0.00     0.010 A 
ATOM     32  C   UNL A   1      41.670  22.059  28.560  1.00  0.00     0.010 A 
ATOM     33  C   UNL A   1      42.241  23.067  27.789  1.00  0.00    -0.014 A 
BRANCH  33  34
ATOM     34  C   UNL A   1      42.396  24.385  28.395  1.00  0.00     0.031 A 
ATOM     35  C   UNL A   1      41.249  25.308  28.168  1.00  0.00     0.074 A 
ATOM     36  C   UNL A   1      43.374  24.654  29.288  1.00  0.00     0.049 A 
ATOM     37  N   UNL A   1      41.247  26.415  27.501  1.00  0.00    -0.248 NA
ATOM     38  C   UNL A   1      39.912  24.883  28.616  1.00  0.00     0.031 C 
ATOM     39  C   UNL A   1      44.363  23.722  29.849  1.00  0.00     0.029 A 
ATOM     40  N   UNL A   1      43.587  25.782  30.015  1.00  0.00    -0.354 N 
ATOM     41  C   UNL A   1      39.967  26.946  27.661  1.00  0.00     0.074 A 
ATOM     42  C   UNL A   1      39.146  25.874  28.159  1.00  0.00     0.031 C 
ATOM     43  C   UNL A   1      44.866  24.234  30.993  1.00  0.00     0.029 A 
ATOM     44  C   UNL A   1      44.374  25.589  31.148  1.00  0.00     0.049 A 
ATOM     45  H   UNL A   1      43.218  26.660  29.762  1.00  0.00     0.167 HD
ATOM     46  C   UNL A   1      39.746  28.290  27.626  1.00  0.00     0.034 A 
ATOM     47  C   UNL A   1      44.559  26.461  32.170  1.00  0.00     0.034 A 
ATOM     48  C   UNL A   1      40.872  28.996  27.068  1.00  0.00     0.049 A 
ATOM     49  C   UNL A   1      44.193  27.804  31.664  1.00  0.00     0.074 A 
ATOM     50  C   UNL A   1      41.564  28.934  25.875  1.00  0.00     0.029 A 
ATOM     51  N   UNL A   1      41.704  29.640  27.952  1.00  0.00    -0.354 N 
ATOM     52  N   UNL A   1      44.857  28.421  30.726  1.00  0.00    -0.248 NA
ATOM     53  C   UNL A   1      42.830  28.260  31.875  1.00  0.00     0.031 C 
ATOM     54  C   UNL A   1      42.934  29.074  26.246  1.00  0.00     0.029 A 
ATOM     55  C   UNL A   1      42.990  29.301  27.622  1.00  0.00     0.049 A 
ATOM     56  H   UNL A   1      41.427  30.235  28.687  1.00  0.00     0.167 HD
ATOM     57  C   UNL A   1      43.872  28.988  29.930  1.00  0.00     0.074 A 
ATOM     58  C   UNL A   1      42.658  28.951  30.746  1.00  0.00     0.031 C 
ATOM     59  C   UNL A   1      44.058  29.157  28.587  1.00  0.00     0.034 A 
BRANCH  46  60
ATOM     60  C   UNL A   1      38.679  29.008  28.417  1.00  0.00     0.023 A 
ATOM     61  C   UNL A   1      37.857  29.927  27.727  1.00  0.00     0.012 A 
ATOM     62  C   UNL A   1      38.610  29.026  29.829  1.00  0.00     0.148 A 
ATOM     63  C   UNL A   1      37.036  30.835  28.408  1.00  0.00     0.002 A 
ATOM     64  C   UNL A   1      37.726  29.864  30.498  1.00  0.00     0.091 A 
ATOM     65  F   UNL A   1      39.498  28.336  30.550  1.00  0.00    -0.205 F 
ATOM     66  C   UNL A   1      36.960  30.794  29.794  1.00  0.00     0.022 A 
BRANCH  64  67
ATOM     67  S   UNL A   1      37.543  29.800  32.284  1.00  0.00     0.127 S 
ATOM     68  O   UNL A   1      37.381  28.367  32.510  1.00  0.00    -0.237 OA
ATOM     69  O   UNL A   1      38.818  30.360  32.735  1.00  0.00    -0.237 OA
ATOM     70  O   UNL A   1      36.387  30.635  32.584  1.00  0.00    -0.744 OA
ENDBRANCH  64  67
ENDBRANCH  46  60
BRANCH  47  71
ATOM     71  C   UNL A   1      44.776  26.196  33.611  1.00  0.00     0.023 A 
ATOM     72  C   UNL A   1      46.083  26.219  34.139  1.00  0.00     0.012 A 
ATOM     73  C   UNL A   1      43.692  26.199  34.517  1.00  0.00     0.148 A 
ATOM     74  C   UNL A   1      46.302  26.280  35.521  1.00  0.00     0.002 A 
ATOM     75  C   UNL A   1      43.916  26.251  35.890  1.00  0.00     0.091 A 
ATOM     76  F   UNL A   1      42.445  26.249  34.030  1.00  0.00    -0.205 F 
ATOM     77  C   UNL A   1      45.220  26.304  36.396  1.00  0.00     0.022 A 
BRANCH  75  78
ATOM     78  S   UNL A   1      42.565  26.311  37.075  1.00  0.00     0.127 S 
ATOM     79  O   UNL A   1      43.284  26.344  38.350  1.00  0.00    -0.237 OA
ATOM     80  O   UNL A   1      41.902  27.559  36.711  1.00  0.00    -0.237 OA
ATOM     81  O   UNL A   1      41.794  25.093  36.856  1.00  0.00    -0.744 OA
ENDBRANCH  75  78
ENDBRANCH  47  71
BRANCH  59  82
ATOM     82  C   UNL A   1      45.439  28.924  28.022  1.00  0.00     0.023 A 
ATOM     83  C   UNL A   1      46.473  29.882  28.117  1.00  0.00     0.012 A 
ATOM     84  C   UNL A   1      45.753  27.640  27.549  1.00  0.00     0.148 A 
ATOM     85  C   UNL A   1      47.781  29.571  27.731  1.00  0.00     0.002 A 
ATOM     86  C   UNL A   1      47.063  27.319  27.212  1.00  0.00     0.091 A 
ATOM     87  F   UNL A   1      44.764  26.737  27.467  1.00  0.00    -0.205 F 
ATOM     88  C   UNL A   1      48.079  28.283  27.292  1.00  0.00     0.022 A 
BRANCH  86  89
ATOM     89  S   UNL A   1      47.529  25.645  26.766  1.00  0.00     0.127 S 
ATOM     90  O   UNL A   1      48.806  25.489  27.459  1.00  0.00    -0.237 OA
ATOM     91  O   UNL A   1      46.430  24.853  27.322  1.00  0.00    -0.237 OA
ATOM     92  O   UNL A   1      47.598  25.623  25.309  1.00  0.00    -0.744 OA
ENDBRANCH  86  89
ENDBRANCH  59  82
ENDBRANCH  33  34
ENDBRANCH  25  28
ENDBRANCH  23  24
ENDBRANCH  22  23
ENDBRANCH   1  22
TORSDOF 18
ENDMDL
