MODEL 1
REMARK VINA RESULT:     -13.5      0.000      0.000
REMARK SMILES Cc1ccc(-c2cc([C@@H](C)C(=O)NCCCCNC(=O)c3ccc(-c4c5nc(c(-c6cccc(S(=O)(=O)[O-])c6F)c6ccc([nH]6)c(-c6cccc(S(=O)(=O)[O-])c6F)c6nc(c(-c7cccc(S(=O)(=O)[O-])c7F)c7ccc4[nH]7)C=C6)C=C5)cc3)ccc2C[C@H]2CCCC2=O)cc1
REMARK SMILES IDX 15 1 14 2 13 3 11 4 12 5 9 7 10 8 8 9 6 10 7 11 86 12 85 13
REMARK SMILES IDX 84 14 5 15 1 16 2 17 3 18 95 19 4 20 94 21 87 22 88 23 89 24
REMARK SMILES IDX 92 25 90 26 91 27 93 28 16 29 17 30 18 31 19 32 20 34 21 35
REMARK SMILES IDX 22 36 83 37 23 38 82 39 24 40 25 41 26 42 76 43 27 44 81 45
REMARK SMILES IDX 75 46 77 47 28 48 80 49 74 50 73 51 29 53 61 54 41 55 60 56
REMARK SMILES IDX 42 57 45 58 59 59 78 60 43 61 44 62 58 64 79 65 46 66 30 67
REMARK SMILES IDX 31 68 39 69 32 70 34 71 40 72 33 73 35 74 36 75 37 76 38 77
REMARK SMILES IDX 62 78 63 79 71 80 64 81 66 82 72 83 65 84 67 85 68 86 69 87
REMARK SMILES IDX 70 88 47 89 48 90 56 91 49 92 51 93 57 94 50 95 52 96 53 97
REMARK SMILES IDX 54 98 55 99
REMARK H PARENT 13 6 18 33 77 52 45 63
REMARK Flexibility Score: inf
ROOT
ATOM      1  C   UNL A   1      35.636  23.831  25.830  1.00  0.00     0.023 C 
ENDROOT
BRANCH   1   2
ATOM      2  C   UNL A   1      34.227  23.575  25.271  1.00  0.00     0.116 C 
BRANCH   2   3
ATOM      3  N   UNL A   1      33.227  23.540  26.325  1.00  0.00    -0.356 N 
ATOM      4  C   UNL A   1      31.887  23.774  26.318  1.00  0.00     0.227 C 
ATOM      5  O   UNL A   1      31.327  23.810  27.423  1.00  0.00    -0.274 OA
ATOM      6  H   UNL A   1      33.586  23.302  27.210  1.00  0.00     0.163 HD
BRANCH   4   7
ATOM      7  C   UNL A   1      31.056  23.970  25.040  1.00  0.00     0.105 C 
ATOM      8  C   UNL A   1      31.518  23.087  23.881  1.00  0.00     0.023 C 
BRANCH   7   9
ATOM      9  C   UNL A   1      30.769  25.427  24.710  1.00  0.00    -0.035 A 
ATOM     10  C   UNL A   1      31.459  27.788  24.859  1.00  0.00    -0.015 A 
ATOM     11  C   UNL A   1      31.630  26.429  25.194  1.00  0.00     0.013 A 
ATOM     12  C   UNL A   1      30.495  28.128  23.883  1.00  0.00    -0.039 A 
ATOM     13  C   UNL A   1      29.582  27.145  23.474  1.00  0.00     0.004 A 
ATOM     14  C   UNL A   1      29.683  25.830  23.933  1.00  0.00     0.005 A 
BRANCH  10  15
ATOM     15  C   UNL A   1      32.173  28.814  25.641  1.00  0.00    -0.018 A 
ATOM     16  C   UNL A   1      34.453  31.690  27.932  1.00  0.00     0.044 C 
ATOM     17  C   UNL A   1      33.657  30.714  27.119  1.00  0.00    -0.051 A 
ATOM     18  C   UNL A   1      34.267  29.544  26.669  1.00  0.00     0.004 A 
ATOM     19  C   UNL A   1      32.309  30.941  26.812  1.00  0.00     0.004 A 
ATOM     20  C   UNL A   1      33.537  28.618  25.926  1.00  0.00     0.009 A 
ATOM     21  C   UNL A   1      31.574  30.000  26.078  1.00  0.00     0.009 A 
ENDBRANCH  10  15
BRANCH  12  22
ATOM     22  C   UNL A   1      30.397  29.509  23.260  1.00  0.00     0.047 C 
BRANCH  22  23
ATOM     23  C   UNL A   1      29.036  30.214  23.334  1.00  0.00     0.060 C 
ATOM     24  C   UNL A   1      28.958  31.544  24.096  1.00  0.00     0.012 C 
ATOM     25  C   UNL A   1      28.499  30.589  21.976  1.00  0.00     0.136 C 
ATOM     26  C   UNL A   1      28.958  32.638  23.034  1.00  0.00     0.009 C 
ATOM     27  C   UNL A   1      28.171  32.051  21.872  1.00  0.00     0.076 C 
ATOM     28  O   UNL A   1      28.302  29.782  21.075  1.00  0.00    -0.299 OA
ENDBRANCH  22  23
ENDBRANCH  12  22
ENDBRANCH   7   9
ENDBRANCH   4   7
ENDBRANCH   2   3
ENDBRANCH   1   2
BRANCH   1  29
ATOM     29  C   UNL A   1      36.528  22.592  25.881  1.00  0.00     0.023 C 
BRANCH  29  30
ATOM     30  C   UNL A   1      37.871  22.798  25.210  1.00  0.00     0.116 C 
BRANCH  30  31
ATOM     31  N   UNL A   1      39.027  22.372  25.981  1.00  0.00    -0.352 N 
ATOM     32  C   UNL A   1      39.952  23.151  26.675  1.00  0.00     0.251 C 
ATOM     33  H   UNL A   1      39.178  21.400  26.016  1.00  0.00     0.163 HD
ATOM     34  O   UNL A   1      40.960  22.633  27.101  1.00  0.00    -0.269 OA
BRANCH  32  35
ATOM     35  C   UNL A   1      39.625  24.578  26.975  1.00  0.00     0.039 A 
ATOM     36  C   UNL A   1      40.422  25.579  26.401  1.00  0.00     0.014 A 
ATOM     37  C   UNL A   1      38.707  24.915  27.963  1.00  0.00     0.014 A 
ATOM     38  C   UNL A   1      40.481  26.842  26.995  1.00  0.00     0.010 A 
ATOM     39  C   UNL A   1      38.850  26.114  28.625  1.00  0.00     0.010 A 
ATOM     40  C   UNL A   1      39.781  27.057  28.177  1.00  0.00    -0.014 A 
BRANCH  40  41
ATOM     41  C   UNL A   1      40.006  28.163  29.099  1.00  0.00     0.031 A 
ATOM     42  C   UNL A   1      39.098  29.329  29.124  1.00  0.00     0.074 A 
ATOM     43  C   UNL A   1      40.893  27.986  30.105  1.00  0.00     0.049 A 
ATOM     44  N   UNL A   1      39.363  30.433  29.734  1.00  0.00    -0.248 NA
ATOM     45  C   UNL A   1      37.811  29.335  28.443  1.00  0.00     0.031 C 
ATOM     46  C   UNL A   1      40.933  28.703  31.375  1.00  0.00     0.029 A 
ATOM     47  N   UNL A   1      42.079  27.245  30.091  1.00  0.00    -0.354 N 
ATOM     48  C   UNL A   1      38.211  31.191  29.748  1.00  0.00     0.074 A 
ATOM     49  C   UNL A   1      37.291  30.483  28.888  1.00  0.00     0.031 C 
ATOM     50  C   UNL A   1      42.169  28.607  31.882  1.00  0.00     0.029 A 
ATOM     51  C   UNL A   1      42.996  27.964  30.878  1.00  0.00     0.049 A 
ATOM     52  H   UNL A   1      42.240  26.393  29.626  1.00  0.00     0.167 HD
ATOM     53  C   UNL A   1      38.125  32.262  30.588  1.00  0.00     0.034 A 
ATOM     54  C   UNL A   1      44.196  28.426  30.425  1.00  0.00     0.034 A 
ATOM     55  C   UNL A   1      39.372  32.447  31.340  1.00  0.00     0.049 A 
ATOM     56  C   UNL A   1      44.363  29.927  30.573  1.00  0.00     0.074 A 
ATOM     57  C   UNL A   1      39.778  32.070  32.611  1.00  0.00     0.029 A 
ATOM     58  N   UNL A   1      40.509  32.884  30.678  1.00  0.00    -0.354 N 
ATOM     59  N   UNL A   1      43.442  30.735  31.022  1.00  0.00    -0.248 NA
ATOM     60  C   UNL A   1      45.575  30.645  30.185  1.00  0.00     0.031 C 
ATOM     61  C   UNL A   1      41.187  32.227  32.686  1.00  0.00     0.029 A 
ATOM     62  C   UNL A   1      41.634  32.719  31.471  1.00  0.00     0.049 A 
ATOM     63  H   UNL A   1      40.517  33.258  29.768  1.00  0.00     0.167 HD
ATOM     64  C   UNL A   1      43.830  32.039  30.826  1.00  0.00     0.074 A 
ATOM     65  C   UNL A   1      45.216  31.922  30.403  1.00  0.00     0.031 C 
ATOM     66  C   UNL A   1      42.950  33.084  30.952  1.00  0.00     0.034 A 
BRANCH  53  67
ATOM     67  C   UNL A   1      36.837  32.981  30.958  1.00  0.00     0.023 A 
ATOM     68  C   UNL A   1      36.251  32.668  32.206  1.00  0.00     0.012 A 
ATOM     69  C   UNL A   1      36.125  33.901  30.157  1.00  0.00     0.148 A 
ATOM     70  C   UNL A   1      34.990  33.140  32.586  1.00  0.00     0.002 A 
ATOM     71  C   UNL A   1      34.830  34.305  30.495  1.00  0.00     0.091 A 
ATOM     72  F   UNL A   1      36.727  34.474  29.111  1.00  0.00    -0.205 F 
ATOM     73  C   UNL A   1      34.257  33.924  31.711  1.00  0.00     0.022 A 
BRANCH  71  74
ATOM     74  S   UNL A   1      33.788  35.231  29.354  1.00  0.00     0.127 S 
ATOM     75  O   UNL A   1      32.662  34.315  29.148  1.00  0.00    -0.237 OA
ATOM     76  O   UNL A   1      33.461  36.430  30.120  1.00  0.00    -0.237 OA
ATOM     77  O   UNL A   1      34.597  35.444  28.159  1.00  0.00    -0.744 OA
ENDBRANCH  71  74
ENDBRANCH  53  67
BRANCH  54  78
ATOM     78  C   UNL A   1      44.800  27.581  29.358  1.00  0.00     0.023 A 
ATOM     79  C   UNL A   1      45.260  26.301  29.746  1.00  0.00     0.012 A 
ATOM     80  C   UNL A   1      44.570  27.838  27.996  1.00  0.00     0.148 A 
ATOM     81  C   UNL A   1      45.372  25.266  28.817  1.00  0.00     0.002 A 
ATOM     82  C   UNL A   1      44.675  26.796  27.075  1.00  0.00     0.091 A 
ATOM     83  F   UNL A   1      44.163  29.062  27.636  1.00  0.00    -0.205 F 
ATOM     84  C   UNL A   1      45.047  25.506  27.487  1.00  0.00     0.022 A 
BRANCH  82  85
ATOM     85  S   UNL A   1      44.188  27.001  25.355  1.00  0.00     0.127 S 
ATOM     86  O   UNL A   1      43.279  28.139  25.443  1.00  0.00    -0.237 OA
ATOM     87  O   UNL A   1      45.468  27.278  24.702  1.00  0.00    -0.237 OA
ATOM     88  O   UNL A   1      43.594  25.726  24.982  1.00  0.00    -0.744 OA
ENDBRANCH  82  85
ENDBRANCH  54  78
BRANCH  66  89
ATOM     89  C   UNL A   1      43.200  34.537  30.558  1.00  0.00     0.023 A 
ATOM     90  C   UNL A   1      43.552  35.531  31.489  1.00  0.00     0.012 A 
ATOM     91  C   UNL A   1      43.228  34.925  29.189  1.00  0.00     0.148 A 
ATOM     92  C   UNL A   1      43.870  36.840  31.102  1.00  0.00     0.002 A 
ATOM     93  C   UNL A   1      43.655  36.195  28.802  1.00  0.00     0.091 A 
ATOM     94  F   UNL A   1      42.817  34.071  28.241  1.00  0.00    -0.205 F 
ATOM     95  C   UNL A   1      43.949  37.166  29.756  1.00  0.00     0.022 A 
BRANCH  93  96
ATOM     96  S   UNL A   1      43.995  36.559  27.072  1.00  0.00     0.127 S 
ATOM     97  O   UNL A   1      44.803  37.773  27.167  1.00  0.00    -0.237 OA
ATOM     98  O   UNL A   1      44.733  35.372  26.634  1.00  0.00    -0.237 OA
ATOM     99  O   UNL A   1      42.680  36.701  26.462  1.00  0.00    -0.744 OA
ENDBRANCH  93  96
ENDBRANCH  66  89
ENDBRANCH  40  41
ENDBRANCH  32  35
ENDBRANCH  30  31
ENDBRANCH  29  30
ENDBRANCH   1  29
TORSDOF 18
ENDMDL
MODEL 2
REMARK VINA RESULT:     -13.3      4.089      9.822
REMARK SMILES Cc1ccc(-c2cc([C@@H](C)C(=O)NCCCCNC(=O)c3ccc(-c4c5nc(c(-c6cccc(S(=O)(=O)[O-])c6F)c6ccc([nH]6)c(-c6cccc(S(=O)(=O)[O-])c6F)c6nc(c(-c7cccc(S(=O)(=O)[O-])c7F)c7ccc4[nH]7)C=C6)C=C5)cc3)ccc2C[C@H]2CCCC2=O)cc1
REMARK SMILES IDX 15 1 14 2 13 3 11 4 12 5 9 7 10 8 8 9 6 10 7 11 86 12 85 13
REMARK SMILES IDX 84 14 5 15 1 16 2 17 3 18 95 19 4 20 94 21 87 22 88 23 89 24
REMARK SMILES IDX 92 25 90 26 91 27 93 28 16 29 17 30 18 31 19 32 20 34 21 35
REMARK SMILES IDX 22 36 83 37 23 38 82 39 24 40 25 41 26 42 76 43 27 44 81 45
REMARK SMILES IDX 75 46 77 47 28 48 80 49 74 50 73 51 29 53 61 54 41 55 60 56
REMARK SMILES IDX 42 57 45 58 59 59 78 60 43 61 44 62 58 64 79 65 46 66 30 67
REMARK SMILES IDX 31 68 39 69 32 70 34 71 40 72 33 73 35 74 36 75 37 76 38 77
REMARK SMILES IDX 62 78 63 79 71 80 64 81 66 82 72 83 65 84 67 85 68 86 69 87
REMARK SMILES IDX 70 88 47 89 48 90 56 91 49 92 51 93 57 94 50 95 52 96 53 97
REMARK SMILES IDX 54 98 55 99
REMARK H PARENT 13 6 18 33 77 52 45 63
REMARK Flexibility Score: inf
ROOT
ATOM      1  C   UNL A   1      32.454  32.720  27.140  1.00  0.00     0.023 C 
ENDROOT
BRANCH   1   2
ATOM      2  C   UNL A   1      31.579  31.482  26.887  1.00  0.00     0.116 C 
BRANCH   2   3
ATOM      3  N   UNL A   1      31.943  30.807  25.652  1.00  0.00    -0.356 N 
ATOM      4  C   UNL A   1      32.683  29.693  25.406  1.00  0.00     0.227 C 
ATOM      5  O   UNL A   1      32.941  29.452  24.218  1.00  0.00    -0.274 OA
ATOM      6  H   UNL A   1      31.586  31.237  24.842  1.00  0.00     0.163 HD
BRANCH   4   7
ATOM      7  C   UNL A   1      33.184  28.736  26.499  1.00  0.00     0.105 C 
ATOM      8  C   UNL A   1      34.639  28.982  26.894  1.00  0.00     0.023 C 
BRANCH   7   9
ATOM      9  C   UNL A   1      32.776  27.286  26.282  1.00  0.00    -0.035 A 
ATOM     10  C   UNL A   1      33.448  24.924  26.077  1.00  0.00    -0.015 A 
ATOM     11  C   UNL A   1      33.768  26.292  26.203  1.00  0.00     0.013 A 
ATOM     12  C   UNL A   1      32.096  24.532  26.199  1.00  0.00    -0.039 A 
ATOM     13  C   UNL A   1      31.107  25.526  26.185  1.00  0.00     0.004 A 
ATOM     14  C   UNL A   1      31.446  26.881  26.162  1.00  0.00     0.005 A 
BRANCH  10  15
ATOM     15  C   UNL A   1      34.503  23.976  25.675  1.00  0.00    -0.018 A 
ATOM     16  C   UNL A   1      37.566  21.084  24.690  1.00  0.00     0.044 C 
ATOM     17  C   UNL A   1      36.492  22.080  25.006  1.00  0.00    -0.051 A 
ATOM     18  C   UNL A   1      35.764  21.947  26.189  1.00  0.00     0.004 A 
ATOM     19  C   UNL A   1      36.209  23.153  24.150  1.00  0.00     0.004 A 
ATOM     20  C   UNL A   1      34.774  22.873  26.507  1.00  0.00     0.009 A 
ATOM     21  C   UNL A   1      35.222  24.091  24.481  1.00  0.00     0.009 A 
ENDBRANCH  10  15
BRANCH  12  22
ATOM     22  C   UNL A   1      31.662  23.084  26.337  1.00  0.00     0.047 C 
BRANCH  22  23
ATOM     23  C   UNL A   1      31.195  22.369  25.062  1.00  0.00     0.060 C 
ATOM     24  C   UNL A   1      31.193  23.167  23.752  1.00  0.00     0.012 C 
ATOM     25  C   UNL A   1      32.054  21.179  24.713  1.00  0.00     0.136 C 
ATOM     26  C   UNL A   1      32.442  22.736  22.993  1.00  0.00     0.009 C 
ATOM     27  C   UNL A   1      32.601  21.258  23.316  1.00  0.00     0.076 C 
ATOM     28  O   UNL A   1      32.241  20.231  25.465  1.00  0.00    -0.299 OA
ENDBRANCH  22  23
ENDBRANCH  12  22
ENDBRANCH   7   9
ENDBRANCH   4   7
ENDBRANCH   2   3
ENDBRANCH   1   2
BRANCH   1  29
ATOM     29  C   UNL A   1      33.691  32.453  27.995  1.00  0.00     0.023 C 
BRANCH  29  30
ATOM     30  C   UNL A   1      34.349  33.721  28.501  1.00  0.00     0.116 C 
BRANCH  30  31
ATOM     31  N   UNL A   1      33.521  34.559  29.351  1.00  0.00    -0.352 N 
ATOM     32  C   UNL A   1      33.499  34.644  30.744  1.00  0.00     0.251 C 
ATOM     33  H   UNL A   1      32.887  35.146  28.880  1.00  0.00     0.163 HD
ATOM     34  O   UNL A   1      32.607  35.258  31.284  1.00  0.00    -0.269 OA
BRANCH  32  35
ATOM     35  C   UNL A   1      34.636  34.073  31.527  1.00  0.00     0.039 A 
ATOM     36  C   UNL A   1      35.775  34.866  31.724  1.00  0.00     0.014 A 
ATOM     37  C   UNL A   1      34.671  32.725  31.867  1.00  0.00     0.014 A 
ATOM     38  C   UNL A   1      37.002  34.258  32.005  1.00  0.00     0.010 A 
ATOM     39  C   UNL A   1      35.893  32.109  32.023  1.00  0.00     0.010 A 
ATOM     40  C   UNL A   1      37.067  32.869  32.031  1.00  0.00    -0.014 A 
BRANCH  40  41
ATOM     41  C   UNL A   1      38.291  32.083  31.955  1.00  0.00     0.031 A 
ATOM     42  C   UNL A   1      38.345  30.832  31.170  1.00  0.00     0.074 A 
ATOM     43  C   UNL A   1      39.441  32.648  32.389  1.00  0.00     0.049 A 
ATOM     44  N   UNL A   1      39.304  29.975  31.248  1.00  0.00    -0.248 NA
ATOM     45  C   UNL A   1      37.297  30.448  30.234  1.00  0.00     0.031 C 
ATOM     46  C   UNL A   1      40.798  32.292  31.990  1.00  0.00     0.029 A 
ATOM     47  N   UNL A   1      39.619  33.540  33.452  1.00  0.00    -0.354 N 
ATOM     48  C   UNL A   1      39.144  29.071  30.218  1.00  0.00     0.074 A 
ATOM     49  C   UNL A   1      37.853  29.383  29.649  1.00  0.00     0.031 C 
ATOM     50  C   UNL A   1      41.647  32.708  32.939  1.00  0.00     0.029 A 
ATOM     51  C   UNL A   1      40.847  33.199  34.045  1.00  0.00     0.049 A 
ATOM     52  H   UNL A   1      39.008  34.261  33.727  1.00  0.00     0.167 HD
ATOM     53  C   UNL A   1      40.179  28.249  29.883  1.00  0.00     0.034 A 
ATOM     54  C   UNL A   1      40.991  32.835  35.351  1.00  0.00     0.034 A 
ATOM     55  C   UNL A   1      41.332  28.461  30.765  1.00  0.00     0.049 A 
ATOM     56  C   UNL A   1      41.622  31.467  35.533  1.00  0.00     0.074 A 
ATOM     57  C   UNL A   1      42.495  29.207  30.644  1.00  0.00     0.029 A 
ATOM     58  N   UNL A   1      41.261  28.058  32.090  1.00  0.00    -0.354 N 
ATOM     59  N   UNL A   1      41.943  30.663  34.557  1.00  0.00    -0.248 NA
ATOM     60  C   UNL A   1      41.902  30.877  36.839  1.00  0.00     0.031 C 
ATOM     61  C   UNL A   1      43.092  29.301  31.929  1.00  0.00     0.029 A 
ATOM     62  C   UNL A   1      42.306  28.595  32.825  1.00  0.00     0.049 A 
ATOM     63  H   UNL A   1      40.562  27.472  32.459  1.00  0.00     0.167 HD
ATOM     64  C   UNL A   1      42.285  29.431  35.062  1.00  0.00     0.074 A 
ATOM     65  C   UNL A   1      42.349  29.656  36.496  1.00  0.00     0.031 C 
ATOM     66  C   UNL A   1      42.402  28.326  34.257  1.00  0.00     0.034 A 
BRANCH  53  67
ATOM     67  C   UNL A   1      40.277  27.451  28.592  1.00  0.00     0.023 A 
ATOM     68  C   UNL A   1      39.401  26.352  28.436  1.00  0.00     0.012 A 
ATOM     69  C   UNL A   1      41.195  27.660  27.539  1.00  0.00     0.148 A 
ATOM     70  C   UNL A   1      39.505  25.450  27.371  1.00  0.00     0.002 A 
ATOM     71  C   UNL A   1      41.357  26.716  26.521  1.00  0.00     0.091 A 
ATOM     72  F   UNL A   1      41.853  28.819  27.453  1.00  0.00    -0.205 F 
ATOM     73  C   UNL A   1      40.513  25.606  26.435  1.00  0.00     0.022 A 
BRANCH  71  74
ATOM     74  S   UNL A   1      42.716  26.803  25.341  1.00  0.00     0.127 S 
ATOM     75  O   UNL A   1      43.885  26.905  26.219  1.00  0.00    -0.237 OA
ATOM     76  O   UNL A   1      42.602  25.534  24.627  1.00  0.00    -0.237 OA
ATOM     77  O   UNL A   1      42.474  28.001  24.544  1.00  0.00    -0.744 OA
ENDBRANCH  71  74
ENDBRANCH  53  67
BRANCH  54  78
ATOM     78  C   UNL A   1      39.999  33.468  36.263  1.00  0.00     0.023 A 
ATOM     79  C   UNL A   1      38.904  32.667  36.664  1.00  0.00     0.012 A 
ATOM     80  C   UNL A   1      40.312  34.617  37.009  1.00  0.00     0.148 A 
ATOM     81  C   UNL A   1      38.213  32.935  37.847  1.00  0.00     0.002 A 
ATOM     82  C   UNL A   1      39.623  34.872  38.195  1.00  0.00     0.091 A 
ATOM     83  F   UNL A   1      41.332  35.384  36.605  1.00  0.00    -0.205 F 
ATOM     84  C   UNL A   1      38.596  34.018  38.629  1.00  0.00     0.022 A 
BRANCH  82  85
ATOM     85  S   UNL A   1      40.113  36.200  39.306  1.00  0.00     0.127 S 
ATOM     86  O   UNL A   1      39.817  37.379  38.501  1.00  0.00    -0.237 OA
ATOM     87  O   UNL A   1      39.224  35.990  40.450  1.00  0.00    -0.237 OA
ATOM     88  O   UNL A   1      41.518  35.946  39.591  1.00  0.00    -0.744 OA
ENDBRANCH  82  85
ENDBRANCH  54  78
BRANCH  66  89
ATOM     89  C   UNL A   1      42.564  26.880  34.716  1.00  0.00     0.023 A 
ATOM     90  C   UNL A   1      41.597  26.209  35.487  1.00  0.00     0.012 A 
ATOM     91  C   UNL A   1      43.654  26.088  34.256  1.00  0.00     0.148 A 
ATOM     92  C   UNL A   1      41.715  24.853  35.822  1.00  0.00     0.002 A 
ATOM     93  C   UNL A   1      43.708  24.715  34.496  1.00  0.00     0.091 A 
ATOM     94  F   UNL A   1      44.669  26.662  33.595  1.00  0.00    -0.205 F 
ATOM     95  C   UNL A   1      42.756  24.098  35.303  1.00  0.00     0.022 A 
BRANCH  93  96
ATOM     96  S   UNL A   1      44.907  23.682  33.638  1.00  0.00     0.127 S 
ATOM     97  O   UNL A   1      46.171  24.135  34.213  1.00  0.00    -0.237 OA
ATOM     98  O   UNL A   1      44.508  22.330  34.038  1.00  0.00    -0.237 OA
ATOM     99  O   UNL A   1      44.695  23.970  32.226  1.00  0.00    -0.744 OA
ENDBRANCH  93  96
ENDBRANCH  66  89
ENDBRANCH  40  41
ENDBRANCH  32  35
ENDBRANCH  30  31
ENDBRANCH  29  30
ENDBRANCH   1  29
TORSDOF 18
ENDMDL
MODEL 3
REMARK VINA RESULT:     -13.3      1.782      2.352
REMARK SMILES Cc1ccc(-c2cc([C@@H](C)C(=O)NCCCCNC(=O)c3ccc(-c4c5nc(c(-c6cccc(S(=O)(=O)[O-])c6F)c6ccc([nH]6)c(-c6cccc(S(=O)(=O)[O-])c6F)c6nc(c(-c7cccc(S(=O)(=O)[O-])c7F)c7ccc4[nH]7)C=C6)C=C5)cc3)ccc2C[C@H]2CCCC2=O)cc1
REMARK SMILES IDX 15 1 14 2 13 3 11 4 12 5 9 7 10 8 8 9 6 10 7 11 86 12 85 13
REMARK SMILES IDX 84 14 5 15 1 16 2 17 3 18 95 19 4 20 94 21 87 22 88 23 89 24
REMARK SMILES IDX 92 25 90 26 91 27 93 28 16 29 17 30 18 31 19 32 20 34 21 35
REMARK SMILES IDX 22 36 83 37 23 38 82 39 24 40 25 41 26 42 76 43 27 44 81 45
REMARK SMILES IDX 75 46 77 47 28 48 80 49 74 50 73 51 29 53 61 54 41 55 60 56
REMARK SMILES IDX 42 57 45 58 59 59 78 60 43 61 44 62 58 64 79 65 46 66 30 67
REMARK SMILES IDX 31 68 39 69 32 70 34 71 40 72 33 73 35 74 36 75 37 76 38 77
REMARK SMILES IDX 62 78 63 79 71 80 64 81 66 82 72 83 65 84 67 85 68 86 69 87
REMARK SMILES IDX 70 88 47 89 48 90 56 91 49 92 51 93 57 94 50 95 52 96 53 97
REMARK SMILES IDX 54 98 55 99
REMARK H PARENT 13 6 18 33 77 52 45 63
REMARK Flexibility Score: inf
ROOT
ATOM      1  C   UNL A   1      36.589  22.609  25.750  1.00  0.00     0.023 C 
ENDROOT
BRANCH   1   2
ATOM      2  C   UNL A   1      35.301  21.769  25.757  1.00  0.00     0.116 C 
BRANCH   2   3
ATOM      3  N   UNL A   1      34.544  21.953  26.984  1.00  0.00    -0.356 N 
ATOM      4  C   UNL A   1      33.215  22.125  27.218  1.00  0.00     0.227 C 
ATOM      5  O   UNL A   1      32.890  22.407  28.379  1.00  0.00    -0.274 OA
ATOM      6  H   UNL A   1      35.096  21.953  27.798  1.00  0.00     0.163 HD
BRANCH   4   7
ATOM      7  C   UNL A   1      32.127  21.969  26.143  1.00  0.00     0.105 C 
ATOM      8  C   UNL A   1      32.349  20.761  25.234  1.00  0.00     0.023 C 
BRANCH   7   9
ATOM      9  C   UNL A   1      31.748  23.274  25.458  1.00  0.00    -0.035 A 
ATOM     10  C   UNL A   1      32.133  25.693  25.190  1.00  0.00    -0.015 A 
ATOM     11  C   UNL A   1      32.388  24.467  25.839  1.00  0.00     0.013 A 
ATOM     12  C   UNL A   1      31.337  25.686  24.022  1.00  0.00    -0.039 A 
ATOM     13  C   UNL A   1      30.631  24.519  23.700  1.00  0.00     0.004 A 
ATOM     14  C   UNL A   1      30.789  23.350  24.448  1.00  0.00     0.005 A 
BRANCH  10  15
ATOM     15  C   UNL A   1      32.572  26.947  25.829  1.00  0.00    -0.018 A 
ATOM     16  C   UNL A   1      33.657  30.637  27.809  1.00  0.00     0.044 C 
ATOM     17  C   UNL A   1      33.305  29.347  27.133  1.00  0.00    -0.051 A 
ATOM     18  C   UNL A   1      32.078  28.744  27.410  1.00  0.00     0.004 A 
ATOM     19  C   UNL A   1      34.172  28.736  26.218  1.00  0.00     0.004 A 
ATOM     20  C   UNL A   1      31.727  27.553  26.778  1.00  0.00     0.009 A 
ATOM     21  C   UNL A   1      33.810  27.546  25.573  1.00  0.00     0.009 A 
ENDBRANCH  10  15
BRANCH  12  22
ATOM     22  C   UNL A   1      31.206  26.887  23.102  1.00  0.00     0.047 C 
BRANCH  22  23
ATOM     23  C   UNL A   1      30.372  28.070  23.611  1.00  0.00     0.060 C 
ATOM     24  C   UNL A   1      30.743  29.474  23.118  1.00  0.00     0.012 C 
ATOM     25  C   UNL A   1      28.917  27.967  23.225  1.00  0.00     0.136 C 
ATOM     26  C   UNL A   1      29.736  29.819  22.028  1.00  0.00     0.009 C 
ATOM     27  C   UNL A   1      28.433  29.183  22.489  1.00  0.00     0.076 C 
ATOM     28  O   UNL A   1      28.199  27.021  23.522  1.00  0.00    -0.299 OA
ENDBRANCH  22  23
ENDBRANCH  12  22
ENDBRANCH   7   9
ENDBRANCH   4   7
ENDBRANCH   2   3
ENDBRANCH   1   2
BRANCH   1  29
ATOM     29  C   UNL A   1      37.876  21.787  25.779  1.00  0.00     0.023 C 
BRANCH  29  30
ATOM     30  C   UNL A   1      39.127  22.636  25.659  1.00  0.00     0.116 C 
BRANCH  30  31
ATOM     31  N   UNL A   1      40.117  22.440  26.704  1.00  0.00    -0.352 N 
ATOM     32  C   UNL A   1      40.750  23.394  27.502  1.00  0.00     0.251 C 
ATOM     33  H   UNL A   1      40.378  21.506  26.871  1.00  0.00     0.163 HD
ATOM     34  O   UNL A   1      41.689  23.061  28.188  1.00  0.00    -0.269 OA
BRANCH  32  35
ATOM     35  C   UNL A   1      40.184  24.775  27.575  1.00  0.00     0.039 A 
ATOM     36  C   UNL A   1      40.719  25.760  26.733  1.00  0.00     0.014 A 
ATOM     37  C   UNL A   1      39.310  25.142  28.593  1.00  0.00     0.014 A 
ATOM     38  C   UNL A   1      40.587  27.109  27.075  1.00  0.00     0.010 A 
ATOM     39  C   UNL A   1      39.279  26.457  29.002  1.00  0.00     0.010 A 
ATOM     40  C   UNL A   1      39.968  27.435  28.277  1.00  0.00    -0.014 A 
BRANCH  40  41
ATOM     41  C   UNL A   1      40.058  28.726  28.947  1.00  0.00     0.031 A 
ATOM     42  C   UNL A   1      39.032  29.767  28.733  1.00  0.00     0.074 A 
ATOM     43  C   UNL A   1      40.942  28.858  29.962  1.00  0.00     0.049 A 
ATOM     44  N   UNL A   1      39.167  30.996  29.098  1.00  0.00    -0.248 NA
ATOM     45  C   UNL A   1      37.763  29.493  28.073  1.00  0.00     0.031 C 
ATOM     46  C   UNL A   1      40.884  29.824  31.054  1.00  0.00     0.029 A 
ATOM     47  N   UNL A   1      42.201  28.263  30.097  1.00  0.00    -0.354 N 
ATOM     48  C   UNL A   1      37.941  31.612  28.960  1.00  0.00     0.074 A 
ATOM     49  C   UNL A   1      37.116  30.645  28.272  1.00  0.00     0.031 C 
ATOM     50  C   UNL A   1      42.115  29.969  31.563  1.00  0.00     0.029 A 
ATOM     51  C   UNL A   1      43.022  29.224  30.711  1.00  0.00     0.049 A 
ATOM     52  H   UNL A   1      42.458  27.355  29.818  1.00  0.00     0.167 HD
ATOM     53  C   UNL A   1      37.728  32.818  29.559  1.00  0.00     0.034 A 
ATOM     54  C   UNL A   1      44.174  29.708  30.165  1.00  0.00     0.034 A 
ATOM     55  C   UNL A   1      38.935  33.289  30.249  1.00  0.00     0.049 A 
ATOM     56  C   UNL A   1      44.178  31.216  29.996  1.00  0.00     0.074 A 
ATOM     57  C   UNL A   1      39.357  33.230  31.568  1.00  0.00     0.029 A 
ATOM     58  N   UNL A   1      40.030  33.698  29.504  1.00  0.00    -0.354 N 
ATOM     59  N   UNL A   1      43.169  31.996  30.271  1.00  0.00    -0.248 NA
ATOM     60  C   UNL A   1      45.313  31.963  29.459  1.00  0.00     0.031 C 
ATOM     61  C   UNL A   1      40.740  33.550  31.601  1.00  0.00     0.029 A 
ATOM     62  C   UNL A   1      41.153  33.824  30.307  1.00  0.00     0.049 A 
ATOM     63  H   UNL A   1      40.013  33.874  28.535  1.00  0.00     0.167 HD
ATOM     64  C   UNL A   1      43.419  33.265  29.805  1.00  0.00     0.074 A 
ATOM     65  C   UNL A   1      44.816  33.212  29.408  1.00  0.00     0.031 C 
ATOM     66  C   UNL A   1      42.431  34.212  29.716  1.00  0.00     0.034 A 
BRANCH  53  67
ATOM     67  C   UNL A   1      36.365  33.456  29.778  1.00  0.00     0.023 A 
ATOM     68  C   UNL A   1      35.705  33.989  28.646  1.00  0.00     0.012 A 
ATOM     69  C   UNL A   1      35.699  33.621  31.012  1.00  0.00     0.148 A 
ATOM     70  C   UNL A   1      34.527  34.739  28.743  1.00  0.00     0.002 A 
ATOM     71  C   UNL A   1      34.571  34.440  31.124  1.00  0.00     0.091 A 
ATOM     72  F   UNL A   1      36.087  32.911  32.075  1.00  0.00    -0.205 F 
ATOM     73  C   UNL A   1      33.982  35.003  29.989  1.00  0.00     0.022 A 
BRANCH  71  74
ATOM     74  S   UNL A   1      33.883  34.910  32.721  1.00  0.00     0.127 S 
ATOM     75  O   UNL A   1      33.366  33.634  33.224  1.00  0.00    -0.237 OA
ATOM     76  O   UNL A   1      35.051  35.416  33.436  1.00  0.00    -0.237 OA
ATOM     77  O   UNL A   1      32.842  35.892  32.432  1.00  0.00    -0.744 OA
ENDBRANCH  71  74
ENDBRANCH  53  67
BRANCH  54  78
ATOM     78  C   UNL A   1      44.883  28.730  29.294  1.00  0.00     0.023 A 
ATOM     79  C   UNL A   1      45.426  27.590  29.931  1.00  0.00     0.012 A 
ATOM     80  C   UNL A   1      44.684  28.703  27.903  1.00  0.00     0.148 A 
ATOM     81  C   UNL A   1      45.654  26.410  29.222  1.00  0.00     0.002 A 
ATOM     82  C   UNL A   1      44.906  27.517  27.203  1.00  0.00     0.091 A 
ATOM     83  F   UNL A   1      44.196  29.797  27.305  1.00  0.00    -0.205 F 
ATOM     84  C   UNL A   1      45.361  26.365  27.864  1.00  0.00     0.022 A 
BRANCH  82  85
ATOM     85  S   UNL A   1      44.469  27.350  25.465  1.00  0.00     0.127 S 
ATOM     86  O   UNL A   1      44.315  25.905  25.340  1.00  0.00    -0.237 OA
ATOM     87  O   UNL A   1      43.226  28.116  25.384  1.00  0.00    -0.237 OA
ATOM     88  O   UNL A   1      45.583  27.947  24.743  1.00  0.00    -0.744 OA
ENDBRANCH  82  85
ENDBRANCH  54  78
BRANCH  66  89
ATOM     89  C   UNL A   1      42.531  35.569  29.027  1.00  0.00     0.023 A 
ATOM     90  C   UNL A   1      41.743  35.924  27.916  1.00  0.00     0.012 A 
ATOM     91  C   UNL A   1      43.339  36.606  29.575  1.00  0.00     0.148 A 
ATOM     92  C   UNL A   1      41.779  37.206  27.351  1.00  0.00     0.002 A 
ATOM     93  C   UNL A   1      43.285  37.909  29.080  1.00  0.00     0.091 A 
ATOM     94  F   UNL A   1      44.192  36.335  30.573  1.00  0.00    -0.205 F 
ATOM     95  C   UNL A   1      42.528  38.208  27.950  1.00  0.00     0.022 A 
BRANCH  93  96
ATOM     96  S   UNL A   1      44.054  39.263  29.982  1.00  0.00     0.127 S 
ATOM     97  O   UNL A   1      45.378  38.723  30.277  1.00  0.00    -0.237 OA
ATOM     98  O   UNL A   1      44.047  40.348  28.997  1.00  0.00    -0.237 OA
ATOM     99  O   UNL A   1      43.175  39.490  31.122  1.00  0.00    -0.744 OA
ENDBRANCH  93  96
ENDBRANCH  66  89
ENDBRANCH  40  41
ENDBRANCH  32  35
ENDBRANCH  30  31
ENDBRANCH  29  30
ENDBRANCH   1  29
TORSDOF 18
ENDMDL
