MODEL 1
REMARK VINA RESULT:     -12.6      0.000      0.000
REMARK SMILES COc1ccc(-c2ccc(CCC(=O)NCCCCNC(=O)c3ccc(-c4c5nc(c(-c6cccc(S(=O)(=O)[O-])c6F)c6ccc([nH]6)c(-c6cccc(S(=O)(=O)[O-])c6F)c6nc(c(-c7cccc(S(=O)(=O)[O-])c7F)c7ccc4[nH]7)C=C6)C=C5)cc3)n2-c2ccc(C(C)=O)cc2)cc1
REMARK SMILES IDX 17 1 16 2 15 3 13 4 14 5 12 7 11 8 10 9 7 10 8 11 86 12 9 13
REMARK SMILES IDX 6 14 3 15 4 16 97 17 5 18 96 19 2 20 1 21 87 22 88 23 95 24
REMARK SMILES IDX 89 25 94 26 90 27 91 28 92 29 93 30 18 31 19 32 20 33 21 34
REMARK SMILES IDX 22 36 23 37 24 38 85 39 25 40 84 41 26 42 27 43 28 44 78 45
REMARK SMILES IDX 29 46 83 47 77 48 79 49 30 50 82 51 76 52 75 53 31 55 63 56
REMARK SMILES IDX 43 57 62 58 44 59 47 60 61 61 80 62 45 63 46 64 60 66 81 67
REMARK SMILES IDX 48 68 32 69 33 70 41 71 34 72 36 73 42 74 35 75 37 76 38 77
REMARK SMILES IDX 39 78 40 79 64 80 65 81 73 82 66 83 68 84 74 85 67 86 69 87
REMARK SMILES IDX 70 88 71 89 72 90 49 91 50 92 58 93 51 94 53 95 59 96 52 97
REMARK SMILES IDX 54 98 55 99 56 100 57 101
REMARK H PARENT 15 6 20 35 79 54 47 65
REMARK Flexibility Score: inf
ROOT
ATOM      1  C   UNL A   1      32.543  28.169  26.141  1.00  0.00     0.023 C 
ENDROOT
BRANCH   1   2
ATOM      2  C   UNL A   1      31.122  27.807  26.566  1.00  0.00     0.116 C 
BRANCH   2   3
ATOM      3  N   UNL A   1      31.014  26.375  26.785  1.00  0.00    -0.356 N 
ATOM      4  C   UNL A   1      30.252  25.457  26.126  1.00  0.00     0.220 C 
ATOM      5  O   UNL A   1      30.097  24.340  26.622  1.00  0.00    -0.275 OA
ATOM      6  H   UNL A   1      31.571  26.016  27.514  1.00  0.00     0.163 HD
BRANCH   4   7
ATOM      7  C   UNL A   1      29.622  25.792  24.787  1.00  0.00     0.106 C 
BRANCH   7   8
ATOM      8  C   UNL A   1      30.118  24.894  23.653  1.00  0.00     0.064 C 
BRANCH   8   9
ATOM      9  C   UNL A   1      31.599  24.998  23.398  1.00  0.00     0.024 A 
ATOM     10  C   UNL A   1      33.797  24.673  23.792  1.00  0.00     0.053 A 
ATOM     11  C   UNL A   1      33.665  25.729  22.900  1.00  0.00     0.029 A 
ATOM     12  N   UNL A   1      32.537  24.075  23.859  1.00  0.00    -0.314 N 
ATOM     13  C   UNL A   1      32.291  25.920  22.637  1.00  0.00     0.024 A 
BRANCH  10  14
ATOM     14  C   UNL A   1      35.042  24.106  24.309  1.00  0.00    -0.001 A 
ATOM     15  C   UNL A   1      37.443  23.009  25.253  1.00  0.00     0.118 A 
ATOM     16  C   UNL A   1      37.033  22.772  23.943  1.00  0.00     0.047 A 
ATOM     17  C   UNL A   1      36.682  23.834  26.082  1.00  0.00     0.047 A 
ATOM     18  C   UNL A   1      35.835  23.311  23.474  1.00  0.00     0.014 A 
ATOM     19  C   UNL A   1      35.481  24.382  25.610  1.00  0.00     0.014 A 
BRANCH  15  20
ATOM     20  O   UNL A   1      38.636  22.445  25.618  1.00  0.00    -0.497 OA
ATOM     21  C   UNL A   1      38.623  21.021  25.576  1.00  0.00     0.278 C 
ENDBRANCH  15  20
ENDBRANCH  10  14
BRANCH  12  22
ATOM     22  C   UNL A   1      32.321  22.672  23.891  1.00  0.00     0.046 A 
ATOM     23  C   UNL A   1      32.322  22.011  22.656  1.00  0.00     0.027 A 
ATOM     24  C   UNL A   1      32.271  21.947  25.078  1.00  0.00     0.027 A 
ATOM     25  C   UNL A   1      32.286  20.623  22.600  1.00  0.00     0.014 A 
ATOM     26  C   UNL A   1      32.212  20.549  25.015  1.00  0.00     0.014 A 
ATOM     27  C   UNL A   1      32.235  19.876  23.778  1.00  0.00     0.017 A 
BRANCH  27  28
ATOM     28  C   UNL A   1      32.229  18.381  23.775  1.00  0.00     0.159 C 
ATOM     29  C   UNL A   1      32.559  17.604  22.524  1.00  0.00     0.093 C 
ATOM     30  O   UNL A   1      31.964  17.776  24.815  1.00  0.00    -0.295 OA
ENDBRANCH  27  28
ENDBRANCH  12  22
ENDBRANCH   8   9
ENDBRANCH   7   8
ENDBRANCH   4   7
ENDBRANCH   2   3
ENDBRANCH   1   2
BRANCH   1  31
ATOM     31  C   UNL A   1      33.508  28.579  27.250  1.00  0.00     0.023 C 
BRANCH  31  32
ATOM     32  C   UNL A   1      34.727  29.331  26.735  1.00  0.00     0.116 C 
BRANCH  32  33
ATOM     33  N   UNL A   1      34.968  30.556  27.490  1.00  0.00    -0.352 N 
ATOM     34  C   UNL A   1      35.988  30.818  28.381  1.00  0.00     0.251 C 
ATOM     35  H   UNL A   1      34.323  31.286  27.347  1.00  0.00     0.163 HD
ATOM     36  O   UNL A   1      35.916  31.752  29.156  1.00  0.00    -0.269 OA
BRANCH  34  37
ATOM     37  C   UNL A   1      37.156  29.919  28.400  1.00  0.00     0.039 A 
ATOM     38  C   UNL A   1      38.057  29.973  27.333  1.00  0.00     0.014 A 
ATOM     39  C   UNL A   1      37.368  29.060  29.485  1.00  0.00     0.014 A 
ATOM     40  C   UNL A   1      39.231  29.234  27.404  1.00  0.00     0.010 A 
ATOM     41  C   UNL A   1      38.555  28.352  29.576  1.00  0.00     0.010 A 
ATOM     42  C   UNL A   1      39.496  28.461  28.546  1.00  0.00    -0.014 A 
BRANCH  42  43
ATOM     43  C   UNL A   1      40.865  27.935  28.746  1.00  0.00     0.031 A 
ATOM     44  C   UNL A   1      40.928  26.422  28.344  1.00  0.00     0.074 A 
ATOM     45  C   UNL A   1      41.775  28.828  29.249  1.00  0.00     0.049 A 
ATOM     46  N   UNL A   1      41.550  25.409  28.881  1.00  0.00    -0.248 NA
ATOM     47  C   UNL A   1      40.030  25.955  27.245  1.00  0.00     0.031 C 
ATOM     48  C   UNL A   1      41.528  30.272  29.498  1.00  0.00     0.029 A 
ATOM     49  N   UNL A   1      43.085  28.728  29.652  1.00  0.00    -0.354 N 
ATOM     50  C   UNL A   1      41.285  24.265  28.069  1.00  0.00     0.074 A 
ATOM     51  C   UNL A   1      40.231  24.637  27.179  1.00  0.00     0.031 C 
ATOM     52  C   UNL A   1      42.600  30.864  30.079  1.00  0.00     0.029 A 
ATOM     53  C   UNL A   1      43.641  29.877  30.277  1.00  0.00     0.049 A 
ATOM     54  H   UNL A   1      43.610  27.906  29.514  1.00  0.00     0.167 HD
ATOM     55  C   UNL A   1      42.074  23.144  28.055  1.00  0.00     0.034 A 
ATOM     56  C   UNL A   1      44.814  29.988  30.983  1.00  0.00     0.034 A 
ATOM     57  C   UNL A   1      43.203  23.356  28.897  1.00  0.00     0.049 A 
ATOM     58  C   UNL A   1      45.378  28.635  30.940  1.00  0.00     0.074 A 
ATOM     59  C   UNL A   1      43.591  23.065  30.179  1.00  0.00     0.029 A 
ATOM     60  N   UNL A   1      44.190  24.090  28.293  1.00  0.00    -0.354 N 
ATOM     61  N   UNL A   1      45.925  28.096  29.897  1.00  0.00    -0.248 NA
ATOM     62  C   UNL A   1      44.989  27.742  32.026  1.00  0.00     0.031 C 
ATOM     63  C   UNL A   1      44.801  23.777  30.371  1.00  0.00     0.029 A 
ATOM     64  C   UNL A   1      44.951  24.633  29.282  1.00  0.00     0.049 A 
ATOM     65  H   UNL A   1      44.322  24.204  27.324  1.00  0.00     0.167 HD
ATOM     66  C   UNL A   1      45.670  26.755  30.064  1.00  0.00     0.074 A 
ATOM     67  C   UNL A   1      45.184  26.578  31.425  1.00  0.00     0.031 C 
ATOM     68  C   UNL A   1      45.528  25.914  29.013  1.00  0.00     0.034 A 
BRANCH  55  69
ATOM     69  C   UNL A   1      42.223  21.924  27.134  1.00  0.00     0.023 A 
ATOM     70  C   UNL A   1      41.531  20.752  27.577  1.00  0.00     0.012 A 
ATOM     71  C   UNL A   1      43.199  21.730  26.140  1.00  0.00     0.148 A 
ATOM     72  C   UNL A   1      41.895  19.459  27.202  1.00  0.00     0.002 A 
ATOM     73  C   UNL A   1      43.516  20.427  25.712  1.00  0.00     0.091 A 
ATOM     74  F   UNL A   1      43.867  22.783  25.660  1.00  0.00    -0.205 F 
ATOM     75  C   UNL A   1      42.906  19.297  26.280  1.00  0.00     0.022 A 
BRANCH  73  76
ATOM     76  S   UNL A   1      44.723  20.066  24.426  1.00  0.00     0.127 S 
ATOM     77  O   UNL A   1      44.607  21.237  23.560  1.00  0.00    -0.237 OA
ATOM     78  O   UNL A   1      45.970  20.006  25.195  1.00  0.00    -0.237 OA
ATOM     79  O   UNL A   1      44.317  18.793  23.852  1.00  0.00    -0.744 OA
ENDBRANCH  73  76
ENDBRANCH  55  69
BRANCH  56  80
ATOM     80  C   UNL A   1      45.464  30.983  31.918  1.00  0.00     0.023 A 
ATOM     81  C   UNL A   1      46.563  31.778  31.568  1.00  0.00     0.012 A 
ATOM     82  C   UNL A   1      44.937  31.189  33.234  1.00  0.00     0.148 A 
ATOM     83  C   UNL A   1      47.046  32.781  32.438  1.00  0.00     0.002 A 
ATOM     84  C   UNL A   1      45.348  32.240  34.049  1.00  0.00     0.091 A 
ATOM     85  F   UNL A   1      44.030  30.337  33.724  1.00  0.00    -0.205 F 
ATOM     86  C   UNL A   1      46.417  33.039  33.656  1.00  0.00     0.022 A 
BRANCH  84  87
ATOM     87  S   UNL A   1      44.458  32.696  35.554  1.00  0.00     0.127 S 
ATOM     88  O   UNL A   1      43.078  32.800  35.083  1.00  0.00    -0.237 OA
ATOM     89  O   UNL A   1      44.728  31.544  36.414  1.00  0.00    -0.237 OA
ATOM     90  O   UNL A   1      45.045  33.947  36.016  1.00  0.00    -0.744 OA
ENDBRANCH  84  87
ENDBRANCH  56  80
BRANCH  68  91
ATOM     91  C   UNL A   1      45.654  26.566  27.636  1.00  0.00     0.023 A 
ATOM     92  C   UNL A   1      44.488  27.032  27.017  1.00  0.00     0.012 A 
ATOM     93  C   UNL A   1      46.862  26.621  26.884  1.00  0.00     0.148 A 
ATOM     94  C   UNL A   1      44.517  27.541  25.713  1.00  0.00     0.002 A 
ATOM     95  C   UNL A   1      46.891  27.113  25.577  1.00  0.00     0.091 A 
ATOM     96  F   UNL A   1      47.989  26.205  27.461  1.00  0.00    -0.205 F 
ATOM     97  C   UNL A   1      45.709  27.581  24.993  1.00  0.00     0.022 A 
BRANCH  95  98
ATOM     98  S   UNL A   1      48.370  27.123  24.532  1.00  0.00     0.127 S 
ATOM     99  O   UNL A   1      47.816  27.372  23.200  1.00  0.00    -0.237 OA
ATOM    100  O   UNL A   1      49.129  28.243  25.082  1.00  0.00    -0.237 OA
ATOM    101  O   UNL A   1      48.997  25.813  24.678  1.00  0.00    -0.744 OA
ENDBRANCH  95  98
ENDBRANCH  68  91
ENDBRANCH  42  43
ENDBRANCH  34  37
ENDBRANCH  32  33
ENDBRANCH  31  32
ENDBRANCH   1  31
TORSDOF 20
ENDMDL
MODEL 2
REMARK VINA RESULT:     -11.7      4.736      9.418
REMARK SMILES COc1ccc(-c2ccc(CCC(=O)NCCCCNC(=O)c3ccc(-c4c5nc(c(-c6cccc(S(=O)(=O)[O-])c6F)c6ccc([nH]6)c(-c6cccc(S(=O)(=O)[O-])c6F)c6nc(c(-c7cccc(S(=O)(=O)[O-])c7F)c7ccc4[nH]7)C=C6)C=C5)cc3)n2-c2ccc(C(C)=O)cc2)cc1
REMARK SMILES IDX 17 1 16 2 15 3 13 4 14 5 12 7 11 8 10 9 7 10 8 11 86 12 9 13
REMARK SMILES IDX 6 14 3 15 4 16 97 17 5 18 96 19 2 20 1 21 87 22 88 23 95 24
REMARK SMILES IDX 89 25 94 26 90 27 91 28 92 29 93 30 18 31 19 32 20 33 21 34
REMARK SMILES IDX 22 36 23 37 24 38 85 39 25 40 84 41 26 42 27 43 28 44 78 45
REMARK SMILES IDX 29 46 83 47 77 48 79 49 30 50 82 51 76 52 75 53 31 55 63 56
REMARK SMILES IDX 43 57 62 58 44 59 47 60 61 61 80 62 45 63 46 64 60 66 81 67
REMARK SMILES IDX 48 68 32 69 33 70 41 71 34 72 36 73 42 74 35 75 37 76 38 77
REMARK SMILES IDX 39 78 40 79 64 80 65 81 73 82 66 83 68 84 74 85 67 86 69 87
REMARK SMILES IDX 70 88 71 89 72 90 49 91 50 92 58 93 51 94 53 95 59 96 52 97
REMARK SMILES IDX 54 98 55 99 56 100 57 101
REMARK H PARENT 15 6 20 35 79 54 47 65
REMARK Flexibility Score: inf
ROOT
ATOM      1  C   UNL A   1      35.646  23.967  25.150  1.00  0.00     0.023 C 
ENDROOT
BRANCH   1   2
ATOM      2  C   UNL A   1      34.860  23.104  24.167  1.00  0.00     0.116 C 
BRANCH   2   3
ATOM      3  N   UNL A   1      34.406  23.909  23.045  1.00  0.00    -0.356 N 
ATOM      4  C   UNL A   1      33.350  23.705  22.209  1.00  0.00     0.220 C 
ATOM      5  O   UNL A   1      33.280  24.352  21.162  1.00  0.00    -0.275 OA
ATOM      6  H   UNL A   1      34.938  24.717  22.864  1.00  0.00     0.163 HD
BRANCH   4   7
ATOM      7  C   UNL A   1      32.257  22.716  22.569  1.00  0.00     0.106 C 
BRANCH   7   8
ATOM      8  C   UNL A   1      31.011  23.387  23.149  1.00  0.00     0.064 C 
BRANCH   8   9
ATOM      9  C   UNL A   1      31.248  24.066  24.472  1.00  0.00     0.024 A 
ATOM     10  C   UNL A   1      32.051  25.634  25.882  1.00  0.00     0.053 A 
ATOM     11  C   UNL A   1      31.711  24.512  26.626  1.00  0.00     0.029 A 
ATOM     12  N   UNL A   1      31.501  25.430  24.616  1.00  0.00    -0.314 N 
ATOM     13  C   UNL A   1      31.188  23.538  25.747  1.00  0.00     0.024 A 
BRANCH  10  14
ATOM     14  C   UNL A   1      32.591  26.896  26.388  1.00  0.00    -0.001 A 
ATOM     15  C   UNL A   1      33.665  29.311  27.324  1.00  0.00     0.118 A 
ATOM     16  C   UNL A   1      34.431  28.470  26.521  1.00  0.00     0.047 A 
ATOM     17  C   UNL A   1      32.344  28.975  27.623  1.00  0.00     0.047 A 
ATOM     18  C   UNL A   1      33.901  27.264  26.061  1.00  0.00     0.014 A 
ATOM     19  C   UNL A   1      31.807  27.767  27.155  1.00  0.00     0.014 A 
BRANCH  15  20
ATOM     20  O   UNL A   1      34.268  30.474  27.719  1.00  0.00    -0.497 OA
ATOM     21  C   UNL A   1      33.425  31.617  27.601  1.00  0.00     0.278 C 
ENDBRANCH  15  20
ENDBRANCH  10  14
BRANCH  12  22
ATOM     22  C   UNL A   1      30.858  26.441  23.854  1.00  0.00     0.046 A 
ATOM     23  C   UNL A   1      29.490  26.630  24.093  1.00  0.00     0.027 A 
ATOM     24  C   UNL A   1      31.556  27.317  23.029  1.00  0.00     0.027 A 
ATOM     25  C   UNL A   1      28.816  27.702  23.521  1.00  0.00     0.014 A 
ATOM     26  C   UNL A   1      30.867  28.383  22.435  1.00  0.00     0.014 A 
ATOM     27  C   UNL A   1      29.497  28.593  22.689  1.00  0.00     0.017 A 
BRANCH  27  28
ATOM     28  C   UNL A   1      28.828  29.780  22.074  1.00  0.00     0.159 C 
ATOM     29  C   UNL A   1      29.144  31.181  22.543  1.00  0.00     0.093 C 
ATOM     30  O   UNL A   1      28.019  29.612  21.161  1.00  0.00    -0.295 OA
ENDBRANCH  27  28
ENDBRANCH  12  22
ENDBRANCH   8   9
ENDBRANCH   7   8
ENDBRANCH   4   7
ENDBRANCH   2   3
ENDBRANCH   1   2
BRANCH   1  31
ATOM     31  C   UNL A   1      37.059  23.503  25.493  1.00  0.00     0.023 C 
BRANCH  31  32
ATOM     32  C   UNL A   1      37.785  24.447  26.441  1.00  0.00     0.116 C 
BRANCH  32  33
ATOM     33  N   UNL A   1      39.234  24.295  26.353  1.00  0.00    -0.352 N 
ATOM     34  C   UNL A   1      40.207  25.200  26.722  1.00  0.00     0.251 C 
ATOM     35  H   UNL A   1      39.558  23.441  25.984  1.00  0.00     0.163 HD
ATOM     36  O   UNL A   1      41.353  25.079  26.333  1.00  0.00    -0.269 OA
BRANCH  34  37
ATOM     37  C   UNL A   1      39.822  26.342  27.572  1.00  0.00     0.039 A 
ATOM     38  C   UNL A   1      39.153  26.086  28.771  1.00  0.00     0.014 A 
ATOM     39  C   UNL A   1      40.158  27.647  27.193  1.00  0.00     0.014 A 
ATOM     40  C   UNL A   1      38.908  27.138  29.645  1.00  0.00     0.010 A 
ATOM     41  C   UNL A   1      39.949  28.692  28.079  1.00  0.00     0.010 A 
ATOM     42  C   UNL A   1      39.348  28.429  29.315  1.00  0.00    -0.014 A 
BRANCH  42  43
ATOM     43  C   UNL A   1      39.361  29.467  30.371  1.00  0.00     0.031 A 
ATOM     44  C   UNL A   1      40.298  29.030  31.548  1.00  0.00     0.074 A 
ATOM     45  C   UNL A   1      38.562  30.556  30.140  1.00  0.00     0.049 A 
ATOM     46  N   UNL A   1      40.179  29.154  32.841  1.00  0.00    -0.248 NA
ATOM     47  C   UNL A   1      41.491  28.194  31.215  1.00  0.00     0.031 C 
ATOM     48  C   UNL A   1      37.792  30.821  28.897  1.00  0.00     0.029 A 
ATOM     49  N   UNL A   1      38.228  31.665  30.879  1.00  0.00    -0.354 N 
ATOM     50  C   UNL A   1      41.359  28.611  33.434  1.00  0.00     0.074 A 
ATOM     51  C   UNL A   1      42.044  27.906  32.396  1.00  0.00     0.031 C 
ATOM     52  C   UNL A   1      37.034  31.938  29.013  1.00  0.00     0.029 A 
ATOM     53  C   UNL A   1      37.220  32.506  30.332  1.00  0.00     0.049 A 
ATOM     54  H   UNL A   1      38.663  31.869  31.738  1.00  0.00     0.167 HD
ATOM     55  C   UNL A   1      41.791  28.928  34.695  1.00  0.00     0.034 A 
ATOM     56  C   UNL A   1      36.525  33.522  30.942  1.00  0.00     0.034 A 
ATOM     57  C   UNL A   1      40.933  29.922  35.248  1.00  0.00     0.049 A 
ATOM     58  C   UNL A   1      37.071  33.553  32.302  1.00  0.00     0.074 A 
ATOM     59  C   UNL A   1      39.852  29.986  36.088  1.00  0.00     0.029 A 
ATOM     60  N   UNL A   1      41.220  31.185  34.801  1.00  0.00    -0.354 N 
ATOM     61  N   UNL A   1      38.240  34.011  32.618  1.00  0.00    -0.248 NA
ATOM     62  C   UNL A   1      36.396  32.711  33.284  1.00  0.00     0.031 C 
ATOM     63  C   UNL A   1      39.410  31.331  36.023  1.00  0.00     0.029 A 
ATOM     64  C   UNL A   1      40.102  31.939  34.978  1.00  0.00     0.049 A 
ATOM     65  H   UNL A   1      42.077  31.489  34.423  1.00  0.00     0.167 HD
ATOM     66  C   UNL A   1      38.585  33.262  33.719  1.00  0.00     0.074 A 
ATOM     67  C   UNL A   1      37.388  32.552  34.147  1.00  0.00     0.031 C 
ATOM     68  C   UNL A   1      39.874  32.977  34.020  1.00  0.00     0.034 A 
BRANCH  55  69
ATOM     69  C   UNL A   1      43.101  28.753  35.477  1.00  0.00     0.023 A 
ATOM     70  C   UNL A   1      44.239  29.393  34.891  1.00  0.00     0.012 A 
ATOM     71  C   UNL A   1      43.372  27.791  36.467  1.00  0.00     0.148 A 
ATOM     72  C   UNL A   1      45.552  28.989  35.127  1.00  0.00     0.002 A 
ATOM     73  C   UNL A   1      44.703  27.435  36.754  1.00  0.00     0.091 A 
ATOM     74  F   UNL A   1      42.357  27.172  37.077  1.00  0.00    -0.205 F 
ATOM     75  C   UNL A   1      45.783  27.991  36.050  1.00  0.00     0.022 A 
BRANCH  73  76
ATOM     76  S   UNL A   1      45.164  26.241  38.021  1.00  0.00     0.127 S 
ATOM     77  O   UNL A   1      46.602  26.463  38.142  1.00  0.00    -0.237 OA
ATOM     78  O   UNL A   1      44.383  26.708  39.170  1.00  0.00    -0.237 OA
ATOM     79  O   UNL A   1      44.750  24.944  37.508  1.00  0.00    -0.744 OA
ENDBRANCH  73  76
ENDBRANCH  55  69
BRANCH  56  80
ATOM     80  C   UNL A   1      35.288  34.348  30.669  1.00  0.00     0.023 A 
ATOM     81  C   UNL A   1      34.459  34.166  29.554  1.00  0.00     0.012 A 
ATOM     82  C   UNL A   1      34.877  35.360  31.595  1.00  0.00     0.148 A 
ATOM     83  C   UNL A   1      33.248  34.880  29.420  1.00  0.00     0.002 A 
ATOM     84  C   UNL A   1      33.638  35.991  31.514  1.00  0.00     0.091 A 
ATOM     85  F   UNL A   1      35.709  35.743  32.570  1.00  0.00    -0.205 F 
ATOM     86  C   UNL A   1      32.818  35.759  30.414  1.00  0.00     0.022 A 
BRANCH  84  87
ATOM     87  S   UNL A   1      32.987  37.012  32.855  1.00  0.00     0.127 S 
ATOM     88  O   UNL A   1      31.568  36.660  32.857  1.00  0.00    -0.237 OA
ATOM     89  O   UNL A   1      33.745  36.508  34.001  1.00  0.00    -0.237 OA
ATOM     90  O   UNL A   1      33.277  38.395  32.498  1.00  0.00    -0.744 OA
ENDBRANCH  84  87
ENDBRANCH  56  80
BRANCH  68  91
ATOM     91  C   UNL A   1      40.909  33.532  33.040  1.00  0.00     0.023 A 
ATOM     92  C   UNL A   1      41.081  32.870  31.818  1.00  0.00     0.012 A 
ATOM     93  C   UNL A   1      41.798  34.603  33.337  1.00  0.00     0.148 A 
ATOM     94  C   UNL A   1      42.084  33.260  30.922  1.00  0.00     0.002 A 
ATOM     95  C   UNL A   1      42.810  34.983  32.452  1.00  0.00     0.091 A 
ATOM     96  F   UNL A   1      41.638  35.262  34.483  1.00  0.00    -0.205 F 
ATOM     97  C   UNL A   1      42.947  34.309  31.234  1.00  0.00     0.022 A 
BRANCH  95  98
ATOM     98  S   UNL A   1      44.033  36.271  32.806  1.00  0.00     0.127 S 
ATOM     99  O   UNL A   1      44.731  36.405  31.527  1.00  0.00    -0.237 OA
ATOM    100  O   UNL A   1      43.189  37.412  33.149  1.00  0.00    -0.237 OA
ATOM    101  O   UNL A   1      44.872  35.768  33.890  1.00  0.00    -0.744 OA
ENDBRANCH  95  98
ENDBRANCH  68  91
ENDBRANCH  42  43
ENDBRANCH  34  37
ENDBRANCH  32  33
ENDBRANCH  31  32
ENDBRANCH   1  31
TORSDOF 20
ENDMDL
MODEL 3
REMARK VINA RESULT:     -11.6      2.929      4.268
REMARK SMILES COc1ccc(-c2ccc(CCC(=O)NCCCCNC(=O)c3ccc(-c4c5nc(c(-c6cccc(S(=O)(=O)[O-])c6F)c6ccc([nH]6)c(-c6cccc(S(=O)(=O)[O-])c6F)c6nc(c(-c7cccc(S(=O)(=O)[O-])c7F)c7ccc4[nH]7)C=C6)C=C5)cc3)n2-c2ccc(C(C)=O)cc2)cc1
REMARK SMILES IDX 17 1 16 2 15 3 13 4 14 5 12 7 11 8 10 9 7 10 8 11 86 12 9 13
REMARK SMILES IDX 6 14 3 15 4 16 97 17 5 18 96 19 2 20 1 21 87 22 88 23 95 24
REMARK SMILES IDX 89 25 94 26 90 27 91 28 92 29 93 30 18 31 19 32 20 33 21 34
REMARK SMILES IDX 22 36 23 37 24 38 85 39 25 40 84 41 26 42 27 43 28 44 78 45
REMARK SMILES IDX 29 46 83 47 77 48 79 49 30 50 82 51 76 52 75 53 31 55 63 56
REMARK SMILES IDX 43 57 62 58 44 59 47 60 61 61 80 62 45 63 46 64 60 66 81 67
REMARK SMILES IDX 48 68 32 69 33 70 41 71 34 72 36 73 42 74 35 75 37 76 38 77
REMARK SMILES IDX 39 78 40 79 64 80 65 81 73 82 66 83 68 84 74 85 67 86 69 87
REMARK SMILES IDX 70 88 71 89 72 90 49 91 50 92 58 93 51 94 53 95 59 96 52 97
REMARK SMILES IDX 54 98 55 99 56 100 57 101
REMARK H PARENT 15 6 20 35 79 54 47 65
REMARK Flexibility Score: inf
ROOT
ATOM      1  C   UNL A   1      33.022  28.482  24.822  1.00  0.00     0.023 C 
ENDROOT
BRANCH   1   2
ATOM      2  C   UNL A   1      31.521  28.295  25.029  1.00  0.00     0.116 C 
BRANCH   2   3
ATOM      3  N   UNL A   1      31.270  27.108  25.829  1.00  0.00    -0.356 N 
ATOM      4  C   UNL A   1      30.353  26.118  25.640  1.00  0.00     0.220 C 
ATOM      5  O   UNL A   1      30.117  25.335  26.561  1.00  0.00    -0.275 OA
ATOM      6  H   UNL A   1      31.845  27.005  26.622  1.00  0.00     0.163 HD
BRANCH   4   7
ATOM      7  C   UNL A   1      29.650  25.959  24.304  1.00  0.00     0.106 C 
BRANCH   7   8
ATOM      8  C   UNL A   1      30.199  24.799  23.474  1.00  0.00     0.064 C 
BRANCH   8   9
ATOM      9  C   UNL A   1      31.680  24.885  23.214  1.00  0.00     0.024 A 
ATOM     10  C   UNL A   1      33.878  24.598  23.636  1.00  0.00     0.053 A 
ATOM     11  C   UNL A   1      33.746  25.578  22.661  1.00  0.00     0.029 A 
ATOM     12  N   UNL A   1      32.619  24.005  23.750  1.00  0.00    -0.314 N 
ATOM     13  C   UNL A   1      32.372  25.743  22.382  1.00  0.00     0.024 A 
BRANCH  10  14
ATOM     14  C   UNL A   1      35.124  24.078  24.200  1.00  0.00    -0.001 A 
ATOM     15  C   UNL A   1      37.495  23.094  25.325  1.00  0.00     0.118 A 
ATOM     16  C   UNL A   1      36.653  23.912  26.074  1.00  0.00     0.047 A 
ATOM     17  C   UNL A   1      37.135  22.724  24.029  1.00  0.00     0.047 A 
ATOM     18  C   UNL A   1      35.476  24.409  25.513  1.00  0.00     0.014 A 
ATOM     19  C   UNL A   1      35.949  23.216  23.466  1.00  0.00     0.014 A 
BRANCH  15  20
ATOM     20  O   UNL A   1      38.621  22.651  25.964  1.00  0.00    -0.497 OA
ATOM     21  C   UNL A   1      38.860  21.257  25.786  1.00  0.00     0.278 C 
ENDBRANCH  15  20
ENDBRANCH  10  14
BRANCH  12  22
ATOM     22  C   UNL A   1      32.407  22.609  23.896  1.00  0.00     0.046 A 
ATOM     23  C   UNL A   1      32.362  21.857  22.715  1.00  0.00     0.027 A 
ATOM     24  C   UNL A   1      32.402  21.976  25.135  1.00  0.00     0.027 A 
ATOM     25  C   UNL A   1      32.326  20.468  22.766  1.00  0.00     0.014 A 
ATOM     26  C   UNL A   1      32.342  20.577  25.181  1.00  0.00     0.014 A 
ATOM     27  C   UNL A   1      32.320  19.812  23.999  1.00  0.00     0.017 A 
BRANCH  27  28
ATOM     28  C   UNL A   1      32.315  18.321  24.109  1.00  0.00     0.159 C 
ATOM     29  C   UNL A   1      32.810  17.456  22.975  1.00  0.00     0.093 C 
ATOM     30  O   UNL A   1      31.915  17.794  25.148  1.00  0.00    -0.295 OA
ENDBRANCH  27  28
ENDBRANCH  12  22
ENDBRANCH   8   9
ENDBRANCH   7   8
ENDBRANCH   4   7
ENDBRANCH   2   3
ENDBRANCH   1   2
BRANCH   1  31
ATOM     31  C   UNL A   1      33.940  27.894  25.889  1.00  0.00     0.023 C 
BRANCH  31  32
ATOM     32  C   UNL A   1      34.579  28.950  26.779  1.00  0.00     0.116 C 
BRANCH  32  33
ATOM     33  N   UNL A   1      33.816  30.194  26.778  1.00  0.00    -0.352 N 
ATOM     34  C   UNL A   1      34.001  31.305  27.574  1.00  0.00     0.251 C 
ATOM     35  H   UNL A   1      33.077  30.248  26.129  1.00  0.00     0.163 HD
ATOM     36  O   UNL A   1      33.132  32.149  27.681  1.00  0.00    -0.269 OA
BRANCH  34  37
ATOM     37  C   UNL A   1      35.264  31.433  28.323  1.00  0.00     0.039 A 
ATOM     38  C   UNL A   1      35.570  30.469  29.287  1.00  0.00     0.014 A 
ATOM     39  C   UNL A   1      36.147  32.483  28.041  1.00  0.00     0.014 A 
ATOM     40  C   UNL A   1      36.816  30.501  29.901  1.00  0.00     0.010 A 
ATOM     41  C   UNL A   1      37.405  32.494  28.624  1.00  0.00     0.010 A 
ATOM     42  C   UNL A   1      37.745  31.487  29.533  1.00  0.00    -0.014 A 
BRANCH  42  43
ATOM     43  C   UNL A   1      39.154  31.327  29.956  1.00  0.00     0.031 A 
ATOM     44  C   UNL A   1      39.783  30.061  29.280  1.00  0.00     0.074 A 
ATOM     45  C   UNL A   1      39.616  32.264  30.844  1.00  0.00     0.049 A 
ATOM     46  N   UNL A   1      40.603  29.154  29.735  1.00  0.00    -0.248 NA
ATOM     47  C   UNL A   1      39.294  29.684  27.919  1.00  0.00     0.031 C 
ATOM     48  C   UNL A   1      38.866  33.457  31.316  1.00  0.00     0.029 A 
ATOM     49  N   UNL A   1      40.794  32.425  31.532  1.00  0.00    -0.354 N 
ATOM     50  C   UNL A   1      40.876  28.249  28.665  1.00  0.00     0.074 A 
ATOM     51  C   UNL A   1      39.929  28.543  27.636  1.00  0.00     0.031 C 
ATOM     52  C   UNL A   1      39.563  34.140  32.255  1.00  0.00     0.029 A 
ATOM     53  C   UNL A   1      40.822  33.466  32.499  1.00  0.00     0.049 A 
ATOM     54  H   UNL A   1      41.578  31.852  31.363  1.00  0.00     0.167 HD
ATOM     55  C   UNL A   1      41.981  27.440  28.617  1.00  0.00     0.034 A 
ATOM     56  C   UNL A   1      41.751  33.700  33.483  1.00  0.00     0.034 A 
ATOM     57  C   UNL A   1      42.813  27.718  29.740  1.00  0.00     0.049 A 
ATOM     58  C   UNL A   1      42.730  32.623  33.304  1.00  0.00     0.074 A 
ATOM     59  C   UNL A   1      43.048  27.207  30.990  1.00  0.00     0.029 A 
ATOM     60  N   UNL A   1      43.589  28.834  29.567  1.00  0.00    -0.354 N 
ATOM     61  N   UNL A   1      43.596  32.565  32.343  1.00  0.00    -0.248 NA
ATOM     62  C   UNL A   1      42.476  31.395  34.050  1.00  0.00     0.031 C 
ATOM     63  C   UNL A   1      43.901  28.146  31.621  1.00  0.00     0.029 A 
ATOM     64  C   UNL A   1      43.945  29.273  30.804  1.00  0.00     0.049 A 
ATOM     65  H   UNL A   1      43.842  29.241  28.706  1.00  0.00     0.167 HD
ATOM     66  C   UNL A   1      43.774  31.213  32.161  1.00  0.00     0.074 A 
ATOM     67  C   UNL A   1      43.146  30.542  33.291  1.00  0.00     0.031 C 
ATOM     68  C   UNL A   1      44.103  30.687  30.958  1.00  0.00     0.034 A 
BRANCH  55  69
ATOM     69  C   UNL A   1      42.682  26.610  27.532  1.00  0.00     0.023 A 
ATOM     70  C   UNL A   1      42.947  27.317  26.316  1.00  0.00     0.012 A 
ATOM     71  C   UNL A   1      42.773  25.208  27.467  1.00  0.00     0.148 A 
ATOM     72  C   UNL A   1      43.111  26.687  25.083  1.00  0.00     0.002 A 
ATOM     73  C   UNL A   1      43.008  24.576  26.231  1.00  0.00     0.091 A 
ATOM     74  F   UNL A   1      42.564  24.484  28.570  1.00  0.00    -0.205 F 
ATOM     75  C   UNL A   1      43.122  25.309  25.039  1.00  0.00     0.022 A 
BRANCH  73  76
ATOM     76  S   UNL A   1      43.174  22.794  26.039  1.00  0.00     0.127 S 
ATOM     77  O   UNL A   1      41.957  22.302  26.680  1.00  0.00    -0.237 OA
ATOM     78  O   UNL A   1      43.186  22.650  24.580  1.00  0.00    -0.237 OA
ATOM     79  O   UNL A   1      44.432  22.444  26.681  1.00  0.00    -0.744 OA
ENDBRANCH  73  76
ENDBRANCH  55  69
BRANCH  56  80
ATOM     80  C   UNL A   1      41.863  34.541  34.735  1.00  0.00     0.023 A 
ATOM     81  C   UNL A   1      42.698  35.660  34.851  1.00  0.00     0.012 A 
ATOM     82  C   UNL A   1      41.059  34.240  35.882  1.00  0.00     0.148 A 
ATOM     83  C   UNL A   1      42.665  36.481  36.000  1.00  0.00     0.002 A 
ATOM     84  C   UNL A   1      40.953  35.102  36.970  1.00  0.00     0.091 A 
ATOM     85  F   UNL A   1      40.394  33.081  35.937  1.00  0.00    -0.205 F 
ATOM     86  C   UNL A   1      41.768  36.228  37.038  1.00  0.00     0.022 A 
BRANCH  84  87
ATOM     87  S   UNL A   1      39.697  34.886  38.251  1.00  0.00     0.127 S 
ATOM     88  O   UNL A   1      38.522  34.494  37.475  1.00  0.00    -0.237 OA
ATOM     89  O   UNL A   1      40.284  33.817  39.059  1.00  0.00    -0.237 OA
ATOM     90  O   UNL A   1      39.583  36.168  38.935  1.00  0.00    -0.744 OA
ENDBRANCH  84  87
ENDBRANCH  56  80
BRANCH  68  91
ATOM     91  C   UNL A   1      44.242  31.700  29.821  1.00  0.00     0.023 A 
ATOM     92  C   UNL A   1      43.132  32.490  29.501  1.00  0.00     0.012 A 
ATOM     93  C   UNL A   1      45.387  31.808  28.982  1.00  0.00     0.148 A 
ATOM     94  C   UNL A   1      43.156  33.360  28.405  1.00  0.00     0.002 A 
ATOM     95  C   UNL A   1      45.408  32.663  27.877  1.00  0.00     0.091 A 
ATOM     96  F   UNL A   1      46.465  31.084  29.280  1.00  0.00    -0.205 F 
ATOM     97  C   UNL A   1      44.286  33.447  27.593  1.00  0.00     0.022 A 
BRANCH  95  98
ATOM     98  S   UNL A   1      46.793  32.780  26.716  1.00  0.00     0.127 S 
ATOM     99  O   UNL A   1      47.913  33.125  27.592  1.00  0.00    -0.237 OA
ATOM    100  O   UNL A   1      46.855  31.427  26.171  1.00  0.00    -0.237 OA
ATOM    101  O   UNL A   1      46.449  33.824  25.755  1.00  0.00    -0.744 OA
ENDBRANCH  95  98
ENDBRANCH  68  91
ENDBRANCH  42  43
ENDBRANCH  34  37
ENDBRANCH  32  33
ENDBRANCH  31  32
ENDBRANCH   1  31
TORSDOF 20
ENDMDL
