MODEL 1
REMARK VINA RESULT:     -12.4      0.000      0.000
REMARK SMILES CC(C)Cc1ccc(S(=O)(=O)Nc2cnc(N3CCCC3)c(C(=O)NCCCCNC(=O)c3ccc(-c4c5nc(c(-c6cccc(S(=O)(=O)[O-])c6F)c6ccc([nH]6)c(-c6cccc(S(=O)(=O)[O-])c6F)c6nc(c(-c7cccc(S(=O)(=O)[O-])c7F)c7ccc4[nH]7)C=C6)C=C5)cc3)c2)cc1
REMARK SMILES IDX 26 1 25 2 23 3 24 4 22 6 13 7 14 8 96 9 15 10 16 11 12 12
REMARK SMILES IDX 9 14 10 15 11 16 8 17 5 18 6 19 98 20 7 21 97 22 4 23 2 24
REMARK SMILES IDX 1 25 3 26 17 27 18 28 21 29 19 30 20 31 27 32 28 33 29 34
REMARK SMILES IDX 30 35 31 36 32 38 33 39 34 40 95 41 35 42 94 43 36 44 37 45
REMARK SMILES IDX 38 46 88 47 39 48 93 49 87 50 89 51 40 52 92 53 86 54 85 55
REMARK SMILES IDX 41 57 73 58 53 59 72 60 54 61 57 62 71 63 90 64 55 65 56 66
REMARK SMILES IDX 70 68 91 69 58 70 42 71 43 72 51 73 44 74 46 75 52 76 45 77
REMARK SMILES IDX 47 78 48 79 49 80 50 81 74 82 75 83 83 84 76 85 78 86 84 87
REMARK SMILES IDX 77 88 79 89 80 90 81 91 82 92 59 93 60 94 68 95 61 96 63 97
REMARK SMILES IDX 69 98 62 99 64 100 65 101 66 102 67 103
REMARK H PARENT 25 5 12 13 30 37 89 56 57 67
REMARK Flexibility Score: inf
ROOT
ATOM      1  C   UNL A   1      37.138  22.065  24.510  1.00  0.00     0.116 C 
ENDROOT
BRANCH   1   2
ATOM      2  N   UNL A   1      36.207  22.503  23.494  1.00  0.00    -0.352 N 
ATOM      3  C   UNL A   1      34.917  22.967  23.476  1.00  0.00     0.255 C 
ATOM      4  O   UNL A   1      34.537  23.248  22.340  1.00  0.00    -0.269 OA
ATOM      5  H   UNL A   1      36.597  22.455  22.591  1.00  0.00     0.163 HD
BRANCH   3   6
ATOM      6  C   UNL A   1      34.063  23.205  24.699  1.00  0.00     0.084 A 
ATOM      7  C   UNL A   1      32.956  24.816  26.123  1.00  0.00     0.068 A 
ATOM      8  C   UNL A   1      32.058  23.825  26.468  1.00  0.00     0.140 A 
ATOM      9  C   UNL A   1      34.046  24.453  25.346  1.00  0.00     0.046 A 
ATOM     10  N   UNL A   1      32.129  22.565  26.005  1.00  0.00    -0.236 NA
ATOM     11  C   UNL A   1      33.113  22.243  25.120  1.00  0.00     0.141 A 
BRANCH   7  12
ATOM     12  N   UNL A   1      32.712  26.134  26.625  1.00  0.00    -0.278 N 
ATOM     13  H   UNL A   1      33.459  26.655  27.001  1.00  0.00     0.180 HD
BRANCH  12  14
ATOM     14  S   UNL A   1      31.151  26.817  26.581  1.00  0.00     0.261 S 
ATOM     15  O   UNL A   1      31.157  27.773  27.680  1.00  0.00    -0.201 OA
ATOM     16  O   UNL A   1      30.218  25.721  26.567  1.00  0.00    -0.201 OA
BRANCH  14  17
ATOM     17  C   UNL A   1      30.893  27.764  25.098  1.00  0.00     0.087 A 
ATOM     18  C   UNL A   1      30.103  29.246  22.845  1.00  0.00    -0.048 A 
ATOM     19  C   UNL A   1      29.701  27.913  22.987  1.00  0.00     0.005 A 
ATOM     20  C   UNL A   1      30.952  29.807  23.811  1.00  0.00     0.005 A 
ATOM     21  C   UNL A   1      30.087  27.178  24.109  1.00  0.00     0.022 A 
ATOM     22  C   UNL A   1      31.369  29.063  24.923  1.00  0.00     0.022 A 
BRANCH  18  23
ATOM     23  C   UNL A   1      29.629  30.066  21.665  1.00  0.00     0.038 C 
BRANCH  23  24
ATOM     24  C   UNL A   1      28.168  30.537  21.782  1.00  0.00    -0.013 C 
ATOM     25  C   UNL A   1      27.849  31.067  23.183  1.00  0.00     0.008 C 
ATOM     26  C   UNL A   1      27.886  31.629  20.746  1.00  0.00     0.008 C 
ENDBRANCH  23  24
ENDBRANCH  18  23
ENDBRANCH  14  17
ENDBRANCH  12  14
ENDBRANCH   7  12
BRANCH  11  27
ATOM     27  N   UNL A   1      33.063  20.953  24.691  1.00  0.00    -0.356 N 
ATOM     28  C   UNL A   1      33.426  19.791  25.484  1.00  0.00     0.118 C 
ATOM     29  C   UNL A   1      32.355  20.575  23.480  1.00  0.00     0.118 C 
ATOM     30  C   UNL A   1      33.640  18.742  24.398  1.00  0.00     0.023 C 
ATOM     31  C   UNL A   1      32.510  19.050  23.420  1.00  0.00     0.023 C 
ENDBRANCH  11  27
ENDBRANCH   3   6
ENDBRANCH   1   2
BRANCH   1  32
ATOM     32  C   UNL A   1      36.907  20.598  24.856  1.00  0.00     0.023 C 
BRANCH  32  33
ATOM     33  C   UNL A   1      38.202  19.786  24.976  1.00  0.00     0.023 C 
BRANCH  33  34
ATOM     34  C   UNL A   1      39.212  20.328  25.983  1.00  0.00     0.116 C 
BRANCH  34  35
ATOM     35  N   UNL A   1      40.442  19.550  26.032  1.00  0.00    -0.352 N 
ATOM     36  C   UNL A   1      41.715  19.983  26.307  1.00  0.00     0.251 C 
ATOM     37  H   UNL A   1      40.348  18.589  25.844  1.00  0.00     0.163 HD
ATOM     38  O   UNL A   1      42.662  19.209  26.205  1.00  0.00    -0.269 OA
BRANCH  36  39
ATOM     39  C   UNL A   1      41.939  21.391  26.690  1.00  0.00     0.039 A 
ATOM     40  C   UNL A   1      42.098  21.700  28.042  1.00  0.00     0.014 A 
ATOM     41  C   UNL A   1      41.997  22.397  25.721  1.00  0.00     0.014 A 
ATOM     42  C   UNL A   1      42.363  23.017  28.422  1.00  0.00     0.010 A 
ATOM     43  C   UNL A   1      42.319  23.698  26.096  1.00  0.00     0.010 A 
ATOM     44  C   UNL A   1      42.494  24.021  27.449  1.00  0.00    -0.014 A 
BRANCH  44  45
ATOM     45  C   UNL A   1      42.809  25.418  27.836  1.00  0.00     0.031 A 
ATOM     46  C   UNL A   1      44.224  25.921  27.765  1.00  0.00     0.074 A 
ATOM     47  C   UNL A   1      41.833  26.208  28.323  1.00  0.00     0.049 A 
ATOM     48  N   UNL A   1      44.694  27.102  28.071  1.00  0.00    -0.248 NA
ATOM     49  C   UNL A   1      45.252  24.966  27.317  1.00  0.00     0.031 C 
ATOM     50  C   UNL A   1      40.441  25.802  28.529  1.00  0.00     0.029 A 
ATOM     51  N   UNL A   1      41.867  27.509  28.754  1.00  0.00    -0.354 N 
ATOM     52  C   UNL A   1      46.069  27.023  27.888  1.00  0.00     0.074 A 
ATOM     53  C   UNL A   1      46.364  25.668  27.475  1.00  0.00     0.031 C 
ATOM     54  C   UNL A   1      39.753  26.836  29.041  1.00  0.00     0.029 A 
ATOM     55  C   UNL A   1      40.655  27.972  29.209  1.00  0.00     0.049 A 
ATOM     56  H   UNL A   1      42.683  28.060  28.739  1.00  0.00     0.167 HD
ATOM     57  C   UNL A   1      46.998  27.999  28.015  1.00  0.00     0.034 A 
ATOM     58  C   UNL A   1      40.308  29.181  29.691  1.00  0.00     0.034 A 
ATOM     59  C   UNL A   1      46.693  29.361  28.363  1.00  0.00     0.049 A 
ATOM     60  C   UNL A   1      41.342  30.273  29.736  1.00  0.00     0.074 A 
ATOM     61  C   UNL A   1      47.547  30.446  28.426  1.00  0.00     0.029 A 
ATOM     62  N   UNL A   1      45.431  29.824  28.701  1.00  0.00    -0.354 N 
ATOM     63  N   UNL A   1      42.605  30.226  29.388  1.00  0.00    -0.248 NA
ATOM     64  C   UNL A   1      40.893  31.596  30.195  1.00  0.00     0.031 C 
ATOM     65  C   UNL A   1      46.801  31.568  28.802  1.00  0.00     0.029 A 
ATOM     66  C   UNL A   1      45.481  31.179  28.970  1.00  0.00     0.049 A 
ATOM     67  H   UNL A   1      44.619  29.269  28.744  1.00  0.00     0.167 HD
ATOM     68  C   UNL A   1      43.094  31.517  29.553  1.00  0.00     0.074 A 
ATOM     69  C   UNL A   1      41.984  32.328  30.010  1.00  0.00     0.031 C 
ATOM     70  C   UNL A   1      44.352  31.985  29.362  1.00  0.00     0.034 A 
BRANCH  57  71
ATOM     71  C   UNL A   1      48.426  27.645  27.696  1.00  0.00     0.023 A 
ATOM     72  C   UNL A   1      49.254  27.140  28.720  1.00  0.00     0.012 A 
ATOM     73  C   UNL A   1      48.937  27.764  26.389  1.00  0.00     0.148 A 
ATOM     74  C   UNL A   1      50.577  26.789  28.456  1.00  0.00     0.002 A 
ATOM     75  C   UNL A   1      50.247  27.376  26.126  1.00  0.00     0.091 A 
ATOM     76  F   UNL A   1      48.144  28.271  25.434  1.00  0.00    -0.205 F 
ATOM     77  C   UNL A   1      51.069  26.899  27.159  1.00  0.00     0.022 A 
BRANCH  75  78
ATOM     78  S   UNL A   1      50.948  27.415  24.473  1.00  0.00     0.127 S 
ATOM     79  O   UNL A   1      52.252  26.791  24.689  1.00  0.00    -0.237 OA
ATOM     80  O   UNL A   1      50.001  26.599  23.712  1.00  0.00    -0.237 OA
ATOM     81  O   UNL A   1      50.977  28.820  24.087  1.00  0.00    -0.744 OA
ENDBRANCH  75  78
ENDBRANCH  57  71
BRANCH  58  82
ATOM     82  C   UNL A   1      38.891  29.449  30.065  1.00  0.00     0.023 A 
ATOM     83  C   UNL A   1      38.438  29.081  31.347  1.00  0.00     0.012 A 
ATOM     84  C   UNL A   1      38.004  30.097  29.184  1.00  0.00     0.148 A 
ATOM     85  C   UNL A   1      37.122  29.329  31.736  1.00  0.00     0.002 A 
ATOM     86  C   UNL A   1      36.707  30.386  29.596  1.00  0.00     0.091 A 
ATOM     87  F   UNL A   1      38.447  30.427  27.962  1.00  0.00    -0.205 F 
ATOM     88  C   UNL A   1      36.260  29.990  30.866  1.00  0.00     0.022 A 
BRANCH  86  89
ATOM     89  S   UNL A   1      35.576  31.348  28.584  1.00  0.00     0.127 S 
ATOM     90  O   UNL A   1      34.990  30.321  27.729  1.00  0.00    -0.237 OA
ATOM     91  O   UNL A   1      34.668  31.909  29.586  1.00  0.00    -0.237 OA
ATOM     92  O   UNL A   1      36.408  32.341  27.917  1.00  0.00    -0.744 OA
ENDBRANCH  86  89
ENDBRANCH  58  82
BRANCH  70  93
ATOM     93  C   UNL A   1      44.599  33.446  29.621  1.00  0.00     0.023 A 
ATOM     94  C   UNL A   1      45.007  33.864  30.902  1.00  0.00     0.012 A 
ATOM     95  C   UNL A   1      44.502  34.393  28.582  1.00  0.00     0.148 A 
ATOM     96  C   UNL A   1      45.289  35.205  31.155  1.00  0.00     0.002 A 
ATOM     97  C   UNL A   1      44.825  35.722  28.830  1.00  0.00     0.091 A 
ATOM     98  F   UNL A   1      44.088  33.982  27.375  1.00  0.00    -0.205 F 
ATOM     99  C   UNL A   1      45.210  36.132  30.118  1.00  0.00     0.022 A 
BRANCH  97 100
ATOM    100  S   UNL A   1      44.834  36.955  27.523  1.00  0.00     0.127 S 
ATOM    101  O   UNL A   1      45.237  38.157  28.248  1.00  0.00    -0.237 OA
ATOM    102  O   UNL A   1      45.842  36.433  26.600  1.00  0.00    -0.237 OA
ATOM    103  O   UNL A   1      43.479  36.963  26.986  1.00  0.00    -0.744 OA
ENDBRANCH  97 100
ENDBRANCH  70  93
ENDBRANCH  44  45
ENDBRANCH  36  39
ENDBRANCH  34  35
ENDBRANCH  33  34
ENDBRANCH  32  33
ENDBRANCH   1  32
TORSDOF 20
ENDMDL
MODEL 2
REMARK VINA RESULT:     -12.4      1.290      7.223
REMARK SMILES CC(C)Cc1ccc(S(=O)(=O)Nc2cnc(N3CCCC3)c(C(=O)NCCCCNC(=O)c3ccc(-c4c5nc(c(-c6cccc(S(=O)(=O)[O-])c6F)c6ccc([nH]6)c(-c6cccc(S(=O)(=O)[O-])c6F)c6nc(c(-c7cccc(S(=O)(=O)[O-])c7F)c7ccc4[nH]7)C=C6)C=C5)cc3)c2)cc1
REMARK SMILES IDX 26 1 25 2 23 3 24 4 22 6 13 7 14 8 96 9 15 10 16 11 12 12
REMARK SMILES IDX 9 14 10 15 11 16 8 17 5 18 6 19 98 20 7 21 97 22 4 23 2 24
REMARK SMILES IDX 1 25 3 26 17 27 18 28 21 29 19 30 20 31 27 32 28 33 29 34
REMARK SMILES IDX 30 35 31 36 32 38 33 39 34 40 95 41 35 42 94 43 36 44 37 45
REMARK SMILES IDX 38 46 88 47 39 48 93 49 87 50 89 51 40 52 92 53 86 54 85 55
REMARK SMILES IDX 41 57 73 58 53 59 72 60 54 61 57 62 71 63 90 64 55 65 56 66
REMARK SMILES IDX 70 68 91 69 58 70 42 71 43 72 51 73 44 74 46 75 52 76 45 77
REMARK SMILES IDX 47 78 48 79 49 80 50 81 74 82 75 83 83 84 76 85 78 86 84 87
REMARK SMILES IDX 77 88 79 89 80 90 81 91 82 92 59 93 60 94 68 95 61 96 63 97
REMARK SMILES IDX 69 98 62 99 64 100 65 101 66 102 67 103
REMARK H PARENT 25 5 12 13 30 37 89 56 57 67
REMARK Flexibility Score: inf
ROOT
ATOM      1  C   UNL A   1      36.171  21.396  25.335  1.00  0.00     0.116 C 
ENDROOT
BRANCH   1   2
ATOM      2  N   UNL A   1      35.534  22.054  24.217  1.00  0.00    -0.352 N 
ATOM      3  C   UNL A   1      34.283  22.546  23.948  1.00  0.00     0.255 C 
ATOM      4  O   UNL A   1      34.212  23.061  22.833  1.00  0.00    -0.269 OA
ATOM      5  H   UNL A   1      36.153  22.180  23.462  1.00  0.00     0.163 HD
BRANCH   3   6
ATOM      6  C   UNL A   1      33.126  22.554  24.919  1.00  0.00     0.084 A 
ATOM      7  C   UNL A   1      31.454  23.860  26.079  1.00  0.00     0.068 A 
ATOM      8  C   UNL A   1      30.672  22.723  26.138  1.00  0.00     0.140 A 
ATOM      9  C   UNL A   1      32.746  23.726  25.594  1.00  0.00     0.046 A 
ATOM     10  N   UNL A   1      31.060  21.531  25.655  1.00  0.00    -0.236 NA
ATOM     11  C   UNL A   1      32.271  21.431  25.039  1.00  0.00     0.141 A 
BRANCH   7  12
ATOM     12  N   UNL A   1      30.883  25.082  26.559  1.00  0.00    -0.278 N 
ATOM     13  H   UNL A   1      29.974  25.076  26.940  1.00  0.00     0.180 HD
BRANCH  12  14
ATOM     14  S   UNL A   1      31.751  26.547  26.482  1.00  0.00     0.261 S 
ATOM     15  O   UNL A   1      33.135  26.124  26.317  1.00  0.00    -0.201 OA
ATOM     16  O   UNL A   1      31.353  27.327  27.624  1.00  0.00    -0.201 OA
BRANCH  14  17
ATOM     17  C   UNL A   1      31.337  27.476  25.022  1.00  0.00     0.087 A 
ATOM     18  C   UNL A   1      30.314  28.942  22.855  1.00  0.00    -0.048 A 
ATOM     19  C   UNL A   1      29.897  27.624  23.073  1.00  0.00     0.005 A 
ATOM     20  C   UNL A   1      31.291  29.494  23.696  1.00  0.00     0.005 A 
ATOM     21  C   UNL A   1      30.399  26.897  24.153  1.00  0.00     0.022 A 
ATOM     22  C   UNL A   1      31.822  28.757  24.764  1.00  0.00     0.022 A 
BRANCH  18  23
ATOM     23  C   UNL A   1      29.720  29.754  21.725  1.00  0.00     0.038 C 
BRANCH  23  24
ATOM     24  C   UNL A   1      28.746  30.851  22.194  1.00  0.00    -0.013 C 
ATOM     25  C   UNL A   1      28.047  31.537  21.017  1.00  0.00     0.008 C 
ATOM     26  C   UNL A   1      27.696  30.249  23.133  1.00  0.00     0.008 C 
ENDBRANCH  23  24
ENDBRANCH  18  23
ENDBRANCH  14  17
ENDBRANCH  12  14
ENDBRANCH   7  12
BRANCH  11  27
ATOM     27  N   UNL A   1      32.539  20.187  24.556  1.00  0.00    -0.356 N 
ATOM     28  C   UNL A   1      32.922  19.040  25.360  1.00  0.00     0.118 C 
ATOM     29  C   UNL A   1      32.182  19.798  23.203  1.00  0.00     0.118 C 
ATOM     30  C   UNL A   1      33.542  18.129  24.306  1.00  0.00     0.023 C 
ATOM     31  C   UNL A   1      32.610  18.328  23.115  1.00  0.00     0.023 C 
ENDBRANCH  11  27
ENDBRANCH   3   6
ENDBRANCH   1   2
BRANCH   1  32
ATOM     32  C   UNL A   1      36.478  19.940  24.999  1.00  0.00     0.023 C 
BRANCH  32  33
ATOM     33  C   UNL A   1      37.969  19.665  24.770  1.00  0.00     0.023 C 
BRANCH  33  34
ATOM     34  C   UNL A   1      38.891  20.129  25.894  1.00  0.00     0.116 C 
BRANCH  34  35
ATOM     35  N   UNL A   1      40.032  19.248  26.094  1.00  0.00    -0.352 N 
ATOM     36  C   UNL A   1      41.333  19.586  26.372  1.00  0.00     0.251 C 
ATOM     37  H   UNL A   1      39.847  18.284  26.021  1.00  0.00     0.163 HD
ATOM     38  O   UNL A   1      42.199  18.717  26.410  1.00  0.00    -0.269 OA
BRANCH  36  39
ATOM     39  C   UNL A   1      41.686  21.003  26.590  1.00  0.00     0.039 A 
ATOM     40  C   UNL A   1      42.021  21.419  27.880  1.00  0.00     0.014 A 
ATOM     41  C   UNL A   1      41.694  21.912  25.528  1.00  0.00     0.014 A 
ATOM     42  C   UNL A   1      42.409  22.742  28.099  1.00  0.00     0.010 A 
ATOM     43  C   UNL A   1      42.136  23.214  25.737  1.00  0.00     0.010 A 
ATOM     44  C   UNL A   1      42.488  23.644  27.025  1.00  0.00    -0.014 A 
BRANCH  44  45
ATOM     45  C   UNL A   1      42.931  25.043  27.238  1.00  0.00     0.031 A 
ATOM     46  C   UNL A   1      42.022  26.028  27.919  1.00  0.00     0.074 A 
ATOM     47  C   UNL A   1      44.120  25.444  26.750  1.00  0.00     0.049 A 
ATOM     48  N   UNL A   1      42.229  27.292  28.183  1.00  0.00    -0.248 NA
ATOM     49  C   UNL A   1      40.697  25.539  28.335  1.00  0.00     0.031 C 
ATOM     50  C   UNL A   1      45.048  24.604  25.987  1.00  0.00     0.029 A 
ATOM     51  N   UNL A   1      44.743  26.664  26.802  1.00  0.00    -0.354 N 
ATOM     52  C   UNL A   1      41.054  27.756  28.761  1.00  0.00     0.074 A 
ATOM     53  C   UNL A   1      40.125  26.647  28.781  1.00  0.00     0.031 C 
ATOM     54  C   UNL A   1      46.123  25.334  25.649  1.00  0.00     0.029 A 
ATOM     55  C   UNL A   1      45.959  26.692  26.160  1.00  0.00     0.049 A 
ATOM     56  H   UNL A   1      44.356  27.447  27.256  1.00  0.00     0.167 HD
ATOM     57  C   UNL A   1      40.784  28.983  29.265  1.00  0.00     0.034 A 
ATOM     58  C   UNL A   1      46.846  27.695  26.013  1.00  0.00     0.034 A 
ATOM     59  C   UNL A   1      41.733  30.064  29.302  1.00  0.00     0.049 A 
ATOM     60  C   UNL A   1      46.559  29.023  26.662  1.00  0.00     0.074 A 
ATOM     61  C   UNL A   1      41.591  31.315  29.874  1.00  0.00     0.029 A 
ATOM     62  N   UNL A   1      43.002  30.018  28.747  1.00  0.00    -0.354 N 
ATOM     63  N   UNL A   1      45.513  29.389  27.361  1.00  0.00    -0.248 NA
ATOM     64  C   UNL A   1      47.595  30.059  26.541  1.00  0.00     0.031 C 
ATOM     65  C   UNL A   1      42.778  32.027  29.666  1.00  0.00     0.029 A 
ATOM     66  C   UNL A   1      43.658  31.216  28.966  1.00  0.00     0.049 A 
ATOM     67  H   UNL A   1      43.381  29.246  28.268  1.00  0.00     0.167 HD
ATOM     68  C   UNL A   1      45.776  30.684  27.793  1.00  0.00     0.074 A 
ATOM     69  C   UNL A   1      47.093  31.029  27.295  1.00  0.00     0.031 C 
ATOM     70  C   UNL A   1      44.994  31.519  28.519  1.00  0.00     0.034 A 
BRANCH  57  71
ATOM     71  C   UNL A   1      39.432  29.196  29.891  1.00  0.00     0.023 A 
ATOM     72  C   UNL A   1      39.178  28.667  31.174  1.00  0.00     0.012 A 
ATOM     73  C   UNL A   1      38.434  29.949  29.244  1.00  0.00     0.148 A 
ATOM     74  C   UNL A   1      37.942  28.857  31.789  1.00  0.00     0.002 A 
ATOM     75  C   UNL A   1      37.216  30.166  29.881  1.00  0.00     0.091 A 
ATOM     76  F   UNL A   1      38.683  30.421  28.014  1.00  0.00    -0.205 F 
ATOM     77  C   UNL A   1      36.966  29.612  31.147  1.00  0.00     0.022 A 
BRANCH  75  78
ATOM     78  S   UNL A   1      35.923  31.184  29.162  1.00  0.00     0.127 S 
ATOM     79  O   UNL A   1      36.703  32.210  28.473  1.00  0.00    -0.237 OA
ATOM     80  O   UNL A   1      35.240  30.242  28.276  1.00  0.00    -0.237 OA
ATOM     81  O   UNL A   1      35.116  31.651  30.282  1.00  0.00    -0.744 OA
ENDBRANCH  75  78
ENDBRANCH  57  71
BRANCH  58  82
ATOM     82  C   UNL A   1      48.137  27.445  25.314  1.00  0.00     0.023 A 
ATOM     83  C   UNL A   1      49.233  26.959  26.053  1.00  0.00     0.012 A 
ATOM     84  C   UNL A   1      48.278  27.642  23.928  1.00  0.00     0.148 A 
ATOM     85  C   UNL A   1      50.454  26.700  25.430  1.00  0.00     0.002 A 
ATOM     86  C   UNL A   1      49.482  27.335  23.303  1.00  0.00     0.091 A 
ATOM     87  F   UNL A   1      47.229  28.120  23.242  1.00  0.00    -0.205 F 
ATOM     88  C   UNL A   1      50.576  26.878  24.055  1.00  0.00     0.022 A 
BRANCH  86  89
ATOM     89  S   UNL A   1      49.680  27.413  21.519  1.00  0.00     0.127 S 
ATOM     90  O   UNL A   1      49.547  28.844  21.264  1.00  0.00    -0.237 OA
ATOM     91  O   UNL A   1      51.030  26.877  21.335  1.00  0.00    -0.237 OA
ATOM     92  O   UNL A   1      48.626  26.564  20.979  1.00  0.00    -0.744 OA
ENDBRANCH  86  89
ENDBRANCH  58  82
BRANCH  70  93
ATOM     93  C   UNL A   1      45.542  32.882  28.844  1.00  0.00     0.023 A 
ATOM     94  C   UNL A   1      46.273  33.070  30.033  1.00  0.00     0.012 A 
ATOM     95  C   UNL A   1      45.400  33.954  27.941  1.00  0.00     0.148 A 
ATOM     96  C   UNL A   1      46.833  34.311  30.332  1.00  0.00     0.002 A 
ATOM     97  C   UNL A   1      45.996  35.177  28.226  1.00  0.00     0.091 A 
ATOM     98  F   UNL A   1      44.681  33.763  26.826  1.00  0.00    -0.205 F 
ATOM     99  C   UNL A   1      46.705  35.360  29.425  1.00  0.00     0.022 A 
BRANCH  97 100
ATOM    100  S   UNL A   1      45.951  36.547  27.064  1.00  0.00     0.127 S 
ATOM    101  O   UNL A   1      44.524  36.852  27.015  1.00  0.00    -0.237 OA
ATOM    102  O   UNL A   1      46.769  37.559  27.734  1.00  0.00    -0.237 OA
ATOM    103  O   UNL A   1      46.533  36.032  25.831  1.00  0.00    -0.744 OA
ENDBRANCH  97 100
ENDBRANCH  70  93
ENDBRANCH  44  45
ENDBRANCH  36  39
ENDBRANCH  34  35
ENDBRANCH  33  34
ENDBRANCH  32  33
ENDBRANCH   1  32
TORSDOF 20
ENDMDL
MODEL 3
REMARK VINA RESULT:     -12.4      2.584      7.847
REMARK SMILES CC(C)Cc1ccc(S(=O)(=O)Nc2cnc(N3CCCC3)c(C(=O)NCCCCNC(=O)c3ccc(-c4c5nc(c(-c6cccc(S(=O)(=O)[O-])c6F)c6ccc([nH]6)c(-c6cccc(S(=O)(=O)[O-])c6F)c6nc(c(-c7cccc(S(=O)(=O)[O-])c7F)c7ccc4[nH]7)C=C6)C=C5)cc3)c2)cc1
REMARK SMILES IDX 26 1 25 2 23 3 24 4 22 6 13 7 14 8 96 9 15 10 16 11 12 12
REMARK SMILES IDX 9 14 10 15 11 16 8 17 5 18 6 19 98 20 7 21 97 22 4 23 2 24
REMARK SMILES IDX 1 25 3 26 17 27 18 28 21 29 19 30 20 31 27 32 28 33 29 34
REMARK SMILES IDX 30 35 31 36 32 38 33 39 34 40 95 41 35 42 94 43 36 44 37 45
REMARK SMILES IDX 38 46 88 47 39 48 93 49 87 50 89 51 40 52 92 53 86 54 85 55
REMARK SMILES IDX 41 57 73 58 53 59 72 60 54 61 57 62 71 63 90 64 55 65 56 66
REMARK SMILES IDX 70 68 91 69 58 70 42 71 43 72 51 73 44 74 46 75 52 76 45 77
REMARK SMILES IDX 47 78 48 79 49 80 50 81 74 82 75 83 83 84 76 85 78 86 84 87
REMARK SMILES IDX 77 88 79 89 80 90 81 91 82 92 59 93 60 94 68 95 61 96 63 97
REMARK SMILES IDX 69 98 62 99 64 100 65 101 66 102 67 103
REMARK H PARENT 25 5 12 13 30 37 89 56 57 67
REMARK Flexibility Score: inf
ROOT
ATOM      1  C   UNL A   1      36.328  20.815  24.788  1.00  0.00     0.116 C 
ENDROOT
BRANCH   1   2
ATOM      2  N   UNL A   1      35.381  20.817  25.880  1.00  0.00    -0.352 N 
ATOM      3  C   UNL A   1      34.016  20.890  25.998  1.00  0.00     0.255 C 
ATOM      4  O   UNL A   1      33.645  20.829  27.170  1.00  0.00    -0.269 OA
ATOM      5  H   UNL A   1      35.826  20.749  26.755  1.00  0.00     0.163 HD
BRANCH   3   6
ATOM      6  C   UNL A   1      33.046  20.950  24.842  1.00  0.00     0.084 A 
ATOM      7  C   UNL A   1      32.053  22.286  23.088  1.00  0.00     0.068 A 
ATOM      8  C   UNL A   1      31.841  21.118  22.382  1.00  0.00     0.140 A 
ATOM      9  C   UNL A   1      32.526  22.174  24.387  1.00  0.00     0.046 A 
ATOM     10  N   UNL A   1      32.168  19.901  22.846  1.00  0.00    -0.236 NA
ATOM     11  C   UNL A   1      32.775  19.800  24.061  1.00  0.00     0.141 A 
BRANCH   7  12
ATOM     12  N   UNL A   1      31.732  23.521  22.439  1.00  0.00    -0.278 N 
ATOM     13  H   UNL A   1      30.810  23.683  22.135  1.00  0.00     0.180 HD
BRANCH  12  14
ATOM     14  S   UNL A   1      32.922  24.715  22.184  1.00  0.00     0.261 S 
ATOM     15  O   UNL A   1      32.421  25.468  21.042  1.00  0.00    -0.201 OA
ATOM     16  O   UNL A   1      34.188  24.032  22.114  1.00  0.00    -0.201 OA
BRANCH  14  17
ATOM     17  C   UNL A   1      33.000  25.860  23.542  1.00  0.00     0.087 A 
ATOM     18  C   UNL A   1      33.501  27.718  25.590  1.00  0.00    -0.048 A 
ATOM     19  C   UNL A   1      34.148  26.477  25.591  1.00  0.00     0.005 A 
ATOM     20  C   UNL A   1      32.558  27.992  24.588  1.00  0.00     0.005 A 
ATOM     21  C   UNL A   1      33.906  25.556  24.571  1.00  0.00     0.022 A 
ATOM     22  C   UNL A   1      32.287  27.058  23.579  1.00  0.00     0.022 A 
BRANCH  18  23
ATOM     23  C   UNL A   1      33.814  28.745  26.657  1.00  0.00     0.038 C 
BRANCH  23  24
ATOM     24  C   UNL A   1      32.564  29.403  27.270  1.00  0.00    -0.013 C 
ATOM     25  C   UNL A   1      31.927  30.419  26.317  1.00  0.00     0.008 C 
ATOM     26  C   UNL A   1      31.535  28.331  27.637  1.00  0.00     0.008 C 
ENDBRANCH  23  24
ENDBRANCH  18  23
ENDBRANCH  14  17
ENDBRANCH  12  14
ENDBRANCH   7  12
BRANCH  11  27
ATOM     27  N   UNL A   1      33.094  18.524  24.410  1.00  0.00    -0.356 N 
ATOM     28  C   UNL A   1      34.307  17.827  24.020  1.00  0.00     0.118 C 
ATOM     29  C   UNL A   1      32.387  17.817  25.464  1.00  0.00     0.118 C 
ATOM     30  C   UNL A   1      33.908  16.374  24.258  1.00  0.00     0.023 C 
ATOM     31  C   UNL A   1      33.105  16.466  25.551  1.00  0.00     0.023 C 
ENDBRANCH  11  27
ENDBRANCH   3   6
ENDBRANCH   1   2
BRANCH   1  32
ATOM     32  C   UNL A   1      37.405  19.759  25.012  1.00  0.00     0.023 C 
BRANCH  32  33
ATOM     33  C   UNL A   1      38.827  20.331  25.038  1.00  0.00     0.023 C 
BRANCH  33  34
ATOM     34  C   UNL A   1      39.611  20.054  26.318  1.00  0.00     0.116 C 
BRANCH  34  35
ATOM     35  N   UNL A   1      40.657  19.057  26.141  1.00  0.00    -0.352 N 
ATOM     36  C   UNL A   1      42.017  19.240  26.123  1.00  0.00     0.251 C 
ATOM     37  H   UNL A   1      40.349  18.130  26.018  1.00  0.00     0.163 HD
ATOM     38  O   UNL A   1      42.760  18.300  25.858  1.00  0.00    -0.269 OA
BRANCH  36  39
ATOM     39  C   UNL A   1      42.574  20.581  26.390  1.00  0.00     0.039 A 
ATOM     40  C   UNL A   1      42.974  21.368  25.308  1.00  0.00     0.014 A 
ATOM     41  C   UNL A   1      42.694  21.060  27.698  1.00  0.00     0.014 A 
ATOM     42  C   UNL A   1      43.455  22.658  25.535  1.00  0.00     0.010 A 
ATOM     43  C   UNL A   1      43.119  22.366  27.918  1.00  0.00     0.010 A 
ATOM     44  C   UNL A   1      43.512  23.173  26.840  1.00  0.00    -0.014 A 
BRANCH  44  45
ATOM     45  C   UNL A   1      43.989  24.555  27.092  1.00  0.00     0.031 A 
ATOM     46  C   UNL A   1      43.040  25.599  27.614  1.00  0.00     0.074 A 
ATOM     47  C   UNL A   1      45.256  24.887  26.780  1.00  0.00     0.049 A 
ATOM     48  N   UNL A   1      43.269  26.857  27.884  1.00  0.00    -0.248 NA
ATOM     49  C   UNL A   1      41.646  25.182  27.837  1.00  0.00     0.031 C 
ATOM     50  C   UNL A   1      46.243  23.987  26.179  1.00  0.00     0.029 A 
ATOM     51  N   UNL A   1      45.925  26.078  26.904  1.00  0.00    -0.354 N 
ATOM     52  C   UNL A   1      42.046  27.390  28.273  1.00  0.00     0.074 A 
ATOM     53  C   UNL A   1      41.070  26.327  28.173  1.00  0.00     0.031 C 
ATOM     54  C   UNL A   1      47.392  24.656  25.992  1.00  0.00     0.029 A 
ATOM     55  C   UNL A   1      47.222  26.033  26.449  1.00  0.00     0.049 A 
ATOM     56  H   UNL A   1      45.515  26.889  27.282  1.00  0.00     0.167 HD
ATOM     57  C   UNL A   1      41.767  28.641  28.710  1.00  0.00     0.034 A 
ATOM     58  C   UNL A   1      48.170  26.989  26.420  1.00  0.00     0.034 A 
ATOM     59  C   UNL A   1      42.753  29.676  28.868  1.00  0.00     0.049 A 
ATOM     60  C   UNL A   1      47.858  28.344  26.995  1.00  0.00     0.074 A 
ATOM     61  C   UNL A   1      42.591  30.946  29.392  1.00  0.00     0.029 A 
ATOM     62  N   UNL A   1      44.086  29.556  28.510  1.00  0.00    -0.354 N 
ATOM     63  N   UNL A   1      46.739  28.776  27.525  1.00  0.00    -0.248 NA
ATOM     64  C   UNL A   1      48.951  29.327  27.012  1.00  0.00     0.031 C 
ATOM     65  C   UNL A   1      43.830  31.596  29.351  1.00  0.00     0.029 A 
ATOM     66  C   UNL A   1      44.762  30.727  28.804  1.00  0.00     0.049 A 
ATOM     67  H   UNL A   1      44.492  28.756  28.106  1.00  0.00     0.167 HD
ATOM     68  C   UNL A   1      47.001  30.067  27.968  1.00  0.00     0.074 A 
ATOM     69  C   UNL A   1      48.392  30.337  27.666  1.00  0.00     0.031 C 
ATOM     70  C   UNL A   1      46.163  30.956  28.555  1.00  0.00     0.034 A 
BRANCH  57  71
ATOM     71  C   UNL A   1      40.350  28.932  29.124  1.00  0.00     0.023 A 
ATOM     72  C   UNL A   1      39.398  29.260  28.136  1.00  0.00     0.012 A 
ATOM     73  C   UNL A   1      39.945  28.838  30.469  1.00  0.00     0.148 A 
ATOM     74  C   UNL A   1      38.074  29.523  28.483  1.00  0.00     0.002 A 
ATOM     75  C   UNL A   1      38.613  29.064  30.802  1.00  0.00     0.091 A 
ATOM     76  F   UNL A   1      40.868  28.551  31.399  1.00  0.00    -0.205 F 
ATOM     77  C   UNL A   1      37.681  29.416  29.813  1.00  0.00     0.022 A 
BRANCH  75  78
ATOM     78  S   UNL A   1      37.997  28.882  32.480  1.00  0.00     0.127 S 
ATOM     79  O   UNL A   1      38.858  29.809  33.213  1.00  0.00    -0.237 OA
ATOM     80  O   UNL A   1      36.606  29.317  32.351  1.00  0.00    -0.237 OA
ATOM     81  O   UNL A   1      38.160  27.473  32.812  1.00  0.00    -0.744 OA
ENDBRANCH  75  78
ENDBRANCH  57  71
BRANCH  58  82
ATOM     82  C   UNL A   1      49.537  26.661  25.925  1.00  0.00     0.023 A 
ATOM     83  C   UNL A   1      50.386  25.875  26.728  1.00  0.00     0.012 A 
ATOM     84  C   UNL A   1      49.985  27.081  24.659  1.00  0.00     0.148 A 
ATOM     85  C   UNL A   1      51.667  25.537  26.292  1.00  0.00     0.002 A 
ATOM     86  C   UNL A   1      51.245  26.699  24.209  1.00  0.00     0.091 A 
ATOM     87  F   UNL A   1      49.170  27.842  23.913  1.00  0.00    -0.205 F 
ATOM     88  C   UNL A   1      52.093  25.939  25.030  1.00  0.00     0.022 A 
BRANCH  86  89
ATOM     89  S   UNL A   1      51.816  27.066  22.545  1.00  0.00     0.127 S 
ATOM     90  O   UNL A   1      52.910  26.113  22.386  1.00  0.00    -0.237 OA
ATOM     91  O   UNL A   1      50.627  26.781  21.741  1.00  0.00    -0.237 OA
ATOM     92  O   UNL A   1      52.191  28.474  22.571  1.00  0.00    -0.744 OA
ENDBRANCH  86  89
ENDBRANCH  58  82
BRANCH  70  93
ATOM     93  C   UNL A   1      46.725  32.299  28.935  1.00  0.00     0.023 A 
ATOM     94  C   UNL A   1      47.334  32.465  30.193  1.00  0.00     0.012 A 
ATOM     95  C   UNL A   1      46.718  33.372  28.022  1.00  0.00     0.148 A 
ATOM     96  C   UNL A   1      47.906  33.686  30.548  1.00  0.00     0.002 A 
ATOM     97  C   UNL A   1      47.326  34.573  28.366  1.00  0.00     0.091 A 
ATOM     98  F   UNL A   1      46.112  33.203  26.838  1.00  0.00    -0.205 F 
ATOM     99  C   UNL A   1      47.913  34.735  29.633  1.00  0.00     0.022 A 
BRANCH  97 100
ATOM    100  S   UNL A   1      47.454  35.938  27.205  1.00  0.00     0.127 S 
ATOM    101  O   UNL A   1      48.159  35.316  26.088  1.00  0.00    -0.237 OA
ATOM    102  O   UNL A   1      46.052  36.261  26.938  1.00  0.00    -0.237 OA
ATOM    103  O   UNL A   1      48.182  36.984  27.912  1.00  0.00    -0.744 OA
ENDBRANCH  97 100
ENDBRANCH  70  93
ENDBRANCH  44  45
ENDBRANCH  36  39
ENDBRANCH  34  35
ENDBRANCH  33  34
ENDBRANCH  32  33
ENDBRANCH   1  32
TORSDOF 20
ENDMDL
