MODEL 1
REMARK VINA RESULT:     -11.7      0.000      0.000
REMARK SMILES Cc1cc(=O)c(Oc2ccc(C(=O)NCCCCNC(=O)c3ccc(-c4c5nc(c(-c6cccc(S(=O)(=O)[O-])c6F)c6ccc([nH]6)c(-c6cccc(S(=O)(=O)[O-])c6F)c6nc(c(-c7cccc(S(=O)(=O)[O-])c7F)c7ccc4[nH]7)C=C6)C=C5)cc3)cc2)c(-c2ccc(S(C)(=O)=O)cc2)o1
REMARK SMILES IDX 16 1 15 2 14 3 12 4 13 5 11 7 8 8 9 9 86 10 10 11 85 12 7 13
REMARK SMILES IDX 6 14 1 15 2 16 3 17 98 18 4 19 87 20 5 21 88 22 89 23 97 24
REMARK SMILES IDX 90 25 96 26 91 27 92 28 93 29 94 30 95 31 17 32 18 33 19 34
REMARK SMILES IDX 20 35 21 37 22 38 23 39 84 40 24 41 83 42 25 43 26 44 27 45
REMARK SMILES IDX 77 46 28 47 82 48 76 49 78 50 29 51 81 52 75 53 74 54 30 56
REMARK SMILES IDX 62 57 42 58 61 59 43 60 46 61 60 62 79 63 44 64 45 65 59 67
REMARK SMILES IDX 80 68 47 69 31 70 32 71 40 72 33 73 35 74 41 75 34 76 36 77
REMARK SMILES IDX 37 78 38 79 39 80 63 81 64 82 72 83 65 84 67 85 73 86 66 87
REMARK SMILES IDX 68 88 69 89 70 90 71 91 48 92 49 93 57 94 50 95 52 96 58 97
REMARK SMILES IDX 51 98 53 99 54 100 55 101 56 102
REMARK H PARENT 14 6 19 36 78 55 46 66
REMARK Flexibility Score: inf
ROOT
ATOM      1  C   UNL A   1      36.615  23.194  24.289  1.00  0.00     0.023 C 
ENDROOT
BRANCH   1   2
ATOM      2  C   UNL A   1      35.389  23.230  23.384  1.00  0.00     0.116 C 
BRANCH   2   3
ATOM      3  N   UNL A   1      34.443  22.140  23.527  1.00  0.00    -0.352 N 
ATOM      4  C   UNL A   1      33.131  22.029  23.113  1.00  0.00     0.251 C 
ATOM      5  O   UNL A   1      32.562  20.943  23.197  1.00  0.00    -0.269 OA
ATOM      6  H   UNL A   1      34.794  21.350  23.998  1.00  0.00     0.163 HD
BRANCH   4   7
ATOM      7  C   UNL A   1      32.341  23.221  22.698  1.00  0.00     0.040 A 
ATOM      8  C   UNL A   1      31.048  25.677  22.648  1.00  0.00     0.127 A 
ATOM      9  C   UNL A   1      30.375  24.570  23.151  1.00  0.00     0.048 A 
ATOM     10  C   UNL A   1      32.236  25.505  21.940  1.00  0.00     0.048 A 
ATOM     11  C   UNL A   1      31.043  23.345  23.217  1.00  0.00     0.017 A 
ATOM     12  C   UNL A   1      32.861  24.259  21.927  1.00  0.00     0.017 A 
BRANCH   8  13
ATOM     13  O   UNL A   1      30.563  26.946  22.748  1.00  0.00    -0.449 OA
BRANCH  13  14
ATOM     14  C   UNL A   1      30.939  27.838  23.746  1.00  0.00     0.217 A 
ATOM     15  C   UNL A   1      31.702  30.989  26.612  1.00  0.00     0.088 C 
ATOM     16  C   UNL A   1      31.428  29.993  25.532  1.00  0.00     0.105 A 
ATOM     17  C   UNL A   1      30.911  30.323  24.347  1.00  0.00     0.098 A 
ATOM     18  O   UNL A   1      31.769  28.699  25.853  1.00  0.00    -0.457 OA
ATOM     19  C   UNL A   1      30.648  29.261  23.366  1.00  0.00     0.228 A 
ATOM     20  C   UNL A   1      31.532  27.659  24.958  1.00  0.00     0.180 A 
ATOM     21  O   UNL A   1      30.196  29.569  22.266  1.00  0.00    -0.285 OA
BRANCH  20  22
ATOM     22  C   UNL A   1      31.997  26.396  25.565  1.00  0.00     0.021 A 
ATOM     23  C   UNL A   1      31.107  25.638  26.347  1.00  0.00     0.013 A 
ATOM     24  C   UNL A   1      33.319  25.956  25.419  1.00  0.00     0.013 A 
ATOM     25  C   UNL A   1      31.505  24.419  26.903  1.00  0.00     0.021 A 
ATOM     26  C   UNL A   1      33.728  24.744  25.988  1.00  0.00     0.021 A 
ATOM     27  C   UNL A   1      32.815  23.975  26.715  1.00  0.00     0.067 A 
BRANCH  27  28
ATOM     28  S   UNL A   1      33.280  22.367  27.324  1.00  0.00     0.175 S 
ATOM     29  C   UNL A   1      35.028  22.507  27.576  1.00  0.00     0.163 C 
ATOM     30  O   UNL A   1      32.657  22.210  28.622  1.00  0.00    -0.224 OA
ATOM     31  O   UNL A   1      33.061  21.410  26.254  1.00  0.00    -0.224 OA
ENDBRANCH  27  28
ENDBRANCH  20  22
ENDBRANCH  13  14
ENDBRANCH   8  13
ENDBRANCH   4   7
ENDBRANCH   2   3
ENDBRANCH   1   2
BRANCH   1  32
ATOM     32  C   UNL A   1      37.231  21.834  24.573  1.00  0.00     0.023 C 
BRANCH  32  33
ATOM     33  C   UNL A   1      38.368  21.816  25.581  1.00  0.00     0.116 C 
BRANCH  33  34
ATOM     34  N   UNL A   1      39.069  20.540  25.671  1.00  0.00    -0.352 N 
ATOM     35  C   UNL A   1      40.351  20.271  26.105  1.00  0.00     0.251 C 
ATOM     36  H   UNL A   1      38.551  19.754  25.382  1.00  0.00     0.163 HD
ATOM     37  O   UNL A   1      40.792  19.127  26.054  1.00  0.00    -0.269 OA
BRANCH  35  38
ATOM     38  C   UNL A   1      41.206  21.387  26.565  1.00  0.00     0.039 A 
ATOM     39  C   UNL A   1      41.244  21.730  27.916  1.00  0.00     0.014 A 
ATOM     40  C   UNL A   1      41.872  22.171  25.621  1.00  0.00     0.014 A 
ATOM     41  C   UNL A   1      41.715  22.984  28.284  1.00  0.00     0.010 A 
ATOM     42  C   UNL A   1      42.451  23.380  26.016  1.00  0.00     0.010 A 
ATOM     43  C   UNL A   1      42.303  23.838  27.335  1.00  0.00    -0.014 A 
BRANCH  43  44
ATOM     44  C   UNL A   1      42.713  25.210  27.732  1.00  0.00     0.031 A 
ATOM     45  C   UNL A   1      41.705  26.193  28.282  1.00  0.00     0.074 A 
ATOM     46  C   UNL A   1      44.009  25.567  27.642  1.00  0.00     0.049 A 
ATOM     47  N   UNL A   1      41.885  27.437  28.646  1.00  0.00    -0.248 NA
ATOM     48  C   UNL A   1      40.318  25.722  28.446  1.00  0.00     0.031 C 
ATOM     49  C   UNL A   1      45.086  24.710  27.139  1.00  0.00     0.029 A 
ATOM     50  N   UNL A   1      44.646  26.735  27.978  1.00  0.00    -0.354 N 
ATOM     51  C   UNL A   1      40.636  27.910  29.032  1.00  0.00     0.074 A 
ATOM     52  C   UNL A   1      39.700  26.822  28.859  1.00  0.00     0.031 C 
ATOM     53  C   UNL A   1      46.251  25.367  27.231  1.00  0.00     0.029 A 
ATOM     54  C   UNL A   1      45.998  26.712  27.733  1.00  0.00     0.049 A 
ATOM     55  H   UNL A   1      44.178  27.513  28.358  1.00  0.00     0.167 HD
ATOM     56  C   UNL A   1      40.301  29.134  29.505  1.00  0.00     0.034 A 
ATOM     57  C   UNL A   1      46.933  27.671  27.869  1.00  0.00     0.034 A 
ATOM     58  C   UNL A   1      41.240  30.200  29.734  1.00  0.00     0.049 A 
ATOM     59  C   UNL A   1      46.532  29.023  28.377  1.00  0.00     0.074 A 
ATOM     60  C   UNL A   1      40.994  31.459  30.253  1.00  0.00     0.029 A 
ATOM     61  N   UNL A   1      42.597  30.133  29.467  1.00  0.00    -0.354 N 
ATOM     62  N   UNL A   1      45.354  29.432  28.780  1.00  0.00    -0.248 NA
ATOM     63  C   UNL A   1      47.586  30.043  28.459  1.00  0.00     0.031 C 
ATOM     64  C   UNL A   1      42.202  32.162  30.282  1.00  0.00     0.029 A 
ATOM     65  C   UNL A   1      43.202  31.333  29.802  1.00  0.00     0.049 A 
ATOM     66  H   UNL A   1      43.063  29.350  29.094  1.00  0.00     0.167 HD
ATOM     67  C   UNL A   1      45.527  30.752  29.177  1.00  0.00     0.074 A 
ATOM     68  C   UNL A   1      46.928  31.068  28.984  1.00  0.00     0.031 C 
ATOM     69  C   UNL A   1      44.602  31.624  29.644  1.00  0.00     0.034 A 
BRANCH  56  70
ATOM     70  C   UNL A   1      38.861  29.396  29.858  1.00  0.00     0.023 A 
ATOM     71  C   UNL A   1      38.415  29.147  31.170  1.00  0.00     0.012 A 
ATOM     72  C   UNL A   1      37.990  30.000  28.930  1.00  0.00     0.148 A 
ATOM     73  C   UNL A   1      37.118  29.489  31.553  1.00  0.00     0.002 A 
ATOM     74  C   UNL A   1      36.709  30.365  29.328  1.00  0.00     0.091 A 
ATOM     75  F   UNL A   1      38.437  30.221  27.686  1.00  0.00    -0.205 F 
ATOM     76  C   UNL A   1      36.271  30.108  30.637  1.00  0.00     0.022 A 
BRANCH  74  77
ATOM     77  S   UNL A   1      35.555  31.214  28.244  1.00  0.00     0.127 S 
ATOM     78  O   UNL A   1      36.328  32.396  27.859  1.00  0.00    -0.237 OA
ATOM     79  O   UNL A   1      35.364  30.237  27.173  1.00  0.00    -0.237 OA
ATOM     80  O   UNL A   1      34.370  31.487  29.046  1.00  0.00    -0.744 OA
ENDBRANCH  74  77
ENDBRANCH  56  70
BRANCH  57  81
ATOM     81  C   UNL A   1      48.346  27.357  27.531  1.00  0.00     0.023 A 
ATOM     82  C   UNL A   1      49.156  26.716  28.485  1.00  0.00     0.012 A 
ATOM     83  C   UNL A   1      48.858  27.612  26.244  1.00  0.00     0.148 A 
ATOM     84  C   UNL A   1      50.459  26.337  28.166  1.00  0.00     0.002 A 
ATOM     85  C   UNL A   1      50.142  27.195  25.919  1.00  0.00     0.091 A 
ATOM     86  F   UNL A   1      48.062  28.222  25.355  1.00  0.00    -0.205 F 
ATOM     87  C   UNL A   1      50.948  26.566  26.881  1.00  0.00     0.022 A 
BRANCH  85  88
ATOM     88  S   UNL A   1      50.824  27.354  24.266  1.00  0.00     0.127 S 
ATOM     89  O   UNL A   1      52.074  26.606  24.386  1.00  0.00    -0.237 OA
ATOM     90  O   UNL A   1      49.793  26.706  23.455  1.00  0.00    -0.237 OA
ATOM     91  O   UNL A   1      50.973  28.784  24.031  1.00  0.00    -0.744 OA
ENDBRANCH  85  88
ENDBRANCH  57  81
BRANCH  69  92
ATOM     92  C   UNL A   1      45.058  33.012  29.995  1.00  0.00     0.023 A 
ATOM     93  C   UNL A   1      45.600  33.261  31.270  1.00  0.00     0.012 A 
ATOM     94  C   UNL A   1      45.054  34.036  29.027  1.00  0.00     0.148 A 
ATOM     95  C   UNL A   1      46.125  34.514  31.582  1.00  0.00     0.002 A 
ATOM     96  C   UNL A   1      45.610  35.272  29.334  1.00  0.00     0.091 A 
ATOM     97  F   UNL A   1      44.526  33.774  27.823  1.00  0.00    -0.205 F 
ATOM     98  C   UNL A   1      46.141  35.514  30.612  1.00  0.00     0.022 A 
BRANCH  96  99
ATOM     99  S   UNL A   1      45.739  36.601  28.133  1.00  0.00     0.127 S 
ATOM    100  O   UNL A   1      44.332  36.901  27.869  1.00  0.00    -0.237 OA
ATOM    101  O   UNL A   1      46.450  37.632  28.890  1.00  0.00    -0.237 OA
ATOM    102  O   UNL A   1      46.479  36.057  27.003  1.00  0.00    -0.744 OA
ENDBRANCH  96  99
ENDBRANCH  69  92
ENDBRANCH  43  44
ENDBRANCH  35  38
ENDBRANCH  33  34
ENDBRANCH  32  33
ENDBRANCH   1  32
TORSDOF 18
ENDMDL
MODEL 2
REMARK VINA RESULT:     -11.2      1.529      7.330
REMARK SMILES Cc1cc(=O)c(Oc2ccc(C(=O)NCCCCNC(=O)c3ccc(-c4c5nc(c(-c6cccc(S(=O)(=O)[O-])c6F)c6ccc([nH]6)c(-c6cccc(S(=O)(=O)[O-])c6F)c6nc(c(-c7cccc(S(=O)(=O)[O-])c7F)c7ccc4[nH]7)C=C6)C=C5)cc3)cc2)c(-c2ccc(S(C)(=O)=O)cc2)o1
REMARK SMILES IDX 16 1 15 2 14 3 12 4 13 5 11 7 8 8 9 9 86 10 10 11 85 12 7 13
REMARK SMILES IDX 6 14 1 15 2 16 3 17 98 18 4 19 87 20 5 21 88 22 89 23 97 24
REMARK SMILES IDX 90 25 96 26 91 27 92 28 93 29 94 30 95 31 17 32 18 33 19 34
REMARK SMILES IDX 20 35 21 37 22 38 23 39 84 40 24 41 83 42 25 43 26 44 27 45
REMARK SMILES IDX 77 46 28 47 82 48 76 49 78 50 29 51 81 52 75 53 74 54 30 56
REMARK SMILES IDX 62 57 42 58 61 59 43 60 46 61 60 62 79 63 44 64 45 65 59 67
REMARK SMILES IDX 80 68 47 69 31 70 32 71 40 72 33 73 35 74 41 75 34 76 36 77
REMARK SMILES IDX 37 78 38 79 39 80 63 81 64 82 72 83 65 84 67 85 73 86 66 87
REMARK SMILES IDX 68 88 69 89 70 90 71 91 48 92 49 93 57 94 50 95 52 96 58 97
REMARK SMILES IDX 51 98 53 99 54 100 55 101 56 102
REMARK H PARENT 14 6 19 36 78 55 46 66
REMARK Flexibility Score: inf
ROOT
ATOM      1  C   UNL A   1      37.372  22.599  24.390  1.00  0.00     0.023 C 
ENDROOT
BRANCH   1   2
ATOM      2  C   UNL A   1      36.424  22.956  23.251  1.00  0.00     0.116 C 
BRANCH   2   3
ATOM      3  N   UNL A   1      35.097  22.370  23.301  1.00  0.00    -0.352 N 
ATOM      4  C   UNL A   1      33.880  22.868  22.882  1.00  0.00     0.251 C 
ATOM      5  O   UNL A   1      32.897  22.128  22.872  1.00  0.00    -0.269 OA
ATOM      6  H   UNL A   1      35.059  21.471  23.701  1.00  0.00     0.163 HD
BRANCH   4   7
ATOM      7  C   UNL A   1      33.692  24.311  22.574  1.00  0.00     0.040 A 
ATOM      8  C   UNL A   1      32.609  26.843  22.216  1.00  0.00     0.127 A 
ATOM      9  C   UNL A   1      32.529  25.921  21.179  1.00  0.00     0.048 A 
ATOM     10  C   UNL A   1      33.445  26.595  23.302  1.00  0.00     0.048 A 
ATOM     11  C   UNL A   1      33.035  24.635  21.377  1.00  0.00     0.017 A 
ATOM     12  C   UNL A   1      34.027  25.337  23.456  1.00  0.00     0.017 A 
BRANCH   8  13
ATOM     13  O   UNL A   1      31.954  28.037  22.197  1.00  0.00    -0.449 OA
BRANCH  13  14
ATOM     14  C   UNL A   1      30.619  28.190  22.558  1.00  0.00     0.217 A 
ATOM     15  C   UNL A   1      26.413  28.992  23.179  1.00  0.00     0.088 C 
ATOM     16  C   UNL A   1      27.877  28.838  22.922  1.00  0.00     0.105 A 
ATOM     17  C   UNL A   1      28.579  29.679  22.159  1.00  0.00     0.098 A 
ATOM     18  O   UNL A   1      28.452  27.757  23.552  1.00  0.00    -0.457 OA
ATOM     19  C   UNL A   1      30.009  29.416  21.943  1.00  0.00     0.228 A 
ATOM     20  C   UNL A   1      29.802  27.465  23.370  1.00  0.00     0.180 A 
ATOM     21  O   UNL A   1      30.660  30.204  21.263  1.00  0.00    -0.285 OA
BRANCH  20  22
ATOM     22  C   UNL A   1      30.138  26.265  24.161  1.00  0.00     0.021 A 
ATOM     23  C   UNL A   1      30.594  26.416  25.483  1.00  0.00     0.013 A 
ATOM     24  C   UNL A   1      30.057  24.979  23.611  1.00  0.00     0.013 A 
ATOM     25  C   UNL A   1      30.882  25.299  26.271  1.00  0.00     0.021 A 
ATOM     26  C   UNL A   1      30.361  23.857  24.391  1.00  0.00     0.021 A 
ATOM     27  C   UNL A   1      30.758  24.021  25.720  1.00  0.00     0.067 A 
BRANCH  27  28
ATOM     28  S   UNL A   1      31.012  22.600  26.765  1.00  0.00     0.175 S 
ATOM     29  C   UNL A   1      32.601  22.895  27.489  1.00  0.00     0.163 C 
ATOM     30  O   UNL A   1      30.024  22.672  27.822  1.00  0.00    -0.224 OA
ATOM     31  O   UNL A   1      31.124  21.436  25.906  1.00  0.00    -0.224 OA
ENDBRANCH  27  28
ENDBRANCH  20  22
ENDBRANCH  13  14
ENDBRANCH   8  13
ENDBRANCH   4   7
ENDBRANCH   2   3
ENDBRANCH   1   2
BRANCH   1  32
ATOM     32  C   UNL A   1      37.605  21.123  24.665  1.00  0.00     0.023 C 
BRANCH  32  33
ATOM     33  C   UNL A   1      38.202  20.785  26.021  1.00  0.00     0.116 C 
BRANCH  33  34
ATOM     34  N   UNL A   1      39.515  20.152  25.957  1.00  0.00    -0.352 N 
ATOM     35  C   UNL A   1      40.738  20.623  26.388  1.00  0.00     0.251 C 
ATOM     36  H   UNL A   1      39.531  19.257  25.548  1.00  0.00     0.163 HD
ATOM     37  O   UNL A   1      41.756  19.964  26.196  1.00  0.00    -0.269 OA
BRANCH  35  38
ATOM     38  C   UNL A   1      40.815  21.958  27.022  1.00  0.00     0.039 A 
ATOM     39  C   UNL A   1      40.144  23.042  26.458  1.00  0.00     0.014 A 
ATOM     40  C   UNL A   1      41.668  22.147  28.112  1.00  0.00     0.014 A 
ATOM     41  C   UNL A   1      40.525  24.331  26.807  1.00  0.00     0.010 A 
ATOM     42  C   UNL A   1      41.958  23.445  28.540  1.00  0.00     0.010 A 
ATOM     43  C   UNL A   1      41.456  24.551  27.836  1.00  0.00    -0.014 A 
BRANCH  43  44
ATOM     44  C   UNL A   1      41.918  25.934  28.128  1.00  0.00     0.031 A 
ATOM     45  C   UNL A   1      43.299  26.392  27.718  1.00  0.00     0.074 A 
ATOM     46  C   UNL A   1      41.078  26.801  28.725  1.00  0.00     0.049 A 
ATOM     47  N   UNL A   1      43.873  27.550  27.923  1.00  0.00    -0.248 NA
ATOM     48  C   UNL A   1      44.144  25.433  26.986  1.00  0.00     0.031 C 
ATOM     49  C   UNL A   1      39.714  26.490  29.161  1.00  0.00     0.029 A 
ATOM     50  N   UNL A   1      41.239  28.122  29.060  1.00  0.00    -0.354 N 
ATOM     51  C   UNL A   1      45.155  27.444  27.393  1.00  0.00     0.074 A 
ATOM     52  C   UNL A   1      45.280  26.107  26.857  1.00  0.00     0.031 C 
ATOM     53  C   UNL A   1      39.153  27.594  29.673  1.00  0.00     0.029 A 
ATOM     54  C   UNL A   1      40.135  28.672  29.667  1.00  0.00     0.049 A 
ATOM     55  H   UNL A   1      42.066  28.626  28.883  1.00  0.00     0.167 HD
ATOM     56  C   UNL A   1      46.132  28.379  27.342  1.00  0.00     0.034 A 
ATOM     57  C   UNL A   1      39.936  29.897  30.187  1.00  0.00     0.034 A 
ATOM     58  C   UNL A   1      45.990  29.728  27.822  1.00  0.00     0.049 A 
ATOM     59  C   UNL A   1      41.041  30.908  30.133  1.00  0.00     0.074 A 
ATOM     60  C   UNL A   1      46.916  30.756  27.770  1.00  0.00     0.029 A 
ATOM     61  N   UNL A   1      44.857  30.237  28.432  1.00  0.00    -0.354 N 
ATOM     62  N   UNL A   1      42.227  30.800  29.586  1.00  0.00    -0.248 NA
ATOM     63  C   UNL A   1      40.782  32.212  30.759  1.00  0.00     0.031 C 
ATOM     64  C   UNL A   1      46.348  31.884  28.367  1.00  0.00     0.029 A 
ATOM     65  C   UNL A   1      45.062  31.565  28.771  1.00  0.00     0.049 A 
ATOM     66  H   UNL A   1      44.029  29.733  28.601  1.00  0.00     0.167 HD
ATOM     67  C   UNL A   1      42.851  32.024  29.787  1.00  0.00     0.074 A 
ATOM     68  C   UNL A   1      41.905  32.867  30.491  1.00  0.00     0.031 C 
ATOM     69  C   UNL A   1      44.101  32.405  29.434  1.00  0.00     0.034 A 
BRANCH  56  70
ATOM     70  C   UNL A   1      47.445  28.008  26.705  1.00  0.00     0.023 A 
ATOM     71  C   UNL A   1      48.523  27.614  27.521  1.00  0.00     0.012 A 
ATOM     72  C   UNL A   1      47.569  27.932  25.304  1.00  0.00     0.148 A 
ATOM     73  C   UNL A   1      49.711  27.156  26.951  1.00  0.00     0.002 A 
ATOM     74  C   UNL A   1      48.746  27.445  24.744  1.00  0.00     0.091 A 
ATOM     75  F   UNL A   1      46.531  28.318  24.549  1.00  0.00    -0.205 F 
ATOM     76  C   UNL A   1      49.818  27.060  25.566  1.00  0.00     0.022 A 
BRANCH  74  77
ATOM     77  S   UNL A   1      48.970  27.232  22.975  1.00  0.00     0.127 S 
ATOM     78  O   UNL A   1      50.429  27.191  22.866  1.00  0.00    -0.237 OA
ATOM     79  O   UNL A   1      48.304  25.953  22.733  1.00  0.00    -0.237 OA
ATOM     80  O   UNL A   1      48.338  28.383  22.344  1.00  0.00    -0.744 OA
ENDBRANCH  74  77
ENDBRANCH  56  70
BRANCH  57  81
ATOM     81  C   UNL A   1      38.614  30.224  30.783  1.00  0.00     0.023 A 
ATOM     82  C   UNL A   1      38.359  29.880  32.123  1.00  0.00     0.012 A 
ATOM     83  C   UNL A   1      37.648  30.945  30.056  1.00  0.00     0.148 A 
ATOM     84  C   UNL A   1      37.159  30.248  32.730  1.00  0.00     0.002 A 
ATOM     85  C   UNL A   1      36.473  31.344  30.678  1.00  0.00     0.091 A 
ATOM     86  F   UNL A   1      37.920  31.260  28.781  1.00  0.00    -0.205 F 
ATOM     87  C   UNL A   1      36.222  30.988  32.013  1.00  0.00     0.022 A 
BRANCH  85  88
ATOM     88  S   UNL A   1      35.251  32.384  29.871  1.00  0.00     0.127 S 
ATOM     89  O   UNL A   1      34.304  32.629  30.956  1.00  0.00    -0.237 OA
ATOM     90  O   UNL A   1      36.056  33.541  29.481  1.00  0.00    -0.237 OA
ATOM     91  O   UNL A   1      34.734  31.600  28.757  1.00  0.00    -0.744 OA
ENDBRANCH  85  88
ENDBRANCH  57  81
BRANCH  69  92
ATOM     92  C   UNL A   1      44.537  33.800  29.786  1.00  0.00     0.023 A 
ATOM     93  C   UNL A   1      45.135  34.043  31.037  1.00  0.00     0.012 A 
ATOM     94  C   UNL A   1      44.458  34.838  28.837  1.00  0.00     0.148 A 
ATOM     95  C   UNL A   1      45.641  35.305  31.344  1.00  0.00     0.002 A 
ATOM     96  C   UNL A   1      44.996  36.084  29.137  1.00  0.00     0.091 A 
ATOM     97  F   UNL A   1      43.878  34.581  27.656  1.00  0.00    -0.205 F 
ATOM     98  C   UNL A   1      45.583  36.321  30.391  1.00  0.00     0.022 A 
BRANCH  96  99
ATOM     99  S   UNL A   1      45.030  37.435  27.954  1.00  0.00     0.127 S 
ATOM    100  O   UNL A   1      46.433  37.846  28.013  1.00  0.00    -0.237 OA
ATOM    101  O   UNL A   1      44.642  36.767  26.712  1.00  0.00    -0.237 OA
ATOM    102  O   UNL A   1      44.076  38.423  28.438  1.00  0.00    -0.744 OA
ENDBRANCH  96  99
ENDBRANCH  69  92
ENDBRANCH  43  44
ENDBRANCH  35  38
ENDBRANCH  33  34
ENDBRANCH  32  33
ENDBRANCH   1  32
TORSDOF 18
ENDMDL
MODEL 3
REMARK VINA RESULT:     -11.0      1.604      2.115
REMARK SMILES Cc1cc(=O)c(Oc2ccc(C(=O)NCCCCNC(=O)c3ccc(-c4c5nc(c(-c6cccc(S(=O)(=O)[O-])c6F)c6ccc([nH]6)c(-c6cccc(S(=O)(=O)[O-])c6F)c6nc(c(-c7cccc(S(=O)(=O)[O-])c7F)c7ccc4[nH]7)C=C6)C=C5)cc3)cc2)c(-c2ccc(S(C)(=O)=O)cc2)o1
REMARK SMILES IDX 16 1 15 2 14 3 12 4 13 5 11 7 8 8 9 9 86 10 10 11 85 12 7 13
REMARK SMILES IDX 6 14 1 15 2 16 3 17 98 18 4 19 87 20 5 21 88 22 89 23 97 24
REMARK SMILES IDX 90 25 96 26 91 27 92 28 93 29 94 30 95 31 17 32 18 33 19 34
REMARK SMILES IDX 20 35 21 37 22 38 23 39 84 40 24 41 83 42 25 43 26 44 27 45
REMARK SMILES IDX 77 46 28 47 82 48 76 49 78 50 29 51 81 52 75 53 74 54 30 56
REMARK SMILES IDX 62 57 42 58 61 59 43 60 46 61 60 62 79 63 44 64 45 65 59 67
REMARK SMILES IDX 80 68 47 69 31 70 32 71 40 72 33 73 35 74 41 75 34 76 36 77
REMARK SMILES IDX 37 78 38 79 39 80 63 81 64 82 72 83 65 84 67 85 73 86 66 87
REMARK SMILES IDX 68 88 69 89 70 90 71 91 48 92 49 93 57 94 50 95 52 96 58 97
REMARK SMILES IDX 51 98 53 99 54 100 55 101 56 102
REMARK H PARENT 14 6 19 36 78 55 46 66
REMARK Flexibility Score: inf
ROOT
ATOM      1  C   UNL A   1      37.346  22.666  24.602  1.00  0.00     0.023 C 
ENDROOT
BRANCH   1   2
ATOM      2  C   UNL A   1      36.370  23.315  23.628  1.00  0.00     0.116 C 
BRANCH   2   3
ATOM      3  N   UNL A   1      35.144  22.589  23.354  1.00  0.00    -0.352 N 
ATOM      4  C   UNL A   1      33.990  22.986  22.709  1.00  0.00     0.251 C 
ATOM      5  O   UNL A   1      33.130  22.149  22.442  1.00  0.00    -0.269 OA
ATOM      6  H   UNL A   1      35.134  21.661  23.682  1.00  0.00     0.163 HD
BRANCH   4   7
ATOM      7  C   UNL A   1      33.695  24.422  22.453  1.00  0.00     0.040 A 
ATOM      8  C   UNL A   1      32.429  26.879  22.193  1.00  0.00     0.127 A 
ATOM      9  C   UNL A   1      32.402  25.990  21.126  1.00  0.00     0.048 A 
ATOM     10  C   UNL A   1      33.295  26.656  23.261  1.00  0.00     0.048 A 
ATOM     11  C   UNL A   1      33.002  24.737  21.275  1.00  0.00     0.017 A 
ATOM     12  C   UNL A   1      33.967  25.440  23.366  1.00  0.00     0.017 A 
BRANCH   8  13
ATOM     13  O   UNL A   1      31.690  28.023  22.221  1.00  0.00    -0.449 OA
BRANCH  13  14
ATOM     14  C   UNL A   1      30.368  28.077  22.649  1.00  0.00     0.217 A 
ATOM     15  C   UNL A   1      26.151  28.565  23.485  1.00  0.00     0.088 C 
ATOM     16  C   UNL A   1      27.608  28.519  23.155  1.00  0.00     0.105 A 
ATOM     17  C   UNL A   1      28.207  29.413  22.365  1.00  0.00     0.098 A 
ATOM     18  O   UNL A   1      28.291  27.481  23.746  1.00  0.00    -0.457 OA
ATOM     19  C   UNL A   1      29.639  29.257  22.076  1.00  0.00     0.228 A 
ATOM     20  C   UNL A   1      29.648  27.289  23.494  1.00  0.00     0.180 A 
ATOM     21  O   UNL A   1      30.196  30.095  21.371  1.00  0.00    -0.285 OA
BRANCH  20  22
ATOM     22  C   UNL A   1      30.109  26.113  24.258  1.00  0.00     0.021 A 
ATOM     23  C   UNL A   1      30.149  24.855  23.629  1.00  0.00     0.013 A 
ATOM     24  C   UNL A   1      30.467  26.211  25.609  1.00  0.00     0.013 A 
ATOM     25  C   UNL A   1      30.618  23.730  24.313  1.00  0.00     0.021 A 
ATOM     26  C   UNL A   1      30.921  25.084  26.303  1.00  0.00     0.021 A 
ATOM     27  C   UNL A   1      31.008  23.852  25.648  1.00  0.00     0.067 A 
BRANCH  27  28
ATOM     28  S   UNL A   1      31.716  22.443  26.476  1.00  0.00     0.175 S 
ATOM     29  C   UNL A   1      33.459  22.752  26.405  1.00  0.00     0.163 C 
ATOM     30  O   UNL A   1      31.309  22.519  27.864  1.00  0.00    -0.224 OA
ATOM     31  O   UNL A   1      31.440  21.270  25.666  1.00  0.00    -0.224 OA
ENDBRANCH  27  28
ENDBRANCH  20  22
ENDBRANCH  13  14
ENDBRANCH   8  13
ENDBRANCH   4   7
ENDBRANCH   2   3
ENDBRANCH   1   2
BRANCH   1  32
ATOM     32  C   UNL A   1      37.495  21.155  24.534  1.00  0.00     0.023 C 
BRANCH  32  33
ATOM     33  C   UNL A   1      37.844  20.461  25.841  1.00  0.00     0.116 C 
BRANCH  33  34
ATOM     34  N   UNL A   1      39.130  19.771  25.828  1.00  0.00    -0.352 N 
ATOM     35  C   UNL A   1      40.366  20.210  26.255  1.00  0.00     0.251 C 
ATOM     36  H   UNL A   1      39.112  18.857  25.463  1.00  0.00     0.163 HD
ATOM     37  O   UNL A   1      41.357  19.500  26.110  1.00  0.00    -0.269 OA
BRANCH  35  38
ATOM     38  C   UNL A   1      40.492  21.570  26.824  1.00  0.00     0.039 A 
ATOM     39  C   UNL A   1      39.950  22.664  26.152  1.00  0.00     0.014 A 
ATOM     40  C   UNL A   1      41.268  21.760  27.970  1.00  0.00     0.014 A 
ATOM     41  C   UNL A   1      40.397  23.942  26.466  1.00  0.00     0.010 A 
ATOM     42  C   UNL A   1      41.619  23.057  28.354  1.00  0.00     0.010 A 
ATOM     43  C   UNL A   1      41.258  24.154  27.556  1.00  0.00    -0.014 A 
BRANCH  43  44
ATOM     44  C   UNL A   1      41.798  25.515  27.814  1.00  0.00     0.031 A 
ATOM     45  C   UNL A   1      40.973  26.552  28.539  1.00  0.00     0.074 A 
ATOM     46  C   UNL A   1      43.056  25.811  27.435  1.00  0.00     0.049 A 
ATOM     47  N   UNL A   1      41.276  27.794  28.818  1.00  0.00    -0.248 NA
ATOM     48  C   UNL A   1      39.637  26.147  29.013  1.00  0.00     0.031 C 
ATOM     49  C   UNL A   1      43.964  24.897  26.736  1.00  0.00     0.029 A 
ATOM     50  N   UNL A   1      43.796  26.956  27.591  1.00  0.00    -0.354 N 
ATOM     51  C   UNL A   1      40.160  28.330  29.452  1.00  0.00     0.074 A 
ATOM     52  C   UNL A   1      39.167  27.281  29.517  1.00  0.00     0.031 C 
ATOM     53  C   UNL A   1      45.146  25.503  26.555  1.00  0.00     0.029 A 
ATOM     54  C   UNL A   1      45.060  26.868  27.060  1.00  0.00     0.049 A 
ATOM     55  H   UNL A   1      43.452  27.762  28.040  1.00  0.00     0.167 HD
ATOM     56  C   UNL A   1      39.984  29.577  29.949  1.00  0.00     0.034 A 
ATOM     57  C   UNL A   1      46.039  27.788  26.962  1.00  0.00     0.034 A 
ATOM     58  C   UNL A   1      40.991  30.605  29.938  1.00  0.00     0.049 A 
ATOM     59  C   UNL A   1      45.811  29.166  27.505  1.00  0.00     0.074 A 
ATOM     60  C   UNL A   1      40.913  31.884  30.461  1.00  0.00     0.029 A 
ATOM     61  N   UNL A   1      42.254  30.472  29.386  1.00  0.00    -0.354 N 
ATOM     62  N   UNL A   1      44.766  29.636  28.141  1.00  0.00    -0.248 NA
ATOM     63  C   UNL A   1      46.897  30.140  27.326  1.00  0.00     0.031 C 
ATOM     64  C   UNL A   1      42.125  32.533  30.207  1.00  0.00     0.029 A 
ATOM     65  C   UNL A   1      42.963  31.650  29.547  1.00  0.00     0.049 A 
ATOM     66  H   UNL A   1      42.597  29.662  28.945  1.00  0.00     0.167 HD
ATOM     67  C   UNL A   1      45.072  30.954  28.452  1.00  0.00     0.074 A 
ATOM     68  C   UNL A   1      46.409  31.204  27.951  1.00  0.00     0.031 C 
ATOM     69  C   UNL A   1      44.306  31.875  29.081  1.00  0.00     0.034 A 
BRANCH  56  70
ATOM     70  C   UNL A   1      38.667  29.910  30.598  1.00  0.00     0.023 A 
ATOM     71  C   UNL A   1      38.425  29.500  31.923  1.00  0.00     0.012 A 
ATOM     72  C   UNL A   1      37.727  30.729  29.941  1.00  0.00     0.148 A 
ATOM     73  C   UNL A   1      37.262  29.894  32.585  1.00  0.00     0.002 A 
ATOM     74  C   UNL A   1      36.584  31.141  30.617  1.00  0.00     0.091 A 
ATOM     75  F   UNL A   1      37.977  31.100  28.678  1.00  0.00    -0.205 F 
ATOM     76  C   UNL A   1      36.350  30.723  31.938  1.00  0.00     0.022 A 
BRANCH  74  77
ATOM     77  S   UNL A   1      35.370  32.251  29.895  1.00  0.00     0.127 S 
ATOM     78  O   UNL A   1      36.204  33.390  29.510  1.00  0.00    -0.237 OA
ATOM     79  O   UNL A   1      34.861  31.462  28.774  1.00  0.00    -0.237 OA
ATOM     80  O   UNL A   1      34.398  32.527  30.944  1.00  0.00    -0.744 OA
ENDBRANCH  74  77
ENDBRANCH  56  70
BRANCH  57  81
ATOM     81  C   UNL A   1      47.331  27.404  26.335  1.00  0.00     0.023 A 
ATOM     82  C   UNL A   1      47.535  27.658  24.967  1.00  0.00     0.012 A 
ATOM     83  C   UNL A   1      48.382  26.871  27.106  1.00  0.00     0.148 A 
ATOM     84  C   UNL A   1      48.767  27.383  24.373  1.00  0.00     0.002 A 
ATOM     85  C   UNL A   1      49.618  26.638  26.519  1.00  0.00     0.091 A 
ATOM     86  F   UNL A   1      48.158  26.642  28.408  1.00  0.00    -0.205 F 
ATOM     87  C   UNL A   1      49.810  26.884  25.151  1.00  0.00     0.022 A 
BRANCH  85  88
ATOM     88  S   UNL A   1      51.050  26.093  27.456  1.00  0.00     0.127 S 
ATOM     89  O   UNL A   1      50.507  26.011  28.810  1.00  0.00    -0.237 OA
ATOM     90  O   UNL A   1      51.342  24.804  26.830  1.00  0.00    -0.237 OA
ATOM     91  O   UNL A   1      52.071  27.112  27.253  1.00  0.00    -0.744 OA
ENDBRANCH  85  88
ENDBRANCH  57  81
BRANCH  69  92
ATOM     92  C   UNL A   1      44.881  33.249  29.284  1.00  0.00     0.023 A 
ATOM     93  C   UNL A   1      45.635  33.519  30.442  1.00  0.00     0.012 A 
ATOM     94  C   UNL A   1      44.771  34.230  28.279  1.00  0.00     0.148 A 
ATOM     95  C   UNL A   1      46.265  34.752  30.602  1.00  0.00     0.002 A 
ATOM     96  C   UNL A   1      45.430  35.444  28.430  1.00  0.00     0.091 A 
ATOM     97  F   UNL A   1      44.042  33.948  27.190  1.00  0.00    -0.205 F 
ATOM     98  C   UNL A   1      46.173  35.709  29.592  1.00  0.00     0.022 A 
BRANCH  96  99
ATOM     99  S   UNL A   1      45.428  36.712  27.158  1.00  0.00     0.127 S 
ATOM    100  O   UNL A   1      46.185  37.784  27.806  1.00  0.00    -0.237 OA
ATOM    101  O   UNL A   1      46.130  36.049  26.060  1.00  0.00    -0.237 OA
ATOM    102  O   UNL A   1      44.030  37.018  26.891  1.00  0.00    -0.744 OA
ENDBRANCH  96  99
ENDBRANCH  69  92
ENDBRANCH  43  44
ENDBRANCH  35  38
ENDBRANCH  33  34
ENDBRANCH  32  33
ENDBRANCH   1  32
TORSDOF 18
ENDMDL
