MODEL 1
REMARK VINA RESULT:     -12.6      0.000      0.000
REMARK SMILES COc1cccc(C(=O)N2[C@@H](C(=O)NCCCCNC(=O)c3ccc(-c4c5nc(c(-c6cccc(S(=O)(=O)[O-])c6F)c6ccc([nH]6)c(-c6cccc(S(=O)(=O)[O-])c6F)c6nc(c(-c7cccc(S(=O)(=O)[O-])c7F)c7ccc4[nH]7)C=C6)C=C5)cc3)CS[C@@H]2c2ccccc2Cl)c1
REMARK SMILES IDX 16 1 15 2 14 3 12 4 13 5 11 7 10 8 87 9 85 10 86 11 8 12
REMARK SMILES IDX 9 13 7 14 3 15 4 16 95 17 5 18 6 19 2 20 1 21 88 22 89 23
REMARK SMILES IDX 93 24 90 25 92 26 94 27 91 28 17 29 18 30 19 31 20 32 21 34
REMARK SMILES IDX 22 35 23 36 84 37 24 38 83 39 25 40 26 41 27 42 77 43 28 44
REMARK SMILES IDX 82 45 76 46 78 47 29 48 81 49 75 50 74 51 30 53 62 54 42 55
REMARK SMILES IDX 61 56 43 57 46 58 60 59 79 60 44 61 45 62 59 64 80 65 47 66
REMARK SMILES IDX 31 67 32 68 40 69 33 70 35 71 41 72 34 73 36 74 37 75 38 76
REMARK SMILES IDX 39 77 63 78 64 79 72 80 65 81 67 82 73 83 66 84 68 85 69 86
REMARK SMILES IDX 70 87 71 88 48 89 49 90 57 91 50 92 52 93 58 94 51 95 53 96
REMARK SMILES IDX 54 97 55 98 56 99
REMARK H PARENT 14 6 19 33 78 52 46 63
REMARK Flexibility Score: inf
ROOT
ATOM      1  C   UNL A   1      36.453  19.969  25.000  1.00  0.00     0.023 C 
ENDROOT
BRANCH   1   2
ATOM      2  C   UNL A   1      36.430  21.363  25.632  1.00  0.00     0.116 C 
BRANCH   2   3
ATOM      3  N   UNL A   1      35.376  21.469  26.613  1.00  0.00    -0.354 N 
ATOM      4  C   UNL A   1      34.399  22.396  26.798  1.00  0.00     0.243 C 
ATOM      5  O   UNL A   1      33.862  22.388  27.913  1.00  0.00    -0.273 OA
ATOM      6  H   UNL A   1      35.363  20.735  27.270  1.00  0.00     0.163 HD
BRANCH   4   7
ATOM      7  C   UNL A   1      33.928  23.416  25.727  1.00  0.00     0.186 C 
ATOM      8  N   UNL A   1      33.288  22.806  24.545  1.00  0.00    -0.310 N 
ATOM      9  C   UNL A   1      33.532  23.495  23.281  1.00  0.00     0.176 C 
ATOM     10  C   UNL A   1      35.024  24.376  25.265  1.00  0.00     0.107 C 
ATOM     11  S   UNL A   1      35.311  23.978  23.514  1.00  0.00    -0.129 SA
BRANCH   8  12
ATOM     12  C   UNL A   1      32.321  21.831  24.745  1.00  0.00     0.255 C 
ATOM     13  O   UNL A   1      31.342  22.016  25.462  1.00  0.00    -0.269 OA
BRANCH  12  14
ATOM     14  C   UNL A   1      32.573  20.438  24.270  1.00  0.00     0.043 A 
ATOM     15  C   UNL A   1      32.943  18.079  24.698  1.00  0.00     0.119 A 
ATOM     16  C   UNL A   1      32.668  17.791  23.360  1.00  0.00     0.046 A 
ATOM     17  C   UNL A   1      32.900  19.400  25.153  1.00  0.00     0.060 A 
ATOM     18  C   UNL A   1      32.316  18.812  22.481  1.00  0.00     0.005 A 
ATOM     19  C   UNL A   1      32.267  20.131  22.935  1.00  0.00     0.014 A 
BRANCH  15  20
ATOM     20  O   UNL A   1      33.271  17.003  25.478  1.00  0.00    -0.497 OA
ATOM     21  C   UNL A   1      34.490  16.356  25.121  1.00  0.00     0.278 C 
ENDBRANCH  15  20
ENDBRANCH  12  14
ENDBRANCH   8  12
BRANCH   9  22
ATOM     22  C   UNL A   1      32.788  24.800  22.931  1.00  0.00     0.003 A 
ATOM     23  C   UNL A   1      33.625  25.904  22.592  1.00  0.00     0.008 A 
ATOM     24  C   UNL A   1      31.415  25.080  23.026  1.00  0.00     0.047 A 
ATOM     25  C   UNL A   1      33.152  27.217  22.527  1.00  0.00     0.001 A 
ATOM     26  C   UNL A   1      30.946  26.407  22.971  1.00  0.00     0.021 A 
ATOM     27  Cl  UNL A   1      30.171  23.901  23.159  1.00  0.00    -0.084 Cl
ATOM     28  C   UNL A   1      31.812  27.474  22.755  1.00  0.00     0.002 A 
ENDBRANCH   9  22
ENDBRANCH   4   7
ENDBRANCH   2   3
ENDBRANCH   1   2
BRANCH   1  29
ATOM     29  C   UNL A   1      37.843  19.333  24.920  1.00  0.00     0.023 C 
BRANCH  29  30
ATOM     30  C   UNL A   1      38.929  20.062  25.699  1.00  0.00     0.116 C 
BRANCH  30  31
ATOM     31  N   UNL A   1      40.114  19.248  25.935  1.00  0.00    -0.352 N 
ATOM     32  C   UNL A   1      41.348  19.664  26.373  1.00  0.00     0.251 C 
ATOM     33  H   UNL A   1      40.019  18.283  25.760  1.00  0.00     0.163 HD
ATOM     34  O   UNL A   1      42.287  18.876  26.439  1.00  0.00    -0.269 OA
BRANCH  32  35
ATOM     35  C   UNL A   1      41.533  21.086  26.719  1.00  0.00     0.039 A 
ATOM     36  C   UNL A   1      41.775  21.432  28.051  1.00  0.00     0.014 A 
ATOM     37  C   UNL A   1      41.552  22.056  25.714  1.00  0.00     0.014 A 
ATOM     38  C   UNL A   1      42.114  22.748  28.365  1.00  0.00     0.010 A 
ATOM     39  C   UNL A   1      41.953  23.350  26.021  1.00  0.00     0.010 A 
ATOM     40  C   UNL A   1      42.245  23.706  27.347  1.00  0.00    -0.014 A 
BRANCH  40  41
ATOM     41  C   UNL A   1      42.726  25.080  27.634  1.00  0.00     0.031 A 
ATOM     42  C   UNL A   1      41.798  26.093  28.242  1.00  0.00     0.074 A 
ATOM     43  C   UNL A   1      43.959  25.445  27.233  1.00  0.00     0.049 A 
ATOM     44  N   UNL A   1      42.009  27.359  28.489  1.00  0.00    -0.248 NA
ATOM     45  C   UNL A   1      40.442  25.631  28.588  1.00  0.00     0.031 C 
ATOM     46  C   UNL A   1      44.916  24.578  26.542  1.00  0.00     0.029 A 
ATOM     47  N   UNL A   1      44.606  26.653  27.314  1.00  0.00    -0.354 N 
ATOM     48  C   UNL A   1      40.807  27.855  28.978  1.00  0.00     0.074 A 
ATOM     49  C   UNL A   1      39.861  26.760  28.967  1.00  0.00     0.031 C 
ATOM     50  C   UNL A   1      46.023  25.282  26.256  1.00  0.00     0.029 A 
ATOM     51  C   UNL A   1      45.847  26.655  26.721  1.00  0.00     0.049 A 
ATOM     52  H   UNL A   1      44.218  27.444  27.754  1.00  0.00     0.167 HD
ATOM     53  C   UNL A   1      40.526  29.101  29.425  1.00  0.00     0.034 A 
ATOM     54  C   UNL A   1      46.740  27.652  26.561  1.00  0.00     0.034 A 
ATOM     55  C   UNL A   1      41.486  30.168  29.489  1.00  0.00     0.049 A 
ATOM     56  C   UNL A   1      46.426  29.011  27.123  1.00  0.00     0.074 A 
ATOM     57  C   UNL A   1      41.337  31.428  30.041  1.00  0.00     0.029 A 
ATOM     58  N   UNL A   1      42.773  30.106  28.975  1.00  0.00    -0.354 N 
ATOM     59  N   UNL A   1      45.351  29.410  27.760  1.00  0.00    -0.248 NA
ATOM     60  C   UNL A   1      47.457  30.048  26.977  1.00  0.00     0.031 C 
ATOM     61  C   UNL A   1      42.530  32.133  29.848  1.00  0.00     0.029 A 
ATOM     62  C   UNL A   1      43.425  31.307  29.185  1.00  0.00     0.049 A 
ATOM     63  H   UNL A   1      43.164  29.321  28.527  1.00  0.00     0.167 HD
ATOM     64  C   UNL A   1      45.585  30.734  28.113  1.00  0.00     0.074 A 
ATOM     65  C   UNL A   1      46.916  31.062  27.641  1.00  0.00     0.031 C 
ATOM     66  C   UNL A   1      44.767  31.604  28.753  1.00  0.00     0.034 A 
BRANCH  53  67
ATOM     67  C   UNL A   1      39.137  29.359  29.943  1.00  0.00     0.023 A 
ATOM     68  C   UNL A   1      38.793  28.932  31.243  1.00  0.00     0.012 A 
ATOM     69  C   UNL A   1      38.190  30.063  29.174  1.00  0.00     0.148 A 
ATOM     70  C   UNL A   1      37.520  29.171  31.757  1.00  0.00     0.002 A 
ATOM     71  C   UNL A   1      36.936  30.333  29.709  1.00  0.00     0.091 A 
ATOM     72  F   UNL A   1      38.525  30.437  27.931  1.00  0.00    -0.205 F 
ATOM     73  C   UNL A   1      36.596  29.881  30.995  1.00  0.00     0.022 A 
BRANCH  71  74
ATOM     74  S   UNL A   1      35.703  31.303  28.832  1.00  0.00     0.127 S 
ATOM     75  O   UNL A   1      34.807  31.693  29.920  1.00  0.00    -0.237 OA
ATOM     76  O   UNL A   1      36.504  32.397  28.280  1.00  0.00    -0.237 OA
ATOM     77  O   UNL A   1      35.132  30.411  27.835  1.00  0.00    -0.744 OA
ENDBRANCH  71  74
ENDBRANCH  53  67
BRANCH  54  78
ATOM     78  C   UNL A   1      48.046  27.374  25.901  1.00  0.00     0.023 A 
ATOM     79  C   UNL A   1      49.110  26.861  26.668  1.00  0.00     0.012 A 
ATOM     80  C   UNL A   1      48.227  27.565  24.517  1.00  0.00     0.148 A 
ATOM     81  C   UNL A   1      50.337  26.565  26.075  1.00  0.00     0.002 A 
ATOM     82  C   UNL A   1      49.435  27.218  23.922  1.00  0.00     0.091 A 
ATOM     83  F   UNL A   1      47.208  28.067  23.806  1.00  0.00    -0.205 F 
ATOM     84  C   UNL A   1      50.496  26.732  24.702  1.00  0.00     0.022 A 
BRANCH  82  85
ATOM     85  S   UNL A   1      49.680  27.270  22.144  1.00  0.00     0.127 S 
ATOM     86  O   UNL A   1      51.087  26.898  22.024  1.00  0.00    -0.237 OA
ATOM     87  O   UNL A   1      48.732  26.259  21.676  1.00  0.00    -0.237 OA
ATOM     88  O   UNL A   1      49.346  28.631  21.745  1.00  0.00    -0.744 OA
ENDBRANCH  82  85
ENDBRANCH  54  78
BRANCH  66  89
ATOM     89  C   UNL A   1      45.281  32.997  28.997  1.00  0.00     0.023 A 
ATOM     90  C   UNL A   1      46.013  33.270  30.169  1.00  0.00     0.012 A 
ATOM     91  C   UNL A   1      45.118  34.009  28.030  1.00  0.00     0.148 A 
ATOM     92  C   UNL A   1      46.557  34.535  30.387  1.00  0.00     0.002 A 
ATOM     93  C   UNL A   1      45.701  35.255  28.234  1.00  0.00     0.091 A 
ATOM     94  F   UNL A   1      44.402  33.734  26.931  1.00  0.00    -0.205 F 
ATOM     95  C   UNL A   1      46.411  35.523  29.415  1.00  0.00     0.022 A 
BRANCH  93  96
ATOM     96  S   UNL A   1      45.643  36.556  26.996  1.00  0.00     0.127 S 
ATOM     97  O   UNL A   1      46.220  35.885  25.832  1.00  0.00    -0.237 OA
ATOM     98  O   UNL A   1      44.209  36.829  26.896  1.00  0.00    -0.237 OA
ATOM     99  O   UNL A   1      46.430  37.657  27.537  1.00  0.00    -0.744 OA
ENDBRANCH  93  96
ENDBRANCH  66  89
ENDBRANCH  40  41
ENDBRANCH  32  35
ENDBRANCH  30  31
ENDBRANCH  29  30
ENDBRANCH   1  29
TORSDOF 18
ENDMDL
MODEL 2
REMARK VINA RESULT:     -12.5      6.387     11.695
REMARK SMILES COc1cccc(C(=O)N2[C@@H](C(=O)NCCCCNC(=O)c3ccc(-c4c5nc(c(-c6cccc(S(=O)(=O)[O-])c6F)c6ccc([nH]6)c(-c6cccc(S(=O)(=O)[O-])c6F)c6nc(c(-c7cccc(S(=O)(=O)[O-])c7F)c7ccc4[nH]7)C=C6)C=C5)cc3)CS[C@@H]2c2ccccc2Cl)c1
REMARK SMILES IDX 16 1 15 2 14 3 12 4 13 5 11 7 10 8 87 9 85 10 86 11 8 12
REMARK SMILES IDX 9 13 7 14 3 15 4 16 95 17 5 18 6 19 2 20 1 21 88 22 89 23
REMARK SMILES IDX 93 24 90 25 92 26 94 27 91 28 17 29 18 30 19 31 20 32 21 34
REMARK SMILES IDX 22 35 23 36 84 37 24 38 83 39 25 40 26 41 27 42 77 43 28 44
REMARK SMILES IDX 82 45 76 46 78 47 29 48 81 49 75 50 74 51 30 53 62 54 42 55
REMARK SMILES IDX 61 56 43 57 46 58 60 59 79 60 44 61 45 62 59 64 80 65 47 66
REMARK SMILES IDX 31 67 32 68 40 69 33 70 35 71 41 72 34 73 36 74 37 75 38 76
REMARK SMILES IDX 39 77 63 78 64 79 72 80 65 81 67 82 73 83 66 84 68 85 69 86
REMARK SMILES IDX 70 87 71 88 48 89 49 90 57 91 50 92 52 93 58 94 51 95 53 96
REMARK SMILES IDX 54 97 55 98 56 99
REMARK H PARENT 14 6 19 33 78 52 46 63
REMARK Flexibility Score: inf
ROOT
ATOM      1  C   UNL A   1      32.638  30.277  26.552  1.00  0.00     0.023 C 
ENDROOT
BRANCH   1   2
ATOM      2  C   UNL A   1      31.857  29.636  25.403  1.00  0.00     0.116 C 
BRANCH   2   3
ATOM      3  N   UNL A   1      32.662  29.564  24.206  1.00  0.00    -0.354 N 
ATOM      4  C   UNL A   1      33.300  28.526  23.604  1.00  0.00     0.243 C 
ATOM      5  O   UNL A   1      34.175  28.840  22.787  1.00  0.00    -0.273 OA
ATOM      6  H   UNL A   1      32.769  30.426  23.742  1.00  0.00     0.163 HD
BRANCH   4   7
ATOM      7  C   UNL A   1      32.997  27.025  23.864  1.00  0.00     0.186 C 
ATOM      8  N   UNL A   1      31.577  26.654  23.702  1.00  0.00    -0.310 N 
ATOM      9  C   UNL A   1      31.100  25.613  24.609  1.00  0.00     0.176 C 
ATOM     10  C   UNL A   1      33.497  26.520  25.217  1.00  0.00     0.107 C 
ATOM     11  S   UNL A   1      32.001  26.097  26.160  1.00  0.00    -0.129 SA
BRANCH   8  12
ATOM     12  C   UNL A   1      30.901  27.097  22.575  1.00  0.00     0.255 C 
ATOM     13  O   UNL A   1      31.268  26.817  21.437  1.00  0.00    -0.269 OA
BRANCH  12  14
ATOM     14  C   UNL A   1      29.832  28.130  22.718  1.00  0.00     0.043 A 
ATOM     15  C   UNL A   1      28.866  30.284  22.159  1.00  0.00     0.119 A 
ATOM     16  C   UNL A   1      27.647  29.882  22.707  1.00  0.00     0.046 A 
ATOM     17  C   UNL A   1      29.959  29.413  22.167  1.00  0.00     0.060 A 
ATOM     18  C   UNL A   1      27.502  28.600  23.232  1.00  0.00     0.005 A 
ATOM     19  C   UNL A   1      28.591  27.727  23.236  1.00  0.00     0.014 A 
BRANCH  15  20
ATOM     20  O   UNL A   1      28.899  31.559  21.664  1.00  0.00    -0.497 OA
ATOM     21  C   UNL A   1      28.734  32.584  22.640  1.00  0.00     0.278 C 
ENDBRANCH  15  20
ENDBRANCH  12  14
ENDBRANCH   8  12
BRANCH   9  22
ATOM     22  C   UNL A   1      31.450  24.130  24.368  1.00  0.00     0.003 A 
ATOM     23  C   UNL A   1      30.960  23.224  25.355  1.00  0.00     0.008 A 
ATOM     24  C   UNL A   1      32.284  23.573  23.387  1.00  0.00     0.047 A 
ATOM     25  C   UNL A   1      31.410  21.905  25.458  1.00  0.00     0.001 A 
ATOM     26  C   UNL A   1      32.744  22.246  23.502  1.00  0.00     0.021 A 
ATOM     27  Cl  UNL A   1      32.794  24.370  21.951  1.00  0.00    -0.084 Cl
ATOM     28  C   UNL A   1      32.336  21.426  24.548  1.00  0.00     0.002 A 
ENDBRANCH   9  22
ENDBRANCH   4   7
ENDBRANCH   2   3
ENDBRANCH   1   2
BRANCH   1  29
ATOM     29  C   UNL A   1      32.148  31.671  26.951  1.00  0.00     0.023 C 
BRANCH  29  30
ATOM     30  C   UNL A   1      33.215  32.584  27.539  1.00  0.00     0.116 C 
BRANCH  30  31
ATOM     31  N   UNL A   1      32.738  33.936  27.797  1.00  0.00    -0.352 N 
ATOM     32  C   UNL A   1      33.213  34.835  28.722  1.00  0.00     0.251 C 
ATOM     33  H   UNL A   1      31.985  34.244  27.241  1.00  0.00     0.163 HD
ATOM     34  O   UNL A   1      32.650  35.912  28.894  1.00  0.00    -0.269 OA
BRANCH  32  35
ATOM     35  C   UNL A   1      34.384  34.458  29.537  1.00  0.00     0.039 A 
ATOM     36  C   UNL A   1      34.177  33.860  30.782  1.00  0.00     0.014 A 
ATOM     37  C   UNL A   1      35.675  34.620  29.027  1.00  0.00     0.014 A 
ATOM     38  C   UNL A   1      35.268  33.351  31.487  1.00  0.00     0.010 A 
ATOM     39  C   UNL A   1      36.750  34.055  29.699  1.00  0.00     0.010 A 
ATOM     40  C   UNL A   1      36.557  33.409  30.931  1.00  0.00    -0.014 A 
BRANCH  40  41
ATOM     41  C   UNL A   1      37.717  32.767  31.596  1.00  0.00     0.031 A 
ATOM     42  C   UNL A   1      38.417  31.610  30.942  1.00  0.00     0.074 A 
ATOM     43  C   UNL A   1      38.058  33.149  32.843  1.00  0.00     0.049 A 
ATOM     44  N   UNL A   1      39.391  30.870  31.402  1.00  0.00    -0.248 NA
ATOM     45  C   UNL A   1      37.938  31.210  29.608  1.00  0.00     0.031 C 
ATOM     46  C   UNL A   1      37.387  34.193  33.621  1.00  0.00     0.029 A 
ATOM     47  N   UNL A   1      39.027  32.675  33.690  1.00  0.00    -0.354 N 
ATOM     48  C   UNL A   1      39.614  29.895  30.439  1.00  0.00     0.074 A 
ATOM     49  C   UNL A   1      38.655  30.119  29.379  1.00  0.00     0.031 C 
ATOM     50  C   UNL A   1      37.961  34.276  34.832  1.00  0.00     0.029 A 
ATOM     51  C   UNL A   1      39.022  33.278  34.927  1.00  0.00     0.049 A 
ATOM     52  H   UNL A   1      39.667  31.970  33.437  1.00  0.00     0.167 HD
ATOM     53  C   UNL A   1      40.553  28.920  30.423  1.00  0.00     0.034 A 
ATOM     54  C   UNL A   1      39.780  33.047  36.017  1.00  0.00     0.034 A 
ATOM     55  C   UNL A   1      41.542  28.741  31.450  1.00  0.00     0.049 A 
ATOM     56  C   UNL A   1      40.857  32.000  35.950  1.00  0.00     0.074 A 
ATOM     57  C   UNL A   1      42.613  27.866  31.469  1.00  0.00     0.029 A 
ATOM     58  N   UNL A   1      41.575  29.440  32.647  1.00  0.00    -0.354 N 
ATOM     59  N   UNL A   1      41.181  31.215  34.950  1.00  0.00    -0.248 NA
ATOM     60  C   UNL A   1      41.697  31.829  37.144  1.00  0.00     0.031 C 
ATOM     61  C   UNL A   1      43.287  28.027  32.685  1.00  0.00     0.029 A 
ATOM     62  C   UNL A   1      42.640  29.010  33.417  1.00  0.00     0.049 A 
ATOM     63  H   UNL A   1      40.934  30.141  32.909  1.00  0.00     0.167 HD
ATOM     64  C   UNL A   1      42.275  30.475  35.383  1.00  0.00     0.074 A 
ATOM     65  C   UNL A   1      42.575  30.924  36.729  1.00  0.00     0.031 C 
ATOM     66  C   UNL A   1      42.957  29.500  34.735  1.00  0.00     0.034 A 
BRANCH  53  67
ATOM     67  C   UNL A   1      40.598  28.015  29.223  1.00  0.00     0.023 A 
ATOM     68  C   UNL A   1      39.710  26.922  29.147  1.00  0.00     0.012 A 
ATOM     69  C   UNL A   1      41.476  28.268  28.150  1.00  0.00     0.148 A 
ATOM     70  C   UNL A   1      39.716  26.076  28.039  1.00  0.00     0.002 A 
ATOM     71  C   UNL A   1      41.448  27.443  27.031  1.00  0.00     0.091 A 
ATOM     72  F   UNL A   1      42.332  29.294  28.252  1.00  0.00    -0.205 F 
ATOM     73  C   UNL A   1      40.577  26.343  26.978  1.00  0.00     0.022 A 
BRANCH  71  74
ATOM     74  S   UNL A   1      42.468  27.749  25.584  1.00  0.00     0.127 S 
ATOM     75  O   UNL A   1      43.807  27.786  26.170  1.00  0.00    -0.237 OA
ATOM     76  O   UNL A   1      42.197  26.570  24.759  1.00  0.00    -0.237 OA
ATOM     77  O   UNL A   1      41.991  29.003  25.020  1.00  0.00    -0.744 OA
ENDBRANCH  71  74
ENDBRANCH  53  67
BRANCH  54  78
ATOM     78  C   UNL A   1      39.590  33.879  37.238  1.00  0.00     0.023 A 
ATOM     79  C   UNL A   1      40.074  35.201  37.253  1.00  0.00     0.012 A 
ATOM     80  C   UNL A   1      38.891  33.391  38.359  1.00  0.00     0.148 A 
ATOM     81  C   UNL A   1      39.887  36.015  38.370  1.00  0.00     0.002 A 
ATOM     82  C   UNL A   1      38.663  34.224  39.449  1.00  0.00     0.091 A 
ATOM     83  F   UNL A   1      38.450  32.125  38.332  1.00  0.00    -0.205 F 
ATOM     84  C   UNL A   1      39.173  35.531  39.463  1.00  0.00     0.022 A 
BRANCH  82  85
ATOM     85  S   UNL A   1      37.636  33.730  40.837  1.00  0.00     0.127 S 
ATOM     86  O   UNL A   1      38.518  32.809  41.550  1.00  0.00    -0.237 OA
ATOM     87  O   UNL A   1      37.401  35.007  41.513  1.00  0.00    -0.237 OA
ATOM     88  O   UNL A   1      36.442  33.139  40.247  1.00  0.00    -0.744 OA
ENDBRANCH  82  85
ENDBRANCH  54  78
BRANCH  66  89
ATOM     89  C   UNL A   1      44.107  28.852  35.457  1.00  0.00     0.023 A 
ATOM     90  C   UNL A   1      45.401  29.395  35.329  1.00  0.00     0.012 A 
ATOM     91  C   UNL A   1      43.895  27.766  36.329  1.00  0.00     0.148 A 
ATOM     92  C   UNL A   1      46.470  28.854  36.039  1.00  0.00     0.002 A 
ATOM     93  C   UNL A   1      44.958  27.260  37.069  1.00  0.00     0.091 A 
ATOM     94  F   UNL A   1      42.661  27.252  36.422  1.00  0.00    -0.205 F 
ATOM     95  C   UNL A   1      46.247  27.796  36.917  1.00  0.00     0.022 A 
BRANCH  93  96
ATOM     96  S   UNL A   1      44.746  25.961  38.291  1.00  0.00     0.127 S 
ATOM     97  O   UNL A   1      46.103  25.820  38.816  1.00  0.00    -0.237 OA
ATOM     98  O   UNL A   1      43.789  26.561  39.222  1.00  0.00    -0.237 OA
ATOM     99  O   UNL A   1      44.234  24.807  37.563  1.00  0.00    -0.744 OA
ENDBRANCH  93  96
ENDBRANCH  66  89
ENDBRANCH  40  41
ENDBRANCH  32  35
ENDBRANCH  30  31
ENDBRANCH  29  30
ENDBRANCH   1  29
TORSDOF 18
ENDMDL
MODEL 3
REMARK VINA RESULT:     -12.3      6.382     10.190
REMARK SMILES COc1cccc(C(=O)N2[C@@H](C(=O)NCCCCNC(=O)c3ccc(-c4c5nc(c(-c6cccc(S(=O)(=O)[O-])c6F)c6ccc([nH]6)c(-c6cccc(S(=O)(=O)[O-])c6F)c6nc(c(-c7cccc(S(=O)(=O)[O-])c7F)c7ccc4[nH]7)C=C6)C=C5)cc3)CS[C@@H]2c2ccccc2Cl)c1
REMARK SMILES IDX 16 1 15 2 14 3 12 4 13 5 11 7 10 8 87 9 85 10 86 11 8 12
REMARK SMILES IDX 9 13 7 14 3 15 4 16 95 17 5 18 6 19 2 20 1 21 88 22 89 23
REMARK SMILES IDX 93 24 90 25 92 26 94 27 91 28 17 29 18 30 19 31 20 32 21 34
REMARK SMILES IDX 22 35 23 36 84 37 24 38 83 39 25 40 26 41 27 42 77 43 28 44
REMARK SMILES IDX 82 45 76 46 78 47 29 48 81 49 75 50 74 51 30 53 62 54 42 55
REMARK SMILES IDX 61 56 43 57 46 58 60 59 79 60 44 61 45 62 59 64 80 65 47 66
REMARK SMILES IDX 31 67 32 68 40 69 33 70 35 71 41 72 34 73 36 74 37 75 38 76
REMARK SMILES IDX 39 77 63 78 64 79 72 80 65 81 67 82 73 83 66 84 68 85 69 86
REMARK SMILES IDX 70 87 71 88 48 89 49 90 57 91 50 92 52 93 58 94 51 95 53 96
REMARK SMILES IDX 54 97 55 98 56 99
REMARK H PARENT 14 6 19 33 78 52 46 63
REMARK Flexibility Score: inf
ROOT
ATOM      1  C   UNL A   1      32.225  30.417  26.951  1.00  0.00     0.023 C 
ENDROOT
BRANCH   1   2
ATOM      2  C   UNL A   1      31.575  29.613  25.822  1.00  0.00     0.116 C 
BRANCH   2   3
ATOM      3  N   UNL A   1      32.350  29.707  24.607  1.00  0.00    -0.354 N 
ATOM      4  C   UNL A   1      33.078  28.786  23.923  1.00  0.00     0.243 C 
ATOM      5  O   UNL A   1      33.892  29.245  23.111  1.00  0.00    -0.273 OA
ATOM      6  H   UNL A   1      32.352  30.604  24.200  1.00  0.00     0.163 HD
BRANCH   4   7
ATOM      7  C   UNL A   1      32.945  27.248  24.086  1.00  0.00     0.186 C 
ATOM      8  N   UNL A   1      31.603  26.716  23.773  1.00  0.00    -0.310 N 
ATOM      9  C   UNL A   1      31.182  25.577  24.583  1.00  0.00     0.176 C 
ATOM     10  C   UNL A   1      33.381  26.733  25.458  1.00  0.00     0.107 C 
ATOM     11  S   UNL A   1      31.872  26.079  26.234  1.00  0.00    -0.129 SA
BRANCH   8  12
ATOM     12  C   UNL A   1      30.981  27.136  22.607  1.00  0.00     0.255 C 
ATOM     13  O   UNL A   1      31.390  26.816  21.494  1.00  0.00    -0.269 OA
BRANCH  12  14
ATOM     14  C   UNL A   1      29.924  28.188  22.675  1.00  0.00     0.043 A 
ATOM     15  C   UNL A   1      28.975  30.300  21.953  1.00  0.00     0.119 A 
ATOM     16  C   UNL A   1      27.757  29.957  22.542  1.00  0.00     0.046 A 
ATOM     17  C   UNL A   1      30.059  29.421  22.022  1.00  0.00     0.060 A 
ATOM     18  C   UNL A   1      27.605  28.723  23.171  1.00  0.00     0.005 A 
ATOM     19  C   UNL A   1      28.684  27.841  23.235  1.00  0.00     0.014 A 
BRANCH  15  20
ATOM     20  O   UNL A   1      29.015  31.531  21.356  1.00  0.00    -0.497 OA
ATOM     21  C   UNL A   1      28.124  32.495  21.911  1.00  0.00     0.278 C 
ENDBRANCH  15  20
ENDBRANCH  12  14
ENDBRANCH   8  12
BRANCH   9  22
ATOM     22  C   UNL A   1      31.736  24.162  24.313  1.00  0.00     0.003 A 
ATOM     23  C   UNL A   1      32.569  24.047  23.161  1.00  0.00     0.008 A 
ATOM     24  C   UNL A   1      31.429  22.960  24.969  1.00  0.00     0.047 A 
ATOM     25  C   UNL A   1      32.921  22.815  22.605  1.00  0.00     0.001 A 
ATOM     26  C   UNL A   1      31.777  21.720  24.398  1.00  0.00     0.021 A 
ATOM     27  Cl  UNL A   1      30.674  22.836  26.509  1.00  0.00    -0.084 Cl
ATOM     28  C   UNL A   1      32.491  21.645  23.207  1.00  0.00     0.002 A 
ENDBRANCH   9  22
ENDBRANCH   4   7
ENDBRANCH   2   3
ENDBRANCH   1   2
BRANCH   1  29
ATOM     29  C   UNL A   1      31.945  31.921  26.900  1.00  0.00     0.023 C 
BRANCH  29  30
ATOM     30  C   UNL A   1      33.067  32.803  27.431  1.00  0.00     0.116 C 
BRANCH  30  31
ATOM     31  N   UNL A   1      32.625  34.142  27.793  1.00  0.00    -0.352 N 
ATOM     32  C   UNL A   1      33.104  34.943  28.802  1.00  0.00     0.251 C 
ATOM     33  H   UNL A   1      31.896  34.520  27.250  1.00  0.00     0.163 HD
ATOM     34  O   UNL A   1      32.571  36.020  29.053  1.00  0.00    -0.269 OA
BRANCH  32  35
ATOM     35  C   UNL A   1      34.243  34.462  29.607  1.00  0.00     0.039 A 
ATOM     36  C   UNL A   1      33.990  33.829  30.826  1.00  0.00     0.014 A 
ATOM     37  C   UNL A   1      35.545  34.562  29.109  1.00  0.00     0.014 A 
ATOM     38  C   UNL A   1      35.042  33.225  31.515  1.00  0.00     0.010 A 
ATOM     39  C   UNL A   1      36.578  33.903  29.764  1.00  0.00     0.010 A 
ATOM     40  C   UNL A   1      36.336  33.224  30.968  1.00  0.00    -0.014 A 
BRANCH  40  41
ATOM     41  C   UNL A   1      37.448  32.483  31.613  1.00  0.00     0.031 A 
ATOM     42  C   UNL A   1      38.019  32.964  32.917  1.00  0.00     0.074 A 
ATOM     43  C   UNL A   1      38.019  31.451  30.962  1.00  0.00     0.049 A 
ATOM     44  N   UNL A   1      39.039  32.500  33.589  1.00  0.00    -0.248 NA
ATOM     45  C   UNL A   1      37.380  34.141  33.530  1.00  0.00     0.031 C 
ATOM     46  C   UNL A   1      37.617  30.955  29.644  1.00  0.00     0.029 A 
ATOM     47  N   UNL A   1      39.087  30.659  31.302  1.00  0.00    -0.354 N 
ATOM     48  C   UNL A   1      39.192  33.349  34.678  1.00  0.00     0.074 A 
ATOM     49  C   UNL A   1      38.177  34.374  34.563  1.00  0.00     0.031 C 
ATOM     50  C   UNL A   1      38.430  29.949  29.285  1.00  0.00     0.029 A 
ATOM     51  C   UNL A   1      39.426  29.743  30.333  1.00  0.00     0.049 A 
ATOM     52  H   UNL A   1      39.566  30.739  32.158  1.00  0.00     0.167 HD
ATOM     53  C   UNL A   1      40.078  33.265  35.698  1.00  0.00     0.034 A 
ATOM     54  C   UNL A   1      40.430  28.845  30.289  1.00  0.00     0.034 A 
ATOM     55  C   UNL A   1      41.045  32.211  35.838  1.00  0.00     0.049 A 
ATOM     56  C   UNL A   1      41.361  28.732  31.464  1.00  0.00     0.074 A 
ATOM     57  C   UNL A   1      41.901  31.964  36.896  1.00  0.00     0.029 A 
ATOM     58  N   UNL A   1      41.292  31.233  34.887  1.00  0.00    -0.354 N 
ATOM     59  N   UNL A   1      41.366  29.423  32.579  1.00  0.00    -0.248 NA
ATOM     60  C   UNL A   1      42.401  27.697  31.394  1.00  0.00     0.031 C 
ATOM     61  C   UNL A   1      42.677  30.844  36.578  1.00  0.00     0.029 A 
ATOM     62  C   UNL A   1      42.295  30.388  35.326  1.00  0.00     0.049 A 
ATOM     63  H   UNL A   1      40.822  31.152  34.025  1.00  0.00     0.167 HD
ATOM     64  C   UNL A   1      42.391  28.890  33.353  1.00  0.00     0.074 A 
ATOM     65  C   UNL A   1      42.968  27.802  32.589  1.00  0.00     0.031 C 
ATOM     66  C   UNL A   1      42.827  29.278  34.576  1.00  0.00     0.034 A 
BRANCH  53  67
ATOM     67  C   UNL A   1      39.997  34.307  36.780  1.00  0.00     0.023 A 
ATOM     68  C   UNL A   1      40.401  35.629  36.500  1.00  0.00     0.012 A 
ATOM     69  C   UNL A   1      39.476  33.999  38.052  1.00  0.00     0.148 A 
ATOM     70  C   UNL A   1      40.320  36.620  37.476  1.00  0.00     0.002 A 
ATOM     71  C   UNL A   1      39.361  35.001  39.008  1.00  0.00     0.091 A 
ATOM     72  F   UNL A   1      39.123  32.732  38.310  1.00  0.00    -0.205 F 
ATOM     73  C   UNL A   1      39.791  36.309  38.726  1.00  0.00     0.022 A 
BRANCH  71  74
ATOM     74  S   UNL A   1      38.625  34.714  40.621  1.00  0.00     0.127 S 
ATOM     75  O   UNL A   1      37.475  33.879  40.276  1.00  0.00    -0.237 OA
ATOM     76  O   UNL A   1      39.696  34.012  41.331  1.00  0.00    -0.237 OA
ATOM     77  O   UNL A   1      38.310  36.031  41.155  1.00  0.00    -0.744 OA
ENDBRANCH  71  74
ENDBRANCH  53  67
BRANCH  54  78
ATOM     78  C   UNL A   1      40.554  27.934  29.117  1.00  0.00     0.023 A 
ATOM     79  C   UNL A   1      39.685  26.831  29.007  1.00  0.00     0.012 A 
ATOM     80  C   UNL A   1      41.486  28.179  28.089  1.00  0.00     0.148 A 
ATOM     81  C   UNL A   1      39.758  25.975  27.908  1.00  0.00     0.002 A 
ATOM     82  C   UNL A   1      41.518  27.353  26.972  1.00  0.00     0.091 A 
ATOM     83  F   UNL A   1      42.313  29.226  28.218  1.00  0.00    -0.205 F 
ATOM     84  C   UNL A   1      40.665  26.241  26.886  1.00  0.00     0.022 A 
BRANCH  82  85
ATOM     85  S   UNL A   1      42.556  27.701  25.548  1.00  0.00     0.127 S 
ATOM     86  O   UNL A   1      43.887  27.728  26.148  1.00  0.00    -0.237 OA
ATOM     87  O   UNL A   1      42.290  26.548  24.688  1.00  0.00    -0.237 OA
ATOM     88  O   UNL A   1      42.072  28.968  25.015  1.00  0.00    -0.744 OA
ENDBRANCH  82  85
ENDBRANCH  54  78
BRANCH  66  89
ATOM     89  C   UNL A   1      43.977  28.520  35.182  1.00  0.00     0.023 A 
ATOM     90  C   UNL A   1      45.296  28.861  34.823  1.00  0.00     0.012 A 
ATOM     91  C   UNL A   1      43.758  27.537  36.167  1.00  0.00     0.148 A 
ATOM     92  C   UNL A   1      46.380  28.220  35.420  1.00  0.00     0.002 A 
ATOM     93  C   UNL A   1      44.846  26.934  36.789  1.00  0.00     0.091 A 
ATOM     94  F   UNL A   1      42.496  27.214  36.480  1.00  0.00    -0.205 F 
ATOM     95  C   UNL A   1      46.156  27.266  36.410  1.00  0.00     0.022 A 
BRANCH  93  96
ATOM     96  S   UNL A   1      44.652  25.764  38.139  1.00  0.00     0.127 S 
ATOM     97  O   UNL A   1      43.911  24.682  37.493  1.00  0.00    -0.237 OA
ATOM     98  O   UNL A   1      46.040  25.439  38.473  1.00  0.00    -0.237 OA
ATOM     99  O   UNL A   1      43.932  26.477  39.186  1.00  0.00    -0.744 OA
ENDBRANCH  93  96
ENDBRANCH  66  89
ENDBRANCH  40  41
ENDBRANCH  32  35
ENDBRANCH  30  31
ENDBRANCH  29  30
ENDBRANCH   1  29
TORSDOF 18
ENDMDL
