MODEL 1
REMARK VINA RESULT:     -12.2      0.000      0.000
REMARK SMILES CCc1ccc(C[NH+]2CCC(Oc3ccccc3OC)(C(=O)NCCCCNC(=O)c3ccc(-c4c5nc(c(-c6cccc(S(=O)(=O)[O-])c6F)c6ccc([nH]6)c(-c6cccc(S(=O)(=O)[O-])c6F)c6nc(c(-c7cccc(S(=O)(=O)[O-])c7F)c7ccc4[nH]7)C=C6)C=C5)cc3)CC2)nc1
REMARK SMILES IDX 25 1 24 2 23 3 21 4 22 5 11 7 8 8 9 9 95 10 10 12 94 13 7 14
REMARK SMILES IDX 6 15 3 16 4 17 97 18 5 19 96 20 2 21 1 22 12 23 13 24 14 25
REMARK SMILES IDX 18 26 15 27 17 28 16 29 19 30 20 31 26 32 27 33 28 34 29 35
REMARK SMILES IDX 30 37 31 38 32 39 93 40 33 41 92 42 34 43 35 44 36 45 86 46
REMARK SMILES IDX 37 47 91 48 85 49 87 50 38 51 90 52 84 53 83 54 39 56 71 57
REMARK SMILES IDX 51 58 70 59 52 60 55 61 69 62 88 63 53 64 54 65 68 67 89 68
REMARK SMILES IDX 56 69 40 70 41 71 49 72 42 73 44 74 50 75 43 76 45 77 46 78
REMARK SMILES IDX 47 79 48 80 72 81 73 82 81 83 74 84 76 85 82 86 75 87 77 88
REMARK SMILES IDX 78 89 79 90 80 91 57 92 58 93 66 94 59 95 61 96 67 97 60 98
REMARK SMILES IDX 62 99 63 100 64 101 65 102
REMARK H PARENT 23 6 8 11 28 36 87 55 55 66
REMARK Flexibility Score: inf
ROOT
ATOM      1  C   UNL A   1      31.768  30.575  26.612  1.00  0.00     0.023 C 
ENDROOT
BRANCH   1   2
ATOM      2  C   UNL A   1      31.534  30.126  25.173  1.00  0.00     0.116 C 
BRANCH   2   3
ATOM      3  N   UNL A   1      32.746  29.683  24.512  1.00  0.00    -0.353 N 
ATOM      4  C   UNL A   1      32.959  28.680  23.604  1.00  0.00     0.264 C 
ATOM      5  O   UNL A   1      34.045  28.729  23.014  1.00  0.00    -0.270 OA
ATOM      6  H   UNL A   1      33.554  30.189  24.758  1.00  0.00     0.163 HD
BRANCH   4   7
ATOM      7  C   UNL A   1      31.915  27.543  23.328  1.00  0.00     0.197 C 
ATOM      8  N   UNL A   1      32.776  25.175  24.862  1.00  0.00    -0.330 N 
ATOM      9  C   UNL A   1      32.226  26.349  25.544  1.00  0.00     0.267 C 
ATOM     10  C   UNL A   1      33.537  25.578  23.670  1.00  0.00     0.267 C 
ATOM     11  H   UNL A   1      31.996  24.597  24.552  1.00  0.00     0.348 HD
ATOM     12  C   UNL A   1      31.257  27.076  24.631  1.00  0.00     0.120 C 
ATOM     13  C   UNL A   1      32.639  26.338  22.677  1.00  0.00     0.120 C 
BRANCH   8  14
ATOM     14  C   UNL A   1      33.583  24.330  25.781  1.00  0.00     0.319 C 
BRANCH  14  15
ATOM     15  C   UNL A   1      33.452  22.825  25.602  1.00  0.00     0.095 A 
ATOM     16  C   UNL A   1      33.280  20.169  24.854  1.00  0.00    -0.030 A 
ATOM     17  C   UNL A   1      34.494  20.678  25.313  1.00  0.00     0.007 A 
ATOM     18  C   UNL A   1      32.198  21.045  24.830  1.00  0.00     0.115 A 
ATOM     19  C   UNL A   1      34.583  22.014  25.699  1.00  0.00     0.030 A 
ATOM     20  N   UNL A   1      32.250  22.343  25.208  1.00  0.00    -0.255 NA
BRANCH  16  21
ATOM     21  C   UNL A   1      33.136  18.774  24.304  1.00  0.00     0.034 C 
ATOM     22  C   UNL A   1      34.431  17.977  24.242  1.00  0.00     0.009 C 
ENDBRANCH  16  21
ENDBRANCH  14  15
ENDBRANCH   8  14
BRANCH   7  23
ATOM     23  O   UNL A   1      30.939  28.205  22.489  1.00  0.00    -0.473 OA
BRANCH  23  24
ATOM     24  C   UNL A   1      29.645  28.315  22.891  1.00  0.00     0.162 A 
ATOM     25  C   UNL A   1      29.080  27.187  23.494  1.00  0.00     0.050 A 
ATOM     26  C   UNL A   1      28.829  29.402  22.558  1.00  0.00     0.160 A 
ATOM     27  C   UNL A   1      27.724  27.161  23.818  1.00  0.00     0.004 A 
ATOM     28  C   UNL A   1      27.473  29.378  22.901  1.00  0.00     0.050 A 
ATOM     29  C   UNL A   1      26.919  28.257  23.520  1.00  0.00     0.004 A 
BRANCH  26  30
ATOM     30  O   UNL A   1      29.252  30.559  21.963  1.00  0.00    -0.493 OA
ATOM     31  C   UNL A   1      28.229  31.244  21.251  1.00  0.00     0.278 C 
ENDBRANCH  26  30
ENDBRANCH  23  24
ENDBRANCH   7  23
ENDBRANCH   4   7
ENDBRANCH   2   3
ENDBRANCH   1   2
BRANCH   1  32
ATOM     32  C   UNL A   1      31.454  32.041  26.886  1.00  0.00     0.023 C 
BRANCH  32  33
ATOM     33  C   UNL A   1      32.648  32.984  26.822  1.00  0.00     0.116 C 
BRANCH  33  34
ATOM     34  N   UNL A   1      32.477  34.196  27.613  1.00  0.00    -0.352 N 
ATOM     35  C   UNL A   1      33.199  34.609  28.707  1.00  0.00     0.251 C 
ATOM     36  H   UNL A   1      31.752  34.798  27.326  1.00  0.00     0.163 HD
ATOM     37  O   UNL A   1      32.863  35.613  29.331  1.00  0.00    -0.269 OA
BRANCH  35  38
ATOM     38  C   UNL A   1      34.359  33.806  29.148  1.00  0.00     0.039 A 
ATOM     39  C   UNL A   1      35.646  34.234  28.813  1.00  0.00     0.014 A 
ATOM     40  C   UNL A   1      34.173  32.671  29.941  1.00  0.00     0.014 A 
ATOM     41  C   UNL A   1      36.751  33.563  29.338  1.00  0.00     0.010 A 
ATOM     42  C   UNL A   1      35.273  32.058  30.529  1.00  0.00     0.010 A 
ATOM     43  C   UNL A   1      36.573  32.493  30.233  1.00  0.00    -0.014 A 
BRANCH  43  44
ATOM     44  C   UNL A   1      37.730  31.829  30.886  1.00  0.00     0.031 A 
ATOM     45  C   UNL A   1      38.500  30.764  30.153  1.00  0.00     0.074 A 
ATOM     46  C   UNL A   1      38.021  32.108  32.172  1.00  0.00     0.049 A 
ATOM     47  N   UNL A   1      39.494  30.028  30.577  1.00  0.00    -0.248 NA
ATOM     48  C   UNL A   1      38.077  30.462  28.775  1.00  0.00     0.031 C 
ATOM     49  C   UNL A   1      37.288  33.052  33.019  1.00  0.00     0.029 A 
ATOM     50  N   UNL A   1      38.991  31.603  33.001  1.00  0.00    -0.354 N 
ATOM     51  C   UNL A   1      39.786  29.152  29.540  1.00  0.00     0.074 A 
ATOM     52  C   UNL A   1      38.843  29.423  28.478  1.00  0.00     0.031 C 
ATOM     53  C   UNL A   1      37.834  33.056  34.246  1.00  0.00     0.029 A 
ATOM     54  C   UNL A   1      38.936  32.100  34.283  1.00  0.00     0.049 A 
ATOM     55  H   UNL A   1      39.663  30.946  32.706  1.00  0.00     0.167 HD
ATOM     56  C   UNL A   1      40.771  28.225  29.463  1.00  0.00     0.034 A 
ATOM     57  C   UNL A   1      39.683  31.813  35.367  1.00  0.00     0.034 A 
ATOM     58  C   UNL A   1      41.739  27.994  30.501  1.00  0.00     0.049 A 
ATOM     59  C   UNL A   1      40.811  30.825  35.236  1.00  0.00     0.074 A 
ATOM     60  C   UNL A   1      42.841  27.158  30.477  1.00  0.00     0.029 A 
ATOM     61  N   UNL A   1      41.718  28.594  31.749  1.00  0.00    -0.354 N 
ATOM     62  N   UNL A   1      41.186  30.136  34.186  1.00  0.00    -0.248 NA
ATOM     63  C   UNL A   1      41.644  30.604  36.427  1.00  0.00     0.031 C 
ATOM     64  C   UNL A   1      43.473  27.235  31.722  1.00  0.00     0.029 A 
ATOM     65  C   UNL A   1      42.780  28.140  32.511  1.00  0.00     0.049 A 
ATOM     66  H   UNL A   1      41.046  29.249  32.051  1.00  0.00     0.167 HD
ATOM     67  C   UNL A   1      42.314  29.427  34.577  1.00  0.00     0.074 A 
ATOM     68  C   UNL A   1      42.576  29.787  35.955  1.00  0.00     0.031 C 
ATOM     69  C   UNL A   1      43.059  28.545  33.865  1.00  0.00     0.034 A 
BRANCH  56  70
ATOM     70  C   UNL A   1      40.883  27.426  28.191  1.00  0.00     0.023 A 
ATOM     71  C   UNL A   1      41.516  27.994  27.066  1.00  0.00     0.012 A 
ATOM     72  C   UNL A   1      40.414  26.100  28.123  1.00  0.00     0.148 A 
ATOM     73  C   UNL A   1      41.647  27.270  25.882  1.00  0.00     0.002 A 
ATOM     74  C   UNL A   1      40.591  25.368  26.954  1.00  0.00     0.091 A 
ATOM     75  F   UNL A   1      39.795  25.584  29.194  1.00  0.00    -0.205 F 
ATOM     76  C   UNL A   1      41.195  25.955  25.830  1.00  0.00     0.022 A 
BRANCH  74  77
ATOM     77  S   UNL A   1      40.116  23.642  26.813  1.00  0.00     0.127 S 
ATOM     78  O   UNL A   1      38.700  23.752  26.468  1.00  0.00    -0.237 OA
ATOM     79  O   UNL A   1      40.974  23.174  25.724  1.00  0.00    -0.237 OA
ATOM     80  O   UNL A   1      40.400  23.041  28.109  1.00  0.00    -0.744 OA
ENDBRANCH  74  77
ENDBRANCH  56  70
BRANCH  57  81
ATOM     81  C   UNL A   1      39.429  32.523  36.652  1.00  0.00     0.023 A 
ATOM     82  C   UNL A   1      40.148  33.699  36.946  1.00  0.00     0.012 A 
ATOM     83  C   UNL A   1      38.458  32.066  37.563  1.00  0.00     0.148 A 
ATOM     84  C   UNL A   1      39.927  34.388  38.140  1.00  0.00     0.002 A 
ATOM     85  C   UNL A   1      38.202  32.788  38.724  1.00  0.00     0.091 A 
ATOM     86  F   UNL A   1      37.791  30.941  37.270  1.00  0.00    -0.205 F 
ATOM     87  C   UNL A   1      38.948  33.939  39.022  1.00  0.00     0.022 A 
BRANCH  85  88
ATOM     88  S   UNL A   1      36.869  32.362  39.849  1.00  0.00     0.127 S 
ATOM     89  O   UNL A   1      37.292  31.051  40.334  1.00  0.00    -0.237 OA
ATOM     90  O   UNL A   1      36.950  33.439  40.837  1.00  0.00    -0.237 OA
ATOM     91  O   UNL A   1      35.654  32.379  39.045  1.00  0.00    -0.744 OA
ENDBRANCH  85  88
ENDBRANCH  57  81
BRANCH  69  92
ATOM     92  C   UNL A   1      44.253  27.926  34.544  1.00  0.00     0.023 A 
ATOM     93  C   UNL A   1      45.500  28.579  34.501  1.00  0.00     0.012 A 
ATOM     94  C   UNL A   1      44.118  26.740  35.292  1.00  0.00     0.148 A 
ATOM     95  C   UNL A   1      46.602  28.045  35.167  1.00  0.00     0.002 A 
ATOM     96  C   UNL A   1      45.208  26.240  35.994  1.00  0.00     0.091 A 
ATOM     97  F   UNL A   1      42.927  26.123  35.305  1.00  0.00    -0.205 F 
ATOM     98  C   UNL A   1      46.453  26.884  35.923  1.00  0.00     0.022 A 
BRANCH  96  99
ATOM     99  S   UNL A   1      45.084  24.807  37.070  1.00  0.00     0.127 S 
ATOM    100  O   UNL A   1      44.103  25.258  38.055  1.00  0.00    -0.237 OA
ATOM    101  O   UNL A   1      44.599  23.772  36.156  1.00  0.00    -0.237 OA
ATOM    102  O   UNL A   1      46.427  24.575  37.585  1.00  0.00    -0.744 OA
ENDBRANCH  96  99
ENDBRANCH  69  92
ENDBRANCH  43  44
ENDBRANCH  35  38
ENDBRANCH  33  34
ENDBRANCH  32  33
ENDBRANCH   1  32
TORSDOF 20
ENDMDL
MODEL 2
REMARK VINA RESULT:     -12.1      5.813     10.877
REMARK SMILES CCc1ccc(C[NH+]2CCC(Oc3ccccc3OC)(C(=O)NCCCCNC(=O)c3ccc(-c4c5nc(c(-c6cccc(S(=O)(=O)[O-])c6F)c6ccc([nH]6)c(-c6cccc(S(=O)(=O)[O-])c6F)c6nc(c(-c7cccc(S(=O)(=O)[O-])c7F)c7ccc4[nH]7)C=C6)C=C5)cc3)CC2)nc1
REMARK SMILES IDX 25 1 24 2 23 3 21 4 22 5 11 7 8 8 9 9 95 10 10 12 94 13 7 14
REMARK SMILES IDX 6 15 3 16 4 17 97 18 5 19 96 20 2 21 1 22 12 23 13 24 14 25
REMARK SMILES IDX 18 26 15 27 17 28 16 29 19 30 20 31 26 32 27 33 28 34 29 35
REMARK SMILES IDX 30 37 31 38 32 39 93 40 33 41 92 42 34 43 35 44 36 45 86 46
REMARK SMILES IDX 37 47 91 48 85 49 87 50 38 51 90 52 84 53 83 54 39 56 71 57
REMARK SMILES IDX 51 58 70 59 52 60 55 61 69 62 88 63 53 64 54 65 68 67 89 68
REMARK SMILES IDX 56 69 40 70 41 71 49 72 42 73 44 74 50 75 43 76 45 77 46 78
REMARK SMILES IDX 47 79 48 80 72 81 73 82 81 83 74 84 76 85 82 86 75 87 77 88
REMARK SMILES IDX 78 89 79 90 80 91 57 92 58 93 66 94 59 95 61 96 67 97 60 98
REMARK SMILES IDX 62 99 63 100 64 101 65 102
REMARK H PARENT 23 6 8 11 28 36 87 55 55 66
REMARK Flexibility Score: inf
ROOT
ATOM      1  C   UNL A   1      37.376  21.822  24.330  1.00  0.00     0.023 C 
ENDROOT
BRANCH   1   2
ATOM      2  C   UNL A   1      37.240  23.054  25.219  1.00  0.00     0.116 C 
BRANCH   2   3
ATOM      3  N   UNL A   1      36.256  22.889  26.272  1.00  0.00    -0.353 N 
ATOM      4  C   UNL A   1      34.904  23.104  26.279  1.00  0.00     0.264 C 
ATOM      5  O   UNL A   1      34.299  22.606  27.236  1.00  0.00    -0.270 OA
ATOM      6  H   UNL A   1      36.624  22.568  27.127  1.00  0.00     0.163 HD
BRANCH   4   7
ATOM      7  C   UNL A   1      34.164  23.926  25.167  1.00  0.00     0.197 C 
ATOM      8  N   UNL A   1      32.461  22.038  23.671  1.00  0.00    -0.330 N 
ATOM      9  C   UNL A   1      32.120  22.429  25.041  1.00  0.00     0.267 C 
ATOM     10  C   UNL A   1      33.920  21.989  23.495  1.00  0.00     0.267 C 
ATOM     11  H   UNL A   1      32.095  22.750  23.040  1.00  0.00     0.348 HD
ATOM     12  C   UNL A   1      32.645  23.824  25.330  1.00  0.00     0.120 C 
ATOM     13  C   UNL A   1      34.554  23.363  23.777  1.00  0.00     0.120 C 
BRANCH   8  14
ATOM     14  C   UNL A   1      31.808  20.760  23.283  1.00  0.00     0.319 C 
BRANCH  14  15
ATOM     15  C   UNL A   1      32.451  19.487  23.812  1.00  0.00     0.095 A 
ATOM     16  C   UNL A   1      33.212  17.014  24.785  1.00  0.00    -0.030 A 
ATOM     17  C   UNL A   1      33.255  17.257  23.412  1.00  0.00     0.007 A 
ATOM     18  C   UNL A   1      32.808  18.067  25.599  1.00  0.00     0.115 A 
ATOM     19  C   UNL A   1      32.881  18.504  22.918  1.00  0.00     0.030 A 
ATOM     20  N   UNL A   1      32.448  19.292  25.151  1.00  0.00    -0.255 NA
BRANCH  16  21
ATOM     21  C   UNL A   1      33.482  15.658  25.382  1.00  0.00     0.034 C 
ATOM     22  C   UNL A   1      32.245  14.795  25.590  1.00  0.00     0.009 C 
ENDBRANCH  16  21
ENDBRANCH  14  15
ENDBRANCH   8  14
BRANCH   7  23
ATOM     23  O   UNL A   1      34.601  25.281  25.430  1.00  0.00    -0.473 OA
BRANCH  23  24
ATOM     24  C   UNL A   1      33.741  26.323  25.287  1.00  0.00     0.162 A 
ATOM     25  C   UNL A   1      33.088  26.757  26.445  1.00  0.00     0.050 A 
ATOM     26  C   UNL A   1      33.349  26.829  24.043  1.00  0.00     0.160 A 
ATOM     27  C   UNL A   1      32.092  27.731  26.374  1.00  0.00     0.004 A 
ATOM     28  C   UNL A   1      32.362  27.817  23.979  1.00  0.00     0.050 A 
ATOM     29  C   UNL A   1      31.727  28.261  25.140  1.00  0.00     0.004 A 
BRANCH  26  30
ATOM     30  O   UNL A   1      33.900  26.485  22.838  1.00  0.00    -0.493 OA
ATOM     31  C   UNL A   1      32.945  26.342  21.793  1.00  0.00     0.278 C 
ENDBRANCH  26  30
ENDBRANCH  23  24
ENDBRANCH   7  23
ENDBRANCH   4   7
ENDBRANCH   2   3
ENDBRANCH   1   2
BRANCH   1  32
ATOM     32  C   UNL A   1      37.751  20.539  25.064  1.00  0.00     0.023 C 
BRANCH  32  33
ATOM     33  C   UNL A   1      38.893  20.673  26.063  1.00  0.00     0.116 C 
BRANCH  33  34
ATOM     34  N   UNL A   1      39.843  19.569  26.014  1.00  0.00    -0.352 N 
ATOM     35  C   UNL A   1      41.212  19.616  26.129  1.00  0.00     0.251 C 
ATOM     36  H   UNL A   1      39.454  18.673  25.883  1.00  0.00     0.163 HD
ATOM     37  O   UNL A   1      41.885  18.602  25.963  1.00  0.00    -0.269 OA
BRANCH  35  38
ATOM     38  C   UNL A   1      41.865  20.911  26.415  1.00  0.00     0.039 A 
ATOM     39  C   UNL A   1      42.169  21.766  25.353  1.00  0.00     0.014 A 
ATOM     40  C   UNL A   1      42.117  21.301  27.733  1.00  0.00     0.014 A 
ATOM     41  C   UNL A   1      42.657  23.046  25.620  1.00  0.00     0.010 A 
ATOM     42  C   UNL A   1      42.523  22.603  27.998  1.00  0.00     0.010 A 
ATOM     43  C   UNL A   1      42.801  23.489  26.946  1.00  0.00    -0.014 A 
BRANCH  43  44
ATOM     44  C   UNL A   1      43.220  24.879  27.257  1.00  0.00     0.031 A 
ATOM     45  C   UNL A   1      42.253  25.831  27.909  1.00  0.00     0.074 A 
ATOM     46  C   UNL A   1      44.432  25.315  26.860  1.00  0.00     0.049 A 
ATOM     47  N   UNL A   1      42.412  27.096  28.199  1.00  0.00    -0.248 NA
ATOM     48  C   UNL A   1      40.921  25.302  28.249  1.00  0.00     0.031 C 
ATOM     49  C   UNL A   1      45.422  24.517  26.135  1.00  0.00     0.029 A 
ATOM     50  N   UNL A   1      45.025  26.547  26.982  1.00  0.00    -0.354 N 
ATOM     51  C   UNL A   1      41.195  27.523  28.713  1.00  0.00     0.074 A 
ATOM     52  C   UNL A   1      40.294  26.392  28.664  1.00  0.00     0.031 C 
ATOM     53  C   UNL A   1      46.498  25.278  25.876  1.00  0.00     0.029 A 
ATOM     54  C   UNL A   1      46.266  26.623  26.392  1.00  0.00     0.049 A 
ATOM     55  H   UNL A   1      44.603  27.305  27.448  1.00  0.00     0.167 HD
ATOM     56  C   UNL A   1      40.862  28.737  29.211  1.00  0.00     0.034 A 
ATOM     57  C   UNL A   1      47.117  27.661  26.272  1.00  0.00     0.034 A 
ATOM     58  C   UNL A   1      41.776  29.844  29.305  1.00  0.00     0.049 A 
ATOM     59  C   UNL A   1      46.748  28.983  26.891  1.00  0.00     0.074 A 
ATOM     60  C   UNL A   1      41.571  31.080  29.893  1.00  0.00     0.029 A 
ATOM     61  N   UNL A   1      43.063  29.852  28.793  1.00  0.00    -0.354 N 
ATOM     62  N   UNL A   1      45.657  29.316  27.536  1.00  0.00    -0.248 NA
ATOM     63  C   UNL A   1      47.744  30.062  26.799  1.00  0.00     0.031 C 
ATOM     64  C   UNL A   1      42.728  31.844  29.714  1.00  0.00     0.029 A 
ATOM     65  C   UNL A   1      43.662  31.075  29.039  1.00  0.00     0.049 A 
ATOM     66  H   UNL A   1      43.489  29.099  28.322  1.00  0.00     0.167 HD
ATOM     67  C   UNL A   1      45.846  30.627  27.956  1.00  0.00     0.074 A 
ATOM     68  C   UNL A   1      47.167  31.021  27.511  1.00  0.00     0.031 C 
ATOM     69  C   UNL A   1      44.997  31.437  28.636  1.00  0.00     0.034 A 
BRANCH  56  70
ATOM     70  C   UNL A   1      39.465  28.918  29.742  1.00  0.00     0.023 A 
ATOM     71  C   UNL A   1      39.177  28.571  31.079  1.00  0.00     0.012 A 
ATOM     72  C   UNL A   1      38.450  29.479  28.941  1.00  0.00     0.148 A 
ATOM     73  C   UNL A   1      37.896  28.745  31.599  1.00  0.00     0.002 A 
ATOM     74  C   UNL A   1      37.187  29.691  29.482  1.00  0.00     0.091 A 
ATOM     75  F   UNL A   1      38.735  29.780  27.667  1.00  0.00    -0.205 F 
ATOM     76  C   UNL A   1      36.905  29.314  30.804  1.00  0.00     0.022 A 
BRANCH  74  77
ATOM     77  S   UNL A   1      35.866  30.492  28.566  1.00  0.00     0.127 S 
ATOM     78  O   UNL A   1      36.618  31.333  27.636  1.00  0.00    -0.237 OA
ATOM     79  O   UNL A   1      35.187  29.355  27.945  1.00  0.00    -0.237 OA
ATOM     80  O   UNL A   1      35.071  31.208  29.554  1.00  0.00    -0.744 OA
ENDBRANCH  74  77
ENDBRANCH  56  70
BRANCH  57  81
ATOM     81  C   UNL A   1      48.431  27.469  25.597  1.00  0.00     0.023 A 
ATOM     82  C   UNL A   1      49.553  27.089  26.360  1.00  0.00     0.012 A 
ATOM     83  C   UNL A   1      48.569  27.622  24.204  1.00  0.00     0.148 A 
ATOM     84  C   UNL A   1      50.795  26.896  25.754  1.00  0.00     0.002 A 
ATOM     85  C   UNL A   1      49.795  27.374  23.598  1.00  0.00     0.091 A 
ATOM     86  F   UNL A   1      47.493  27.993  23.496  1.00  0.00    -0.205 F 
ATOM     87  C   UNL A   1      50.913  27.028  24.373  1.00  0.00     0.022 A 
BRANCH  85  88
ATOM     88  S   UNL A   1      50.008  27.385  21.814  1.00  0.00     0.127 S 
ATOM     89  O   UNL A   1      51.412  27.007  21.677  1.00  0.00    -0.237 OA
ATOM     90  O   UNL A   1      49.050  26.363  21.388  1.00  0.00    -0.237 OA
ATOM     91  O   UNL A   1      49.671  28.736  21.386  1.00  0.00    -0.744 OA
ENDBRANCH  85  88
ENDBRANCH  57  81
BRANCH  69  92
ATOM     92  C   UNL A   1      45.474  32.825  28.975  1.00  0.00     0.023 A 
ATOM     93  C   UNL A   1      46.188  33.048  30.169  1.00  0.00     0.012 A 
ATOM     94  C   UNL A   1      45.285  33.890  28.073  1.00  0.00     0.148 A 
ATOM     95  C   UNL A   1      46.680  34.317  30.474  1.00  0.00     0.002 A 
ATOM     96  C   UNL A   1      45.820  35.139  28.359  1.00  0.00     0.091 A 
ATOM     97  F   UNL A   1      44.586  33.662  26.951  1.00  0.00    -0.205 F 
ATOM     98  C   UNL A   1      46.508  35.358  29.564  1.00  0.00     0.022 A 
BRANCH  96  99
ATOM     99  S   UNL A   1      45.732  36.512  27.204  1.00  0.00     0.127 S 
ATOM    100  O   UNL A   1      44.289  36.696  27.069  1.00  0.00    -0.237 OA
ATOM    101  O   UNL A   1      46.418  37.579  27.935  1.00  0.00    -0.237 OA
ATOM    102  O   UNL A   1      46.422  36.067  26.000  1.00  0.00    -0.744 OA
ENDBRANCH  96  99
ENDBRANCH  69  92
ENDBRANCH  43  44
ENDBRANCH  35  38
ENDBRANCH  33  34
ENDBRANCH  32  33
ENDBRANCH   1  32
TORSDOF 20
ENDMDL
MODEL 3
REMARK VINA RESULT:     -12.1      1.634      7.456
REMARK SMILES CCc1ccc(C[NH+]2CCC(Oc3ccccc3OC)(C(=O)NCCCCNC(=O)c3ccc(-c4c5nc(c(-c6cccc(S(=O)(=O)[O-])c6F)c6ccc([nH]6)c(-c6cccc(S(=O)(=O)[O-])c6F)c6nc(c(-c7cccc(S(=O)(=O)[O-])c7F)c7ccc4[nH]7)C=C6)C=C5)cc3)CC2)nc1
REMARK SMILES IDX 25 1 24 2 23 3 21 4 22 5 11 7 8 8 9 9 95 10 10 12 94 13 7 14
REMARK SMILES IDX 6 15 3 16 4 17 97 18 5 19 96 20 2 21 1 22 12 23 13 24 14 25
REMARK SMILES IDX 18 26 15 27 17 28 16 29 19 30 20 31 26 32 27 33 28 34 29 35
REMARK SMILES IDX 30 37 31 38 32 39 93 40 33 41 92 42 34 43 35 44 36 45 86 46
REMARK SMILES IDX 37 47 91 48 85 49 87 50 38 51 90 52 84 53 83 54 39 56 71 57
REMARK SMILES IDX 51 58 70 59 52 60 55 61 69 62 88 63 53 64 54 65 68 67 89 68
REMARK SMILES IDX 56 69 40 70 41 71 49 72 42 73 44 74 50 75 43 76 45 77 46 78
REMARK SMILES IDX 47 79 48 80 72 81 73 82 81 83 74 84 76 85 82 86 75 87 77 88
REMARK SMILES IDX 78 89 79 90 80 91 57 92 58 93 66 94 59 95 61 96 67 97 60 98
REMARK SMILES IDX 62 99 63 100 64 101 65 102
REMARK H PARENT 23 6 8 11 28 36 87 55 55 66
REMARK Flexibility Score: inf
ROOT
ATOM      1  C   UNL A   1      32.061  30.662  26.863  1.00  0.00     0.023 C 
ENDROOT
BRANCH   1   2
ATOM      2  C   UNL A   1      31.692  29.982  25.548  1.00  0.00     0.116 C 
BRANCH   2   3
ATOM      3  N   UNL A   1      32.842  29.704  24.710  1.00  0.00    -0.353 N 
ATOM      4  C   UNL A   1      32.990  28.864  23.639  1.00  0.00     0.264 C 
ATOM      5  O   UNL A   1      34.007  29.055  22.960  1.00  0.00    -0.270 OA
ATOM      6  H   UNL A   1      33.655  30.205  24.953  1.00  0.00     0.163 HD
BRANCH   4   7
ATOM      7  C   UNL A   1      31.960  27.734  23.291  1.00  0.00     0.197 C 
ATOM      8  N   UNL A   1      32.876  25.272  24.634  1.00  0.00    -0.330 N 
ATOM      9  C   UNL A   1      32.318  26.383  25.408  1.00  0.00     0.267 C 
ATOM     10  C   UNL A   1      33.615  25.775  23.466  1.00  0.00     0.267 C 
ATOM     11  H   UNL A   1      32.101  24.706  24.290  1.00  0.00     0.348 HD
ATOM     12  C   UNL A   1      31.326  27.161  24.562  1.00  0.00     0.120 C 
ATOM     13  C   UNL A   1      32.693  26.593  22.543  1.00  0.00     0.120 C 
BRANCH   8  14
ATOM     14  C   UNL A   1      33.708  24.374  25.477  1.00  0.00     0.319 C 
BRANCH  14  15
ATOM     15  C   UNL A   1      33.810  22.926  25.021  1.00  0.00     0.095 A 
ATOM     16  C   UNL A   1      33.839  20.196  24.590  1.00  0.00    -0.030 A 
ATOM     17  C   UNL A   1      32.747  20.949  24.161  1.00  0.00     0.007 A 
ATOM     18  C   UNL A   1      34.884  20.888  25.195  1.00  0.00     0.115 A 
ATOM     19  C   UNL A   1      32.731  22.326  24.369  1.00  0.00     0.030 A 
ATOM     20  N   UNL A   1      34.903  22.225  25.402  1.00  0.00    -0.255 NA
BRANCH  16  21
ATOM     21  C   UNL A   1      33.873  18.692  24.512  1.00  0.00     0.034 C 
ATOM     22  C   UNL A   1      32.544  18.008  24.802  1.00  0.00     0.009 C 
ENDBRANCH  16  21
ENDBRANCH  14  15
ENDBRANCH   8  14
BRANCH   7  23
ATOM     23  O   UNL A   1      30.963  28.441  22.515  1.00  0.00    -0.473 OA
BRANCH  23  24
ATOM     24  C   UNL A   1      29.673  28.499  22.938  1.00  0.00     0.162 A 
ATOM     25  C   UNL A   1      29.085  27.287  23.317  1.00  0.00     0.050 A 
ATOM     26  C   UNL A   1      28.880  29.646  22.825  1.00  0.00     0.160 A 
ATOM     27  C   UNL A   1      27.729  27.228  23.637  1.00  0.00     0.004 A 
ATOM     28  C   UNL A   1      27.524  29.585  23.165  1.00  0.00     0.050 A 
ATOM     29  C   UNL A   1      26.947  28.377  23.561  1.00  0.00     0.004 A 
BRANCH  26  30
ATOM     30  O   UNL A   1      29.327  30.887  22.461  1.00  0.00    -0.493 OA
ATOM     31  C   UNL A   1      28.802  31.941  23.259  1.00  0.00     0.278 C 
ENDBRANCH  26  30
ENDBRANCH  23  24
ENDBRANCH   7  23
ENDBRANCH   4   7
ENDBRANCH   2   3
ENDBRANCH   1   2
BRANCH   1  32
ATOM     32  C   UNL A   1      31.856  32.173  26.883  1.00  0.00     0.023 C 
BRANCH  32  33
ATOM     33  C   UNL A   1      32.995  32.974  27.499  1.00  0.00     0.116 C 
BRANCH  33  34
ATOM     34  N   UNL A   1      32.603  34.311  27.928  1.00  0.00    -0.352 N 
ATOM     35  C   UNL A   1      33.124  35.065  28.952  1.00  0.00     0.251 C 
ATOM     36  H   UNL A   1      31.870  34.728  27.418  1.00  0.00     0.163 HD
ATOM     37  O   UNL A   1      32.612  36.140  29.256  1.00  0.00    -0.269 OA
BRANCH  35  38
ATOM     38  C   UNL A   1      34.283  34.547  29.709  1.00  0.00     0.039 A 
ATOM     39  C   UNL A   1      34.062  33.887  30.920  1.00  0.00     0.014 A 
ATOM     40  C   UNL A   1      35.575  34.659  29.189  1.00  0.00     0.014 A 
ATOM     41  C   UNL A   1      35.132  33.274  31.574  1.00  0.00     0.010 A 
ATOM     42  C   UNL A   1      36.622  33.977  29.798  1.00  0.00     0.010 A 
ATOM     43  C   UNL A   1      36.414  33.280  30.997  1.00  0.00    -0.014 A 
BRANCH  43  44
ATOM     44  C   UNL A   1      37.546  32.548  31.619  1.00  0.00     0.031 A 
ATOM     45  C   UNL A   1      38.118  33.017  32.930  1.00  0.00     0.074 A 
ATOM     46  C   UNL A   1      38.127  31.529  30.955  1.00  0.00     0.049 A 
ATOM     47  N   UNL A   1      39.142  32.550  33.595  1.00  0.00    -0.248 NA
ATOM     48  C   UNL A   1      37.476  34.182  33.561  1.00  0.00     0.031 C 
ATOM     49  C   UNL A   1      37.725  31.042  29.633  1.00  0.00     0.029 A 
ATOM     50  N   UNL A   1      39.199  30.738  31.287  1.00  0.00    -0.354 N 
ATOM     51  C   UNL A   1      39.294  33.386  34.694  1.00  0.00     0.074 A 
ATOM     52  C   UNL A   1      38.278  34.410  34.590  1.00  0.00     0.031 C 
ATOM     53  C   UNL A   1      38.539  30.039  29.268  1.00  0.00     0.029 A 
ATOM     54  C   UNL A   1      39.536  29.827  30.313  1.00  0.00     0.049 A 
ATOM     55  H   UNL A   1      39.681  30.816  32.142  1.00  0.00     0.167 HD
ATOM     56  C   UNL A   1      40.178  33.293  35.715  1.00  0.00     0.034 A 
ATOM     57  C   UNL A   1      40.538  28.928  30.263  1.00  0.00     0.034 A 
ATOM     58  C   UNL A   1      41.152  32.244  35.842  1.00  0.00     0.049 A 
ATOM     59  C   UNL A   1      41.467  28.804  31.441  1.00  0.00     0.074 A 
ATOM     60  C   UNL A   1      42.019  31.998  36.892  1.00  0.00     0.029 A 
ATOM     61  N   UNL A   1      41.395  31.272  34.885  1.00  0.00    -0.354 N 
ATOM     62  N   UNL A   1      41.480  29.490  32.557  1.00  0.00    -0.248 NA
ATOM     63  C   UNL A   1      42.497  27.756  31.370  1.00  0.00     0.031 C 
ATOM     64  C   UNL A   1      42.803  30.889  36.558  1.00  0.00     0.029 A 
ATOM     65  C   UNL A   1      42.407  30.429  35.313  1.00  0.00     0.049 A 
ATOM     66  H   UNL A   1      40.919  31.191  34.026  1.00  0.00     0.167 HD
ATOM     67  C   UNL A   1      42.491  28.939  33.334  1.00  0.00     0.074 A 
ATOM     68  C   UNL A   1      43.055  27.846  32.569  1.00  0.00     0.031 C 
ATOM     69  C   UNL A   1      42.924  29.313  34.564  1.00  0.00     0.034 A 
BRANCH  56  70
ATOM     70  C   UNL A   1      40.096  34.327  36.807  1.00  0.00     0.023 A 
ATOM     71  C   UNL A   1      40.539  35.642  36.556  1.00  0.00     0.012 A 
ATOM     72  C   UNL A   1      39.534  34.016  38.061  1.00  0.00     0.148 A 
ATOM     73  C   UNL A   1      40.458  36.622  37.544  1.00  0.00     0.002 A 
ATOM     74  C   UNL A   1      39.415  35.010  39.026  1.00  0.00     0.091 A 
ATOM     75  F   UNL A   1      39.140  32.756  38.291  1.00  0.00    -0.205 F 
ATOM     76  C   UNL A   1      39.887  36.309  38.774  1.00  0.00     0.022 A 
BRANCH  74  77
ATOM     77  S   UNL A   1      38.621  34.728  40.612  1.00  0.00     0.127 S 
ATOM     78  O   UNL A   1      37.487  33.888  40.229  1.00  0.00    -0.237 OA
ATOM     79  O   UNL A   1      39.667  34.033  41.362  1.00  0.00    -0.237 OA
ATOM     80  O   UNL A   1      38.278  36.046  41.128  1.00  0.00    -0.744 OA
ENDBRANCH  74  77
ENDBRANCH  56  70
BRANCH  57  81
ATOM     81  C   UNL A   1      40.669  28.027  29.084  1.00  0.00     0.023 A 
ATOM     82  C   UNL A   1      39.849  26.885  28.990  1.00  0.00     0.012 A 
ATOM     83  C   UNL A   1      41.569  28.313  28.039  1.00  0.00     0.148 A 
ATOM     84  C   UNL A   1      39.946  26.026  27.894  1.00  0.00     0.002 A 
ATOM     85  C   UNL A   1      41.621  27.485  26.923  1.00  0.00     0.091 A 
ATOM     86  F   UNL A   1      42.347  29.399  28.151  1.00  0.00    -0.205 F 
ATOM     87  C   UNL A   1      40.823  26.332  26.857  1.00  0.00     0.022 A 
BRANCH  85  88
ATOM     88  S   UNL A   1      42.619  27.874  25.482  1.00  0.00     0.127 S 
ATOM     89  O   UNL A   1      42.414  26.692  24.647  1.00  0.00    -0.237 OA
ATOM     90  O   UNL A   1      41.978  29.094  24.989  1.00  0.00    -0.237 OA
ATOM     91  O   UNL A   1      43.973  28.070  25.981  1.00  0.00    -0.744 OA
ENDBRANCH  85  88
ENDBRANCH  57  81
BRANCH  69  92
ATOM     92  C   UNL A   1      44.044  28.518  35.184  1.00  0.00     0.023 A 
ATOM     93  C   UNL A   1      45.382  28.835  34.878  1.00  0.00     0.012 A 
ATOM     94  C   UNL A   1      43.770  27.512  36.131  1.00  0.00     0.148 A 
ATOM     95  C   UNL A   1      46.430  28.142  35.482  1.00  0.00     0.002 A 
ATOM     96  C   UNL A   1      44.820  26.860  36.767  1.00  0.00     0.091 A 
ATOM     97  F   UNL A   1      42.490  27.212  36.395  1.00  0.00    -0.205 F 
ATOM     98  C   UNL A   1      46.150  27.165  36.435  1.00  0.00     0.022 A 
BRANCH  96  99
ATOM     99  S   UNL A   1      44.555  25.658  38.075  1.00  0.00     0.127 S 
ATOM    100  O   UNL A   1      43.830  26.451  39.066  1.00  0.00    -0.237 OA
ATOM    101  O   UNL A   1      43.748  24.638  37.403  1.00  0.00    -0.237 OA
ATOM    102  O   UNL A   1      45.879  25.208  38.480  1.00  0.00    -0.744 OA
ENDBRANCH  96  99
ENDBRANCH  69  92
ENDBRANCH  43  44
ENDBRANCH  35  38
ENDBRANCH  33  34
ENDBRANCH  32  33
ENDBRANCH   1  32
TORSDOF 20
ENDMDL
