MODEL 1
REMARK VINA RESULT:     -12.2      0.000      0.000
REMARK SMILES O=C(NCCCCNC(=O)c1cccnc1Sc1cccc(C(F)(F)F)c1)c1ccc(-c2c3nc(c(-c4cccc(S(=O)(=O)[O-])c4F)c4ccc([nH]4)c(-c4cccc(S(=O)(=O)[O-])c4F)c4nc(c(-c5cccc(S(=O)(=O)[O-])c5F)c5ccc2[nH]5)C=C4)C=C3)cc1
REMARK SMILES IDX 5 1 4 2 3 3 1 4 2 5 28 7 29 8 90 9 30 10 89 11 31 12 32 13
REMARK SMILES IDX 33 14 83 15 34 16 88 17 82 18 84 19 35 20 87 21 81 22 80 23
REMARK SMILES IDX 36 25 68 26 48 27 67 28 49 29 52 30 66 31 85 32 50 33 51 34
REMARK SMILES IDX 65 36 86 37 53 38 37 39 38 40 46 41 39 42 41 43 47 44 40 45
REMARK SMILES IDX 42 46 43 47 44 48 45 49 69 50 70 51 78 52 71 53 73 54 79 55
REMARK SMILES IDX 72 56 74 57 75 58 76 59 77 60 54 61 55 62 63 63 56 64 58 65
REMARK SMILES IDX 64 66 57 67 59 68 60 69 61 70 62 71 6 72 7 73 8 74 9 75
REMARK SMILES IDX 10 77 11 78 12 79 16 80 13 81 15 82 14 83 17 84 18 85 19 86
REMARK SMILES IDX 27 87 20 88 22 89 21 90 23 91 24 92 25 93 26 94
REMARK H PARENT 3 6 84 24 52 35 8 76
REMARK Flexibility Score: inf
ROOT
ATOM      1  C   UNL A   1      31.100  31.966  26.321  1.00  0.00     0.023 C 
ENDROOT
BRANCH   1   2
ATOM      2  C   UNL A   1      32.422  32.458  26.888  1.00  0.00     0.116 C 
BRANCH   2   3
ATOM      3  N   UNL A   1      32.360  33.820  27.388  1.00  0.00    -0.352 N 
ATOM      4  O   UNL A   1      32.825  35.562  28.732  1.00  0.00    -0.269 OA
ATOM      5  C   UNL A   1      33.129  34.436  28.350  1.00  0.00     0.251 C 
ATOM      6  H   UNL A   1      31.666  34.386  26.980  1.00  0.00     0.163 HD
BRANCH   5   7
ATOM      7  C   UNL A   1      34.292  33.733  28.944  1.00  0.00     0.039 A 
ATOM      8  C   UNL A   1      34.122  32.572  29.702  1.00  0.00     0.014 A 
ATOM      9  C   UNL A   1      35.577  34.241  28.735  1.00  0.00     0.014 A 
ATOM     10  C   UNL A   1      35.202  32.024  30.386  1.00  0.00     0.010 A 
ATOM     11  C   UNL A   1      36.679  33.624  29.338  1.00  0.00     0.010 A 
ATOM     12  C   UNL A   1      36.499  32.529  30.197  1.00  0.00    -0.014 A 
BRANCH  12  13
ATOM     13  C   UNL A   1      37.651  31.838  30.834  1.00  0.00     0.031 A 
ATOM     14  C   UNL A   1      38.036  32.096  32.265  1.00  0.00     0.074 A 
ATOM     15  C   UNL A   1      38.364  30.966  30.092  1.00  0.00     0.049 A 
ATOM     16  N   UNL A   1      39.011  31.567  32.960  1.00  0.00    -0.248 NA
ATOM     17  C   UNL A   1      37.236  33.080  33.012  1.00  0.00     0.031 C 
ATOM     18  C   UNL A   1      38.119  30.668  28.678  1.00  0.00     0.029 A 
ATOM     19  N   UNL A   1      39.437  30.175  30.413  1.00  0.00    -0.354 N 
ATOM     20  C   UNL A   1      38.972  32.179  34.208  1.00  0.00     0.074 A 
ATOM     21  C   UNL A   1      37.878  33.127  34.173  1.00  0.00     0.031 C 
ATOM     22  C   UNL A   1      38.996  29.746  28.262  1.00  0.00     0.029 A 
ATOM     23  C   UNL A   1      39.903  29.428  29.357  1.00  0.00     0.049 A 
ATOM     24  H   UNL A   1      39.835  30.144  31.313  1.00  0.00     0.167 HD
ATOM     25  C   UNL A   1      39.765  31.962  35.284  1.00  0.00     0.034 A 
ATOM     26  C   UNL A   1      40.957  28.596  29.265  1.00  0.00     0.034 A 
ATOM     27  C   UNL A   1      40.828  30.990  35.324  1.00  0.00     0.049 A 
ATOM     28  C   UNL A   1      41.801  28.355  30.483  1.00  0.00     0.074 A 
ATOM     29  C   UNL A   1      41.639  30.645  36.393  1.00  0.00     0.029 A 
ATOM     30  N   UNL A   1      41.237  30.216  34.250  1.00  0.00    -0.354 N 
ATOM     31  N   UNL A   1      41.661  28.845  31.690  1.00  0.00    -0.248 NA
ATOM     32  C   UNL A   1      42.929  27.427  30.334  1.00  0.00     0.031 C 
ATOM     33  C   UNL A   1      42.553  29.679  35.958  1.00  0.00     0.029 A 
ATOM     34  C   UNL A   1      42.296  29.404  34.624  1.00  0.00     0.049 A 
ATOM     35  H   UNL A   1      40.834  30.239  33.351  1.00  0.00     0.167 HD
ATOM     36  C   UNL A   1      42.670  28.269  32.452  1.00  0.00     0.074 A 
ATOM     37  C   UNL A   1      43.393  27.371  31.575  1.00  0.00     0.031 C 
ATOM     38  C   UNL A   1      42.979  28.480  33.755  1.00  0.00     0.034 A 
BRANCH  25  39
ATOM     39  C   UNL A   1      39.497  32.763  36.534  1.00  0.00     0.023 A 
ATOM     40  C   UNL A   1      40.092  34.031  36.691  1.00  0.00     0.012 A 
ATOM     41  C   UNL A   1      38.596  32.298  37.514  1.00  0.00     0.148 A 
ATOM     42  C   UNL A   1      39.820  34.811  37.816  1.00  0.00     0.002 A 
ATOM     43  C   UNL A   1      38.298  33.099  38.612  1.00  0.00     0.091 A 
ATOM     44  F   UNL A   1      38.052  31.083  37.358  1.00  0.00    -0.205 F 
ATOM     45  C   UNL A   1      38.916  34.350  38.769  1.00  0.00     0.022 A 
BRANCH  43  46
ATOM     46  S   UNL A   1      37.088  32.627  39.855  1.00  0.00     0.127 S 
ATOM     47  O   UNL A   1      37.187  33.737  40.800  1.00  0.00    -0.237 OA
ATOM     48  O   UNL A   1      35.846  32.594  39.081  1.00  0.00    -0.237 OA
ATOM     49  O   UNL A   1      37.519  31.332  40.361  1.00  0.00    -0.744 OA
ENDBRANCH  43  46
ENDBRANCH  25  39
BRANCH  26  50
ATOM     50  C   UNL A   1      41.239  27.905  27.976  1.00  0.00     0.023 A 
ATOM     51  C   UNL A   1      41.711  28.649  26.878  1.00  0.00     0.012 A 
ATOM     52  C   UNL A   1      41.099  26.510  27.852  1.00  0.00     0.148 A 
ATOM     53  C   UNL A   1      42.017  28.018  25.672  1.00  0.00     0.002 A 
ATOM     54  C   UNL A   1      41.463  25.879  26.669  1.00  0.00     0.091 A 
ATOM     55  F   UNL A   1      40.634  25.821  28.904  1.00  0.00    -0.205 F 
ATOM     56  C   UNL A   1      41.907  26.634  25.571  1.00  0.00     0.022 A 
BRANCH  54  57
ATOM     57  S   UNL A   1      41.496  24.091  26.507  1.00  0.00     0.127 S 
ATOM     58  O   UNL A   1      40.075  23.778  26.372  1.00  0.00    -0.237 OA
ATOM     59  O   UNL A   1      42.286  23.909  25.288  1.00  0.00    -0.237 OA
ATOM     60  O   UNL A   1      42.144  23.601  27.716  1.00  0.00    -0.744 OA
ENDBRANCH  54  57
ENDBRANCH  26  50
BRANCH  38  61
ATOM     61  C   UNL A   1      44.140  27.707  34.323  1.00  0.00     0.023 A 
ATOM     62  C   UNL A   1      45.440  28.244  34.245  1.00  0.00     0.012 A 
ATOM     63  C   UNL A   1      43.935  26.481  34.984  1.00  0.00     0.148 A 
ATOM     64  C   UNL A   1      46.525  27.556  34.788  1.00  0.00     0.002 A 
ATOM     65  C   UNL A   1      45.014  25.823  35.564  1.00  0.00     0.091 A 
ATOM     66  F   UNL A   1      42.693  25.977  35.028  1.00  0.00    -0.205 F 
ATOM     67  C   UNL A   1      46.310  26.353  35.457  1.00  0.00     0.022 A 
BRANCH  65  68
ATOM     68  S   UNL A   1      44.817  24.317  36.522  1.00  0.00     0.127 S 
ATOM     69  O   UNL A   1      46.206  23.965  36.813  1.00  0.00    -0.237 OA
ATOM     70  O   UNL A   1      44.050  24.781  37.679  1.00  0.00    -0.237 OA
ATOM     71  O   UNL A   1      44.103  23.385  35.659  1.00  0.00    -0.744 OA
ENDBRANCH  65  68
ENDBRANCH  38  61
ENDBRANCH  12  13
ENDBRANCH   5   7
ENDBRANCH   2   3
ENDBRANCH   1   2
BRANCH   1  72
ATOM     72  C   UNL A   1      31.164  30.700  25.476  1.00  0.00     0.023 C 
BRANCH  72  73
ATOM     73  C   UNL A   1      32.312  29.753  25.804  1.00  0.00     0.116 C 
BRANCH  73  74
ATOM     74  N   UNL A   1      33.337  29.676  24.767  1.00  0.00    -0.352 N 
ATOM     75  C   UNL A   1      33.745  28.582  24.043  1.00  0.00     0.254 C 
ATOM     76  H   UNL A   1      33.796  30.522  24.560  1.00  0.00     0.163 HD
ATOM     77  O   UNL A   1      34.463  28.708  23.052  1.00  0.00    -0.269 OA
BRANCH  75  78
ATOM     78  C   UNL A   1      33.234  27.260  24.402  1.00  0.00     0.072 A 
ATOM     79  C   UNL A   1      33.805  26.686  25.553  1.00  0.00     0.018 A 
ATOM     80  C   UNL A   1      32.267  26.556  23.687  1.00  0.00     0.113 A 
ATOM     81  C   UNL A   1      33.465  25.396  25.929  1.00  0.00     0.021 A 
ATOM     82  N   UNL A   1      31.938  25.285  24.076  1.00  0.00    -0.249 NA
ATOM     83  C   UNL A   1      32.537  24.737  25.156  1.00  0.00     0.112 A 
BRANCH  80  84
ATOM     84  S   UNL A   1      31.321  26.998  22.249  1.00  0.00    -0.069 SA
BRANCH  84  85
ATOM     85  C   UNL A   1      29.846  27.853  22.714  1.00  0.00     0.014 A 
ATOM     86  C   UNL A   1      28.817  27.170  23.372  1.00  0.00     0.015 A 
ATOM     87  C   UNL A   1      29.633  29.176  22.310  1.00  0.00     0.028 A 
ATOM     88  C   UNL A   1      27.612  27.811  23.665  1.00  0.00     0.002 A 
ATOM     89  C   UNL A   1      28.426  29.833  22.603  1.00  0.00     0.057 A 
ATOM     90  C   UNL A   1      27.420  29.139  23.290  1.00  0.00     0.013 A 
BRANCH  89  91
ATOM     91  C   UNL A   1      28.201  31.267  22.197  1.00  0.00     0.416 C 
ATOM     92  F   UNL A   1      29.347  31.999  22.182  1.00  0.00    -0.166 F 
ATOM     93  F   UNL A   1      27.667  31.369  20.948  1.00  0.00    -0.166 F 
ATOM     94  F   UNL A   1      27.344  31.932  23.023  1.00  0.00    -0.166 F 
ENDBRANCH  89  91
ENDBRANCH  84  85
ENDBRANCH  80  84
ENDBRANCH  75  78
ENDBRANCH  73  74
ENDBRANCH  72  73
ENDBRANCH   1  72
TORSDOF 17
ENDMDL
MODEL 2
REMARK VINA RESULT:     -12.2      0.409      7.480
REMARK SMILES O=C(NCCCCNC(=O)c1cccnc1Sc1cccc(C(F)(F)F)c1)c1ccc(-c2c3nc(c(-c4cccc(S(=O)(=O)[O-])c4F)c4ccc([nH]4)c(-c4cccc(S(=O)(=O)[O-])c4F)c4nc(c(-c5cccc(S(=O)(=O)[O-])c5F)c5ccc2[nH]5)C=C4)C=C3)cc1
REMARK SMILES IDX 5 1 4 2 3 3 1 4 2 5 28 7 29 8 90 9 30 10 89 11 31 12 32 13
REMARK SMILES IDX 33 14 83 15 34 16 88 17 82 18 84 19 35 20 87 21 81 22 80 23
REMARK SMILES IDX 36 25 68 26 48 27 67 28 49 29 52 30 66 31 85 32 50 33 51 34
REMARK SMILES IDX 65 36 86 37 53 38 37 39 38 40 46 41 39 42 41 43 47 44 40 45
REMARK SMILES IDX 42 46 43 47 44 48 45 49 69 50 70 51 78 52 71 53 73 54 79 55
REMARK SMILES IDX 72 56 74 57 75 58 76 59 77 60 54 61 55 62 63 63 56 64 58 65
REMARK SMILES IDX 64 66 57 67 59 68 60 69 61 70 62 71 6 72 7 73 8 74 9 75
REMARK SMILES IDX 10 77 11 78 12 79 16 80 13 81 15 82 14 83 17 84 18 85 19 86
REMARK SMILES IDX 27 87 20 88 22 89 21 90 23 91 24 92 25 93 26 94
REMARK H PARENT 3 6 84 24 52 35 8 76
REMARK Flexibility Score: inf
ROOT
ATOM      1  C   UNL A   1      31.017  31.978  26.364  1.00  0.00     0.023 C 
ENDROOT
BRANCH   1   2
ATOM      2  C   UNL A   1      32.350  32.477  26.896  1.00  0.00     0.116 C 
BRANCH   2   3
ATOM      3  N   UNL A   1      32.296  33.841  27.391  1.00  0.00    -0.352 N 
ATOM      4  O   UNL A   1      32.768  35.585  28.730  1.00  0.00    -0.269 OA
ATOM      5  C   UNL A   1      33.066  34.455  28.353  1.00  0.00     0.251 C 
ATOM      6  H   UNL A   1      31.607  34.410  26.979  1.00  0.00     0.163 HD
BRANCH   5   7
ATOM      7  C   UNL A   1      34.222  33.746  28.954  1.00  0.00     0.039 A 
ATOM      8  C   UNL A   1      34.039  32.603  29.736  1.00  0.00     0.014 A 
ATOM      9  C   UNL A   1      35.513  34.231  28.727  1.00  0.00     0.014 A 
ATOM     10  C   UNL A   1      35.115  32.053  30.424  1.00  0.00     0.010 A 
ATOM     11  C   UNL A   1      36.610  33.609  29.335  1.00  0.00     0.010 A 
ATOM     12  C   UNL A   1      36.418  32.534  30.217  1.00  0.00    -0.014 A 
BRANCH  12  13
ATOM     13  C   UNL A   1      37.564  31.838  30.861  1.00  0.00     0.031 A 
ATOM     14  C   UNL A   1      38.385  30.817  30.122  1.00  0.00     0.074 A 
ATOM     15  C   UNL A   1      37.855  32.136  32.143  1.00  0.00     0.049 A 
ATOM     16  N   UNL A   1      39.416  30.131  30.547  1.00  0.00    -0.248 NA
ATOM     17  C   UNL A   1      37.999  30.516  28.734  1.00  0.00     0.031 C 
ATOM     18  C   UNL A   1      37.101  33.073  32.981  1.00  0.00     0.029 A 
ATOM     19  N   UNL A   1      38.852  31.685  32.970  1.00  0.00    -0.354 N 
ATOM     20  C   UNL A   1      39.776  29.288  29.501  1.00  0.00     0.074 A 
ATOM     21  C   UNL A   1      38.848  29.545  28.421  1.00  0.00     0.031 C 
ATOM     22  C   UNL A   1      37.674  33.146  34.189  1.00  0.00     0.029 A 
ATOM     23  C   UNL A   1      38.798  32.220  34.236  1.00  0.00     0.049 A 
ATOM     24  H   UNL A   1      39.540  31.042  32.685  1.00  0.00     0.167 HD
ATOM     25  C   UNL A   1      40.793  28.394  29.444  1.00  0.00     0.034 A 
ATOM     26  C   UNL A   1      39.552  31.980  35.325  1.00  0.00     0.034 A 
ATOM     27  C   UNL A   1      41.736  28.171  30.510  1.00  0.00     0.049 A 
ATOM     28  C   UNL A   1      40.688  31.005  35.222  1.00  0.00     0.074 A 
ATOM     29  C   UNL A   1      42.845  27.341  30.518  1.00  0.00     0.029 A 
ATOM     30  N   UNL A   1      41.680  28.770  31.759  1.00  0.00    -0.354 N 
ATOM     31  N   UNL A   1      41.091  30.319  34.181  1.00  0.00    -0.248 NA
ATOM     32  C   UNL A   1      41.488  30.790  36.434  1.00  0.00     0.031 C 
ATOM     33  C   UNL A   1      43.444  27.420  31.780  1.00  0.00     0.029 A 
ATOM     34  C   UNL A   1      42.724  28.319  32.551  1.00  0.00     0.049 A 
ATOM     35  H   UNL A   1      40.997  29.421  32.042  1.00  0.00     0.167 HD
ATOM     36  C   UNL A   1      42.207  29.608  34.604  1.00  0.00     0.074 A 
ATOM     37  C   UNL A   1      42.431  29.970  35.989  1.00  0.00     0.031 C 
ATOM     38  C   UNL A   1      42.965  28.721  33.913  1.00  0.00     0.034 A 
BRANCH  25  39
ATOM     39  C   UNL A   1      40.972  27.607  28.169  1.00  0.00     0.023 A 
ATOM     40  C   UNL A   1      41.541  28.228  27.040  1.00  0.00     0.012 A 
ATOM     41  C   UNL A   1      40.650  26.236  28.113  1.00  0.00     0.148 A 
ATOM     42  C   UNL A   1      41.762  27.507  25.866  1.00  0.00     0.002 A 
ATOM     43  C   UNL A   1      40.910  25.513  26.953  1.00  0.00     0.091 A 
ATOM     44  F   UNL A   1      40.092  25.664  29.190  1.00  0.00    -0.205 F 
ATOM     45  C   UNL A   1      41.456  26.149  25.827  1.00  0.00     0.022 A 
BRANCH  43  46
ATOM     46  S   UNL A   1      40.623  23.743  26.829  1.00  0.00     0.127 S 
ATOM     47  O   UNL A   1      39.207  23.697  26.472  1.00  0.00    -0.237 OA
ATOM     48  O   UNL A   1      41.536  23.357  25.752  1.00  0.00    -0.237 OA
ATOM     49  O   UNL A   1      40.960  23.192  28.134  1.00  0.00    -0.744 OA
ENDBRANCH  43  46
ENDBRANCH  25  39
BRANCH  26  50
ATOM     50  C   UNL A   1      39.269  32.712  36.591  1.00  0.00     0.023 A 
ATOM     51  C   UNL A   1      39.829  33.988  36.795  1.00  0.00     0.012 A 
ATOM     52  C   UNL A   1      38.401  32.178  37.563  1.00  0.00     0.148 A 
ATOM     53  C   UNL A   1      39.549  34.707  37.957  1.00  0.00     0.002 A 
ATOM     54  C   UNL A   1      38.078  32.926  38.688  1.00  0.00     0.091 A 
ATOM     55  F   UNL A   1      37.890  30.957  37.356  1.00  0.00    -0.205 F 
ATOM     56  C   UNL A   1      38.664  34.184  38.895  1.00  0.00     0.022 A 
BRANCH  54  57
ATOM     57  S   UNL A   1      36.833  32.391  39.867  1.00  0.00     0.127 S 
ATOM     58  O   UNL A   1      35.650  32.271  39.018  1.00  0.00    -0.237 OA
ATOM     59  O   UNL A   1      37.385  31.119  40.338  1.00  0.00    -0.237 OA
ATOM     60  O   UNL A   1      36.784  33.433  40.883  1.00  0.00    -0.744 OA
ENDBRANCH  54  57
ENDBRANCH  26  50
BRANCH  38  61
ATOM     61  C   UNL A   1      44.127  28.094  34.637  1.00  0.00     0.023 A 
ATOM     62  C   UNL A   1      45.350  28.787  34.725  1.00  0.00     0.012 A 
ATOM     63  C   UNL A   1      43.989  26.847  35.276  1.00  0.00     0.148 A 
ATOM     64  C   UNL A   1      46.430  28.234  35.413  1.00  0.00     0.002 A 
ATOM     65  C   UNL A   1      45.054  26.323  35.999  1.00  0.00     0.091 A 
ATOM     66  F   UNL A   1      42.823  26.194  35.160  1.00  0.00    -0.205 F 
ATOM     67  C   UNL A   1      46.278  27.009  36.058  1.00  0.00     0.022 A 
BRANCH  65  68
ATOM     68  S   UNL A   1      44.920  24.796  36.936  1.00  0.00     0.127 S 
ATOM     69  O   UNL A   1      46.325  24.435  37.120  1.00  0.00    -0.237 OA
ATOM     70  O   UNL A   1      44.239  25.238  38.154  1.00  0.00    -0.237 OA
ATOM     71  O   UNL A   1      44.142  23.885  36.107  1.00  0.00    -0.744 OA
ENDBRANCH  65  68
ENDBRANCH  38  61
ENDBRANCH  12  13
ENDBRANCH   5   7
ENDBRANCH   2   3
ENDBRANCH   1   2
BRANCH   1  72
ATOM     72  C   UNL A   1      31.083  30.823  25.372  1.00  0.00     0.023 C 
BRANCH  72  73
ATOM     73  C   UNL A   1      32.116  29.748  25.687  1.00  0.00     0.116 C 
BRANCH  73  74
ATOM     74  N   UNL A   1      33.187  29.643  24.702  1.00  0.00    -0.352 N 
ATOM     75  C   UNL A   1      33.641  28.526  24.042  1.00  0.00     0.254 C 
ATOM     76  H   UNL A   1      33.646  30.486  24.481  1.00  0.00     0.163 HD
ATOM     77  O   UNL A   1      34.401  28.622  23.080  1.00  0.00    -0.269 OA
BRANCH  75  78
ATOM     78  C   UNL A   1      33.128  27.213  24.431  1.00  0.00     0.072 A 
ATOM     79  C   UNL A   1      33.729  26.646  25.570  1.00  0.00     0.018 A 
ATOM     80  C   UNL A   1      32.134  26.511  23.754  1.00  0.00     0.113 A 
ATOM     81  C   UNL A   1      33.389  25.364  25.971  1.00  0.00     0.021 A 
ATOM     82  N   UNL A   1      31.805  25.247  24.166  1.00  0.00    -0.249 NA
ATOM     83  C   UNL A   1      32.431  24.705  25.234  1.00  0.00     0.112 A 
BRANCH  80  84
ATOM     84  S   UNL A   1      31.148  26.947  22.341  1.00  0.00    -0.069 SA
BRANCH  84  85
ATOM     85  C   UNL A   1      29.701  27.830  22.840  1.00  0.00     0.014 A 
ATOM     86  C   UNL A   1      28.657  27.157  23.485  1.00  0.00     0.015 A 
ATOM     87  C   UNL A   1      29.524  29.169  22.475  1.00  0.00     0.028 A 
ATOM     88  C   UNL A   1      27.473  27.824  23.805  1.00  0.00     0.002 A 
ATOM     89  C   UNL A   1      28.338  29.852  22.795  1.00  0.00     0.057 A 
ATOM     90  C   UNL A   1      27.317  29.168  23.469  1.00  0.00     0.013 A 
BRANCH  89  91
ATOM     91  C   UNL A   1      28.152  31.303  22.432  1.00  0.00     0.416 C 
ATOM     92  F   UNL A   1      27.653  31.474  21.178  1.00  0.00    -0.166 F 
ATOM     93  F   UNL A   1      27.289  31.936  23.274  1.00  0.00    -0.166 F 
ATOM     94  F   UNL A   1      29.309  32.022  22.475  1.00  0.00    -0.166 F 
ENDBRANCH  89  91
ENDBRANCH  84  85
ENDBRANCH  80  84
ENDBRANCH  75  78
ENDBRANCH  73  74
ENDBRANCH  72  73
ENDBRANCH   1  72
TORSDOF 17
ENDMDL
MODEL 3
REMARK VINA RESULT:     -12.1      6.503     10.367
REMARK SMILES O=C(NCCCCNC(=O)c1cccnc1Sc1cccc(C(F)(F)F)c1)c1ccc(-c2c3nc(c(-c4cccc(S(=O)(=O)[O-])c4F)c4ccc([nH]4)c(-c4cccc(S(=O)(=O)[O-])c4F)c4nc(c(-c5cccc(S(=O)(=O)[O-])c5F)c5ccc2[nH]5)C=C4)C=C3)cc1
REMARK SMILES IDX 5 1 4 2 3 3 1 4 2 5 28 7 29 8 90 9 30 10 89 11 31 12 32 13
REMARK SMILES IDX 33 14 83 15 34 16 88 17 82 18 84 19 35 20 87 21 81 22 80 23
REMARK SMILES IDX 36 25 68 26 48 27 67 28 49 29 52 30 66 31 85 32 50 33 51 34
REMARK SMILES IDX 65 36 86 37 53 38 37 39 38 40 46 41 39 42 41 43 47 44 40 45
REMARK SMILES IDX 42 46 43 47 44 48 45 49 69 50 70 51 78 52 71 53 73 54 79 55
REMARK SMILES IDX 72 56 74 57 75 58 76 59 77 60 54 61 55 62 63 63 56 64 58 65
REMARK SMILES IDX 64 66 57 67 59 68 60 69 61 70 62 71 6 72 7 73 8 74 9 75
REMARK SMILES IDX 10 77 11 78 12 79 16 80 13 81 15 82 14 83 17 84 18 85 19 86
REMARK SMILES IDX 27 87 20 88 22 89 21 90 23 91 24 92 25 93 26 94
REMARK H PARENT 3 6 84 24 52 35 8 76
REMARK Flexibility Score: inf
ROOT
ATOM      1  C   UNL A   1      37.833  19.589  24.847  1.00  0.00     0.023 C 
ENDROOT
BRANCH   1   2
ATOM      2  C   UNL A   1      38.924  20.140  25.750  1.00  0.00     0.116 C 
BRANCH   2   3
ATOM      3  N   UNL A   1      40.045  19.232  25.916  1.00  0.00    -0.352 N 
ATOM      4  O   UNL A   1      42.192  18.601  26.137  1.00  0.00    -0.269 OA
ATOM      5  C   UNL A   1      41.369  19.512  26.170  1.00  0.00     0.251 C 
ATOM      6  H   UNL A   1      39.826  18.276  25.834  1.00  0.00     0.163 HD
BRANCH   5   7
ATOM      7  C   UNL A   1      41.802  20.903  26.446  1.00  0.00     0.039 A 
ATOM      8  C   UNL A   1      41.864  21.392  27.753  1.00  0.00     0.014 A 
ATOM      9  C   UNL A   1      42.158  21.732  25.379  1.00  0.00     0.014 A 
ATOM     10  C   UNL A   1      42.110  22.742  27.978  1.00  0.00     0.010 A 
ATOM     11  C   UNL A   1      42.512  23.065  25.617  1.00  0.00     0.010 A 
ATOM     12  C   UNL A   1      42.459  23.593  26.916  1.00  0.00    -0.014 A 
BRANCH  12  13
ATOM     13  C   UNL A   1      42.850  24.998  27.205  1.00  0.00     0.031 A 
ATOM     14  C   UNL A   1      41.909  25.959  27.878  1.00  0.00     0.074 A 
ATOM     15  C   UNL A   1      44.082  25.407  26.839  1.00  0.00     0.049 A 
ATOM     16  N   UNL A   1      42.109  27.212  28.200  1.00  0.00    -0.248 NA
ATOM     17  C   UNL A   1      40.569  25.459  28.227  1.00  0.00     0.031 C 
ATOM     18  C   UNL A   1      45.067  24.582  26.134  1.00  0.00     0.029 A 
ATOM     19  N   UNL A   1      44.717  26.612  27.000  1.00  0.00    -0.354 N 
ATOM     20  C   UNL A   1      40.914  27.665  28.748  1.00  0.00     0.074 A 
ATOM     21  C   UNL A   1      39.989  26.551  28.709  1.00  0.00     0.031 C 
ATOM     22  C   UNL A   1      46.186  25.293  25.946  1.00  0.00     0.029 A 
ATOM     23  C   UNL A   1      45.982  26.641  26.461  1.00  0.00     0.049 A 
ATOM     24  H   UNL A   1      44.308  27.381  27.458  1.00  0.00     0.167 HD
ATOM     25  C   UNL A   1      40.620  28.890  29.248  1.00  0.00     0.034 A 
ATOM     26  C   UNL A   1      46.876  27.643  26.367  1.00  0.00     0.034 A 
ATOM     27  C   UNL A   1      41.557  29.982  29.317  1.00  0.00     0.049 A 
ATOM     28  C   UNL A   1      46.531  28.981  26.954  1.00  0.00     0.074 A 
ATOM     29  C   UNL A   1      41.374  31.237  29.874  1.00  0.00     0.029 A 
ATOM     30  N   UNL A   1      42.845  29.957  28.808  1.00  0.00    -0.354 N 
ATOM     31  N   UNL A   1      45.443  29.346  27.587  1.00  0.00    -0.248 NA
ATOM     32  C   UNL A   1      47.545  30.036  26.838  1.00  0.00     0.031 C 
ATOM     33  C   UNL A   1      42.545  31.978  29.680  1.00  0.00     0.029 A 
ATOM     34  C   UNL A   1      43.467  31.177  29.024  1.00  0.00     0.049 A 
ATOM     35  H   UNL A   1      43.259  29.185  28.358  1.00  0.00     0.167 HD
ATOM     36  C   UNL A   1      45.650  30.666  27.966  1.00  0.00     0.074 A 
ATOM     37  C   UNL A   1      46.979  31.026  27.516  1.00  0.00     0.031 C 
ATOM     38  C   UNL A   1      44.807  31.509  28.612  1.00  0.00     0.034 A 
BRANCH  25  39
ATOM     39  C   UNL A   1      39.233  29.115  29.799  1.00  0.00     0.023 A 
ATOM     40  C   UNL A   1      38.932  28.708  31.114  1.00  0.00     0.012 A 
ATOM     41  C   UNL A   1      38.256  29.796  29.047  1.00  0.00     0.148 A 
ATOM     42  C   UNL A   1      37.672  28.950  31.663  1.00  0.00     0.002 A 
ATOM     43  C   UNL A   1      37.015  30.070  29.614  1.00  0.00     0.091 A 
ATOM     44  F   UNL A   1      38.552  30.160  27.791  1.00  0.00    -0.205 F 
ATOM     45  C   UNL A   1      36.719  29.639  30.918  1.00  0.00     0.022 A 
BRANCH  43  46
ATOM     46  S   UNL A   1      35.748  31.019  28.763  1.00  0.00     0.127 S 
ATOM     47  O   UNL A   1      35.062  29.979  27.999  1.00  0.00    -0.237 OA
ATOM     48  O   UNL A   1      34.973  31.569  29.877  1.00  0.00    -0.237 OA
ATOM     49  O   UNL A   1      36.458  32.014  27.972  1.00  0.00    -0.744 OA
ENDBRANCH  43  46
ENDBRANCH  25  39
BRANCH  26  50
ATOM     50  C   UNL A   1      48.194  27.395  25.721  1.00  0.00     0.023 A 
ATOM     51  C   UNL A   1      49.250  26.859  26.482  1.00  0.00     0.012 A 
ATOM     52  C   UNL A   1      48.388  27.631  24.346  1.00  0.00     0.148 A 
ATOM     53  C   UNL A   1      50.483  26.584  25.890  1.00  0.00     0.002 A 
ATOM     54  C   UNL A   1      49.597  27.297  23.750  1.00  0.00     0.091 A 
ATOM     55  F   UNL A   1      47.375  28.156  23.642  1.00  0.00    -0.205 F 
ATOM     56  C   UNL A   1      50.652  26.789  24.524  1.00  0.00     0.022 A 
BRANCH  54  57
ATOM     57  S   UNL A   1      49.846  27.389  21.974  1.00  0.00     0.127 S 
ATOM     58  O   UNL A   1      48.644  26.730  21.470  1.00  0.00    -0.237 OA
ATOM     59  O   UNL A   1      49.898  28.835  21.747  1.00  0.00    -0.237 OA
ATOM     60  O   UNL A   1      51.104  26.700  21.720  1.00  0.00    -0.744 OA
ENDBRANCH  54  57
ENDBRANCH  26  50
BRANCH  38  61
ATOM     61  C   UNL A   1      45.304  32.902  28.894  1.00  0.00     0.023 A 
ATOM     62  C   UNL A   1      45.989  33.169  30.095  1.00  0.00     0.012 A 
ATOM     63  C   UNL A   1      45.142  33.930  27.945  1.00  0.00     0.148 A 
ATOM     64  C   UNL A   1      46.480  34.446  30.363  1.00  0.00     0.002 A 
ATOM     65  C   UNL A   1      45.675  35.189  28.198  1.00  0.00     0.091 A 
ATOM     66  F   UNL A   1      44.467  33.661  26.818  1.00  0.00    -0.205 F 
ATOM     67  C   UNL A   1      46.332  35.451  29.411  1.00  0.00     0.022 A 
BRANCH  65  68
ATOM     68  S   UNL A   1      45.611  36.518  26.991  1.00  0.00     0.127 S 
ATOM     69  O   UNL A   1      44.172  36.755  26.883  1.00  0.00    -0.237 OA
ATOM     70  O   UNL A   1      46.356  37.584  27.663  1.00  0.00    -0.237 OA
ATOM     71  O   UNL A   1      46.253  35.999  25.791  1.00  0.00    -0.744 OA
ENDBRANCH  65  68
ENDBRANCH  38  61
ENDBRANCH  12  13
ENDBRANCH   5   7
ENDBRANCH   2   3
ENDBRANCH   1   2
BRANCH   1  72
ATOM     72  C   UNL A   1      36.455  20.219  25.000  1.00  0.00     0.023 C 
BRANCH  72  73
ATOM     73  C   UNL A   1      36.446  21.727  25.224  1.00  0.00     0.116 C 
BRANCH  73  74
ATOM     74  N   UNL A   1      35.874  22.137  26.501  1.00  0.00    -0.352 N 
ATOM     75  C   UNL A   1      34.730  22.863  26.737  1.00  0.00     0.254 C 
ATOM     76  H   UNL A   1      36.374  21.857  27.302  1.00  0.00     0.163 HD
ATOM     77  O   UNL A   1      34.253  22.947  27.867  1.00  0.00    -0.269 OA
BRANCH  75  78
ATOM     78  C   UNL A   1      34.020  23.457  25.605  1.00  0.00     0.072 A 
ATOM     79  C   UNL A   1      34.616  24.608  25.057  1.00  0.00     0.018 A 
ATOM     80  C   UNL A   1      32.824  22.980  25.073  1.00  0.00     0.113 A 
ATOM     81  C   UNL A   1      33.978  25.308  24.046  1.00  0.00     0.021 A 
ATOM     82  N   UNL A   1      32.209  23.680  24.070  1.00  0.00    -0.249 NA
ATOM     83  C   UNL A   1      32.777  24.810  23.594  1.00  0.00     0.112 A 
BRANCH  80  84
ATOM     84  S   UNL A   1      31.848  21.552  25.482  1.00  0.00    -0.069 SA
BRANCH  84  85
ATOM     85  C   UNL A   1      32.339  20.163  24.506  1.00  0.00     0.014 A 
ATOM     86  C   UNL A   1      32.150  20.179  23.119  1.00  0.00     0.015 A 
ATOM     87  C   UNL A   1      32.788  18.988  25.117  1.00  0.00     0.028 A 
ATOM     88  C   UNL A   1      32.452  19.055  22.348  1.00  0.00     0.002 A 
ATOM     89  C   UNL A   1      33.098  17.850  24.351  1.00  0.00     0.057 A 
ATOM     90  C   UNL A   1      32.931  17.898  22.960  1.00  0.00     0.013 A 
BRANCH  89  91
ATOM     91  C   UNL A   1      33.611  16.591  24.999  1.00  0.00     0.416 C 
ATOM     92  F   UNL A   1      34.942  16.641  25.274  1.00  0.00    -0.166 F 
ATOM     93  F   UNL A   1      32.988  16.331  26.182  1.00  0.00    -0.166 F 
ATOM     94  F   UNL A   1      33.429  15.478  24.232  1.00  0.00    -0.166 F 
ENDBRANCH  89  91
ENDBRANCH  84  85
ENDBRANCH  80  84
ENDBRANCH  75  78
ENDBRANCH  73  74
ENDBRANCH  72  73
ENDBRANCH   1  72
TORSDOF 17
ENDMDL
