MODEL 1
REMARK VINA RESULT:     -12.0      0.000      0.000
REMARK SMILES C[C@H]1[C@H](C(=O)NCCCCNC(=O)c2ccc(-c3c4nc(c(-c5cccc(S(=O)(=O)[O-])c5F)c5ccc([nH]5)c(-c5cccc(S(=O)(=O)[O-])c5F)c5nc(c(-c6cccc(S(=O)(=O)[O-])c6F)c6ccc3[nH]6)C=C5)C=C4)cc2)CC[N@@H+]1Cc1cnn(-c2ccccc2)c1
REMARK SMILES IDX 8 1 7 2 6 3 4 4 5 5 3 7 1 8 2 9 79 10 77 11 78 12 80 14
REMARK SMILES IDX 81 15 82 16 91 17 83 18 84 19 85 20 86 21 90 22 87 23 89 24
REMARK SMILES IDX 88 25 9 26 10 27 11 28 12 29 13 31 14 32 15 33 76 34 16 35
REMARK SMILES IDX 75 36 17 37 18 38 19 39 69 40 20 41 74 42 68 43 70 44 21 45
REMARK SMILES IDX 73 46 67 47 66 48 22 50 54 51 34 52 53 53 35 54 38 55 52 56
REMARK SMILES IDX 71 57 36 58 37 59 51 61 72 62 39 63 23 64 24 65 32 66 25 67
REMARK SMILES IDX 27 68 33 69 26 70 28 71 29 72 30 73 31 74 55 75 56 76 64 77
REMARK SMILES IDX 57 78 59 79 65 80 58 81 60 82 61 83 62 84 63 85 40 86 41 87
REMARK SMILES IDX 49 88 42 89 44 90 50 91 43 92 45 93 46 94 47 95 48 96
REMARK H PARENT 6 6 79 13 11 30 70 49 38 60
REMARK Flexibility Score: inf
ROOT
ATOM      1  C   UNL A   1      31.960  30.478  26.488  1.00  0.00     0.023 C 
ENDROOT
BRANCH   1   2
ATOM      2  C   UNL A   1      33.435  30.070  26.588  1.00  0.00     0.116 C 
BRANCH   2   3
ATOM      3  N   UNL A   1      34.112  29.284  25.583  1.00  0.00    -0.356 N 
ATOM      4  C   UNL A   1      33.683  28.057  25.126  1.00  0.00     0.229 C 
ATOM      5  O   UNL A   1      33.832  27.817  23.922  1.00  0.00    -0.275 OA
ATOM      6  H   UNL A   1      34.940  29.652  25.198  1.00  0.00     0.163 HD
BRANCH   4   7
ATOM      7  C   UNL A   1      33.089  26.964  26.030  1.00  0.00     0.142 C 
ATOM      8  C   UNL A   1      31.372  27.312  27.802  1.00  0.00     0.076 C 
ATOM      9  C   UNL A   1      31.579  26.968  26.310  1.00  0.00     0.193 C 
ATOM     10  N   UNL A   1      31.090  25.603  25.978  1.00  0.00    -0.328 N 
ATOM     11  C   UNL A   1      33.428  25.517  25.669  1.00  0.00     0.081 C 
ATOM     12  C   UNL A   1      32.235  24.723  26.191  1.00  0.00     0.263 C 
ATOM     13  H   UNL A   1      30.301  25.402  26.595  1.00  0.00     0.348 HD
BRANCH  10  14
ATOM     14  C   UNL A   1      30.364  25.371  24.692  1.00  0.00     0.302 C 
BRANCH  14  15
ATOM     15  C   UNL A   1      30.236  26.512  23.682  1.00  0.00     0.045 A 
ATOM     16  C   UNL A   1      30.992  26.800  22.516  1.00  0.00     0.145 A 
ATOM     17  C   UNL A   1      29.226  27.458  23.548  1.00  0.00     0.124 A 
ATOM     18  N   UNL A   1      30.615  27.916  21.875  1.00  0.00    -0.176 NA
ATOM     19  N   UNL A   1      29.661  28.449  22.676  1.00  0.00    -0.240 N 
BRANCH  19  20
ATOM     20  C   UNL A   1      29.203  29.810  22.535  1.00  0.00     0.065 A 
ATOM     21  C   UNL A   1      28.635  30.222  21.333  1.00  0.00     0.028 A 
ATOM     22  C   UNL A   1      29.281  30.772  23.564  1.00  0.00     0.028 A 
ATOM     23  C   UNL A   1      28.062  31.505  21.226  1.00  0.00     0.002 A 
ATOM     24  C   UNL A   1      28.691  32.035  23.471  1.00  0.00     0.002 A 
ATOM     25  C   UNL A   1      28.062  32.398  22.301  1.00  0.00     0.000 A 
ENDBRANCH  19  20
ENDBRANCH  14  15
ENDBRANCH  10  14
ENDBRANCH   4   7
ENDBRANCH   2   3
ENDBRANCH   1   2
BRANCH   1  26
ATOM     26  C   UNL A   1      31.456  31.949  26.636  1.00  0.00     0.023 C 
BRANCH  26  27
ATOM     27  C   UNL A   1      32.290  33.263  26.613  1.00  0.00     0.116 C 
BRANCH  27  28
ATOM     28  N   UNL A   1      32.089  34.316  27.594  1.00  0.00    -0.352 N 
ATOM     29  C   UNL A   1      33.007  34.684  28.582  1.00  0.00     0.251 C 
ATOM     30  H   UNL A   1      31.239  34.810  27.558  1.00  0.00     0.163 HD
ATOM     31  O   UNL A   1      32.836  35.708  29.238  1.00  0.00    -0.269 OA
BRANCH  29  32
ATOM     32  C   UNL A   1      34.191  33.823  28.873  1.00  0.00     0.039 A 
ATOM     33  C   UNL A   1      35.471  34.375  28.881  1.00  0.00     0.014 A 
ATOM     34  C   UNL A   1      34.055  32.459  29.120  1.00  0.00     0.014 A 
ATOM     35  C   UNL A   1      36.582  33.590  29.252  1.00  0.00     0.010 A 
ATOM     36  C   UNL A   1      35.161  31.698  29.561  1.00  0.00     0.010 A 
ATOM     37  C   UNL A   1      36.441  32.255  29.690  1.00  0.00    -0.014 A 
BRANCH  37  38
ATOM     38  C   UNL A   1      37.585  31.536  30.381  1.00  0.00     0.031 A 
ATOM     39  C   UNL A   1      38.457  30.479  29.717  1.00  0.00     0.074 A 
ATOM     40  C   UNL A   1      37.805  31.762  31.700  1.00  0.00     0.049 A 
ATOM     41  N   UNL A   1      39.488  29.828  30.215  1.00  0.00    -0.248 NA
ATOM     42  C   UNL A   1      38.113  30.061  28.352  1.00  0.00     0.031 C 
ATOM     43  C   UNL A   1      36.973  32.604  32.562  1.00  0.00     0.029 A 
ATOM     44  N   UNL A   1      38.786  31.303  32.556  1.00  0.00    -0.354 N 
ATOM     45  C   UNL A   1      39.881  28.903  29.249  1.00  0.00     0.074 A 
ATOM     46  C   UNL A   1      38.946  29.047  28.151  1.00  0.00     0.031 C 
ATOM     47  C   UNL A   1      37.509  32.656  33.791  1.00  0.00     0.029 A 
ATOM     48  C   UNL A   1      38.700  31.816  33.833  1.00  0.00     0.049 A 
ATOM     49  H   UNL A   1      39.484  30.666  32.279  1.00  0.00     0.167 HD
ATOM     50  C   UNL A   1      40.935  28.042  29.240  1.00  0.00     0.034 A 
ATOM     51  C   UNL A   1      39.479  31.654  34.924  1.00  0.00     0.034 A 
ATOM     52  C   UNL A   1      41.921  27.931  30.288  1.00  0.00     0.049 A 
ATOM     53  C   UNL A   1      40.705  30.784  34.856  1.00  0.00     0.074 A 
ATOM     54  C   UNL A   1      43.095  27.193  30.289  1.00  0.00     0.029 A 
ATOM     55  N   UNL A   1      41.852  28.556  31.520  1.00  0.00    -0.354 N 
ATOM     56  N   UNL A   1      41.171  30.094  33.846  1.00  0.00    -0.248 NA
ATOM     57  C   UNL A   1      41.534  30.701  36.071  1.00  0.00     0.031 C 
ATOM     58  C   UNL A   1      43.721  27.351  31.531  1.00  0.00     0.029 A 
ATOM     59  C   UNL A   1      42.956  28.217  32.290  1.00  0.00     0.049 A 
ATOM     60  H   UNL A   1      41.126  29.156  31.809  1.00  0.00     0.167 HD
ATOM     61  C   UNL A   1      42.361  29.526  34.291  1.00  0.00     0.074 A 
ATOM     62  C   UNL A   1      42.560  29.973  35.651  1.00  0.00     0.031 C 
ATOM     63  C   UNL A   1      43.201  28.696  33.627  1.00  0.00     0.034 A 
BRANCH  50  64
ATOM     64  C   UNL A   1      41.147  27.187  28.007  1.00  0.00     0.023 A 
ATOM     65  C   UNL A   1      41.810  27.738  26.890  1.00  0.00     0.012 A 
ATOM     66  C   UNL A   1      40.787  25.822  27.983  1.00  0.00     0.148 A 
ATOM     67  C   UNL A   1      42.060  26.968  25.754  1.00  0.00     0.002 A 
ATOM     68  C   UNL A   1      41.087  25.046  26.867  1.00  0.00     0.091 A 
ATOM     69  F   UNL A   1      40.165  25.304  29.052  1.00  0.00    -0.205 F 
ATOM     70  C   UNL A   1      41.708  25.622  25.746  1.00  0.00     0.022 A 
BRANCH  68  71
ATOM     71  S   UNL A   1      40.766  23.279  26.783  1.00  0.00     0.127 S 
ATOM     72  O   UNL A   1      39.339  23.252  26.477  1.00  0.00    -0.237 OA
ATOM     73  O   UNL A   1      41.635  22.857  25.688  1.00  0.00    -0.237 OA
ATOM     74  O   UNL A   1      41.134  22.743  28.092  1.00  0.00    -0.744 OA
ENDBRANCH  68  71
ENDBRANCH  50  64
BRANCH  51  75
ATOM     75  C   UNL A   1      39.170  32.404  36.179  1.00  0.00     0.023 A 
ATOM     76  C   UNL A   1      39.720  33.689  36.369  1.00  0.00     0.012 A 
ATOM     77  C   UNL A   1      38.334  31.863  37.172  1.00  0.00     0.148 A 
ATOM     78  C   UNL A   1      39.476  34.401  37.544  1.00  0.00     0.002 A 
ATOM     79  C   UNL A   1      38.043  32.604  38.311  1.00  0.00     0.091 A 
ATOM     80  F   UNL A   1      37.826  30.638  36.975  1.00  0.00    -0.205 F 
ATOM     81  C   UNL A   1      38.630  33.863  38.510  1.00  0.00     0.022 A 
BRANCH  79  82
ATOM     82  S   UNL A   1      36.855  32.057  39.541  1.00  0.00     0.127 S 
ATOM     83  O   UNL A   1      37.276  30.679  39.773  1.00  0.00    -0.237 OA
ATOM     84  O   UNL A   1      37.117  32.981  40.644  1.00  0.00    -0.237 OA
ATOM     85  O   UNL A   1      35.544  32.221  38.920  1.00  0.00    -0.744 OA
ENDBRANCH  79  82
ENDBRANCH  51  75
BRANCH  63  86
ATOM     86  C   UNL A   1      44.454  28.236  34.332  1.00  0.00     0.023 A 
ATOM     87  C   UNL A   1      45.649  28.972  34.204  1.00  0.00     0.012 A 
ATOM     88  C   UNL A   1      44.430  27.108  35.176  1.00  0.00     0.148 A 
ATOM     89  C   UNL A   1      46.806  28.574  34.875  1.00  0.00     0.002 A 
ATOM     90  C   UNL A   1      45.571  26.747  35.883  1.00  0.00     0.091 A 
ATOM     91  F   UNL A   1      43.290  26.406  35.272  1.00  0.00    -0.205 F 
ATOM     92  C   UNL A   1      46.764  27.470  35.724  1.00  0.00     0.022 A 
BRANCH  90  93
ATOM     93  S   UNL A   1      45.589  25.397  37.069  1.00  0.00     0.127 S 
ATOM     94  O   UNL A   1      44.716  25.912  38.122  1.00  0.00    -0.237 OA
ATOM     95  O   UNL A   1      45.022  24.295  36.292  1.00  0.00    -0.237 OA
ATOM     96  O   UNL A   1      46.983  25.214  37.450  1.00  0.00    -0.744 OA
ENDBRANCH  90  93
ENDBRANCH  63  86
ENDBRANCH  37  38
ENDBRANCH  29  32
ENDBRANCH  27  28
ENDBRANCH  26  27
ENDBRANCH   1  26
TORSDOF 17
ENDMDL
MODEL 2
REMARK VINA RESULT:     -12.0      1.631      2.093
REMARK SMILES C[C@H]1[C@H](C(=O)NCCCCNC(=O)c2ccc(-c3c4nc(c(-c5cccc(S(=O)(=O)[O-])c5F)c5ccc([nH]5)c(-c5cccc(S(=O)(=O)[O-])c5F)c5nc(c(-c6cccc(S(=O)(=O)[O-])c6F)c6ccc3[nH]6)C=C5)C=C4)cc2)CC[N@@H+]1Cc1cnn(-c2ccccc2)c1
REMARK SMILES IDX 8 1 7 2 6 3 4 4 5 5 3 7 1 8 2 9 79 10 77 11 78 12 80 14
REMARK SMILES IDX 81 15 82 16 91 17 83 18 84 19 85 20 86 21 90 22 87 23 89 24
REMARK SMILES IDX 88 25 9 26 10 27 11 28 12 29 13 31 14 32 15 33 76 34 16 35
REMARK SMILES IDX 75 36 17 37 18 38 19 39 69 40 20 41 74 42 68 43 70 44 21 45
REMARK SMILES IDX 73 46 67 47 66 48 22 50 54 51 34 52 53 53 35 54 38 55 52 56
REMARK SMILES IDX 71 57 36 58 37 59 51 61 72 62 39 63 23 64 24 65 32 66 25 67
REMARK SMILES IDX 27 68 33 69 26 70 28 71 29 72 30 73 31 74 55 75 56 76 64 77
REMARK SMILES IDX 57 78 59 79 65 80 58 81 60 82 61 83 62 84 63 85 40 86 41 87
REMARK SMILES IDX 49 88 42 89 44 90 50 91 43 92 45 93 46 94 47 95 48 96
REMARK H PARENT 6 6 79 13 11 30 70 49 38 60
REMARK Flexibility Score: inf
ROOT
ATOM      1  C   UNL A   1      32.289  30.491  26.292  1.00  0.00     0.023 C 
ENDROOT
BRANCH   1   2
ATOM      2  C   UNL A   1      33.685  29.880  26.460  1.00  0.00     0.116 C 
BRANCH   2   3
ATOM      3  N   UNL A   1      34.253  28.929  25.533  1.00  0.00    -0.356 N 
ATOM      4  C   UNL A   1      33.669  27.731  25.182  1.00  0.00     0.229 C 
ATOM      5  O   UNL A   1      33.782  27.369  24.004  1.00  0.00    -0.275 OA
ATOM      6  H   UNL A   1      35.120  29.153  25.123  1.00  0.00     0.163 HD
BRANCH   4   7
ATOM      7  C   UNL A   1      32.944  26.807  26.173  1.00  0.00     0.142 C 
ATOM      8  C   UNL A   1      31.269  27.522  27.875  1.00  0.00     0.076 C 
ATOM      9  C   UNL A   1      31.443  27.016  26.426  1.00  0.00     0.193 C 
ATOM     10  N   UNL A   1      30.796  25.693  26.214  1.00  0.00    -0.328 N 
ATOM     11  C   UNL A   1      33.109  25.302  25.955  1.00  0.00     0.081 C 
ATOM     12  C   UNL A   1      31.827  24.708  26.528  1.00  0.00     0.263 C 
ATOM     13  H   UNL A   1      29.986  25.646  26.833  1.00  0.00     0.348 HD
BRANCH  10  14
ATOM     14  C   UNL A   1      30.056  25.428  24.943  1.00  0.00     0.302 C 
BRANCH  14  15
ATOM     15  C   UNL A   1      29.964  26.524  23.881  1.00  0.00     0.045 A 
ATOM     16  C   UNL A   1      30.760  26.760  22.730  1.00  0.00     0.145 A 
ATOM     17  C   UNL A   1      28.961  27.463  23.671  1.00  0.00     0.124 A 
ATOM     18  N   UNL A   1      30.407  27.848  22.029  1.00  0.00    -0.176 NA
ATOM     19  N   UNL A   1      29.427  28.416  22.773  1.00  0.00    -0.240 N 
BRANCH  19  20
ATOM     20  C   UNL A   1      28.977  29.769  22.558  1.00  0.00     0.065 A 
ATOM     21  C   UNL A   1      29.193  30.377  21.324  1.00  0.00     0.028 A 
ATOM     22  C   UNL A   1      28.302  30.533  23.533  1.00  0.00     0.028 A 
ATOM     23  C   UNL A   1      28.640  31.645  21.055  1.00  0.00     0.002 A 
ATOM     24  C   UNL A   1      27.730  31.779  23.263  1.00  0.00     0.002 A 
ATOM     25  C   UNL A   1      27.886  32.331  22.011  1.00  0.00     0.000 A 
ENDBRANCH  19  20
ENDBRANCH  14  15
ENDBRANCH  10  14
ENDBRANCH   4   7
ENDBRANCH   2   3
ENDBRANCH   1   2
BRANCH   1  26
ATOM     26  C   UNL A   1      31.906  31.924  26.784  1.00  0.00     0.023 C 
BRANCH  26  27
ATOM     27  C   UNL A   1      32.819  32.994  27.448  1.00  0.00     0.116 C 
BRANCH  27  28
ATOM     28  N   UNL A   1      32.315  34.301  27.835  1.00  0.00    -0.352 N 
ATOM     29  C   UNL A   1      32.979  35.209  28.665  1.00  0.00     0.251 C 
ATOM     30  H   UNL A   1      31.435  34.567  27.484  1.00  0.00     0.163 HD
ATOM     31  O   UNL A   1      32.568  36.361  28.780  1.00  0.00    -0.269 OA
BRANCH  29  32
ATOM     32  C   UNL A   1      34.178  34.784  29.445  1.00  0.00     0.039 A 
ATOM     33  C   UNL A   1      34.053  34.454  30.793  1.00  0.00     0.014 A 
ATOM     34  C   UNL A   1      35.442  34.726  28.863  1.00  0.00     0.014 A 
ATOM     35  C   UNL A   1      35.161  33.957  31.511  1.00  0.00     0.010 A 
ATOM     36  C   UNL A   1      36.529  34.159  29.566  1.00  0.00     0.010 A 
ATOM     37  C   UNL A   1      36.404  33.711  30.889  1.00  0.00    -0.014 A 
BRANCH  37  38
ATOM     38  C   UNL A   1      37.475  32.889  31.583  1.00  0.00     0.031 A 
ATOM     39  C   UNL A   1      38.190  31.703  30.949  1.00  0.00     0.074 A 
ATOM     40  C   UNL A   1      37.764  33.147  32.883  1.00  0.00     0.049 A 
ATOM     41  N   UNL A   1      39.150  30.955  31.450  1.00  0.00    -0.248 NA
ATOM     42  C   UNL A   1      37.752  31.269  29.616  1.00  0.00     0.031 C 
ATOM     43  C   UNL A   1      37.069  34.124  33.724  1.00  0.00     0.029 A 
ATOM     44  N   UNL A   1      38.711  32.612  33.733  1.00  0.00    -0.354 N 
ATOM     45  C   UNL A   1      39.395  29.945  30.521  1.00  0.00     0.074 A 
ATOM     46  C   UNL A   1      38.449  30.152  29.444  1.00  0.00     0.031 C 
ATOM     47  C   UNL A   1      37.648  34.167  34.933  1.00  0.00     0.029 A 
ATOM     48  C   UNL A   1      38.730  33.190  34.985  1.00  0.00     0.049 A 
ATOM     49  H   UNL A   1      39.317  31.882  33.469  1.00  0.00     0.167 HD
ATOM     50  C   UNL A   1      40.336  28.962  30.527  1.00  0.00     0.034 A 
ATOM     51  C   UNL A   1      39.520  32.984  36.060  1.00  0.00     0.034 A 
ATOM     52  C   UNL A   1      41.336  28.779  31.551  1.00  0.00     0.049 A 
ATOM     53  C   UNL A   1      40.628  31.969  36.002  1.00  0.00     0.074 A 
ATOM     54  C   UNL A   1      42.412  27.904  31.557  1.00  0.00     0.029 A 
ATOM     55  N   UNL A   1      41.385  29.465  32.752  1.00  0.00    -0.354 N 
ATOM     56  N   UNL A   1      40.973  31.181  35.016  1.00  0.00    -0.248 NA
ATOM     57  C   UNL A   1      41.481  31.840  37.197  1.00  0.00     0.031 C 
ATOM     58  C   UNL A   1      43.094  28.042  32.771  1.00  0.00     0.029 A 
ATOM     59  C   UNL A   1      42.465  29.029  33.507  1.00  0.00     0.049 A 
ATOM     60  H   UNL A   1      40.747  30.162  33.030  1.00  0.00     0.167 HD
ATOM     61  C   UNL A   1      42.099  30.492  35.455  1.00  0.00     0.074 A 
ATOM     62  C   UNL A   1      42.397  30.974  36.786  1.00  0.00     0.031 C 
ATOM     63  C   UNL A   1      42.810  29.535  34.811  1.00  0.00     0.034 A 
BRANCH  50  64
ATOM     64  C   UNL A   1      40.402  28.031  29.332  1.00  0.00     0.023 A 
ATOM     65  C   UNL A   1      39.486  26.962  29.237  1.00  0.00     0.012 A 
ATOM     66  C   UNL A   1      41.291  28.265  28.260  1.00  0.00     0.148 A 
ATOM     67  C   UNL A   1      39.488  26.112  28.132  1.00  0.00     0.002 A 
ATOM     68  C   UNL A   1      41.252  27.445  27.137  1.00  0.00     0.091 A 
ATOM     69  F   UNL A   1      42.153  29.289  28.355  1.00  0.00    -0.205 F 
ATOM     70  C   UNL A   1      40.364  26.359  27.079  1.00  0.00     0.022 A 
BRANCH  68  71
ATOM     71  S   UNL A   1      42.268  27.726  25.680  1.00  0.00     0.127 S 
ATOM     72  O   UNL A   1      43.612  27.711  26.249  1.00  0.00    -0.237 OA
ATOM     73  O   UNL A   1      41.942  26.571  24.847  1.00  0.00    -0.237 OA
ATOM     74  O   UNL A   1      41.836  29.011  25.132  1.00  0.00    -0.744 OA
ENDBRANCH  68  71
ENDBRANCH  50  64
BRANCH  51  75
ATOM     75  C   UNL A   1      39.345  33.824  37.284  1.00  0.00     0.023 A 
ATOM     76  C   UNL A   1      39.840  35.145  37.291  1.00  0.00     0.012 A 
ATOM     77  C   UNL A   1      38.690  33.331  38.427  1.00  0.00     0.148 A 
ATOM     78  C   UNL A   1      39.721  35.943  38.430  1.00  0.00     0.002 A 
ATOM     79  C   UNL A   1      38.519  34.153  39.535  1.00  0.00     0.091 A 
ATOM     80  F   UNL A   1      38.232  32.071  38.402  1.00  0.00    -0.205 F 
ATOM     81  C   UNL A   1      39.052  35.451  39.548  1.00  0.00     0.022 A 
BRANCH  79  82
ATOM     82  S   UNL A   1      37.549  33.658  40.962  1.00  0.00     0.127 S 
ATOM     83  O   UNL A   1      36.357  33.097  40.335  1.00  0.00    -0.237 OA
ATOM     84  O   UNL A   1      38.432  32.683  41.602  1.00  0.00    -0.237 OA
ATOM     85  O   UNL A   1      37.341  34.877  41.738  1.00  0.00    -0.744 OA
ENDBRANCH  79  82
ENDBRANCH  51  75
BRANCH  63  86
ATOM     86  C   UNL A   1      44.021  28.959  35.504  1.00  0.00     0.023 A 
ATOM     87  C   UNL A   1      45.290  29.542  35.314  1.00  0.00     0.012 A 
ATOM     88  C   UNL A   1      43.890  27.876  36.396  1.00  0.00     0.148 A 
ATOM     89  C   UNL A   1      46.412  29.037  35.973  1.00  0.00     0.002 A 
ATOM     90  C   UNL A   1      45.002  27.409  37.089  1.00  0.00     0.091 A 
ATOM     91  F   UNL A   1      42.680  27.318  36.550  1.00  0.00    -0.205 F 
ATOM     92  C   UNL A   1      46.266  27.979  36.869  1.00  0.00     0.022 A 
BRANCH  90  93
ATOM     93  S   UNL A   1      44.896  26.115  38.331  1.00  0.00     0.127 S 
ATOM     94  O   UNL A   1      44.236  25.042  37.589  1.00  0.00    -0.237 OA
ATOM     95  O   UNL A   1      46.304  25.867  38.639  1.00  0.00    -0.237 OA
ATOM     96  O   UNL A   1      44.125  26.676  39.432  1.00  0.00    -0.744 OA
ENDBRANCH  90  93
ENDBRANCH  63  86
ENDBRANCH  37  38
ENDBRANCH  29  32
ENDBRANCH  27  28
ENDBRANCH  26  27
ENDBRANCH   1  26
TORSDOF 17
ENDMDL
MODEL 3
REMARK VINA RESULT:     -11.9      5.549      8.977
REMARK SMILES C[C@H]1[C@H](C(=O)NCCCCNC(=O)c2ccc(-c3c4nc(c(-c5cccc(S(=O)(=O)[O-])c5F)c5ccc([nH]5)c(-c5cccc(S(=O)(=O)[O-])c5F)c5nc(c(-c6cccc(S(=O)(=O)[O-])c6F)c6ccc3[nH]6)C=C5)C=C4)cc2)CC[N@@H+]1Cc1cnn(-c2ccccc2)c1
REMARK SMILES IDX 8 1 7 2 6 3 4 4 5 5 3 7 1 8 2 9 79 10 77 11 78 12 80 14
REMARK SMILES IDX 81 15 82 16 91 17 83 18 84 19 85 20 86 21 90 22 87 23 89 24
REMARK SMILES IDX 88 25 9 26 10 27 11 28 12 29 13 31 14 32 15 33 76 34 16 35
REMARK SMILES IDX 75 36 17 37 18 38 19 39 69 40 20 41 74 42 68 43 70 44 21 45
REMARK SMILES IDX 73 46 67 47 66 48 22 50 54 51 34 52 53 53 35 54 38 55 52 56
REMARK SMILES IDX 71 57 36 58 37 59 51 61 72 62 39 63 23 64 24 65 32 66 25 67
REMARK SMILES IDX 27 68 33 69 26 70 28 71 29 72 30 73 31 74 55 75 56 76 64 77
REMARK SMILES IDX 57 78 59 79 65 80 58 81 60 82 61 83 62 84 63 85 40 86 41 87
REMARK SMILES IDX 49 88 42 89 44 90 50 91 43 92 45 93 46 94 47 95 48 96
REMARK H PARENT 6 6 79 13 11 30 70 49 38 60
REMARK Flexibility Score: inf
ROOT
ATOM      1  C   UNL A   1      34.644  23.029  23.593  1.00  0.00     0.023 C 
ENDROOT
BRANCH   1   2
ATOM      2  C   UNL A   1      34.233  24.338  24.277  1.00  0.00     0.116 C 
BRANCH   2   3
ATOM      3  N   UNL A   1      34.048  25.583  23.567  1.00  0.00    -0.356 N 
ATOM      4  C   UNL A   1      33.050  26.496  23.832  1.00  0.00     0.229 C 
ATOM      5  O   UNL A   1      33.342  27.695  23.746  1.00  0.00    -0.275 OA
ATOM      6  H   UNL A   1      34.680  25.793  22.842  1.00  0.00     0.163 HD
BRANCH   4   7
ATOM      7  C   UNL A   1      31.602  26.110  24.171  1.00  0.00     0.142 C 
ATOM      8  C   UNL A   1      30.281  24.300  23.078  1.00  0.00     0.076 C 
ATOM      9  C   UNL A   1      31.227  24.622  24.257  1.00  0.00     0.193 C 
ATOM     10  N   UNL A   1      30.562  24.435  25.575  1.00  0.00    -0.328 N 
ATOM     11  C   UNL A   1      30.995  26.751  25.420  1.00  0.00     0.081 C 
ATOM     12  C   UNL A   1      29.964  25.730  25.889  1.00  0.00     0.263 C 
ATOM     13  H   UNL A   1      29.878  23.685  25.468  1.00  0.00     0.348 HD
BRANCH  10  14
ATOM     14  C   UNL A   1      31.321  23.816  26.703  1.00  0.00     0.302 C 
BRANCH  14  15
ATOM     15  C   UNL A   1      32.103  22.523  26.467  1.00  0.00     0.045 A 
ATOM     16  C   UNL A   1      33.320  22.066  27.036  1.00  0.00     0.145 A 
ATOM     17  C   UNL A   1      31.724  21.381  25.771  1.00  0.00     0.124 A 
ATOM     18  N   UNL A   1      33.736  20.880  26.569  1.00  0.00    -0.176 NA
ATOM     19  N   UNL A   1      32.844  20.579  25.594  1.00  0.00    -0.240 N 
BRANCH  19  20
ATOM     20  C   UNL A   1      33.086  19.547  24.615  1.00  0.00     0.065 A 
ATOM     21  C   UNL A   1      34.146  18.662  24.797  1.00  0.00     0.028 A 
ATOM     22  C   UNL A   1      32.293  19.360  23.464  1.00  0.00     0.028 A 
ATOM     23  C   UNL A   1      34.312  17.569  23.923  1.00  0.00     0.002 A 
ATOM     24  C   UNL A   1      32.437  18.263  22.609  1.00  0.00     0.002 A 
ATOM     25  C   UNL A   1      33.442  17.353  22.851  1.00  0.00     0.000 A 
ENDBRANCH  19  20
ENDBRANCH  14  15
ENDBRANCH  10  14
ENDBRANCH   4   7
ENDBRANCH   2   3
ENDBRANCH   1   2
BRANCH   1  26
ATOM     26  C   UNL A   1      36.033  22.344  23.796  1.00  0.00     0.023 C 
BRANCH  26  27
ATOM     27  C   UNL A   1      36.612  21.698  25.087  1.00  0.00     0.116 C 
BRANCH  27  28
ATOM     28  N   UNL A   1      37.650  20.681  25.038  1.00  0.00    -0.352 N 
ATOM     29  C   UNL A   1      38.871  20.741  25.717  1.00  0.00     0.251 C 
ATOM     30  H   UNL A   1      37.478  19.887  24.483  1.00  0.00     0.163 HD
ATOM     31  O   UNL A   1      39.600  19.754  25.772  1.00  0.00    -0.269 OA
BRANCH  29  32
ATOM     32  C   UNL A   1      39.319  22.013  26.357  1.00  0.00     0.039 A 
ATOM     33  C   UNL A   1      40.362  22.000  27.281  1.00  0.00     0.014 A 
ATOM     34  C   UNL A   1      38.701  23.229  26.072  1.00  0.00     0.014 A 
ATOM     35  C   UNL A   1      40.856  23.209  27.814  1.00  0.00     0.010 A 
ATOM     36  C   UNL A   1      39.247  24.440  26.553  1.00  0.00     0.010 A 
ATOM     37  C   UNL A   1      40.370  24.465  27.393  1.00  0.00    -0.014 A 
BRANCH  37  38
ATOM     38  C   UNL A   1      41.115  25.743  27.729  1.00  0.00     0.031 A 
ATOM     39  C   UNL A   1      42.546  26.039  27.301  1.00  0.00     0.074 A 
ATOM     40  C   UNL A   1      40.525  26.656  28.542  1.00  0.00     0.049 A 
ATOM     41  N   UNL A   1      43.263  27.123  27.510  1.00  0.00    -0.248 NA
ATOM     42  C   UNL A   1      43.284  24.983  26.597  1.00  0.00     0.031 C 
ATOM     43  C   UNL A   1      39.229  26.485  29.202  1.00  0.00     0.029 A 
ATOM     44  N   UNL A   1      40.932  27.906  28.961  1.00  0.00    -0.354 N 
ATOM     45  C   UNL A   1      44.536  26.864  27.007  1.00  0.00     0.074 A 
ATOM     46  C   UNL A   1      44.506  25.499  26.522  1.00  0.00     0.031 C 
ATOM     47  C   UNL A   1      38.919  27.600  29.879  1.00  0.00     0.029 A 
ATOM     48  C   UNL A   1      40.010  28.560  29.750  1.00  0.00     0.049 A 
ATOM     49  H   UNL A   1      41.804  28.295  28.719  1.00  0.00     0.167 HD
ATOM     50  C   UNL A   1      45.622  27.679  26.911  1.00  0.00     0.034 A 
ATOM     51  C   UNL A   1      40.012  29.790  30.308  1.00  0.00     0.034 A 
ATOM     52  C   UNL A   1      45.655  29.063  27.319  1.00  0.00     0.049 A 
ATOM     53  C   UNL A   1      41.177  30.717  30.093  1.00  0.00     0.074 A 
ATOM     54  C   UNL A   1      46.664  29.994  27.120  1.00  0.00     0.029 A 
ATOM     55  N   UNL A   1      44.653  29.716  28.015  1.00  0.00    -0.354 N 
ATOM     56  N   UNL A   1      42.279  30.512  29.417  1.00  0.00    -0.248 NA
ATOM     57  C   UNL A   1      41.081  32.061  30.688  1.00  0.00     0.031 C 
ATOM     58  C   UNL A   1      46.283  31.200  27.719  1.00  0.00     0.029 A 
ATOM     59  C   UNL A   1      45.021  31.032  28.258  1.00  0.00     0.049 A 
ATOM     60  H   UNL A   1      43.802  29.307  28.295  1.00  0.00     0.167 HD
ATOM     61  C   UNL A   1      42.989  31.708  29.476  1.00  0.00     0.074 A 
ATOM     62  C   UNL A   1      42.181  32.642  30.229  1.00  0.00     0.031 C 
ATOM     63  C   UNL A   1      44.208  31.993  28.959  1.00  0.00     0.034 A 
BRANCH  50  64
ATOM     64  C   UNL A   1      46.871  27.129  26.253  1.00  0.00     0.023 A 
ATOM     65  C   UNL A   1      47.077  27.343  24.873  1.00  0.00     0.012 A 
ATOM     66  C   UNL A   1      47.884  26.493  27.004  1.00  0.00     0.148 A 
ATOM     67  C   UNL A   1      48.235  26.888  24.243  1.00  0.00     0.002 A 
ATOM     68  C   UNL A   1      49.059  26.089  26.378  1.00  0.00     0.091 A 
ATOM     69  F   UNL A   1      47.683  26.301  28.316  1.00  0.00    -0.205 F 
ATOM     70  C   UNL A   1      49.229  26.270  24.996  1.00  0.00     0.022 A 
BRANCH  68  71
ATOM     71  S   UNL A   1      50.447  25.370  27.267  1.00  0.00     0.127 S 
ATOM     72  O   UNL A   1      49.831  24.195  27.876  1.00  0.00    -0.237 OA
ATOM     73  O   UNL A   1      51.388  25.078  26.189  1.00  0.00    -0.237 OA
ATOM     74  O   UNL A   1      50.898  26.395  28.205  1.00  0.00    -0.744 OA
ENDBRANCH  68  71
ENDBRANCH  50  64
BRANCH  51  75
ATOM     75  C   UNL A   1      38.819  30.262  31.075  1.00  0.00     0.023 A 
ATOM     76  C   UNL A   1      38.752  30.024  32.463  1.00  0.00     0.012 A 
ATOM     77  C   UNL A   1      37.764  30.948  30.445  1.00  0.00     0.148 A 
ATOM     78  C   UNL A   1      37.636  30.424  33.200  1.00  0.00     0.002 A 
ATOM     79  C   UNL A   1      36.686  31.399  31.196  1.00  0.00     0.091 A 
ATOM     80  F   UNL A   1      37.845  31.158  29.123  1.00  0.00    -0.205 F 
ATOM     81  C   UNL A   1      36.609  31.120  32.570  1.00  0.00     0.022 A 
BRANCH  79  82
ATOM     82  S   UNL A   1      35.388  32.426  30.500  1.00  0.00     0.127 S 
ATOM     83  O   UNL A   1      36.112  33.651  30.182  1.00  0.00    -0.237 OA
ATOM     84  O   UNL A   1      34.966  31.635  29.345  1.00  0.00    -0.237 OA
ATOM     85  O   UNL A   1      34.376  32.542  31.547  1.00  0.00    -0.744 OA
ENDBRANCH  79  82
ENDBRANCH  51  75
BRANCH  63  86
ATOM     86  C   UNL A   1      44.750  33.391  29.140  1.00  0.00     0.023 A 
ATOM     87  C   UNL A   1      45.718  33.653  30.129  1.00  0.00     0.012 A 
ATOM     88  C   UNL A   1      44.344  34.434  28.283  1.00  0.00     0.148 A 
ATOM     89  C   UNL A   1      46.249  34.934  30.285  1.00  0.00     0.002 A 
ATOM     90  C   UNL A   1      44.914  35.696  28.409  1.00  0.00     0.091 A 
ATOM     91  F   UNL A   1      43.406  34.174  27.360  1.00  0.00    -0.205 F 
ATOM     92  C   UNL A   1      45.856  35.952  29.419  1.00  0.00     0.022 A 
BRANCH  90  93
ATOM     93  S   UNL A   1      44.541  37.044  27.281  1.00  0.00     0.127 S 
ATOM     94  O   UNL A   1      45.808  37.200  26.572  1.00  0.00    -0.237 OA
ATOM     95  O   UNL A   1      43.456  36.483  26.476  1.00  0.00    -0.237 OA
ATOM     96  O   UNL A   1      44.152  38.172  28.118  1.00  0.00    -0.744 OA
ENDBRANCH  90  93
ENDBRANCH  63  86
ENDBRANCH  37  38
ENDBRANCH  29  32
ENDBRANCH  27  28
ENDBRANCH  26  27
ENDBRANCH   1  26
TORSDOF 17
ENDMDL
