MODEL 1
REMARK VINA RESULT:     -12.0      0.000      0.000
REMARK SMILES CC(C)[NH2+][C@@]1(C(=O)NCCCCNC(=O)c2ccc(-c3c4nc(c(-c5cccc(S(=O)(=O)[O-])c5F)c5ccc([nH]5)c(-c5cccc(S(=O)(=O)[O-])c5F)c5nc(c(-c6cccc(S(=O)(=O)[O-])c6F)c6ccc3[nH]6)C=C5)C=C4)cc2)CCC[C@@H]1CCOC1CCOCC1
REMARK SMILES IDX 10 1 9 2 8 3 6 4 7 5 5 7 79 8 82 9 80 10 81 11 4 12 2 15
REMARK SMILES IDX 1 16 3 17 83 18 84 19 85 20 86 21 87 22 91 23 88 24 90 25
REMARK SMILES IDX 89 26 11 27 12 28 13 29 14 30 15 32 16 33 17 34 78 35 18 36
REMARK SMILES IDX 77 37 19 38 20 39 21 40 71 41 22 42 76 43 70 44 72 45 23 46
REMARK SMILES IDX 75 47 69 48 68 49 24 51 56 52 36 53 55 54 37 55 40 56 54 57
REMARK SMILES IDX 73 58 38 59 39 60 53 62 74 63 41 64 25 65 26 66 34 67 27 68
REMARK SMILES IDX 29 69 35 70 28 71 30 72 31 73 32 74 33 75 57 76 58 77 66 78
REMARK SMILES IDX 59 79 61 80 67 81 60 82 62 83 63 84 64 85 65 86 42 87 43 88
REMARK SMILES IDX 51 89 44 90 46 91 52 92 45 93 47 94 48 95 49 96 50 97
REMARK H PARENT 8 6 4 13 4 14 13 31 72 50 40 61
REMARK Flexibility Score: inf
ROOT
ATOM      1  C   UNL A   1      31.471  29.324  27.484  1.00  0.00     0.023 C 
ENDROOT
BRANCH   1   2
ATOM      2  C   UNL A   1      32.427  28.094  27.375  1.00  0.00     0.116 C 
BRANCH   2   3
ATOM      3  N   UNL A   1      33.317  27.945  26.102  1.00  0.00    -0.351 N 
ATOM      4  C   UNL A   1      33.789  27.075  25.119  1.00  0.00     0.281 C 
ATOM      5  O   UNL A   1      34.064  27.791  24.119  1.00  0.00    -0.268 OA
ATOM      6  H   UNL A   1      33.704  28.831  25.914  1.00  0.00     0.163 HD
BRANCH   4   7
ATOM      7  C   UNL A   1      33.990  25.191  24.832  1.00  0.00     0.178 C 
ATOM      8  C   UNL A   1      35.789  24.014  25.212  1.00  0.00     0.079 C 
ATOM      9  C   UNL A   1      33.286  24.373  23.179  1.00  0.00     0.063 C 
ATOM     10  C   UNL A   1      35.822  22.513  23.878  1.00  0.00     0.008 C 
ATOM     11  C   UNL A   1      34.287  22.758  22.751  1.00  0.00     0.011 C 
BRANCH   7  12
ATOM     12  N   UNL A   1      32.542  24.971  25.675  1.00  0.00    -0.331 N 
ATOM     13  H   UNL A   1      32.441  25.821  26.230  1.00  0.00     0.347 HD
ATOM     14  H   UNL A   1      31.957  24.702  24.883  1.00  0.00     0.347 HD
BRANCH  12  15
ATOM     15  C   UNL A   1      32.154  23.893  26.589  1.00  0.00     0.176 C 
ATOM     16  C   UNL A   1      30.612  23.892  26.588  1.00  0.00     0.075 C 
ATOM     17  C   UNL A   1      32.627  22.476  26.283  1.00  0.00     0.075 C 
ENDBRANCH  12  15
ENDBRANCH   7  12
BRANCH   9  18
ATOM     18  C   UNL A   1      33.180  25.366  22.026  1.00  0.00     0.039 C 
BRANCH  18  19
ATOM     19  C   UNL A   1      31.783  25.922  21.905  1.00  0.00     0.161 C 
BRANCH  19  20
ATOM     20  O   UNL A   1      31.566  27.344  21.979  1.00  0.00    -0.378 OA
BRANCH  20  21
ATOM     21  C   UNL A   1      30.816  28.205  22.845  1.00  0.00     0.122 C 
ATOM     22  C   UNL A   1      30.188  27.034  23.772  1.00  0.00     0.060 C 
ATOM     23  C   UNL A   1      29.671  29.649  22.506  1.00  0.00     0.060 C 
ATOM     24  C   UNL A   1      28.038  26.818  23.894  1.00  0.00     0.163 C 
ATOM     25  C   UNL A   1      27.887  29.522  22.660  1.00  0.00     0.163 C 
ATOM     26  O   UNL A   1      27.119  28.265  23.355  1.00  0.00    -0.381 OA
ENDBRANCH  20  21
ENDBRANCH  19  20
ENDBRANCH  18  19
ENDBRANCH   9  18
ENDBRANCH   4   7
ENDBRANCH   2   3
ENDBRANCH   1   2
BRANCH   1  27
ATOM     27  C   UNL A   1      31.384  30.384  26.401  1.00  0.00     0.023 C 
BRANCH  27  28
ATOM     28  C   UNL A   1      32.523  31.392  26.369  1.00  0.00     0.116 C 
BRANCH  28  29
ATOM     29  N   UNL A   1      32.401  32.593  27.212  1.00  0.00    -0.352 N 
ATOM     30  C   UNL A   1      33.414  33.157  27.980  1.00  0.00     0.251 C 
ATOM     31  H   UNL A   1      31.523  33.037  27.232  1.00  0.00     0.163 HD
ATOM     32  O   UNL A   1      33.253  34.174  28.643  1.00  0.00    -0.269 OA
BRANCH  30  33
ATOM     33  C   UNL A   1      34.704  32.431  28.007  1.00  0.00     0.039 A 
ATOM     34  C   UNL A   1      35.893  33.163  27.982  1.00  0.00     0.014 A 
ATOM     35  C   UNL A   1      34.687  31.095  28.406  1.00  0.00     0.014 A 
ATOM     36  C   UNL A   1      37.054  32.586  28.500  1.00  0.00     0.010 A 
ATOM     37  C   UNL A   1      35.806  30.583  29.048  1.00  0.00     0.010 A 
ATOM     38  C   UNL A   1      37.002  31.320  29.107  1.00  0.00    -0.014 A 
BRANCH  38  39
ATOM     39  C   UNL A   1      38.181  30.735  29.803  1.00  0.00     0.031 A 
ATOM     40  C   UNL A   1      38.493  31.172  31.210  1.00  0.00     0.074 A 
ATOM     41  C   UNL A   1      39.017  29.895  29.157  1.00  0.00     0.049 A 
ATOM     42  N   UNL A   1      39.494  30.830  31.977  1.00  0.00    -0.248 NA
ATOM     43  C   UNL A   1      37.587  32.162  31.820  1.00  0.00     0.031 C 
ATOM     44  C   UNL A   1      38.896  29.474  27.758  1.00  0.00     0.029 A 
ATOM     45  N   UNL A   1      40.154  29.255  29.591  1.00  0.00    -0.354 N 
ATOM     46  C   UNL A   1      39.358  31.590  33.132  1.00  0.00     0.074 A 
ATOM     47  C   UNL A   1      38.224  32.462  32.939  1.00  0.00     0.031 C 
ATOM     48  C   UNL A   1      39.899  28.629  27.460  1.00  0.00     0.029 A 
ATOM     49  C   UNL A   1      40.752  28.466  28.634  1.00  0.00     0.049 A 
ATOM     50  H   UNL A   1      40.510  29.353  30.504  1.00  0.00     0.167 HD
ATOM     51  C   UNL A   1      40.076  31.534  34.277  1.00  0.00     0.034 A 
ATOM     52  C   UNL A   1      41.856  27.693  28.698  1.00  0.00     0.034 A 
ATOM     53  C   UNL A   1      41.159  30.621  34.495  1.00  0.00     0.049 A 
ATOM     54  C   UNL A   1      42.603  27.599  30.005  1.00  0.00     0.074 A 
ATOM     55  C   UNL A   1      41.887  30.411  35.651  1.00  0.00     0.029 A 
ATOM     56  N   UNL A   1      41.672  29.764  33.533  1.00  0.00    -0.354 N 
ATOM     57  N   UNL A   1      42.351  28.196  31.144  1.00  0.00    -0.248 NA
ATOM     58  C   UNL A   1      43.763  26.695  30.047  1.00  0.00     0.031 C 
ATOM     59  C   UNL A   1      42.858  29.442  35.382  1.00  0.00     0.029 A 
ATOM     60  C   UNL A   1      42.713  29.027  34.067  1.00  0.00     0.049 A 
ATOM     61  H   UNL A   1      41.343  29.691  32.609  1.00  0.00     0.167 HD
ATOM     62  C   UNL A   1      43.292  27.713  32.047  1.00  0.00     0.074 A 
ATOM     63  C   UNL A   1      44.108  26.757  31.326  1.00  0.00     0.031 C 
ATOM     64  C   UNL A   1      43.476  28.039  33.351  1.00  0.00     0.034 A 
BRANCH  51  65
ATOM     65  C   UNL A   1      39.661  32.449  35.399  1.00  0.00     0.023 A 
ATOM     66  C   UNL A   1      38.822  31.960  36.423  1.00  0.00     0.012 A 
ATOM     67  C   UNL A   1      40.120  33.777  35.456  1.00  0.00     0.148 A 
ATOM     68  C   UNL A   1      38.410  32.792  37.461  1.00  0.00     0.002 A 
ATOM     69  C   UNL A   1      39.747  34.585  36.523  1.00  0.00     0.091 A 
ATOM     70  F   UNL A   1      40.895  34.231  34.461  1.00  0.00    -0.205 F 
ATOM     71  C   UNL A   1      38.882  34.100  37.517  1.00  0.00     0.022 A 
BRANCH  69  72
ATOM     72  S   UNL A   1      40.366  36.258  36.732  1.00  0.00     0.127 S 
ATOM     73  O   UNL A   1      39.670  36.679  37.948  1.00  0.00    -0.237 OA
ATOM     74  O   UNL A   1      41.803  36.034  36.896  1.00  0.00    -0.237 OA
ATOM     75  O   UNL A   1      39.997  36.977  35.521  1.00  0.00    -0.744 OA
ENDBRANCH  69  72
ENDBRANCH  51  65
BRANCH  52  76
ATOM     76  C   UNL A   1      42.282  26.880  27.520  1.00  0.00     0.023 A 
ATOM     77  C   UNL A   1      43.002  27.496  26.477  1.00  0.00     0.012 A 
ATOM     78  C   UNL A   1      41.989  25.505  27.429  1.00  0.00     0.148 A 
ATOM     79  C   UNL A   1      43.388  26.769  25.348  1.00  0.00     0.002 A 
ATOM     80  C   UNL A   1      42.424  24.775  26.329  1.00  0.00     0.091 A 
ATOM     81  F   UNL A   1      41.292  24.939  28.425  1.00  0.00    -0.205 F 
ATOM     82  C   UNL A   1      43.107  25.408  25.278  1.00  0.00     0.022 A 
BRANCH  80  83
ATOM     83  S   UNL A   1      42.219  22.994  26.211  1.00  0.00     0.127 S 
ATOM     84  O   UNL A   1      43.010  22.525  27.346  1.00  0.00    -0.237 OA
ATOM     85  O   UNL A   1      40.771  22.847  26.366  1.00  0.00    -0.237 OA
ATOM     86  O   UNL A   1      42.722  22.627  24.894  1.00  0.00    -0.744 OA
ENDBRANCH  80  83
ENDBRANCH  52  76
BRANCH  64  87
ATOM     87  C   UNL A   1      44.570  27.333  34.105  1.00  0.00     0.023 A 
ATOM     88  C   UNL A   1      45.874  27.868  34.117  1.00  0.00     0.012 A 
ATOM     89  C   UNL A   1      44.283  26.190  34.877  1.00  0.00     0.148 A 
ATOM     90  C   UNL A   1      46.882  27.256  34.862  1.00  0.00     0.002 A 
ATOM     91  C   UNL A   1      45.278  25.618  35.657  1.00  0.00     0.091 A 
ATOM     92  F   UNL A   1      43.039  25.688  34.838  1.00  0.00    -0.205 F 
ATOM     93  C   UNL A   1      46.582  26.141  35.641  1.00  0.00     0.022 A 
BRANCH  91  94
ATOM     94  S   UNL A   1      44.958  24.244  36.770  1.00  0.00     0.127 S 
ATOM     95  O   UNL A   1      44.572  23.188  35.836  1.00  0.00    -0.237 OA
ATOM     96  O   UNL A   1      46.262  24.051  37.407  1.00  0.00    -0.237 OA
ATOM     97  O   UNL A   1      43.907  24.695  37.672  1.00  0.00    -0.744 OA
ENDBRANCH  91  94
ENDBRANCH  64  87
ENDBRANCH  38  39
ENDBRANCH  30  33
ENDBRANCH  28  29
ENDBRANCH  27  28
ENDBRANCH   1  27
TORSDOF 20
ENDMDL
MODEL 2
REMARK VINA RESULT:     -11.9      2.334      3.109
REMARK SMILES CC(C)[NH2+][C@@]1(C(=O)NCCCCNC(=O)c2ccc(-c3c4nc(c(-c5cccc(S(=O)(=O)[O-])c5F)c5ccc([nH]5)c(-c5cccc(S(=O)(=O)[O-])c5F)c5nc(c(-c6cccc(S(=O)(=O)[O-])c6F)c6ccc3[nH]6)C=C5)C=C4)cc2)CCC[C@@H]1CCOC1CCOCC1
REMARK SMILES IDX 10 1 9 2 8 3 6 4 7 5 5 7 79 8 82 9 80 10 81 11 4 12 2 15
REMARK SMILES IDX 1 16 3 17 83 18 84 19 85 20 86 21 87 22 91 23 88 24 90 25
REMARK SMILES IDX 89 26 11 27 12 28 13 29 14 30 15 32 16 33 17 34 78 35 18 36
REMARK SMILES IDX 77 37 19 38 20 39 21 40 71 41 22 42 76 43 70 44 72 45 23 46
REMARK SMILES IDX 75 47 69 48 68 49 24 51 56 52 36 53 55 54 37 55 40 56 54 57
REMARK SMILES IDX 73 58 38 59 39 60 53 62 74 63 41 64 25 65 26 66 34 67 27 68
REMARK SMILES IDX 29 69 35 70 28 71 30 72 31 73 32 74 33 75 57 76 58 77 66 78
REMARK SMILES IDX 59 79 61 80 67 81 60 82 62 83 63 84 64 85 65 86 42 87 43 88
REMARK SMILES IDX 51 89 44 90 46 91 52 92 45 93 47 94 48 95 49 96 50 97
REMARK H PARENT 8 6 4 13 4 14 13 31 72 50 40 61
REMARK Flexibility Score: inf
ROOT
ATOM      1  C   UNL A   1      32.265  27.619  26.963  1.00  0.00     0.023 C 
ENDROOT
BRANCH   1   2
ATOM      2  C   UNL A   1      31.005  26.798  26.540  1.00  0.00     0.116 C 
BRANCH   2   3
ATOM      3  N   UNL A   1      30.980  25.263  26.825  1.00  0.00    -0.351 N 
ATOM      4  C   UNL A   1      31.663  24.054  26.694  1.00  0.00     0.281 C 
ATOM      5  O   UNL A   1      31.248  23.313  27.626  1.00  0.00    -0.268 OA
ATOM      6  H   UNL A   1      30.134  25.069  27.290  1.00  0.00     0.163 HD
BRANCH   4   7
ATOM      7  C   UNL A   1      33.076  23.297  25.643  1.00  0.00     0.178 C 
ATOM      8  C   UNL A   1      35.093  22.836  26.337  1.00  0.00     0.079 C 
ATOM      9  C   UNL A   1      33.394  23.960  23.812  1.00  0.00     0.063 C 
ATOM     10  C   UNL A   1      36.337  23.072  24.777  1.00  0.00     0.008 C 
ATOM     11  C   UNL A   1      35.256  23.680  23.312  1.00  0.00     0.011 C 
BRANCH   7  12
ATOM     12  N   UNL A   1      31.978  22.118  25.131  1.00  0.00    -0.331 N 
ATOM     13  H   UNL A   1      31.246  22.129  25.841  1.00  0.00     0.347 HD
ATOM     14  H   UNL A   1      31.879  22.427  24.164  1.00  0.00     0.347 HD
BRANCH  12  15
ATOM     15  C   UNL A   1      32.203  20.694  24.866  1.00  0.00     0.176 C 
ATOM     16  C   UNL A   1      32.346  20.582  23.334  1.00  0.00     0.075 C 
ATOM     17  C   UNL A   1      33.413  20.019  25.502  1.00  0.00     0.075 C 
ENDBRANCH  12  15
ENDBRANCH   7  12
BRANCH   9  18
ATOM     18  C   UNL A   1      32.901  25.388  23.604  1.00  0.00     0.039 C 
BRANCH  18  19
ATOM     19  C   UNL A   1      32.120  25.520  22.321  1.00  0.00     0.161 C 
BRANCH  19  20
ATOM     20  O   UNL A   1      31.036  26.465  22.232  1.00  0.00    -0.378 OA
BRANCH  20  21
ATOM     21  C   UNL A   1      30.754  27.734  22.835  1.00  0.00     0.122 C 
ATOM     22  C   UNL A   1      29.382  27.289  23.572  1.00  0.00     0.060 C 
ATOM     23  C   UNL A   1      30.760  29.482  22.158  1.00  0.00     0.060 C 
ATOM     24  C   UNL A   1      27.539  28.316  23.089  1.00  0.00     0.163 C 
ATOM     25  C   UNL A   1      29.250  30.386  21.808  1.00  0.00     0.163 C 
ATOM     26  O   UNL A   1      27.768  29.906  22.285  1.00  0.00    -0.381 OA
ENDBRANCH  20  21
ENDBRANCH  19  20
ENDBRANCH  18  19
ENDBRANCH   9  18
ENDBRANCH   4   7
ENDBRANCH   2   3
ENDBRANCH   1   2
BRANCH   1  27
ATOM     27  C   UNL A   1      32.199  29.102  27.279  1.00  0.00     0.023 C 
BRANCH  27  28
ATOM     28  C   UNL A   1      33.427  29.915  26.895  1.00  0.00     0.116 C 
BRANCH  28  29
ATOM     29  N   UNL A   1      33.676  31.169  27.624  1.00  0.00    -0.352 N 
ATOM     30  C   UNL A   1      34.837  31.491  28.319  1.00  0.00     0.251 C 
ATOM     31  H   UNL A   1      32.956  31.840  27.618  1.00  0.00     0.163 HD
ATOM     32  O   UNL A   1      34.990  32.566  28.887  1.00  0.00    -0.269 OA
BRANCH  30  33
ATOM     33  C   UNL A   1      35.877  30.441  28.391  1.00  0.00     0.039 A 
ATOM     34  C   UNL A   1      36.945  30.484  27.493  1.00  0.00     0.014 A 
ATOM     35  C   UNL A   1      35.941  29.671  29.552  1.00  0.00     0.014 A 
ATOM     36  C   UNL A   1      38.145  29.858  27.837  1.00  0.00     0.010 A 
ATOM     37  C   UNL A   1      37.175  29.177  29.950  1.00  0.00     0.010 A 
ATOM     38  C   UNL A   1      38.293  29.265  29.102  1.00  0.00    -0.014 A 
BRANCH  38  39
ATOM     39  C   UNL A   1      39.599  28.721  29.565  1.00  0.00     0.031 A 
ATOM     40  C   UNL A   1      40.333  29.423  30.677  1.00  0.00     0.074 A 
ATOM     41  C   UNL A   1      40.170  27.669  28.940  1.00  0.00     0.049 A 
ATOM     42  N   UNL A   1      41.501  29.150  31.196  1.00  0.00    -0.248 NA
ATOM     43  C   UNL A   1      39.692  30.619  31.252  1.00  0.00     0.031 C 
ATOM     44  C   UNL A   1      39.621  26.963  27.778  1.00  0.00     0.029 A 
ATOM     45  N   UNL A   1      41.356  27.019  29.185  1.00  0.00    -0.354 N 
ATOM     46  C   UNL A   1      41.747  30.159  32.119  1.00  0.00     0.074 A 
ATOM     47  C   UNL A   1      40.644  31.087  32.040  1.00  0.00     0.031 C 
ATOM     48  C   UNL A   1      40.453  25.965  27.431  1.00  0.00     0.029 A 
ATOM     49  C   UNL A   1      41.608  25.973  28.324  1.00  0.00     0.049 A 
ATOM     50  H   UNL A   1      41.970  27.276  29.909  1.00  0.00     0.167 HD
ATOM     51  C   UNL A   1      42.769  30.279  32.996  1.00  0.00     0.034 A 
ATOM     52  C   UNL A   1      42.648  25.115  28.267  1.00  0.00     0.034 A 
ATOM     53  C   UNL A   1      43.828  29.321  33.122  1.00  0.00     0.049 A 
ATOM     54  C   UNL A   1      43.744  25.231  29.296  1.00  0.00     0.074 A 
ATOM     55  C   UNL A   1      44.856  29.294  34.046  1.00  0.00     0.029 A 
ATOM     56  N   UNL A   1      43.995  28.219  32.298  1.00  0.00    -0.354 N 
ATOM     57  N   UNL A   1      43.867  26.092  30.277  1.00  0.00    -0.248 NA
ATOM     58  C   UNL A   1      44.824  24.235  29.235  1.00  0.00     0.031 C 
ATOM     59  C   UNL A   1      45.662  28.186  33.765  1.00  0.00     0.029 A 
ATOM     60  C   UNL A   1      45.115  27.507  32.686  1.00  0.00     0.049 A 
ATOM     61  H   UNL A   1      43.404  27.980  31.549  1.00  0.00     0.167 HD
ATOM     62  C   UNL A   1      45.013  25.719  30.973  1.00  0.00     0.074 A 
ATOM     63  C   UNL A   1      45.536  24.541  30.313  1.00  0.00     0.031 C 
ATOM     64  C   UNL A   1      45.588  26.305  32.052  1.00  0.00     0.034 A 
BRANCH  51  65
ATOM     65  C   UNL A   1      42.745  31.461  33.928  1.00  0.00     0.023 A 
ATOM     66  C   UNL A   1      43.293  32.692  33.509  1.00  0.00     0.012 A 
ATOM     67  C   UNL A   1      42.157  31.364  35.203  1.00  0.00     0.148 A 
ATOM     68  C   UNL A   1      43.298  33.795  34.360  1.00  0.00     0.002 A 
ATOM     69  C   UNL A   1      42.120  32.483  36.026  1.00  0.00     0.091 A 
ATOM     70  F   UNL A   1      41.665  30.180  35.593  1.00  0.00    -0.205 F 
ATOM     71  C   UNL A   1      42.702  33.693  35.614  1.00  0.00     0.022 A 
BRANCH  69  72
ATOM     72  S   UNL A   1      41.302  32.480  37.625  1.00  0.00     0.127 S 
ATOM     73  O   UNL A   1      41.360  33.896  37.987  1.00  0.00    -0.237 OA
ATOM     74  O   UNL A   1      39.966  31.991  37.284  1.00  0.00    -0.237 OA
ATOM     75  O   UNL A   1      42.079  31.587  38.472  1.00  0.00    -0.744 OA
ENDBRANCH  69  72
ENDBRANCH  51  65
BRANCH  52  76
ATOM     76  C   UNL A   1      42.670  24.017  27.255  1.00  0.00     0.023 A 
ATOM     77  C   UNL A   1      43.278  24.240  26.004  1.00  0.00     0.012 A 
ATOM     78  C   UNL A   1      42.103  22.756  27.524  1.00  0.00     0.148 A 
ATOM     79  C   UNL A   1      43.288  23.243  25.026  1.00  0.00     0.002 A 
ATOM     80  C   UNL A   1      42.165  21.749  26.566  1.00  0.00     0.091 A 
ATOM     81  F   UNL A   1      41.516  22.566  28.715  1.00  0.00    -0.205 F 
ATOM     82  C   UNL A   1      42.740  21.996  25.310  1.00  0.00     0.022 A 
BRANCH  80  83
ATOM     83  S   UNL A   1      41.598  20.075  26.889  1.00  0.00     0.127 S 
ATOM     84  O   UNL A   1      40.339  20.314  27.590  1.00  0.00    -0.237 OA
ATOM     85  O   UNL A   1      41.459  19.539  25.535  1.00  0.00    -0.237 OA
ATOM     86  O   UNL A   1      42.652  19.450  27.677  1.00  0.00    -0.744 OA
ENDBRANCH  80  83
ENDBRANCH  52  76
BRANCH  64  87
ATOM     87  C   UNL A   1      46.826  25.666  32.623  1.00  0.00     0.023 A 
ATOM     88  C   UNL A   1      48.099  26.092  32.192  1.00  0.00     0.012 A 
ATOM     89  C   UNL A   1      46.727  24.710  33.651  1.00  0.00     0.148 A 
ATOM     90  C   UNL A   1      49.253  25.551  32.757  1.00  0.00     0.002 A 
ATOM     91  C   UNL A   1      47.879  24.214  34.246  1.00  0.00     0.091 A 
ATOM     92  F   UNL A   1      45.505  24.307  34.034  1.00  0.00    -0.205 F 
ATOM     93  C   UNL A   1      49.144  24.623  33.791  1.00  0.00     0.022 A 
BRANCH  91  94
ATOM     94  S   UNL A   1      47.834  23.097  35.651  1.00  0.00     0.127 S 
ATOM     95  O   UNL A   1      47.028  21.994  35.129  1.00  0.00    -0.237 OA
ATOM     96  O   UNL A   1      49.250  22.781  35.843  1.00  0.00    -0.237 OA
ATOM     97  O   UNL A   1      47.231  23.849  36.743  1.00  0.00    -0.744 OA
ENDBRANCH  91  94
ENDBRANCH  64  87
ENDBRANCH  38  39
ENDBRANCH  30  33
ENDBRANCH  28  29
ENDBRANCH  27  28
ENDBRANCH   1  27
TORSDOF 20
ENDMDL
MODEL 3
REMARK VINA RESULT:     -11.8      1.482      2.204
REMARK SMILES CC(C)[NH2+][C@@]1(C(=O)NCCCCNC(=O)c2ccc(-c3c4nc(c(-c5cccc(S(=O)(=O)[O-])c5F)c5ccc([nH]5)c(-c5cccc(S(=O)(=O)[O-])c5F)c5nc(c(-c6cccc(S(=O)(=O)[O-])c6F)c6ccc3[nH]6)C=C5)C=C4)cc2)CCC[C@@H]1CCOC1CCOCC1
REMARK SMILES IDX 10 1 9 2 8 3 6 4 7 5 5 7 79 8 82 9 80 10 81 11 4 12 2 15
REMARK SMILES IDX 1 16 3 17 83 18 84 19 85 20 86 21 87 22 91 23 88 24 90 25
REMARK SMILES IDX 89 26 11 27 12 28 13 29 14 30 15 32 16 33 17 34 78 35 18 36
REMARK SMILES IDX 77 37 19 38 20 39 21 40 71 41 22 42 76 43 70 44 72 45 23 46
REMARK SMILES IDX 75 47 69 48 68 49 24 51 56 52 36 53 55 54 37 55 40 56 54 57
REMARK SMILES IDX 73 58 38 59 39 60 53 62 74 63 41 64 25 65 26 66 34 67 27 68
REMARK SMILES IDX 29 69 35 70 28 71 30 72 31 73 32 74 33 75 57 76 58 77 66 78
REMARK SMILES IDX 59 79 61 80 67 81 60 82 62 83 63 84 64 85 65 86 42 87 43 88
REMARK SMILES IDX 51 89 44 90 46 91 52 92 45 93 47 94 48 95 49 96 50 97
REMARK H PARENT 8 6 4 13 4 14 13 31 72 50 40 61
REMARK Flexibility Score: inf
ROOT
ATOM      1  C   UNL A   1      32.125  29.038  25.949  1.00  0.00     0.023 C 
ENDROOT
BRANCH   1   2
ATOM      2  C   UNL A   1      33.398  28.134  25.939  1.00  0.00     0.116 C 
BRANCH   2   3
ATOM      3  N   UNL A   1      33.857  27.500  24.588  1.00  0.00    -0.351 N 
ATOM      4  C   UNL A   1      33.888  26.344  23.808  1.00  0.00     0.281 C 
ATOM      5  O   UNL A   1      33.979  26.730  22.611  1.00  0.00    -0.268 OA
ATOM      6  H   UNL A   1      34.311  28.207  24.076  1.00  0.00     0.163 HD
BRANCH   4   7
ATOM      7  C   UNL A   1      33.698  24.449  24.022  1.00  0.00     0.178 C 
ATOM      8  C   UNL A   1      33.147  23.024  22.463  1.00  0.00     0.079 C 
ATOM      9  C   UNL A   1      32.763  23.732  25.606  1.00  0.00     0.063 C 
ATOM     10  C   UNL A   1      32.138  21.527  23.343  1.00  0.00     0.008 C 
ATOM     11  C   UNL A   1      32.001  21.986  25.202  1.00  0.00     0.011 C 
BRANCH   7  12
ATOM     12  N   UNL A   1      35.205  24.448  24.789  1.00  0.00    -0.331 N 
ATOM     13  H   UNL A   1      35.611  25.352  24.549  1.00  0.00     0.347 HD
ATOM     14  H   UNL A   1      34.891  24.160  25.716  1.00  0.00     0.347 HD
BRANCH  12  15
ATOM     15  C   UNL A   1      36.317  23.503  24.649  1.00  0.00     0.176 C 
ATOM     16  C   UNL A   1      37.211  23.741  25.884  1.00  0.00     0.075 C 
ATOM     17  C   UNL A   1      36.000  22.013  24.578  1.00  0.00     0.075 C 
ENDBRANCH  12  15
ENDBRANCH   7  12
BRANCH   9  18
ATOM     18  C   UNL A   1      31.771  24.723  26.205  1.00  0.00     0.039 C 
BRANCH  18  19
ATOM     19  C   UNL A   1      30.457  24.703  25.465  1.00  0.00     0.161 C 
BRANCH  19  20
ATOM     20  O   UNL A   1      29.832  25.941  25.076  1.00  0.00    -0.378 OA
BRANCH  20  21
ATOM     21  C   UNL A   1      29.182  26.413  23.889  1.00  0.00     0.122 C 
ATOM     22  C   UNL A   1      30.532  26.774  23.070  1.00  0.00     0.060 C 
ATOM     23  C   UNL A   1      27.749  27.589  23.617  1.00  0.00     0.060 C 
ATOM     24  C   UNL A   1      30.856  28.810  22.409  1.00  0.00     0.163 C 
ATOM     25  C   UNL A   1      27.977  29.262  23.008  1.00  0.00     0.163 C 
ATOM     26  O   UNL A   1      29.373  29.824  22.386  1.00  0.00    -0.381 OA
ENDBRANCH  20  21
ENDBRANCH  19  20
ENDBRANCH  18  19
ENDBRANCH   9  18
ENDBRANCH   4   7
ENDBRANCH   2   3
ENDBRANCH   1   2
BRANCH   1  27
ATOM     27  C   UNL A   1      31.972  30.216  26.893  1.00  0.00     0.023 C 
BRANCH  27  28
ATOM     28  C   UNL A   1      32.702  31.488  26.488  1.00  0.00     0.116 C 
BRANCH  28  29
ATOM     29  N   UNL A   1      32.613  32.647  27.390  1.00  0.00    -0.352 N 
ATOM     30  C   UNL A   1      33.642  33.143  28.185  1.00  0.00     0.251 C 
ATOM     31  H   UNL A   1      31.748  33.115  27.434  1.00  0.00     0.163 HD
ATOM     32  O   UNL A   1      33.509  34.130  28.899  1.00  0.00    -0.269 OA
BRANCH  30  33
ATOM     33  C   UNL A   1      34.910  32.380  28.174  1.00  0.00     0.039 A 
ATOM     34  C   UNL A   1      36.119  33.079  28.117  1.00  0.00     0.014 A 
ATOM     35  C   UNL A   1      34.867  31.044  28.571  1.00  0.00     0.014 A 
ATOM     36  C   UNL A   1      37.277  32.467  28.601  1.00  0.00     0.010 A 
ATOM     37  C   UNL A   1      35.988  30.499  29.180  1.00  0.00     0.010 A 
ATOM     38  C   UNL A   1      37.206  31.201  29.206  1.00  0.00    -0.014 A 
BRANCH  38  39
ATOM     39  C   UNL A   1      38.386  30.582  29.867  1.00  0.00     0.031 A 
ATOM     40  C   UNL A   1      38.765  31.022  31.257  1.00  0.00     0.074 A 
ATOM     41  C   UNL A   1      39.169  29.704  29.203  1.00  0.00     0.049 A 
ATOM     42  N   UNL A   1      39.779  30.652  31.993  1.00  0.00    -0.248 NA
ATOM     43  C   UNL A   1      37.918  32.051  31.887  1.00  0.00     0.031 C 
ATOM     44  C   UNL A   1      38.982  29.272  27.814  1.00  0.00     0.029 A 
ATOM     45  N   UNL A   1      40.296  29.028  29.605  1.00  0.00    -0.354 N 
ATOM     46  C   UNL A   1      39.712  31.429  33.142  1.00  0.00     0.074 A 
ATOM     47  C   UNL A   1      38.604  32.340  32.979  1.00  0.00     0.031 C 
ATOM     48  C   UNL A   1      39.943  28.387  27.492  1.00  0.00     0.029 A 
ATOM     49  C   UNL A   1      40.830  28.206  28.637  1.00  0.00     0.049 A 
ATOM     50  H   UNL A   1      40.687  29.122  30.503  1.00  0.00     0.167 HD
ATOM     51  C   UNL A   1      40.468  31.360  34.261  1.00  0.00     0.034 A 
ATOM     52  C   UNL A   1      41.907  27.394  28.672  1.00  0.00     0.034 A 
ATOM     53  C   UNL A   1      41.525  30.410  34.453  1.00  0.00     0.049 A 
ATOM     54  C   UNL A   1      42.697  27.287  29.952  1.00  0.00     0.074 A 
ATOM     55  C   UNL A   1      42.285  30.186  35.585  1.00  0.00     0.029 A 
ATOM     56  N   UNL A   1      41.971  29.524  33.484  1.00  0.00    -0.354 N 
ATOM     57  N   UNL A   1      42.507  27.906  31.092  1.00  0.00    -0.248 NA
ATOM     58  C   UNL A   1      43.823  26.342  29.964  1.00  0.00     0.031 C 
ATOM     59  C   UNL A   1      43.210  29.179  35.294  1.00  0.00     0.029 A 
ATOM     60  C   UNL A   1      43.003  28.755  33.990  1.00  0.00     0.049 A 
ATOM     61  H   UNL A   1      41.607  29.453  32.573  1.00  0.00     0.167 HD
ATOM     62  C   UNL A   1      43.462  27.398  31.968  1.00  0.00     0.074 A 
ATOM     63  C   UNL A   1      44.216  26.405  31.230  1.00  0.00     0.031 C 
ATOM     64  C   UNL A   1      43.704  27.732  33.259  1.00  0.00     0.034 A 
BRANCH  51  65
ATOM     65  C   UNL A   1      40.127  32.301  35.386  1.00  0.00     0.023 A 
ATOM     66  C   UNL A   1      40.804  33.534  35.494  1.00  0.00     0.012 A 
ATOM     67  C   UNL A   1      39.121  31.981  36.316  1.00  0.00     0.148 A 
ATOM     68  C   UNL A   1      40.518  34.413  36.536  1.00  0.00     0.002 A 
ATOM     69  C   UNL A   1      38.805  32.886  37.322  1.00  0.00     0.091 A 
ATOM     70  F   UNL A   1      38.507  30.794  36.213  1.00  0.00    -0.205 F 
ATOM     71  C   UNL A   1      39.511  34.094  37.443  1.00  0.00     0.022 A 
BRANCH  69  72
ATOM     72  S   UNL A   1      37.470  32.607  38.490  1.00  0.00     0.127 S 
ATOM     73  O   UNL A   1      36.305  33.024  37.709  1.00  0.00    -0.237 OA
ATOM     74  O   UNL A   1      37.564  31.165  38.724  1.00  0.00    -0.237 OA
ATOM     75  O   UNL A   1      37.771  33.432  39.650  1.00  0.00    -0.744 OA
ENDBRANCH  69  72
ENDBRANCH  51  65
BRANCH  52  76
ATOM     76  C   UNL A   1      42.261  26.553  27.490  1.00  0.00     0.023 A 
ATOM     77  C   UNL A   1      42.958  27.132  26.410  1.00  0.00     0.012 A 
ATOM     78  C   UNL A   1      41.921  25.187  27.429  1.00  0.00     0.148 A 
ATOM     79  C   UNL A   1      43.277  26.379  25.278  1.00  0.00     0.002 A 
ATOM     80  C   UNL A   1      42.290  24.429  26.323  1.00  0.00     0.091 A 
ATOM     81  F   UNL A   1      41.246  24.656  28.459  1.00  0.00    -0.205 F 
ATOM     82  C   UNL A   1      42.951  25.027  25.238  1.00  0.00     0.022 A 
BRANCH  80  83
ATOM     83  S   UNL A   1      42.024  22.654  26.238  1.00  0.00     0.127 S 
ATOM     84  O   UNL A   1      42.698  22.192  27.449  1.00  0.00    -0.237 OA
ATOM     85  O   UNL A   1      40.564  22.567  26.273  1.00  0.00    -0.237 OA
ATOM     86  O   UNL A   1      42.621  22.228  24.980  1.00  0.00    -0.744 OA
ENDBRANCH  80  83
ENDBRANCH  52  76
BRANCH  64  87
ATOM     87  C   UNL A   1      44.798  26.995  33.984  1.00  0.00     0.023 A 
ATOM     88  C   UNL A   1      46.114  27.496  33.966  1.00  0.00     0.012 A 
ATOM     89  C   UNL A   1      44.500  25.855  34.757  1.00  0.00     0.148 A 
ATOM     90  C   UNL A   1      47.124  26.855  34.683  1.00  0.00     0.002 A 
ATOM     91  C   UNL A   1      45.500  25.254  35.510  1.00  0.00     0.091 A 
ATOM     92  F   UNL A   1      43.244  25.385  34.746  1.00  0.00    -0.205 F 
ATOM     93  C   UNL A   1      46.815  25.744  35.464  1.00  0.00     0.022 A 
BRANCH  91  94
ATOM     94  S   UNL A   1      45.172  23.883  36.624  1.00  0.00     0.127 S 
ATOM     95  O   UNL A   1      46.507  23.599  37.148  1.00  0.00    -0.237 OA
ATOM     96  O   UNL A   1      44.251  24.483  37.591  1.00  0.00    -0.237 OA
ATOM     97  O   UNL A   1      44.585  22.831  35.805  1.00  0.00    -0.744 OA
ENDBRANCH  91  94
ENDBRANCH  64  87
ENDBRANCH  38  39
ENDBRANCH  30  33
ENDBRANCH  28  29
ENDBRANCH  27  28
ENDBRANCH   1  27
TORSDOF 20
ENDMDL
