MODEL 1
REMARK VINA RESULT:     -12.1      0.000      0.000
REMARK SMILES O=C(CC1CC[NH+](C[C@H]2Cc3ccccc3O2)CC1)NCCCCNC(=O)c1ccc(-c2c3nc(c(-c4cccc(S(=O)(=O)[O-])c4F)c4ccc([nH]4)c(-c4cccc(S(=O)(=O)[O-])c4F)c4nc(c(-c5cccc(S(=O)(=O)[O-])c5F)c5ccc2[nH]5)C=C4)C=C3)cc1
REMARK SMILES IDX 22 1 21 2 20 3 1 4 2 5 3 7 4 8 5 9 19 10 6 11 18 12 7 13
REMARK SMILES IDX 8 15 9 16 10 17 17 18 11 19 16 20 12 21 15 22 13 23 14 24
REMARK SMILES IDX 23 25 24 26 25 27 26 28 27 30 28 31 29 32 90 33 30 34 89 35
REMARK SMILES IDX 31 36 32 37 33 38 83 39 34 40 88 41 82 42 84 43 35 44 87 45
REMARK SMILES IDX 81 46 80 47 36 49 68 50 48 51 67 52 49 53 52 54 66 55 85 56
REMARK SMILES IDX 50 57 51 58 65 60 86 61 53 62 37 63 38 64 46 65 39 66 41 67
REMARK SMILES IDX 47 68 40 69 42 70 43 71 44 72 45 73 69 74 70 75 78 76 71 77
REMARK SMILES IDX 73 78 79 79 72 80 74 81 75 82 76 83 77 84 54 85 55 86 63 87
REMARK SMILES IDX 56 88 58 89 64 90 57 91 59 92 60 93 61 94 62 95
REMARK H PARENT 20 6 7 14 25 29 84 48 52 59
REMARK Flexibility Score: inf
ROOT
ATOM      1  C   UNL A   1      35.575  21.529  26.333  1.00  0.00     0.023 C 
ENDROOT
BRANCH   1   2
ATOM      2  C   UNL A   1      34.310  22.411  26.383  1.00  0.00     0.116 C 
BRANCH   2   3
ATOM      3  N   UNL A   1      34.487  23.824  26.068  1.00  0.00    -0.356 N 
ATOM      4  O   UNL A   1      32.334  24.484  26.467  1.00  0.00    -0.275 OA
ATOM      5  C   UNL A   1      33.476  24.768  26.108  1.00  0.00     0.220 C 
ATOM      6  H   UNL A   1      35.387  24.126  25.809  1.00  0.00     0.163 HD
BRANCH   5   7
ATOM      7  C   UNL A   1      33.796  26.170  25.553  1.00  0.00     0.104 C 
BRANCH   7   8
ATOM      8  C   UNL A   1      33.613  27.457  26.388  1.00  0.00     0.009 C 
ATOM      9  C   UNL A   1      32.165  27.593  26.918  1.00  0.00     0.066 C 
ATOM     10  C   UNL A   1      33.959  28.802  25.738  1.00  0.00     0.066 C 
ATOM     11  C   UNL A   1      31.147  27.916  25.817  1.00  0.00     0.262 C 
ATOM     12  C   UNL A   1      32.911  29.342  24.748  1.00  0.00     0.262 C 
ATOM     13  N   UNL A   1      31.740  28.501  24.630  1.00  0.00    -0.332 N 
ATOM     14  H   UNL A   1      32.281  27.696  24.313  1.00  0.00     0.348 HD
BRANCH  13  15
ATOM     15  C   UNL A   1      30.831  28.719  23.497  1.00  0.00     0.308 C 
BRANCH  15  16
ATOM     16  C   UNL A   1      30.756  27.477  22.555  1.00  0.00     0.232 C 
ATOM     17  C   UNL A   1      32.151  27.022  22.145  1.00  0.00     0.090 C 
ATOM     18  O   UNL A   1      30.061  26.349  23.154  1.00  0.00    -0.484 OA
ATOM     19  C   UNL A   1      32.097  25.573  22.377  1.00  0.00    -0.002 A 
ATOM     20  C   UNL A   1      30.893  25.269  22.978  1.00  0.00     0.123 A 
ATOM     21  C   UNL A   1      33.111  24.636  22.252  1.00  0.00     0.007 A 
ATOM     22  C   UNL A   1      30.646  24.005  23.463  1.00  0.00     0.047 A 
ATOM     23  C   UNL A   1      32.889  23.358  22.757  1.00  0.00     0.001 A 
ATOM     24  C   UNL A   1      31.660  23.044  23.356  1.00  0.00     0.004 A 
ENDBRANCH  15  16
ENDBRANCH  13  15
ENDBRANCH   7   8
ENDBRANCH   5   7
ENDBRANCH   2   3
ENDBRANCH   1   2
BRANCH   1  25
ATOM     25  C   UNL A   1      36.306  21.182  25.018  1.00  0.00     0.023 C 
BRANCH  25  26
ATOM     26  C   UNL A   1      37.784  21.532  24.854  1.00  0.00     0.116 C 
BRANCH  26  27
ATOM     27  N   UNL A   1      38.587  20.611  25.639  1.00  0.00    -0.352 N 
ATOM     28  C   UNL A   1      39.764  20.841  26.309  1.00  0.00     0.251 C 
ATOM     29  H   UNL A   1      38.238  19.692  25.699  1.00  0.00     0.163 HD
ATOM     30  O   UNL A   1      40.522  19.891  26.501  1.00  0.00    -0.269 OA
BRANCH  28  31
ATOM     31  C   UNL A   1      40.121  22.182  26.844  1.00  0.00     0.039 A 
ATOM     32  C   UNL A   1      39.585  23.315  26.218  1.00  0.00     0.014 A 
ATOM     33  C   UNL A   1      41.093  22.344  27.836  1.00  0.00     0.014 A 
ATOM     34  C   UNL A   1      40.034  24.596  26.563  1.00  0.00     0.010 A 
ATOM     35  C   UNL A   1      41.511  23.630  28.209  1.00  0.00     0.010 A 
ATOM     36  C   UNL A   1      41.011  24.768  27.555  1.00  0.00    -0.014 A 
BRANCH  36  37
ATOM     37  C   UNL A   1      41.534  26.125  27.881  1.00  0.00     0.031 A 
ATOM     38  C   UNL A   1      42.951  26.510  27.533  1.00  0.00     0.074 A 
ATOM     39  C   UNL A   1      40.749  27.012  28.525  1.00  0.00     0.049 A 
ATOM     40  N   UNL A   1      43.575  27.643  27.740  1.00  0.00    -0.248 NA
ATOM     41  C   UNL A   1      43.781  25.486  26.879  1.00  0.00     0.031 C 
ATOM     42  C   UNL A   1      39.378  26.757  28.968  1.00  0.00     0.029 A 
ATOM     43  N   UNL A   1      40.998  28.300  28.936  1.00  0.00    -0.354 N 
ATOM     44  C   UNL A   1      44.873  27.460  27.275  1.00  0.00     0.074 A 
ATOM     45  C   UNL A   1      44.954  26.096  26.796  1.00  0.00     0.031 C 
ATOM     46  C   UNL A   1      38.908  27.849  29.590  1.00  0.00     0.029 A 
ATOM     47  C   UNL A   1      39.947  28.876  29.612  1.00  0.00     0.049 A 
ATOM     48  H   UNL A   1      41.848  28.765  28.764  1.00  0.00     0.167 HD
ATOM     49  C   UNL A   1      45.897  28.347  27.225  1.00  0.00     0.034 A 
ATOM     50  C   UNL A   1      39.832  30.090  30.187  1.00  0.00     0.034 A 
ATOM     51  C   UNL A   1      45.807  29.716  27.660  1.00  0.00     0.049 A 
ATOM     52  C   UNL A   1      40.974  31.066  30.094  1.00  0.00     0.074 A 
ATOM     53  C   UNL A   1      46.764  30.713  27.569  1.00  0.00     0.029 A 
ATOM     54  N   UNL A   1      44.703  30.283  28.277  1.00  0.00    -0.354 N 
ATOM     55  N   UNL A   1      42.137  30.922  29.508  1.00  0.00    -0.248 NA
ATOM     56  C   UNL A   1      40.773  32.387  30.710  1.00  0.00     0.031 C 
ATOM     57  C   UNL A   1      46.248  31.874  28.153  1.00  0.00     0.029 A 
ATOM     58  C   UNL A   1      44.958  31.610  28.584  1.00  0.00     0.049 A 
ATOM     59  H   UNL A   1      43.859  29.812  28.468  1.00  0.00     0.167 HD
ATOM     60  C   UNL A   1      42.790  32.142  29.650  1.00  0.00     0.074 A 
ATOM     61  C   UNL A   1      41.885  33.020  30.361  1.00  0.00     0.031 C 
ATOM     62  C   UNL A   1      44.033  32.496  29.242  1.00  0.00     0.034 A 
BRANCH  49  63
ATOM     63  C   UNL A   1      47.203  27.883  26.632  1.00  0.00     0.023 A 
ATOM     64  C   UNL A   1      48.212  27.382  27.480  1.00  0.00     0.012 A 
ATOM     65  C   UNL A   1      47.408  27.872  25.238  1.00  0.00     0.148 A 
ATOM     66  C   UNL A   1      49.416  26.911  26.955  1.00  0.00     0.002 A 
ATOM     67  C   UNL A   1      48.593  27.362  24.719  1.00  0.00     0.091 A 
ATOM     68  F   UNL A   1      46.445  28.367  24.446  1.00  0.00    -0.205 F 
ATOM     69  C   UNL A   1      49.601  26.891  25.576  1.00  0.00     0.022 A 
BRANCH  67  70
ATOM     70  S   UNL A   1      48.896  27.221  22.952  1.00  0.00     0.127 S 
ATOM     71  O   UNL A   1      50.358  27.237  22.903  1.00  0.00    -0.237 OA
ATOM     72  O   UNL A   1      48.290  25.927  22.638  1.00  0.00    -0.237 OA
ATOM     73  O   UNL A   1      48.237  28.365  22.339  1.00  0.00    -0.744 OA
ENDBRANCH  67  70
ENDBRANCH  49  63
BRANCH  50  74
ATOM     74  C   UNL A   1      38.554  30.477  30.852  1.00  0.00     0.023 A 
ATOM     75  C   UNL A   1      38.347  30.141  32.204  1.00  0.00     0.012 A 
ATOM     76  C   UNL A   1      37.558  31.194  30.162  1.00  0.00     0.148 A 
ATOM     77  C   UNL A   1      37.159  30.485  32.848  1.00  0.00     0.002 A 
ATOM     78  C   UNL A   1      36.401  31.583  30.825  1.00  0.00     0.091 A 
ATOM     79  F   UNL A   1      37.767  31.491  28.871  1.00  0.00    -0.205 F 
ATOM     80  C   UNL A   1      36.191  31.215  32.163  1.00  0.00     0.022 A 
BRANCH  78  81
ATOM     81  S   UNL A   1      35.163  32.637  30.063  1.00  0.00     0.127 S 
ATOM     82  O   UNL A   1      34.239  32.864  31.168  1.00  0.00    -0.237 OA
ATOM     83  O   UNL A   1      35.957  33.801  29.670  1.00  0.00    -0.237 OA
ATOM     84  O   UNL A   1      34.633  31.869  28.940  1.00  0.00    -0.744 OA
ENDBRANCH  78  81
ENDBRANCH  50  74
BRANCH  62  85
ATOM     85  C   UNL A   1      44.489  33.907  29.517  1.00  0.00     0.023 A 
ATOM     86  C   UNL A   1      45.157  34.206  30.722  1.00  0.00     0.012 A 
ATOM     87  C   UNL A   1      44.321  34.919  28.551  1.00  0.00     0.148 A 
ATOM     88  C   UNL A   1      45.621  35.496  30.974  1.00  0.00     0.002 A 
ATOM     89  C   UNL A   1      44.831  36.190  28.788  1.00  0.00     0.091 A 
ATOM     90  F   UNL A   1      43.667  34.621  27.419  1.00  0.00    -0.205 F 
ATOM     91  C   UNL A   1      45.469  36.484  30.004  1.00  0.00     0.022 A 
BRANCH  89  92
ATOM     92  S   UNL A   1      44.765  37.499  27.558  1.00  0.00     0.127 S 
ATOM     93  O   UNL A   1      45.120  38.674  28.354  1.00  0.00    -0.237 OA
ATOM     94  O   UNL A   1      45.791  37.080  26.603  1.00  0.00    -0.237 OA
ATOM     95  O   UNL A   1      43.408  37.487  27.031  1.00  0.00    -0.744 OA
ENDBRANCH  89  92
ENDBRANCH  62  85
ENDBRANCH  36  37
ENDBRANCH  28  31
ENDBRANCH  26  27
ENDBRANCH  25  26
ENDBRANCH   1  25
TORSDOF 17
ENDMDL
MODEL 2
REMARK VINA RESULT:     -12.0      5.730      8.895
REMARK SMILES O=C(CC1CC[NH+](C[C@H]2Cc3ccccc3O2)CC1)NCCCCNC(=O)c1ccc(-c2c3nc(c(-c4cccc(S(=O)(=O)[O-])c4F)c4ccc([nH]4)c(-c4cccc(S(=O)(=O)[O-])c4F)c4nc(c(-c5cccc(S(=O)(=O)[O-])c5F)c5ccc2[nH]5)C=C4)C=C3)cc1
REMARK SMILES IDX 22 1 21 2 20 3 1 4 2 5 3 7 4 8 5 9 19 10 6 11 18 12 7 13
REMARK SMILES IDX 8 15 9 16 10 17 17 18 11 19 16 20 12 21 15 22 13 23 14 24
REMARK SMILES IDX 23 25 24 26 25 27 26 28 27 30 28 31 29 32 90 33 30 34 89 35
REMARK SMILES IDX 31 36 32 37 33 38 83 39 34 40 88 41 82 42 84 43 35 44 87 45
REMARK SMILES IDX 81 46 80 47 36 49 68 50 48 51 67 52 49 53 52 54 66 55 85 56
REMARK SMILES IDX 50 57 51 58 65 60 86 61 53 62 37 63 38 64 46 65 39 66 41 67
REMARK SMILES IDX 47 68 40 69 42 70 43 71 44 72 45 73 69 74 70 75 78 76 71 77
REMARK SMILES IDX 73 78 79 79 72 80 74 81 75 82 76 83 77 84 54 85 55 86 63 87
REMARK SMILES IDX 56 88 58 89 64 90 57 91 59 92 60 93 61 94 62 95
REMARK H PARENT 20 6 7 14 25 29 84 48 52 59
REMARK Flexibility Score: inf
ROOT
ATOM      1  C   UNL A   1      31.320  30.758  26.140  1.00  0.00     0.023 C 
ENDROOT
BRANCH   1   2
ATOM      2  C   UNL A   1      32.120  29.621  26.810  1.00  0.00     0.116 C 
BRANCH   2   3
ATOM      3  N   UNL A   1      31.645  28.264  26.574  1.00  0.00    -0.356 N 
ATOM      4  O   UNL A   1      33.672  27.328  26.077  1.00  0.00    -0.275 OA
ATOM      5  C   UNL A   1      32.453  27.205  26.198  1.00  0.00     0.220 C 
ATOM      6  H   UNL A   1      30.684  28.088  26.691  1.00  0.00     0.163 HD
BRANCH   5   7
ATOM      7  C   UNL A   1      31.756  25.890  25.799  1.00  0.00     0.104 C 
BRANCH   7   8
ATOM      8  C   UNL A   1      32.157  24.521  26.392  1.00  0.00     0.009 C 
ATOM      9  C   UNL A   1      33.669  24.242  26.209  1.00  0.00     0.066 C 
ATOM     10  C   UNL A   1      31.427  23.269  25.895  1.00  0.00     0.066 C 
ATOM     11  C   UNL A   1      34.059  23.955  24.754  1.00  0.00     0.262 C 
ATOM     12  C   UNL A   1      31.869  22.755  24.512  1.00  0.00     0.262 C 
ATOM     13  N   UNL A   1      32.947  23.525  23.928  1.00  0.00    -0.332 N 
ATOM     14  H   UNL A   1      32.406  24.389  23.931  1.00  0.00     0.348 HD
BRANCH  13  15
ATOM     15  C   UNL A   1      33.235  23.354  22.497  1.00  0.00     0.308 C 
BRANCH  15  16
ATOM     16  C   UNL A   1      32.961  24.655  21.682  1.00  0.00     0.232 C 
ATOM     17  C   UNL A   1      31.603  25.245  22.043  1.00  0.00     0.090 C 
ATOM     18  O   UNL A   1      33.975  25.678  21.883  1.00  0.00    -0.484 OA
ATOM     19  C   UNL A   1      31.916  26.664  22.257  1.00  0.00    -0.002 A 
ATOM     20  C   UNL A   1      33.283  26.828  22.181  1.00  0.00     0.123 A 
ATOM     21  C   UNL A   1      31.078  27.682  22.686  1.00  0.00     0.007 A 
ATOM     22  C   UNL A   1      33.869  28.029  22.512  1.00  0.00     0.047 A 
ATOM     23  C   UNL A   1      31.654  28.896  23.048  1.00  0.00     0.001 A 
ATOM     24  C   UNL A   1      33.044  29.069  22.958  1.00  0.00     0.004 A 
ENDBRANCH  15  16
ENDBRANCH  13  15
ENDBRANCH   7   8
ENDBRANCH   5   7
ENDBRANCH   2   3
ENDBRANCH   1   2
BRANCH   1  25
ATOM     25  C   UNL A   1      31.501  32.245  26.513  1.00  0.00     0.023 C 
BRANCH  25  26
ATOM     26  C   UNL A   1      32.610  32.659  27.477  1.00  0.00     0.116 C 
BRANCH  26  27
ATOM     27  N   UNL A   1      32.600  34.103  27.634  1.00  0.00    -0.352 N 
ATOM     28  C   UNL A   1      33.082  34.866  28.668  1.00  0.00     0.251 C 
ATOM     29  H   UNL A   1      32.189  34.605  26.893  1.00  0.00     0.163 HD
ATOM     30  O   UNL A   1      32.582  35.974  28.860  1.00  0.00    -0.269 OA
BRANCH  28  31
ATOM     31  C   UNL A   1      34.212  34.416  29.525  1.00  0.00     0.039 A 
ATOM     32  C   UNL A   1      35.515  34.525  29.023  1.00  0.00     0.014 A 
ATOM     33  C   UNL A   1      33.998  33.743  30.732  1.00  0.00     0.014 A 
ATOM     34  C   UNL A   1      36.591  33.948  29.710  1.00  0.00     0.010 A 
ATOM     35  C   UNL A   1      35.081  33.201  31.439  1.00  0.00     0.010 A 
ATOM     36  C   UNL A   1      36.385  33.269  30.920  1.00  0.00    -0.014 A 
BRANCH  36  37
ATOM     37  C   UNL A   1      37.518  32.601  31.621  1.00  0.00     0.031 A 
ATOM     38  C   UNL A   1      38.254  31.452  30.976  1.00  0.00     0.074 A 
ATOM     39  C   UNL A   1      37.874  33.000  32.858  1.00  0.00     0.049 A 
ATOM     40  N   UNL A   1      39.262  30.753  31.437  1.00  0.00    -0.248 NA
ATOM     41  C   UNL A   1      37.791  31.022  29.648  1.00  0.00     0.031 C 
ATOM     42  C   UNL A   1      37.217  34.062  33.621  1.00  0.00     0.029 A 
ATOM     43  N   UNL A   1      38.861  32.548  33.700  1.00  0.00    -0.354 N 
ATOM     44  C   UNL A   1      39.531  29.784  30.476  1.00  0.00     0.074 A 
ATOM     45  C   UNL A   1      38.564  29.970  29.415  1.00  0.00     0.031 C 
ATOM     46  C   UNL A   1      37.816  34.178  34.817  1.00  0.00     0.029 A 
ATOM     47  C   UNL A   1      38.884  33.187  34.918  1.00  0.00     0.049 A 
ATOM     48  H   UNL A   1      39.492  31.833  33.454  1.00  0.00     0.167 HD
ATOM     49  C   UNL A   1      40.507  28.843  30.460  1.00  0.00     0.034 A 
ATOM     50  C   UNL A   1      39.672  32.997  35.996  1.00  0.00     0.034 A 
ATOM     51  C   UNL A   1      41.497  28.682  31.492  1.00  0.00     0.049 A 
ATOM     52  C   UNL A   1      40.764  31.963  35.943  1.00  0.00     0.074 A 
ATOM     53  C   UNL A   1      42.576  27.814  31.522  1.00  0.00     0.029 A 
ATOM     54  N   UNL A   1      41.529  29.396  32.680  1.00  0.00    -0.354 N 
ATOM     55  N   UNL A   1      41.100  31.166  34.957  1.00  0.00    -0.248 NA
ATOM     56  C   UNL A   1      41.613  31.829  37.137  1.00  0.00     0.031 C 
ATOM     57  C   UNL A   1      43.245  27.984  32.739  1.00  0.00     0.029 A 
ATOM     58  C   UNL A   1      42.599  28.979  33.456  1.00  0.00     0.049 A 
ATOM     59  H   UNL A   1      40.886  30.096  32.935  1.00  0.00     0.167 HD
ATOM     60  C   UNL A   1      42.218  30.465  35.397  1.00  0.00     0.074 A 
ATOM     61  C   UNL A   1      42.515  30.945  36.730  1.00  0.00     0.031 C 
ATOM     62  C   UNL A   1      42.923  29.499  34.759  1.00  0.00     0.034 A 
BRANCH  49  63
ATOM     63  C   UNL A   1      40.588  27.932  29.261  1.00  0.00     0.023 A 
ATOM     64  C   UNL A   1      39.732  26.815  29.177  1.00  0.00     0.012 A 
ATOM     65  C   UNL A   1      41.454  28.218  28.186  1.00  0.00     0.148 A 
ATOM     66  C   UNL A   1      39.762  25.977  28.061  1.00  0.00     0.002 A 
ATOM     67  C   UNL A   1      41.447  27.404  27.059  1.00  0.00     0.091 A 
ATOM     68  F   UNL A   1      42.273  29.276  28.289  1.00  0.00    -0.205 F 
ATOM     69  C   UNL A   1      40.609  26.278  27.000  1.00  0.00     0.022 A 
BRANCH  67  70
ATOM     70  S   UNL A   1      42.447  27.750  25.606  1.00  0.00     0.127 S 
ATOM     71  O   UNL A   1      43.782  27.876  26.191  1.00  0.00    -0.237 OA
ATOM     72  O   UNL A   1      42.247  26.546  24.799  1.00  0.00    -0.237 OA
ATOM     73  O   UNL A   1      41.902  28.968  25.025  1.00  0.00    -0.744 OA
ENDBRANCH  67  70
ENDBRANCH  49  63
BRANCH  50  74
ATOM     74  C   UNL A   1      39.495  33.853  37.203  1.00  0.00     0.023 A 
ATOM     75  C   UNL A   1      39.982  35.174  37.193  1.00  0.00     0.012 A 
ATOM     76  C   UNL A   1      38.828  33.375  38.348  1.00  0.00     0.148 A 
ATOM     77  C   UNL A   1      39.835  35.995  38.312  1.00  0.00     0.002 A 
ATOM     78  C   UNL A   1      38.636  34.216  39.437  1.00  0.00     0.091 A 
ATOM     79  F   UNL A   1      38.386  32.110  38.344  1.00  0.00    -0.205 F 
ATOM     80  C   UNL A   1      39.153  35.521  39.429  1.00  0.00     0.022 A 
BRANCH  78  81
ATOM     81  S   UNL A   1      37.654  33.734  40.863  1.00  0.00     0.127 S 
ATOM     82  O   UNL A   1      38.522  32.755  41.508  1.00  0.00    -0.237 OA
ATOM     83  O   UNL A   1      37.514  35.004  41.576  1.00  0.00    -0.237 OA
ATOM     84  O   UNL A   1      36.404  33.214  40.317  1.00  0.00    -0.744 OA
ENDBRANCH  78  81
ENDBRANCH  50  74
BRANCH  62  85
ATOM     85  C   UNL A   1      44.116  28.912  35.471  1.00  0.00     0.023 A 
ATOM     86  C   UNL A   1      45.395  29.469  35.273  1.00  0.00     0.012 A 
ATOM     87  C   UNL A   1      43.958  27.856  36.391  1.00  0.00     0.148 A 
ATOM     88  C   UNL A   1      46.502  28.965  35.955  1.00  0.00     0.002 A 
ATOM     89  C   UNL A   1      45.058  27.391  37.103  1.00  0.00     0.091 A 
ATOM     90  F   UNL A   1      42.738  27.325  36.552  1.00  0.00    -0.205 F 
ATOM     91  C   UNL A   1      46.332  27.935  36.878  1.00  0.00     0.022 A 
BRANCH  89  92
ATOM     92  S   UNL A   1      44.917  26.134  38.380  1.00  0.00     0.127 S 
ATOM     93  O   UNL A   1      44.094  26.815  39.379  1.00  0.00    -0.237 OA
ATOM     94  O   UNL A   1      44.240  25.047  37.674  1.00  0.00    -0.237 OA
ATOM     95  O   UNL A   1      46.279  25.829  38.795  1.00  0.00    -0.744 OA
ENDBRANCH  89  92
ENDBRANCH  62  85
ENDBRANCH  36  37
ENDBRANCH  28  31
ENDBRANCH  26  27
ENDBRANCH  25  26
ENDBRANCH   1  25
TORSDOF 17
ENDMDL
MODEL 3
REMARK VINA RESULT:     -12.0      5.150     10.572
REMARK SMILES O=C(CC1CC[NH+](C[C@H]2Cc3ccccc3O2)CC1)NCCCCNC(=O)c1ccc(-c2c3nc(c(-c4cccc(S(=O)(=O)[O-])c4F)c4ccc([nH]4)c(-c4cccc(S(=O)(=O)[O-])c4F)c4nc(c(-c5cccc(S(=O)(=O)[O-])c5F)c5ccc2[nH]5)C=C4)C=C3)cc1
REMARK SMILES IDX 22 1 21 2 20 3 1 4 2 5 3 7 4 8 5 9 19 10 6 11 18 12 7 13
REMARK SMILES IDX 8 15 9 16 10 17 17 18 11 19 16 20 12 21 15 22 13 23 14 24
REMARK SMILES IDX 23 25 24 26 25 27 26 28 27 30 28 31 29 32 90 33 30 34 89 35
REMARK SMILES IDX 31 36 32 37 33 38 83 39 34 40 88 41 82 42 84 43 35 44 87 45
REMARK SMILES IDX 81 46 80 47 36 49 68 50 48 51 67 52 49 53 52 54 66 55 85 56
REMARK SMILES IDX 50 57 51 58 65 60 86 61 53 62 37 63 38 64 46 65 39 66 41 67
REMARK SMILES IDX 47 68 40 69 42 70 43 71 44 72 45 73 69 74 70 75 78 76 71 77
REMARK SMILES IDX 73 78 79 79 72 80 74 81 75 82 76 83 77 84 54 85 55 86 63 87
REMARK SMILES IDX 56 88 58 89 64 90 57 91 59 92 60 93 61 94 62 95
REMARK H PARENT 20 6 7 14 25 29 84 48 52 59
REMARK Flexibility Score: inf
ROOT
ATOM      1  C   UNL A   1      31.812  29.095  24.362  1.00  0.00     0.023 C 
ENDROOT
BRANCH   1   2
ATOM      2  C   UNL A   1      32.377  27.935  23.514  1.00  0.00     0.116 C 
BRANCH   2   3
ATOM      3  N   UNL A   1      33.373  27.085  24.155  1.00  0.00    -0.356 N 
ATOM      4  O   UNL A   1      31.936  25.483  24.927  1.00  0.00    -0.275 OA
ATOM      5  C   UNL A   1      33.083  25.921  24.843  1.00  0.00     0.220 C 
ATOM      6  H   UNL A   1      34.317  27.358  24.093  1.00  0.00     0.163 HD
BRANCH   5   7
ATOM      7  C   UNL A   1      34.233  25.256  25.625  1.00  0.00     0.104 C 
BRANCH   7   8
ATOM      8  C   UNL A   1      35.346  24.437  24.933  1.00  0.00     0.009 C 
ATOM      9  C   UNL A   1      34.805  23.665  23.705  1.00  0.00     0.066 C 
ATOM     10  C   UNL A   1      36.127  23.418  25.770  1.00  0.00     0.066 C 
ATOM     11  C   UNL A   1      33.893  22.492  24.082  1.00  0.00     0.262 C 
ATOM     12  C   UNL A   1      35.388  22.098  26.057  1.00  0.00     0.262 C 
ATOM     13  N   UNL A   1      34.081  22.023  25.441  1.00  0.00    -0.332 N 
ATOM     14  H   UNL A   1      33.738  22.844  25.939  1.00  0.00     0.348 HD
BRANCH  13  15
ATOM     15  C   UNL A   1      33.149  20.981  25.898  1.00  0.00     0.308 C 
BRANCH  15  16
ATOM     16  C   UNL A   1      33.010  19.822  24.863  1.00  0.00     0.232 C 
ATOM     17  C   UNL A   1      34.354  19.147  24.620  1.00  0.00     0.090 C 
ATOM     18  O   UNL A   1      32.052  18.807  25.271  1.00  0.00    -0.484 OA
ATOM     19  C   UNL A   1      34.021  17.721  24.730  1.00  0.00    -0.002 A 
ATOM     20  C   UNL A   1      32.706  17.607  25.131  1.00  0.00     0.123 A 
ATOM     21  C   UNL A   1      34.870  16.625  24.677  1.00  0.00     0.007 A 
ATOM     22  C   UNL A   1      32.179  16.383  25.479  1.00  0.00     0.047 A 
ATOM     23  C   UNL A   1      34.361  15.384  25.047  1.00  0.00     0.001 A 
ATOM     24  C   UNL A   1      33.020  15.264  25.443  1.00  0.00     0.004 A 
ENDBRANCH  15  16
ENDBRANCH  13  15
ENDBRANCH   7   8
ENDBRANCH   5   7
ENDBRANCH   2   3
ENDBRANCH   1   2
BRANCH   1  25
ATOM     25  C   UNL A   1      32.629  29.808  25.460  1.00  0.00     0.023 C 
BRANCH  25  26
ATOM     26  C   UNL A   1      31.920  30.385  26.683  1.00  0.00     0.116 C 
BRANCH  26  27
ATOM     27  N   UNL A   1      32.113  31.824  26.719  1.00  0.00    -0.352 N 
ATOM     28  C   UNL A   1      32.992  32.563  27.472  1.00  0.00     0.251 C 
ATOM     29  H   UNL A   1      31.531  32.343  26.116  1.00  0.00     0.163 HD
ATOM     30  O   UNL A   1      32.703  33.731  27.728  1.00  0.00    -0.269 OA
BRANCH  28  31
ATOM     31  C   UNL A   1      34.290  32.010  27.942  1.00  0.00     0.039 A 
ATOM     32  C   UNL A   1      34.330  30.682  28.385  1.00  0.00     0.014 A 
ATOM     33  C   UNL A   1      35.419  32.820  28.105  1.00  0.00     0.014 A 
ATOM     34  C   UNL A   1      35.478  30.175  29.006  1.00  0.00     0.010 A 
ATOM     35  C   UNL A   1      36.582  32.298  28.691  1.00  0.00     0.010 A 
ATOM     36  C   UNL A   1      36.613  30.980  29.177  1.00  0.00    -0.014 A 
BRANCH  36  37
ATOM     37  C   UNL A   1      37.814  30.462  29.893  1.00  0.00     0.031 A 
ATOM     38  C   UNL A   1      38.097  30.868  31.318  1.00  0.00     0.074 A 
ATOM     39  C   UNL A   1      38.678  29.647  29.256  1.00  0.00     0.049 A 
ATOM     40  N   UNL A   1      39.090  30.517  32.097  1.00  0.00    -0.248 NA
ATOM     41  C   UNL A   1      37.150  31.801  31.949  1.00  0.00     0.031 C 
ATOM     42  C   UNL A   1      38.556  29.215  27.863  1.00  0.00     0.029 A 
ATOM     43  N   UNL A   1      39.839  29.054  29.688  1.00  0.00    -0.354 N 
ATOM     44  C   UNL A   1      38.909  31.207  33.290  1.00  0.00     0.074 A 
ATOM     45  C   UNL A   1      37.721  32.017  33.126  1.00  0.00     0.031 C 
ATOM     46  C   UNL A   1      39.600  28.429  27.554  1.00  0.00     0.029 A 
ATOM     47  C   UNL A   1      40.478  28.317  28.717  1.00  0.00     0.049 A 
ATOM     48  H   UNL A   1      40.183  29.148  30.606  1.00  0.00     0.167 HD
ATOM     49  C   UNL A   1      39.643  31.154  34.429  1.00  0.00     0.034 A 
ATOM     50  C   UNL A   1      41.638  27.632  28.754  1.00  0.00     0.034 A 
ATOM     51  C   UNL A   1      40.800  30.317  34.612  1.00  0.00     0.049 A 
ATOM     52  C   UNL A   1      42.421  27.568  30.038  1.00  0.00     0.074 A 
ATOM     53  C   UNL A   1      41.556  30.132  35.757  1.00  0.00     0.029 A 
ATOM     54  N   UNL A   1      41.376  29.532  33.625  1.00  0.00    -0.354 N 
ATOM     55  N   UNL A   1      42.142  28.102  31.202  1.00  0.00    -0.248 NA
ATOM     56  C   UNL A   1      43.660  26.775  30.024  1.00  0.00     0.031 C 
ATOM     57  C   UNL A   1      42.604  29.256  35.456  1.00  0.00     0.029 A 
ATOM     58  C   UNL A   1      42.485  28.872  34.130  1.00  0.00     0.049 A 
ATOM     59  H   UNL A   1      41.045  29.454  32.701  1.00  0.00     0.167 HD
ATOM     60  C   UNL A   1      43.148  27.680  32.066  1.00  0.00     0.074 A 
ATOM     61  C   UNL A   1      44.031  26.829  31.297  1.00  0.00     0.031 C 
ATOM     62  C   UNL A   1      43.329  27.983  33.375  1.00  0.00     0.034 A 
BRANCH  49  63
ATOM     63  C   UNL A   1      39.193  31.994  35.598  1.00  0.00     0.023 A 
ATOM     64  C   UNL A   1      39.473  33.376  35.609  1.00  0.00     0.012 A 
ATOM     65  C   UNL A   1      38.432  31.437  36.645  1.00  0.00     0.148 A 
ATOM     66  C   UNL A   1      39.036  34.183  36.660  1.00  0.00     0.002 A 
ATOM     67  C   UNL A   1      37.963  32.255  37.667  1.00  0.00     0.091 A 
ATOM     68  F   UNL A   1      38.188  30.118  36.627  1.00  0.00    -0.205 F 
ATOM     69  C   UNL A   1      38.272  33.625  37.681  1.00  0.00     0.022 A 
BRANCH  67  70
ATOM     70  S   UNL A   1      36.906  31.647  38.988  1.00  0.00     0.127 S 
ATOM     71  O   UNL A   1      37.845  31.579  40.108  1.00  0.00    -0.237 OA
ATOM     72  O   UNL A   1      35.905  32.709  39.096  1.00  0.00    -0.237 OA
ATOM     73  O   UNL A   1      36.386  30.367  38.529  1.00  0.00    -0.744 OA
ENDBRANCH  67  70
ENDBRANCH  49  63
BRANCH  50  74
ATOM     74  C   UNL A   1      42.102  26.893  27.544  1.00  0.00     0.023 A 
ATOM     75  C   UNL A   1      42.774  27.590  26.522  1.00  0.00     0.012 A 
ATOM     76  C   UNL A   1      41.901  25.505  27.413  1.00  0.00     0.148 A 
ATOM     77  C   UNL A   1      43.213  26.923  25.378  1.00  0.00     0.002 A 
ATOM     78  C   UNL A   1      42.390  24.838  26.297  1.00  0.00     0.091 A 
ATOM     79  F   UNL A   1      41.245  24.863  28.390  1.00  0.00    -0.205 F 
ATOM     80  C   UNL A   1      43.031  25.548  25.269  1.00  0.00     0.022 A 
BRANCH  78  81
ATOM     81  S   UNL A   1      42.320  23.051  26.136  1.00  0.00     0.127 S 
ATOM     82  O   UNL A   1      40.887  22.797  26.231  1.00  0.00    -0.237 OA
ATOM     83  O   UNL A   1      42.901  22.843  24.810  1.00  0.00    -0.237 OA
ATOM     84  O   UNL A   1      43.130  22.529  27.232  1.00  0.00    -0.744 OA
ENDBRANCH  78  81
ENDBRANCH  50  74
BRANCH  62  85
ATOM     85  C   UNL A   1      44.509  27.367  34.083  1.00  0.00     0.023 A 
ATOM     86  C   UNL A   1      45.756  28.024  34.071  1.00  0.00     0.012 A 
ATOM     87  C   UNL A   1      44.365  26.175  34.820  1.00  0.00     0.148 A 
ATOM     88  C   UNL A   1      46.847  27.489  34.754  1.00  0.00     0.002 A 
ATOM     89  C   UNL A   1      45.443  25.673  35.540  1.00  0.00     0.091 A 
ATOM     90  F   UNL A   1      43.177  25.553  34.805  1.00  0.00    -0.205 F 
ATOM     91  C   UNL A   1      46.688  26.321  35.498  1.00  0.00     0.022 A 
BRANCH  89  92
ATOM     92  S   UNL A   1      45.305  24.230  36.601  1.00  0.00     0.127 S 
ATOM     93  O   UNL A   1      46.647  24.154  37.177  1.00  0.00    -0.237 OA
ATOM     94  O   UNL A   1      44.261  24.634  37.543  1.00  0.00    -0.237 OA
ATOM     95  O   UNL A   1      44.936  23.124  35.729  1.00  0.00    -0.744 OA
ENDBRANCH  89  92
ENDBRANCH  62  85
ENDBRANCH  36  37
ENDBRANCH  28  31
ENDBRANCH  26  27
ENDBRANCH  25  26
ENDBRANCH   1  25
TORSDOF 17
ENDMDL
