MODEL 1
REMARK VINA RESULT:     -13.3      0.000      0.000
REMARK SMILES O=C(NCCCCNC(=O)c1cccc(NC(=O)c2ccc(N3C(=O)CCC3=O)cc2)c1)c1ccc(-c2c3nc(c(-c4cccc(S(=O)(=O)[O-])c4F)c4ccc([nH]4)c(-c4cccc(S(=O)(=O)[O-])c4F)c4nc(c(-c5cccc(S(=O)(=O)[O-])c5F)c5ccc2[nH]5)C=C4)C=C3)cc1
REMARK SMILES IDX 5 1 4 2 3 3 1 4 2 5 33 7 34 8 95 9 35 10 94 11 36 12 37 13
REMARK SMILES IDX 38 14 88 15 39 16 93 17 87 18 89 19 40 20 92 21 86 22 85 23
REMARK SMILES IDX 41 25 73 26 53 27 72 28 54 29 57 30 71 31 90 32 55 33 56 34
REMARK SMILES IDX 70 36 91 37 58 38 42 39 43 40 51 41 44 42 46 43 52 44 45 45
REMARK SMILES IDX 47 46 48 47 49 48 50 49 74 50 75 51 83 52 76 53 78 54 84 55
REMARK SMILES IDX 77 56 79 57 80 58 81 59 82 60 59 61 60 62 68 63 61 64 63 65
REMARK SMILES IDX 69 66 62 67 64 68 65 69 66 70 67 71 6 72 7 73 8 74 9 75
REMARK SMILES IDX 10 77 11 78 12 79 32 80 13 81 15 82 14 83 16 84 17 85 18 87
REMARK SMILES IDX 19 88 20 89 31 90 21 91 30 92 22 93 23 94 24 95 28 96 25 97
REMARK SMILES IDX 26 98 27 99 29 100
REMARK H PARENT 3 6 89 24 57 35 8 76 16 86
REMARK Flexibility Score: inf
ROOT
ATOM      1  C   UNL A   1      31.606  32.048  26.925  1.00  0.00     0.023 C 
ENDROOT
BRANCH   1   2
ATOM      2  C   UNL A   1      32.821  32.824  27.413  1.00  0.00     0.116 C 
BRANCH   2   3
ATOM      3  N   UNL A   1      32.527  34.220  27.705  1.00  0.00    -0.352 N 
ATOM      4  O   UNL A   1      32.593  36.155  28.861  1.00  0.00    -0.269 OA
ATOM      5  C   UNL A   1      33.068  35.040  28.669  1.00  0.00     0.251 C 
ATOM      6  H   UNL A   1      31.845  34.636  27.131  1.00  0.00     0.163 HD
BRANCH   5   7
ATOM      7  C   UNL A   1      34.193  34.549  29.493  1.00  0.00     0.039 A 
ATOM      8  C   UNL A   1      35.504  34.645  29.025  1.00  0.00     0.014 A 
ATOM      9  C   UNL A   1      33.930  33.932  30.718  1.00  0.00     0.014 A 
ATOM     10  C   UNL A   1      36.517  33.951  29.673  1.00  0.00     0.010 A 
ATOM     11  C   UNL A   1      34.973  33.332  31.428  1.00  0.00     0.010 A 
ATOM     12  C   UNL A   1      36.267  33.285  30.884  1.00  0.00    -0.014 A 
BRANCH  12  13
ATOM     13  C   UNL A   1      37.382  32.579  31.569  1.00  0.00     0.031 A 
ATOM     14  C   UNL A   1      38.136  31.462  30.895  1.00  0.00     0.074 A 
ATOM     15  C   UNL A   1      37.729  32.970  32.812  1.00  0.00     0.049 A 
ATOM     16  N   UNL A   1      39.157  30.776  31.339  1.00  0.00    -0.248 NA
ATOM     17  C   UNL A   1      37.681  31.053  29.556  1.00  0.00     0.031 C 
ATOM     18  C   UNL A   1      37.055  34.018  33.583  1.00  0.00     0.029 A 
ATOM     19  N   UNL A   1      38.731  32.540  33.643  1.00  0.00    -0.354 N 
ATOM     20  C   UNL A   1      39.436  29.824  30.365  1.00  0.00     0.074 A 
ATOM     21  C   UNL A   1      38.470  30.017  29.305  1.00  0.00     0.031 C 
ATOM     22  C   UNL A   1      37.685  34.180  34.754  1.00  0.00     0.029 A 
ATOM     23  C   UNL A   1      38.766  33.204  34.847  1.00  0.00     0.049 A 
ATOM     24  H   UNL A   1      39.364  31.827  33.401  1.00  0.00     0.167 HD
ATOM     25  C   UNL A   1      40.411  28.881  30.351  1.00  0.00     0.034 A 
ATOM     26  C   UNL A   1      39.565  33.040  35.916  1.00  0.00     0.034 A 
ATOM     27  C   UNL A   1      41.388  28.715  31.394  1.00  0.00     0.049 A 
ATOM     28  C   UNL A   1      40.645  31.999  35.864  1.00  0.00     0.074 A 
ATOM     29  C   UNL A   1      42.459  27.839  31.438  1.00  0.00     0.029 A 
ATOM     30  N   UNL A   1      41.408  29.425  32.585  1.00  0.00    -0.354 N 
ATOM     31  N   UNL A   1      40.967  31.192  34.883  1.00  0.00    -0.248 NA
ATOM     32  C   UNL A   1      41.491  31.865  37.057  1.00  0.00     0.031 C 
ATOM     33  C   UNL A   1      43.100  27.990  32.672  1.00  0.00     0.029 A 
ATOM     34  C   UNL A   1      42.459  28.996  33.378  1.00  0.00     0.049 A 
ATOM     35  H   UNL A   1      40.767  30.131  32.832  1.00  0.00     0.167 HD
ATOM     36  C   UNL A   1      42.080  30.487  35.321  1.00  0.00     0.074 A 
ATOM     37  C   UNL A   1      42.385  30.974  36.651  1.00  0.00     0.031 C 
ATOM     38  C   UNL A   1      42.784  29.521  34.680  1.00  0.00     0.034 A 
BRANCH  25  39
ATOM     39  C   UNL A   1      40.476  27.953  29.162  1.00  0.00     0.023 A 
ATOM     40  C   UNL A   1      39.576  26.873  29.056  1.00  0.00     0.012 A 
ATOM     41  C   UNL A   1      41.395  28.185  28.119  1.00  0.00     0.148 A 
ATOM     42  C   UNL A   1      39.617  26.016  27.956  1.00  0.00     0.002 A 
ATOM     43  C   UNL A   1      41.398  27.357  27.002  1.00  0.00     0.091 A 
ATOM     44  F   UNL A   1      42.256  29.206  28.241  1.00  0.00    -0.205 F 
ATOM     45  C   UNL A   1      40.520  26.264  26.925  1.00  0.00     0.022 A 
BRANCH  43  46
ATOM     46  S   UNL A   1      42.465  27.646  25.586  1.00  0.00     0.127 S 
ATOM     47  O   UNL A   1      42.182  26.474  24.759  1.00  0.00    -0.237 OA
ATOM     48  O   UNL A   1      41.940  28.905  25.057  1.00  0.00    -0.237 OA
ATOM     49  O   UNL A   1      43.820  27.728  26.114  1.00  0.00    -0.744 OA
ENDBRANCH  43  46
ENDBRANCH  25  39
BRANCH  26  50
ATOM     50  C   UNL A   1      39.403  33.922  37.106  1.00  0.00     0.023 A 
ATOM     51  C   UNL A   1      39.807  35.269  37.029  1.00  0.00     0.012 A 
ATOM     52  C   UNL A   1      38.818  33.445  38.295  1.00  0.00     0.148 A 
ATOM     53  C   UNL A   1      39.660  36.117  38.126  1.00  0.00     0.002 A 
ATOM     54  C   UNL A   1      38.622  34.309  39.363  1.00  0.00     0.091 A 
ATOM     55  F   UNL A   1      38.447  32.157  38.347  1.00  0.00    -0.205 F 
ATOM     56  C   UNL A   1      39.060  35.641  39.289  1.00  0.00     0.022 A 
BRANCH  54  57
ATOM     57  S   UNL A   1      37.739  33.822  40.849  1.00  0.00     0.127 S 
ATOM     58  O   UNL A   1      38.723  32.972  41.515  1.00  0.00    -0.237 OA
ATOM     59  O   UNL A   1      37.501  35.115  41.493  1.00  0.00    -0.237 OA
ATOM     60  O   UNL A   1      36.533  33.148  40.389  1.00  0.00    -0.744 OA
ENDBRANCH  54  57
ENDBRANCH  26  50
BRANCH  38  61
ATOM     61  C   UNL A   1      43.997  28.965  35.381  1.00  0.00     0.023 A 
ATOM     62  C   UNL A   1      45.258  29.569  35.210  1.00  0.00     0.012 A 
ATOM     63  C   UNL A   1      43.870  27.867  36.255  1.00  0.00     0.148 A 
ATOM     64  C   UNL A   1      46.381  29.062  35.864  1.00  0.00     0.002 A 
ATOM     65  C   UNL A   1      44.981  27.403  36.946  1.00  0.00     0.091 A 
ATOM     66  F   UNL A   1      42.666  27.291  36.388  1.00  0.00    -0.205 F 
ATOM     67  C   UNL A   1      46.241  27.988  36.740  1.00  0.00     0.022 A 
BRANCH  65  68
ATOM     68  S   UNL A   1      44.871  26.093  38.170  1.00  0.00     0.127 S 
ATOM     69  O   UNL A   1      44.259  26.791  39.299  1.00  0.00    -0.237 OA
ATOM     70  O   UNL A   1      44.000  25.121  37.507  1.00  0.00    -0.237 OA
ATOM     71  O   UNL A   1      46.235  25.630  38.386  1.00  0.00    -0.744 OA
ENDBRANCH  65  68
ENDBRANCH  38  61
ENDBRANCH  12  13
ENDBRANCH   5   7
ENDBRANCH   2   3
ENDBRANCH   1   2
BRANCH   1  72
ATOM     72  C   UNL A   1      31.917  30.709  26.265  1.00  0.00     0.023 C 
BRANCH  72  73
ATOM     73  C   UNL A   1      32.330  29.598  27.223  1.00  0.00     0.116 C 
BRANCH  73  74
ATOM     74  N   UNL A   1      33.421  28.791  26.704  1.00  0.00    -0.352 N 
ATOM     75  C   UNL A   1      33.381  27.600  26.026  1.00  0.00     0.251 C 
ATOM     76  H   UNL A   1      34.323  29.152  26.865  1.00  0.00     0.163 HD
ATOM     77  O   UNL A   1      34.413  26.969  25.817  1.00  0.00    -0.269 OA
BRANCH  75  78
ATOM     78  C   UNL A   1      32.094  27.061  25.549  1.00  0.00     0.041 A 
ATOM     79  C   UNL A   1      31.617  27.486  24.309  1.00  0.00     0.014 A 
ATOM     80  C   UNL A   1      31.349  26.168  26.330  1.00  0.00     0.040 A 
ATOM     81  C   UNL A   1      30.394  27.011  23.855  1.00  0.00     0.003 A 
ATOM     82  C   UNL A   1      30.165  25.613  25.840  1.00  0.00     0.042 A 
ATOM     83  C   UNL A   1      29.670  26.092  24.625  1.00  0.00     0.026 A 
BRANCH  82  84
ATOM     84  N   UNL A   1      29.581  24.599  26.626  1.00  0.00    -0.322 N 
ATOM     85  C   UNL A   1      29.989  23.337  26.991  1.00  0.00     0.255 C 
ATOM     86  H   UNL A   1      28.699  24.844  26.987  1.00  0.00     0.170 HD
ATOM     87  O   UNL A   1      29.241  22.600  27.631  1.00  0.00    -0.269 OA
BRANCH  85  88
ATOM     88  C   UNL A   1      31.321  22.834  26.635  1.00  0.00     0.040 A 
ATOM     89  C   UNL A   1      31.587  22.594  25.290  1.00  0.00     0.016 A 
ATOM     90  C   UNL A   1      32.317  22.669  27.599  1.00  0.00     0.016 A 
ATOM     91  C   UNL A   1      32.894  22.306  24.893  1.00  0.00     0.027 A 
ATOM     92  C   UNL A   1      33.621  22.360  27.192  1.00  0.00     0.027 A 
ATOM     93  C   UNL A   1      33.939  22.220  25.830  1.00  0.00     0.052 A 
BRANCH  93  94
ATOM     94  N   UNL A   1      35.282  22.038  25.396  1.00  0.00    -0.251 N 
ATOM     95  C   UNL A   1      35.822  20.838  25.001  1.00  0.00     0.234 C 
ATOM     96  C   UNL A   1      36.219  23.050  25.374  1.00  0.00     0.234 C 
ATOM     97  O   UNL A   1      35.285  19.739  24.924  1.00  0.00    -0.274 OA
ATOM     98  C   UNL A   1      37.238  21.059  24.563  1.00  0.00     0.111 C 
ATOM     99  C   UNL A   1      37.534  22.492  24.924  1.00  0.00     0.111 C 
ATOM    100  O   UNL A   1      36.103  24.216  25.725  1.00  0.00    -0.274 OA
ENDBRANCH  93  94
ENDBRANCH  85  88
ENDBRANCH  82  84
ENDBRANCH  75  78
ENDBRANCH  73  74
ENDBRANCH  72  73
ENDBRANCH   1  72
TORSDOF 17
ENDMDL
MODEL 2
REMARK VINA RESULT:     -13.0      5.951     11.431
REMARK SMILES O=C(NCCCCNC(=O)c1cccc(NC(=O)c2ccc(N3C(=O)CCC3=O)cc2)c1)c1ccc(-c2c3nc(c(-c4cccc(S(=O)(=O)[O-])c4F)c4ccc([nH]4)c(-c4cccc(S(=O)(=O)[O-])c4F)c4nc(c(-c5cccc(S(=O)(=O)[O-])c5F)c5ccc2[nH]5)C=C4)C=C3)cc1
REMARK SMILES IDX 5 1 4 2 3 3 1 4 2 5 33 7 34 8 95 9 35 10 94 11 36 12 37 13
REMARK SMILES IDX 38 14 88 15 39 16 93 17 87 18 89 19 40 20 92 21 86 22 85 23
REMARK SMILES IDX 41 25 73 26 53 27 72 28 54 29 57 30 71 31 90 32 55 33 56 34
REMARK SMILES IDX 70 36 91 37 58 38 42 39 43 40 51 41 44 42 46 43 52 44 45 45
REMARK SMILES IDX 47 46 48 47 49 48 50 49 74 50 75 51 83 52 76 53 78 54 84 55
REMARK SMILES IDX 77 56 79 57 80 58 81 59 82 60 59 61 60 62 68 63 61 64 63 65
REMARK SMILES IDX 69 66 62 67 64 68 65 69 66 70 67 71 6 72 7 73 8 74 9 75
REMARK SMILES IDX 10 77 11 78 12 79 32 80 13 81 15 82 14 83 16 84 17 85 18 87
REMARK SMILES IDX 19 88 20 89 31 90 21 91 30 92 22 93 23 94 24 95 28 96 25 97
REMARK SMILES IDX 26 98 27 99 29 100
REMARK H PARENT 3 6 89 24 57 35 8 76 16 86
REMARK Flexibility Score: inf
ROOT
ATOM      1  C   UNL A   1      38.018  19.205  25.093  1.00  0.00     0.023 C 
ENDROOT
BRANCH   1   2
ATOM      2  C   UNL A   1      39.071  20.071  25.768  1.00  0.00     0.116 C 
BRANCH   2   3
ATOM      3  N   UNL A   1      40.275  19.333  26.125  1.00  0.00    -0.352 N 
ATOM      4  O   UNL A   1      42.442  19.041  26.674  1.00  0.00    -0.269 OA
ATOM      5  C   UNL A   1      41.492  19.809  26.555  1.00  0.00     0.251 C 
ATOM      6  H   UNL A   1      40.207  18.354  26.048  1.00  0.00     0.163 HD
BRANCH   5   7
ATOM      7  C   UNL A   1      41.652  21.253  26.831  1.00  0.00     0.039 A 
ATOM      8  C   UNL A   1      41.544  22.183  25.797  1.00  0.00     0.014 A 
ATOM      9  C   UNL A   1      41.970  21.675  28.124  1.00  0.00     0.014 A 
ATOM     10  C   UNL A   1      41.953  23.493  26.007  1.00  0.00     0.010 A 
ATOM     11  C   UNL A   1      42.270  23.019  28.357  1.00  0.00     0.010 A 
ATOM     12  C   UNL A   1      42.321  23.931  27.290  1.00  0.00    -0.014 A 
BRANCH  12  13
ATOM     13  C   UNL A   1      42.723  25.349  27.487  1.00  0.00     0.031 A 
ATOM     14  C   UNL A   1      41.813  26.335  28.172  1.00  0.00     0.074 A 
ATOM     15  C   UNL A   1      43.937  25.744  27.054  1.00  0.00     0.049 A 
ATOM     16  N   UNL A   1      42.032  27.593  28.457  1.00  0.00    -0.248 NA
ATOM     17  C   UNL A   1      40.483  25.854  28.581  1.00  0.00     0.031 C 
ATOM     18  C   UNL A   1      44.897  24.891  26.347  1.00  0.00     0.029 A 
ATOM     19  N   UNL A   1      44.576  26.953  27.147  1.00  0.00    -0.354 N 
ATOM     20  C   UNL A   1      40.857  28.069  29.029  1.00  0.00     0.074 A 
ATOM     21  C   UNL A   1      39.924  26.964  29.046  1.00  0.00     0.031 C 
ATOM     22  C   UNL A   1      46.015  25.588  26.108  1.00  0.00     0.029 A 
ATOM     23  C   UNL A   1      45.830  26.954  26.583  1.00  0.00     0.049 A 
ATOM     24  H   UNL A   1      44.177  27.743  27.576  1.00  0.00     0.167 HD
ATOM     25  C   UNL A   1      40.583  29.310  29.504  1.00  0.00     0.034 A 
ATOM     26  C   UNL A   1      46.730  27.945  26.447  1.00  0.00     0.034 A 
ATOM     27  C   UNL A   1      41.527  30.396  29.513  1.00  0.00     0.049 A 
ATOM     28  C   UNL A   1      46.405  29.304  26.996  1.00  0.00     0.074 A 
ATOM     29  C   UNL A   1      41.371  31.668  30.039  1.00  0.00     0.029 A 
ATOM     30  N   UNL A   1      42.798  30.351  28.958  1.00  0.00    -0.354 N 
ATOM     31  N   UNL A   1      45.335  29.698  27.642  1.00  0.00    -0.248 NA
ATOM     32  C   UNL A   1      47.424  30.346  26.823  1.00  0.00     0.031 C 
ATOM     33  C   UNL A   1      42.529  32.402  29.763  1.00  0.00     0.029 A 
ATOM     34  C   UNL A   1      43.429  31.574  29.112  1.00  0.00     0.049 A 
ATOM     35  H   UNL A   1      43.193  29.564  28.519  1.00  0.00     0.167 HD
ATOM     36  C   UNL A   1      45.570  31.021  27.993  1.00  0.00     0.074 A 
ATOM     37  C   UNL A   1      46.891  31.355  27.500  1.00  0.00     0.031 C 
ATOM     38  C   UNL A   1      44.762  31.882  28.660  1.00  0.00     0.034 A 
BRANCH  25  39
ATOM     39  C   UNL A   1      39.204  29.563  30.062  1.00  0.00     0.023 A 
ATOM     40  C   UNL A   1      38.892  29.177  31.382  1.00  0.00     0.012 A 
ATOM     41  C   UNL A   1      38.232  30.236  29.296  1.00  0.00     0.148 A 
ATOM     42  C   UNL A   1      37.625  29.418  31.914  1.00  0.00     0.002 A 
ATOM     43  C   UNL A   1      36.987  30.517  29.849  1.00  0.00     0.091 A 
ATOM     44  F   UNL A   1      38.536  30.582  28.037  1.00  0.00    -0.205 F 
ATOM     45  C   UNL A   1      36.677  30.096  31.151  1.00  0.00     0.022 A 
BRANCH  43  46
ATOM     46  S   UNL A   1      35.731  31.459  28.977  1.00  0.00     0.127 S 
ATOM     47  O   UNL A   1      35.254  30.482  28.000  1.00  0.00    -0.237 OA
ATOM     48  O   UNL A   1      34.778  31.765  30.045  1.00  0.00    -0.237 OA
ATOM     49  O   UNL A   1      36.412  32.620  28.422  1.00  0.00    -0.744 OA
ENDBRANCH  43  46
ENDBRANCH  25  39
BRANCH  26  50
ATOM     50  C   UNL A   1      48.046  27.669  25.804  1.00  0.00     0.023 A 
ATOM     51  C   UNL A   1      49.145  27.310  26.607  1.00  0.00     0.012 A 
ATOM     52  C   UNL A   1      48.202  27.725  24.406  1.00  0.00     0.148 A 
ATOM     53  C   UNL A   1      50.386  27.040  26.031  1.00  0.00     0.002 A 
ATOM     54  C   UNL A   1      49.425  27.399  23.835  1.00  0.00     0.091 A 
ATOM     55  F   UNL A   1      47.143  28.075  23.663  1.00  0.00    -0.205 F 
ATOM     56  C   UNL A   1      50.524  27.076  24.645  1.00  0.00     0.022 A 
BRANCH  54  57
ATOM     57  S   UNL A   1      49.660  27.287  22.058  1.00  0.00     0.127 S 
ATOM     58  O   UNL A   1      48.660  26.289  21.687  1.00  0.00    -0.237 OA
ATOM     59  O   UNL A   1      49.357  28.654  21.630  1.00  0.00    -0.237 OA
ATOM     60  O   UNL A   1      51.048  26.890  21.867  1.00  0.00    -0.744 OA
ENDBRANCH  54  57
ENDBRANCH  26  50
BRANCH  38  61
ATOM     61  C   UNL A   1      45.306  33.256  28.957  1.00  0.00     0.023 A 
ATOM     62  C   UNL A   1      45.981  33.509  30.167  1.00  0.00     0.012 A 
ATOM     63  C   UNL A   1      45.190  34.285  28.002  1.00  0.00     0.148 A 
ATOM     64  C   UNL A   1      46.493  34.777  30.441  1.00  0.00     0.002 A 
ATOM     65  C   UNL A   1      45.751  35.530  28.258  1.00  0.00     0.091 A 
ATOM     66  F   UNL A   1      44.525  34.033  26.866  1.00  0.00    -0.205 F 
ATOM     67  C   UNL A   1      46.389  35.783  29.483  1.00  0.00     0.022 A 
BRANCH  65  68
ATOM     68  S   UNL A   1      45.754  36.849  27.039  1.00  0.00     0.127 S 
ATOM     69  O   UNL A   1      46.383  36.195  25.893  1.00  0.00    -0.237 OA
ATOM     70  O   UNL A   1      44.325  37.124  26.876  1.00  0.00    -0.237 OA
ATOM     71  O   UNL A   1      46.514  37.941  27.631  1.00  0.00    -0.744 OA
ENDBRANCH  65  68
ENDBRANCH  38  61
ENDBRANCH  12  13
ENDBRANCH   5   7
ENDBRANCH   2   3
ENDBRANCH   1   2
BRANCH   1  72
ATOM     72  C   UNL A   1      36.680  19.892  24.844  1.00  0.00     0.023 C 
BRANCH  72  73
ATOM     73  C   UNL A   1      36.764  21.392  24.586  1.00  0.00     0.116 C 
BRANCH  73  74
ATOM     74  N   UNL A   1      36.058  22.171  25.590  1.00  0.00    -0.352 N 
ATOM     75  C   UNL A   1      34.797  22.707  25.552  1.00  0.00     0.251 C 
ATOM     76  H   UNL A   1      36.561  22.339  26.420  1.00  0.00     0.163 HD
ATOM     77  O   UNL A   1      34.428  23.488  26.423  1.00  0.00    -0.269 OA
BRANCH  75  78
ATOM     78  C   UNL A   1      33.875  22.356  24.456  1.00  0.00     0.041 A 
ATOM     79  C   UNL A   1      32.942  21.342  24.674  1.00  0.00     0.014 A 
ATOM     80  C   UNL A   1      33.948  23.001  23.214  1.00  0.00     0.040 A 
ATOM     81  C   UNL A   1      32.084  20.979  23.645  1.00  0.00     0.003 A 
ATOM     82  C   UNL A   1      33.028  22.706  22.206  1.00  0.00     0.042 A 
ATOM     83  C   UNL A   1      32.139  21.649  22.417  1.00  0.00     0.026 A 
BRANCH  82  84
ATOM     84  N   UNL A   1      33.077  23.526  21.060  1.00  0.00    -0.322 N 
ATOM     85  C   UNL A   1      32.885  24.873  20.856  1.00  0.00     0.255 C 
ATOM     86  H   UNL A   1      33.291  23.033  20.236  1.00  0.00     0.170 HD
ATOM     87  O   UNL A   1      32.904  25.340  19.719  1.00  0.00    -0.269 OA
BRANCH  85  88
ATOM     88  C   UNL A   1      32.660  25.790  21.979  1.00  0.00     0.040 A 
ATOM     89  C   UNL A   1      31.365  25.901  22.476  1.00  0.00     0.016 A 
ATOM     90  C   UNL A   1      33.716  26.475  22.582  1.00  0.00     0.016 A 
ATOM     91  C   UNL A   1      31.146  26.607  23.660  1.00  0.00     0.027 A 
ATOM     92  C   UNL A   1      33.483  27.197  23.759  1.00  0.00     0.027 A 
ATOM     93  C   UNL A   1      32.203  27.235  24.342  1.00  0.00     0.052 A 
BRANCH  93  94
ATOM     94  N   UNL A   1      31.981  27.852  25.605  1.00  0.00    -0.251 N 
ATOM     95  C   UNL A   1      31.516  27.202  26.723  1.00  0.00     0.234 C 
ATOM     96  C   UNL A   1      32.161  29.199  25.836  1.00  0.00     0.234 C 
ATOM     97  O   UNL A   1      31.231  26.019  26.865  1.00  0.00    -0.274 OA
ATOM     98  C   UNL A   1      31.469  28.170  27.867  1.00  0.00     0.111 C 
ATOM     99  C   UNL A   1      31.778  29.510  27.250  1.00  0.00     0.111 C 
ATOM    100  O   UNL A   1      32.493  30.079  25.053  1.00  0.00    -0.274 OA
ENDBRANCH  93  94
ENDBRANCH  85  88
ENDBRANCH  82  84
ENDBRANCH  75  78
ENDBRANCH  73  74
ENDBRANCH  72  73
ENDBRANCH   1  72
TORSDOF 17
ENDMDL
MODEL 3
REMARK VINA RESULT:     -13.0      5.378      8.980
REMARK SMILES O=C(NCCCCNC(=O)c1cccc(NC(=O)c2ccc(N3C(=O)CCC3=O)cc2)c1)c1ccc(-c2c3nc(c(-c4cccc(S(=O)(=O)[O-])c4F)c4ccc([nH]4)c(-c4cccc(S(=O)(=O)[O-])c4F)c4nc(c(-c5cccc(S(=O)(=O)[O-])c5F)c5ccc2[nH]5)C=C4)C=C3)cc1
REMARK SMILES IDX 5 1 4 2 3 3 1 4 2 5 33 7 34 8 95 9 35 10 94 11 36 12 37 13
REMARK SMILES IDX 38 14 88 15 39 16 93 17 87 18 89 19 40 20 92 21 86 22 85 23
REMARK SMILES IDX 41 25 73 26 53 27 72 28 54 29 57 30 71 31 90 32 55 33 56 34
REMARK SMILES IDX 70 36 91 37 58 38 42 39 43 40 51 41 44 42 46 43 52 44 45 45
REMARK SMILES IDX 47 46 48 47 49 48 50 49 74 50 75 51 83 52 76 53 78 54 84 55
REMARK SMILES IDX 77 56 79 57 80 58 81 59 82 60 59 61 60 62 68 63 61 64 63 65
REMARK SMILES IDX 69 66 62 67 64 68 65 69 66 70 67 71 6 72 7 73 8 74 9 75
REMARK SMILES IDX 10 77 11 78 12 79 32 80 13 81 15 82 14 83 16 84 17 85 18 87
REMARK SMILES IDX 19 88 20 89 31 90 21 91 30 92 22 93 23 94 24 95 28 96 25 97
REMARK SMILES IDX 26 98 27 99 29 100
REMARK H PARENT 3 6 89 24 57 35 8 76 16 86
REMARK Flexibility Score: inf
ROOT
ATOM      1  C   UNL A   1      35.630  21.600  26.178  1.00  0.00     0.023 C 
ENDROOT
BRANCH   1   2
ATOM      2  C   UNL A   1      36.949  21.964  25.513  1.00  0.00     0.116 C 
BRANCH   2   3
ATOM      3  N   UNL A   1      37.969  20.936  25.668  1.00  0.00    -0.352 N 
ATOM      4  O   UNL A   1      40.027  20.097  26.052  1.00  0.00    -0.269 OA
ATOM      5  C   UNL A   1      39.262  21.054  26.125  1.00  0.00     0.251 C 
ATOM      6  H   UNL A   1      37.694  20.027  25.409  1.00  0.00     0.163 HD
BRANCH   5   7
ATOM      7  C   UNL A   1      39.726  22.351  26.662  1.00  0.00     0.039 A 
ATOM      8  C   UNL A   1      39.196  23.546  26.175  1.00  0.00     0.014 A 
ATOM      9  C   UNL A   1      40.744  22.373  27.619  1.00  0.00     0.014 A 
ATOM     10  C   UNL A   1      39.816  24.749  26.485  1.00  0.00     0.010 A 
ATOM     11  C   UNL A   1      41.290  23.597  28.017  1.00  0.00     0.010 A 
ATOM     12  C   UNL A   1      40.871  24.792  27.411  1.00  0.00    -0.014 A 
BRANCH  12  13
ATOM     13  C   UNL A   1      41.491  26.102  27.746  1.00  0.00     0.031 A 
ATOM     14  C   UNL A   1      42.867  26.467  27.254  1.00  0.00     0.074 A 
ATOM     15  C   UNL A   1      40.788  26.979  28.490  1.00  0.00     0.049 A 
ATOM     16  N   UNL A   1      43.530  27.583  27.422  1.00  0.00    -0.248 NA
ATOM     17  C   UNL A   1      43.601  25.450  26.483  1.00  0.00     0.031 C 
ATOM     18  C   UNL A   1      39.458  26.729  29.053  1.00  0.00     0.029 A 
ATOM     19  N   UNL A   1      41.086  28.253  28.898  1.00  0.00    -0.354 N 
ATOM     20  C   UNL A   1      44.772  27.388  26.829  1.00  0.00     0.074 A 
ATOM     21  C   UNL A   1      44.774  26.042  26.298  1.00  0.00     0.031 C 
ATOM     22  C   UNL A   1      39.037  27.827  29.695  1.00  0.00     0.029 A 
ATOM     23  C   UNL A   1      40.090  28.834  29.648  1.00  0.00     0.049 A 
ATOM     24  H   UNL A   1      41.929  28.709  28.674  1.00  0.00     0.167 HD
ATOM     25  C   UNL A   1      45.812  28.253  26.727  1.00  0.00     0.034 A 
ATOM     26  C   UNL A   1      40.032  30.038  30.248  1.00  0.00     0.034 A 
ATOM     27  C   UNL A   1      45.791  29.601  27.229  1.00  0.00     0.049 A 
ATOM     28  C   UNL A   1      41.193  30.978  30.104  1.00  0.00     0.074 A 
ATOM     29  C   UNL A   1      46.766  30.578  27.109  1.00  0.00     0.029 A 
ATOM     30  N   UNL A   1      44.755  30.163  27.958  1.00  0.00    -0.354 N 
ATOM     31  N   UNL A   1      42.308  30.818  29.434  1.00  0.00    -0.248 NA
ATOM     32  C   UNL A   1      41.074  32.279  30.775  1.00  0.00     0.031 C 
ATOM     33  C   UNL A   1      46.335  31.714  27.804  1.00  0.00     0.029 A 
ATOM     34  C   UNL A   1      45.071  31.464  28.313  1.00  0.00     0.049 A 
ATOM     35  H   UNL A   1      43.916  29.703  28.192  1.00  0.00     0.167 HD
ATOM     36  C   UNL A   1      43.004  32.012  29.565  1.00  0.00     0.074 A 
ATOM     37  C   UNL A   1      42.177  32.892  30.366  1.00  0.00     0.031 C 
ATOM     38  C   UNL A   1      44.221  32.348  29.068  1.00  0.00     0.034 A 
BRANCH  25  39
ATOM     39  C   UNL A   1      47.065  27.769  26.039  1.00  0.00     0.023 A 
ATOM     40  C   UNL A   1      48.065  27.101  26.775  1.00  0.00     0.012 A 
ATOM     41  C   UNL A   1      47.227  27.927  24.648  1.00  0.00     0.148 A 
ATOM     42  C   UNL A   1      49.222  26.637  26.148  1.00  0.00     0.002 A 
ATOM     43  C   UNL A   1      48.360  27.420  24.021  1.00  0.00     0.091 A 
ATOM     44  F   UNL A   1      46.277  28.579  23.963  1.00  0.00    -0.205 F 
ATOM     45  C   UNL A   1      49.365  26.788  24.771  1.00  0.00     0.022 A 
BRANCH  43  46
ATOM     46  S   UNL A   1      48.594  27.488  22.241  1.00  0.00     0.127 S 
ATOM     47  O   UNL A   1      48.652  26.069  21.896  1.00  0.00    -0.237 OA
ATOM     48  O   UNL A   1      47.379  28.173  21.797  1.00  0.00    -0.237 OA
ATOM     49  O   UNL A   1      49.824  28.237  22.026  1.00  0.00    -0.744 OA
ENDBRANCH  43  46
ENDBRANCH  25  39
BRANCH  26  50
ATOM     50  C   UNL A   1      38.806  30.435  30.995  1.00  0.00     0.023 A 
ATOM     51  C   UNL A   1      38.536  29.845  32.245  1.00  0.00     0.012 A 
ATOM     52  C   UNL A   1      37.932  31.418  30.494  1.00  0.00     0.148 A 
ATOM     53  C   UNL A   1      37.398  30.204  32.967  1.00  0.00     0.002 A 
ATOM     54  C   UNL A   1      36.833  31.813  31.245  1.00  0.00     0.091 A 
ATOM     55  F   UNL A   1      38.206  31.962  29.299  1.00  0.00    -0.205 F 
ATOM     56  C   UNL A   1      36.553  31.194  32.473  1.00  0.00     0.022 A 
BRANCH  54  57
ATOM     57  S   UNL A   1      35.765  33.170  30.752  1.00  0.00     0.127 S 
ATOM     58  O   UNL A   1      36.223  33.430  29.389  1.00  0.00    -0.237 OA
ATOM     59  O   UNL A   1      34.439  32.558  30.851  1.00  0.00    -0.237 OA
ATOM     60  O   UNL A   1      36.009  34.235  31.714  1.00  0.00    -0.744 OA
ENDBRANCH  54  57
ENDBRANCH  26  50
BRANCH  38  61
ATOM     61  C   UNL A   1      44.711  33.751  29.321  1.00  0.00     0.023 A 
ATOM     62  C   UNL A   1      45.510  34.034  30.446  1.00  0.00     0.012 A 
ATOM     63  C   UNL A   1      44.417  34.780  28.405  1.00  0.00     0.148 A 
ATOM     64  C   UNL A   1      45.972  35.329  30.678  1.00  0.00     0.002 A 
ATOM     65  C   UNL A   1      44.927  36.055  28.613  1.00  0.00     0.091 A 
ATOM     66  F   UNL A   1      43.637  34.496  27.352  1.00  0.00    -0.205 F 
ATOM     67  C   UNL A   1      45.691  36.336  29.757  1.00  0.00     0.022 A 
BRANCH  65  68
ATOM     68  S   UNL A   1      44.702  37.383  27.425  1.00  0.00     0.127 S 
ATOM     69  O   UNL A   1      44.915  38.566  28.256  1.00  0.00    -0.237 OA
ATOM     70  O   UNL A   1      45.768  37.118  26.457  1.00  0.00    -0.237 OA
ATOM     71  O   UNL A   1      43.355  37.223  26.895  1.00  0.00    -0.744 OA
ENDBRANCH  65  68
ENDBRANCH  38  61
ENDBRANCH  12  13
ENDBRANCH   5   7
ENDBRANCH   2   3
ENDBRANCH   1   2
BRANCH   1  72
ATOM     72  C   UNL A   1      34.862  22.776  26.774  1.00  0.00     0.023 C 
BRANCH  72  73
ATOM     73  C   UNL A   1      33.416  22.476  27.153  1.00  0.00     0.116 C 
BRANCH  73  74
ATOM     74  N   UNL A   1      32.919  21.257  26.536  1.00  0.00    -0.352 N 
ATOM     75  C   UNL A   1      32.289  21.083  25.331  1.00  0.00     0.251 C 
ATOM     76  H   UNL A   1      33.055  20.435  27.060  1.00  0.00     0.163 HD
ATOM     77  O   UNL A   1      31.779  20.004  25.047  1.00  0.00    -0.269 OA
BRANCH  75  78
ATOM     78  C   UNL A   1      32.209  22.198  24.368  1.00  0.00     0.041 A 
ATOM     79  C   UNL A   1      33.226  22.330  23.423  1.00  0.00     0.014 A 
ATOM     80  C   UNL A   1      31.156  23.121  24.415  1.00  0.00     0.040 A 
ATOM     81  C   UNL A   1      33.182  23.389  22.526  1.00  0.00     0.003 A 
ATOM     82  C   UNL A   1      31.056  24.133  23.458  1.00  0.00     0.042 A 
ATOM     83  C   UNL A   1      32.111  24.289  22.556  1.00  0.00     0.026 A 
BRANCH  82  84
ATOM     84  N   UNL A   1      29.875  24.902  23.487  1.00  0.00    -0.322 N 
ATOM     85  C   UNL A   1      29.558  26.121  24.041  1.00  0.00     0.255 C 
ATOM     86  H   UNL A   1      29.122  24.480  23.013  1.00  0.00     0.170 HD
ATOM     87  O   UNL A   1      28.405  26.546  23.994  1.00  0.00    -0.269 OA
BRANCH  85  88
ATOM     88  C   UNL A   1      30.577  26.949  24.696  1.00  0.00     0.040 A 
ATOM     89  C   UNL A   1      31.171  27.960  23.948  1.00  0.00     0.016 A 
ATOM     90  C   UNL A   1      30.891  26.782  26.046  1.00  0.00     0.016 A 
ATOM     91  C   UNL A   1      31.995  28.889  24.586  1.00  0.00     0.027 A 
ATOM     92  C   UNL A   1      31.735  27.707  26.673  1.00  0.00     0.027 A 
ATOM     93  C   UNL A   1      32.262  28.801  25.964  1.00  0.00     0.052 A 
BRANCH  93  94
ATOM     94  N   UNL A   1      33.010  29.819  26.619  1.00  0.00    -0.251 N 
ATOM     95  C   UNL A   1      34.280  29.659  27.118  1.00  0.00     0.234 C 
ATOM     96  C   UNL A   1      32.518  31.081  26.875  1.00  0.00     0.234 C 
ATOM     97  O   UNL A   1      35.002  28.669  27.087  1.00  0.00    -0.274 OA
ATOM     98  C   UNL A   1      34.753  30.966  27.681  1.00  0.00     0.111 C 
ATOM     99  C   UNL A   1      33.546  31.866  27.629  1.00  0.00     0.111 C 
ATOM    100  O   UNL A   1      31.408  31.539  26.638  1.00  0.00    -0.274 OA
ENDBRANCH  93  94
ENDBRANCH  85  88
ENDBRANCH  82  84
ENDBRANCH  75  78
ENDBRANCH  73  74
ENDBRANCH  72  73
ENDBRANCH   1  72
TORSDOF 17
ENDMDL
