MODEL 1
REMARK VINA RESULT:     -12.7      0.000      0.000
REMARK SMILES CCCc1cc2c(cc1Cl)C=C(C(=O)NCCCCNC(=O)c1ccc(-c3c4nc(c(-c5cccc(S(=O)(=O)[O-])c5F)c5ccc([nH]5)c(-c5cccc(S(=O)(=O)[O-])c5F)c5nc(c(-c6cccc(S(=O)(=O)[O-])c6F)c6ccc3[nH]6)C=C5)C=C4)cc1)[C@H](C(F)(F)F)O2
REMARK SMILES IDX 18 1 17 2 16 3 15 4 13 5 14 6 12 8 4 9 5 10 9 11 6 12 8 13
REMARK SMILES IDX 10 14 7 15 91 16 11 17 86 18 3 19 2 20 1 21 87 22 88 23
REMARK SMILES IDX 89 24 90 25 19 26 20 27 21 28 22 30 23 31 24 32 85 33 25 34
REMARK SMILES IDX 84 35 26 36 27 37 28 38 78 39 29 40 83 41 77 42 79 43 30 44
REMARK SMILES IDX 82 45 76 46 75 47 31 49 63 50 43 51 62 52 44 53 47 54 61 55
REMARK SMILES IDX 80 56 45 57 46 58 60 60 81 61 48 62 32 63 33 64 41 65 34 66
REMARK SMILES IDX 36 67 42 68 35 69 37 70 38 71 39 72 40 73 64 74 65 75 73 76
REMARK SMILES IDX 66 77 68 78 74 79 67 80 69 81 70 82 71 83 72 84 49 85 50 86
REMARK SMILES IDX 58 87 51 88 53 89 59 90 52 91 54 92 55 93 56 94 57 95
REMARK H PARENT 15 7 20 29 79 48 47 59
REMARK Flexibility Score: inf
ROOT
ATOM      1  C   UNL A   1      31.185  30.927  25.835  1.00  0.00     0.023 C 
ENDROOT
BRANCH   1   2
ATOM      2  C   UNL A   1      31.476  29.739  24.915  1.00  0.00     0.023 C 
BRANCH   2   3
ATOM      3  C   UNL A   1      32.885  29.162  25.043  1.00  0.00     0.116 C 
BRANCH   3   4
ATOM      4  N   UNL A   1      33.510  28.966  23.747  1.00  0.00    -0.352 N 
ATOM      5  C   UNL A   1      33.677  27.939  22.882  1.00  0.00     0.251 C 
ATOM      6  O   UNL A   1      34.209  28.236  21.808  1.00  0.00    -0.270 OA
ATOM      7  H   UNL A   1      33.920  29.797  23.411  1.00  0.00     0.163 HD
BRANCH   5   8
ATOM      8  C   UNL A   1      33.280  26.522  23.131  1.00  0.00     0.067 C 
ATOM      9  C   UNL A   1      32.935  21.820  24.924  1.00  0.00    -0.026 A 
ATOM     10  C   UNL A   1      32.460  22.473  23.774  1.00  0.00     0.052 A 
ATOM     11  C   UNL A   1      33.802  22.526  25.777  1.00  0.00     0.045 A 
ATOM     12  C   UNL A   1      32.795  23.800  23.523  1.00  0.00     0.128 A 
ATOM     13  C   UNL A   1      34.193  23.839  25.480  1.00  0.00     0.032 A 
ATOM     14  Cl  UNL A   1      34.428  21.829  27.231  1.00  0.00    -0.084 Cl
ATOM     15  C   UNL A   1      33.683  24.482  24.353  1.00  0.00     0.019 A 
ATOM     16  O   UNL A   1      32.212  24.399  22.439  1.00  0.00    -0.475 OA
ATOM     17  C   UNL A   1      34.056  25.849  24.005  1.00  0.00     0.025 C 
ATOM     18  C   UNL A   1      32.054  25.846  22.579  1.00  0.00     0.314 C 
BRANCH   9  19
ATOM     19  C   UNL A   1      32.474  20.402  25.187  1.00  0.00     0.037 C 
BRANCH  19  20
ATOM     20  C   UNL A   1      33.259  19.332  24.416  1.00  0.00     0.001 C 
ATOM     21  C   UNL A   1      32.497  18.738  23.238  1.00  0.00     0.004 C 
ENDBRANCH  19  20
ENDBRANCH   9  19
BRANCH  18  22
ATOM     22  C   UNL A   1      30.766  26.183  23.357  1.00  0.00     0.429 C 
ATOM     23  F   UNL A   1      29.849  25.189  23.325  1.00  0.00    -0.167 F 
ATOM     24  F   UNL A   1      31.005  26.449  24.662  1.00  0.00    -0.167 F 
ATOM     25  F   UNL A   1      30.177  27.287  22.831  1.00  0.00    -0.167 F 
ENDBRANCH  18  22
ENDBRANCH   5   8
ENDBRANCH   3   4
ENDBRANCH   2   3
ENDBRANCH   1   2
BRANCH   1  26
ATOM     26  C   UNL A   1      32.317  31.294  26.787  1.00  0.00     0.116 C 
BRANCH  26  27
ATOM     27  N   UNL A   1      32.255  32.662  27.285  1.00  0.00    -0.352 N 
ATOM     28  C   UNL A   1      33.258  33.358  27.926  1.00  0.00     0.251 C 
ATOM     29  H   UNL A   1      31.407  33.142  27.149  1.00  0.00     0.163 HD
ATOM     30  O   UNL A   1      33.069  34.493  28.350  1.00  0.00    -0.269 OA
BRANCH  28  31
ATOM     31  C   UNL A   1      34.542  32.666  28.144  1.00  0.00     0.039 A 
ATOM     32  C   UNL A   1      34.548  31.322  28.525  1.00  0.00     0.014 A 
ATOM     33  C   UNL A   1      35.723  33.413  28.131  1.00  0.00     0.014 A 
ATOM     34  C   UNL A   1      35.704  30.778  29.068  1.00  0.00     0.010 A 
ATOM     35  C   UNL A   1      36.901  32.838  28.613  1.00  0.00     0.010 A 
ATOM     36  C   UNL A   1      36.883  31.539  29.147  1.00  0.00    -0.014 A 
BRANCH  36  37
ATOM     37  C   UNL A   1      38.067  30.974  29.842  1.00  0.00     0.031 A 
ATOM     38  C   UNL A   1      38.352  31.321  31.280  1.00  0.00     0.074 A 
ATOM     39  C   UNL A   1      38.847  30.090  29.195  1.00  0.00     0.049 A 
ATOM     40  N   UNL A   1      39.319  30.892  32.050  1.00  0.00    -0.248 NA
ATOM     41  C   UNL A   1      37.439  32.269  31.943  1.00  0.00     0.031 C 
ATOM     42  C   UNL A   1      38.672  29.676  27.802  1.00  0.00     0.029 A 
ATOM     43  N   UNL A   1      39.925  29.361  29.627  1.00  0.00    -0.354 N 
ATOM     44  C   UNL A   1      39.162  31.550  33.263  1.00  0.00     0.074 A 
ATOM     45  C   UNL A   1      38.001  32.402  33.137  1.00  0.00     0.031 C 
ATOM     46  C   UNL A   1      39.571  28.726  27.511  1.00  0.00     0.029 A 
ATOM     47  C   UNL A   1      40.417  28.497  28.679  1.00  0.00     0.049 A 
ATOM     48  H   UNL A   1      40.309  29.448  30.530  1.00  0.00     0.167 HD
ATOM     49  C   UNL A   1      39.906  31.438  34.389  1.00  0.00     0.034 A 
ATOM     50  C   UNL A   1      41.431  27.613  28.741  1.00  0.00     0.034 A 
ATOM     51  C   UNL A   1      41.016  30.539  34.543  1.00  0.00     0.049 A 
ATOM     52  C   UNL A   1      42.217  27.483  30.012  1.00  0.00     0.074 A 
ATOM     53  C   UNL A   1      41.811  30.339  35.658  1.00  0.00     0.029 A 
ATOM     54  N   UNL A   1      41.479  29.678  33.560  1.00  0.00    -0.354 N 
ATOM     55  N   UNL A   1      42.021  28.080  31.162  1.00  0.00    -0.248 NA
ATOM     56  C   UNL A   1      43.359  26.557  29.998  1.00  0.00     0.031 C 
ATOM     57  C   UNL A   1      42.747  29.345  35.354  1.00  0.00     0.029 A 
ATOM     58  C   UNL A   1      42.541  28.939  34.045  1.00  0.00     0.049 A 
ATOM     59  H   UNL A   1      41.106  29.605  32.652  1.00  0.00     0.167 HD
ATOM     60  C   UNL A   1      43.015  27.607  32.008  1.00  0.00     0.074 A 
ATOM     61  C   UNL A   1      43.794  26.650  31.249  1.00  0.00     0.031 C 
ATOM     62  C   UNL A   1      43.278  27.960  33.289  1.00  0.00     0.034 A 
BRANCH  49  63
ATOM     63  C   UNL A   1      39.514  32.270  35.577  1.00  0.00     0.023 A 
ATOM     64  C   UNL A   1      39.987  33.592  35.672  1.00  0.00     0.012 A 
ATOM     65  C   UNL A   1      38.613  31.781  36.543  1.00  0.00     0.148 A 
ATOM     66  C   UNL A   1      39.572  34.419  36.715  1.00  0.00     0.002 A 
ATOM     67  C   UNL A   1      38.187  32.618  37.568  1.00  0.00     0.091 A 
ATOM     68  F   UNL A   1      38.194  30.511  36.441  1.00  0.00    -0.205 F 
ATOM     69  C   UNL A   1      38.666  33.936  37.656  1.00  0.00     0.022 A 
BRANCH  67  70
ATOM     70  S   UNL A   1      36.988  32.105  38.804  1.00  0.00     0.127 S 
ATOM     71  O   UNL A   1      37.001  30.653  38.640  1.00  0.00    -0.237 OA
ATOM     72  O   UNL A   1      37.598  32.585  40.044  1.00  0.00    -0.237 OA
ATOM     73  O   UNL A   1      35.738  32.762  38.448  1.00  0.00    -0.744 OA
ENDBRANCH  67  70
ENDBRANCH  49  63
BRANCH  50  74
ATOM     74  C   UNL A   1      41.700  26.740  27.568  1.00  0.00     0.023 A 
ATOM     75  C   UNL A   1      42.446  27.253  26.492  1.00  0.00     0.012 A 
ATOM     76  C   UNL A   1      41.317  25.385  27.562  1.00  0.00     0.148 A 
ATOM     77  C   UNL A   1      42.812  26.428  25.427  1.00  0.00     0.002 A 
ATOM     78  C   UNL A   1      41.725  24.558  26.523  1.00  0.00     0.091 A 
ATOM     79  F   UNL A   1      40.590  24.926  28.591  1.00  0.00    -0.205 F 
ATOM     80  C   UNL A   1      42.466  25.079  25.450  1.00  0.00     0.022 A 
BRANCH  78  81
ATOM     81  S   UNL A   1      41.444  22.784  26.547  1.00  0.00     0.127 S 
ATOM     82  O   UNL A   1      39.986  22.713  26.521  1.00  0.00    -0.237 OA
ATOM     83  O   UNL A   1      42.105  22.353  25.316  1.00  0.00    -0.237 OA
ATOM     84  O   UNL A   1      42.083  22.306  27.766  1.00  0.00    -0.744 OA
ENDBRANCH  78  81
ENDBRANCH  50  74
BRANCH  62  85
ATOM     85  C   UNL A   1      44.469  27.333  33.955  1.00  0.00     0.023 A 
ATOM     86  C   UNL A   1      45.713  27.985  33.867  1.00  0.00     0.012 A 
ATOM     87  C   UNL A   1      44.342  26.172  34.739  1.00  0.00     0.148 A 
ATOM     88  C   UNL A   1      46.821  27.486  34.550  1.00  0.00     0.002 A 
ATOM     89  C   UNL A   1      45.444  25.694  35.437  1.00  0.00     0.091 A 
ATOM     90  F   UNL A   1      43.148  25.561  34.790  1.00  0.00    -0.205 F 
ATOM     91  C   UNL A   1      46.685  26.348  35.342  1.00  0.00     0.022 A 
BRANCH  89  92
ATOM     92  S   UNL A   1      45.346  24.271  36.530  1.00  0.00     0.127 S 
ATOM     93  O   UNL A   1      44.333  24.702  37.490  1.00  0.00    -0.237 OA
ATOM     94  O   UNL A   1      44.914  23.207  35.622  1.00  0.00    -0.237 OA
ATOM     95  O   UNL A   1      46.687  24.092  37.070  1.00  0.00    -0.744 OA
ENDBRANCH  89  92
ENDBRANCH  62  85
ENDBRANCH  36  37
ENDBRANCH  28  31
ENDBRANCH  26  27
ENDBRANCH   1  26
TORSDOF 17
ENDMDL
MODEL 2
REMARK VINA RESULT:     -12.5      1.702      2.030
REMARK SMILES CCCc1cc2c(cc1Cl)C=C(C(=O)NCCCCNC(=O)c1ccc(-c3c4nc(c(-c5cccc(S(=O)(=O)[O-])c5F)c5ccc([nH]5)c(-c5cccc(S(=O)(=O)[O-])c5F)c5nc(c(-c6cccc(S(=O)(=O)[O-])c6F)c6ccc3[nH]6)C=C5)C=C4)cc1)[C@H](C(F)(F)F)O2
REMARK SMILES IDX 18 1 17 2 16 3 15 4 13 5 14 6 12 8 4 9 5 10 9 11 6 12 8 13
REMARK SMILES IDX 10 14 7 15 91 16 11 17 86 18 3 19 2 20 1 21 87 22 88 23
REMARK SMILES IDX 89 24 90 25 19 26 20 27 21 28 22 30 23 31 24 32 85 33 25 34
REMARK SMILES IDX 84 35 26 36 27 37 28 38 78 39 29 40 83 41 77 42 79 43 30 44
REMARK SMILES IDX 82 45 76 46 75 47 31 49 63 50 43 51 62 52 44 53 47 54 61 55
REMARK SMILES IDX 80 56 45 57 46 58 60 60 81 61 48 62 32 63 33 64 41 65 34 66
REMARK SMILES IDX 36 67 42 68 35 69 37 70 38 71 39 72 40 73 64 74 65 75 73 76
REMARK SMILES IDX 66 77 68 78 74 79 67 80 69 81 70 82 71 83 72 84 49 85 50 86
REMARK SMILES IDX 58 87 51 88 53 89 59 90 52 91 54 92 55 93 56 94 57 95
REMARK H PARENT 15 7 20 29 79 48 47 59
REMARK Flexibility Score: inf
ROOT
ATOM      1  C   UNL A   1      31.763  29.300  26.979  1.00  0.00     0.023 C 
ENDROOT
BRANCH   1   2
ATOM      2  C   UNL A   1      32.342  27.885  27.042  1.00  0.00     0.023 C 
BRANCH   2   3
ATOM      3  C   UNL A   1      33.423  27.590  26.002  1.00  0.00     0.116 C 
BRANCH   3   4
ATOM      4  N   UNL A   1      32.898  27.631  24.649  1.00  0.00    -0.352 N 
ATOM      5  C   UNL A   1      32.368  26.745  23.774  1.00  0.00     0.251 C 
ATOM      6  O   UNL A   1      31.948  27.233  22.720  1.00  0.00    -0.270 OA
ATOM      7  H   UNL A   1      32.939  28.540  24.269  1.00  0.00     0.163 HD
BRANCH   5   8
ATOM      8  C   UNL A   1      32.266  25.272  23.987  1.00  0.00     0.067 C 
ATOM      9  C   UNL A   1      33.292  20.369  24.587  1.00  0.00    -0.026 A 
ATOM     10  C   UNL A   1      32.127  21.106  24.315  1.00  0.00     0.052 A 
ATOM     11  C   UNL A   1      34.520  21.056  24.611  1.00  0.00     0.045 A 
ATOM     12  C   UNL A   1      32.185  22.484  24.132  1.00  0.00     0.128 A 
ATOM     13  C   UNL A   1      34.580  22.432  24.354  1.00  0.00     0.032 A 
ATOM     14  Cl  UNL A   1      36.012  20.255  24.959  1.00  0.00    -0.084 Cl
ATOM     15  C   UNL A   1      33.408  23.152  24.121  1.00  0.00     0.019 A 
ATOM     16  O   UNL A   1      30.998  23.146  23.973  1.00  0.00    -0.475 OA
ATOM     17  C   UNL A   1      33.419  24.586  23.854  1.00  0.00     0.025 C 
ATOM     18  C   UNL A   1      31.030  24.534  24.430  1.00  0.00     0.314 C 
BRANCH   9  19
ATOM     19  C   UNL A   1      33.158  18.886  24.857  1.00  0.00     0.037 C 
BRANCH  19  20
ATOM     20  C   UNL A   1      33.004  18.029  23.593  1.00  0.00     0.001 C 
ATOM     21  C   UNL A   1      34.204  17.135  23.303  1.00  0.00     0.004 C 
ENDBRANCH  19  20
ENDBRANCH   9  19
BRANCH  18  22
ATOM     22  C   UNL A   1      30.781  24.616  25.950  1.00  0.00     0.429 C 
ATOM     23  F   UNL A   1      30.077  23.568  26.432  1.00  0.00    -0.167 F 
ATOM     24  F   UNL A   1      31.932  24.670  26.661  1.00  0.00    -0.167 F 
ATOM     25  F   UNL A   1      30.079  25.740  26.248  1.00  0.00    -0.167 F 
ENDBRANCH  18  22
ENDBRANCH   5   8
ENDBRANCH   3   4
ENDBRANCH   2   3
ENDBRANCH   1   2
BRANCH   1  26
ATOM     26  C   UNL A   1      32.695  30.349  26.384  1.00  0.00     0.116 C 
BRANCH  26  27
ATOM     27  N   UNL A   1      32.473  31.698  26.890  1.00  0.00    -0.352 N 
ATOM     28  C   UNL A   1      33.372  32.484  27.579  1.00  0.00     0.251 C 
ATOM     29  H   UNL A   1      31.586  32.090  26.722  1.00  0.00     0.163 HD
ATOM     30  O   UNL A   1      33.050  33.588  28.003  1.00  0.00    -0.269 OA
BRANCH  28  31
ATOM     31  C   UNL A   1      34.710  31.924  27.844  1.00  0.00     0.039 A 
ATOM     32  C   UNL A   1      34.840  30.573  28.179  1.00  0.00     0.014 A 
ATOM     33  C   UNL A   1      35.802  32.791  27.924  1.00  0.00     0.014 A 
ATOM     34  C   UNL A   1      36.019  30.133  28.768  1.00  0.00     0.010 A 
ATOM     35  C   UNL A   1      37.008  32.325  28.451  1.00  0.00     0.010 A 
ATOM     36  C   UNL A   1      37.103  31.011  28.939  1.00  0.00    -0.014 A 
BRANCH  36  37
ATOM     37  C   UNL A   1      38.303  30.547  29.680  1.00  0.00     0.031 A 
ATOM     38  C   UNL A   1      38.540  30.977  31.103  1.00  0.00     0.074 A 
ATOM     39  C   UNL A   1      39.143  29.679  29.089  1.00  0.00     0.049 A 
ATOM     40  N   UNL A   1      39.515  30.640  31.909  1.00  0.00    -0.248 NA
ATOM     41  C   UNL A   1      37.564  31.902  31.705  1.00  0.00     0.031 C 
ATOM     42  C   UNL A   1      39.017  29.190  27.715  1.00  0.00     0.029 A 
ATOM     43  N   UNL A   1      40.251  29.033  29.574  1.00  0.00    -0.354 N 
ATOM     44  C   UNL A   1      39.299  31.344  33.087  1.00  0.00     0.074 A 
ATOM     45  C   UNL A   1      38.094  32.123  32.900  1.00  0.00     0.031 C 
ATOM     46  C   UNL A   1      39.974  28.280  27.485  1.00  0.00     0.029 A 
ATOM     47  C   UNL A   1      40.809  28.154  28.676  1.00  0.00     0.049 A 
ATOM     48  H   UNL A   1      40.612  29.184  30.477  1.00  0.00     0.167 HD
ATOM     49  C   UNL A   1      40.026  31.328  34.228  1.00  0.00     0.034 A 
ATOM     50  C   UNL A   1      41.869  27.333  28.797  1.00  0.00     0.034 A 
ATOM     51  C   UNL A   1      41.181  30.502  34.444  1.00  0.00     0.049 A 
ATOM     52  C   UNL A   1      42.636  27.307  30.086  1.00  0.00     0.074 A 
ATOM     53  C   UNL A   1      41.964  30.399  35.580  1.00  0.00     0.029 A 
ATOM     54  N   UNL A   1      41.709  29.623  33.512  1.00  0.00    -0.354 N 
ATOM     55  N   UNL A   1      42.385  27.946  31.202  1.00  0.00    -0.248 NA
ATOM     56  C   UNL A   1      43.828  26.448  30.136  1.00  0.00     0.031 C 
ATOM     57  C   UNL A   1      42.960  29.446  35.340  1.00  0.00     0.029 A 
ATOM     58  C   UNL A   1      42.802  28.968  34.049  1.00  0.00     0.049 A 
ATOM     59  H   UNL A   1      41.359  29.485  32.602  1.00  0.00     0.167 HD
ATOM     60  C   UNL A   1      43.388  27.570  32.087  1.00  0.00     0.074 A 
ATOM     61  C   UNL A   1      44.233  26.624  31.387  1.00  0.00     0.031 C 
ATOM     62  C   UNL A   1      43.606  27.997  33.353  1.00  0.00     0.034 A 
BRANCH  49  63
ATOM     63  C   UNL A   1      39.566  32.192  35.369  1.00  0.00     0.023 A 
ATOM     64  C   UNL A   1      38.716  31.638  36.345  1.00  0.00     0.012 A 
ATOM     65  C   UNL A   1      40.041  33.508  35.525  1.00  0.00     0.148 A 
ATOM     66  C   UNL A   1      38.341  32.384  37.462  1.00  0.00     0.002 A 
ATOM     67  C   UNL A   1      39.681  34.238  36.651  1.00  0.00     0.091 A 
ATOM     68  F   UNL A   1      40.832  34.018  34.569  1.00  0.00    -0.205 F 
ATOM     69  C   UNL A   1      38.830  33.678  37.620  1.00  0.00     0.022 A 
BRANCH  67  70
ATOM     70  S   UNL A   1      40.292  35.897  36.969  1.00  0.00     0.127 S 
ATOM     71  O   UNL A   1      41.738  35.690  36.925  1.00  0.00    -0.237 OA
ATOM     72  O   UNL A   1      39.748  36.650  35.839  1.00  0.00    -0.237 OA
ATOM     73  O   UNL A   1      39.756  36.280  38.268  1.00  0.00    -0.744 OA
ENDBRANCH  67  70
ENDBRANCH  49  63
BRANCH  50  74
ATOM     74  C   UNL A   1      42.208  26.422  27.673  1.00  0.00     0.023 A 
ATOM     75  C   UNL A   1      43.123  26.854  26.696  1.00  0.00     0.012 A 
ATOM     76  C   UNL A   1      41.716  25.103  27.626  1.00  0.00     0.148 A 
ATOM     77  C   UNL A   1      43.548  25.985  25.690  1.00  0.00     0.002 A 
ATOM     78  C   UNL A   1      42.181  24.229  26.652  1.00  0.00     0.091 A 
ATOM     79  F   UNL A   1      40.831  24.722  28.558  1.00  0.00    -0.205 F 
ATOM     80  C   UNL A   1      43.091  24.669  25.677  1.00  0.00     0.022 A 
BRANCH  78  81
ATOM     81  S   UNL A   1      41.751  22.484  26.650  1.00  0.00     0.127 S 
ATOM     82  O   UNL A   1      42.285  22.044  27.935  1.00  0.00    -0.237 OA
ATOM     83  O   UNL A   1      40.290  22.529  26.571  1.00  0.00    -0.237 OA
ATOM     84  O   UNL A   1      42.395  21.927  25.468  1.00  0.00    -0.744 OA
ENDBRANCH  78  81
ENDBRANCH  50  74
BRANCH  62  85
ATOM     85  C   UNL A   1      44.817  27.470  34.068  1.00  0.00     0.023 A 
ATOM     86  C   UNL A   1      46.025  28.186  33.969  1.00  0.00     0.012 A 
ATOM     87  C   UNL A   1      44.739  26.343  34.906  1.00  0.00     0.148 A 
ATOM     88  C   UNL A   1      47.145  27.783  34.693  1.00  0.00     0.002 A 
ATOM     89  C   UNL A   1      45.853  25.961  35.644  1.00  0.00     0.091 A 
ATOM     90  F   UNL A   1      43.580  25.669  34.967  1.00  0.00    -0.205 F 
ATOM     91  C   UNL A   1      47.057  26.678  35.538  1.00  0.00     0.022 A 
BRANCH  89  92
ATOM     92  S   UNL A   1      45.813  24.589  36.803  1.00  0.00     0.127 S 
ATOM     93  O   UNL A   1      47.134  24.681  37.419  1.00  0.00    -0.237 OA
ATOM     94  O   UNL A   1      44.701  24.954  37.683  1.00  0.00    -0.237 OA
ATOM     95  O   UNL A   1      45.576  23.397  36.000  1.00  0.00    -0.744 OA
ENDBRANCH  89  92
ENDBRANCH  62  85
ENDBRANCH  36  37
ENDBRANCH  28  31
ENDBRANCH  26  27
ENDBRANCH   1  26
TORSDOF 17
ENDMDL
MODEL 3
REMARK VINA RESULT:     -12.4      1.568      7.605
REMARK SMILES CCCc1cc2c(cc1Cl)C=C(C(=O)NCCCCNC(=O)c1ccc(-c3c4nc(c(-c5cccc(S(=O)(=O)[O-])c5F)c5ccc([nH]5)c(-c5cccc(S(=O)(=O)[O-])c5F)c5nc(c(-c6cccc(S(=O)(=O)[O-])c6F)c6ccc3[nH]6)C=C5)C=C4)cc1)[C@H](C(F)(F)F)O2
REMARK SMILES IDX 18 1 17 2 16 3 15 4 13 5 14 6 12 8 4 9 5 10 9 11 6 12 8 13
REMARK SMILES IDX 10 14 7 15 91 16 11 17 86 18 3 19 2 20 1 21 87 22 88 23
REMARK SMILES IDX 89 24 90 25 19 26 20 27 21 28 22 30 23 31 24 32 85 33 25 34
REMARK SMILES IDX 84 35 26 36 27 37 28 38 78 39 29 40 83 41 77 42 79 43 30 44
REMARK SMILES IDX 82 45 76 46 75 47 31 49 63 50 43 51 62 52 44 53 47 54 61 55
REMARK SMILES IDX 80 56 45 57 46 58 60 60 81 61 48 62 32 63 33 64 41 65 34 66
REMARK SMILES IDX 36 67 42 68 35 69 37 70 38 71 39 72 40 73 64 74 65 75 73 76
REMARK SMILES IDX 66 77 68 78 74 79 67 80 69 81 70 82 71 83 72 84 49 85 50 86
REMARK SMILES IDX 58 87 51 88 53 89 59 90 52 91 54 92 55 93 56 94 57 95
REMARK H PARENT 15 7 20 29 79 48 47 59
REMARK Flexibility Score: inf
ROOT
ATOM      1  C   UNL A   1      32.393  29.543  25.043  1.00  0.00     0.023 C 
ENDROOT
BRANCH   1   2
ATOM      2  C   UNL A   1      33.581  28.639  24.702  1.00  0.00     0.023 C 
BRANCH   2   3
ATOM      3  C   UNL A   1      33.810  28.423  23.206  1.00  0.00     0.116 C 
BRANCH   3   4
ATOM      4  N   UNL A   1      32.563  28.209  22.493  1.00  0.00    -0.352 N 
ATOM      5  C   UNL A   1      31.649  27.216  22.390  1.00  0.00     0.251 C 
ATOM      6  O   UNL A   1      30.648  27.490  21.720  1.00  0.00    -0.270 OA
ATOM      7  H   UNL A   1      32.320  28.988  21.941  1.00  0.00     0.163 HD
BRANCH   5   8
ATOM      8  C   UNL A   1      31.767  25.861  23.003  1.00  0.00     0.067 C 
ATOM      9  C   UNL A   1      33.459  21.389  24.610  1.00  0.00    -0.026 A 
ATOM     10  C   UNL A   1      32.185  21.959  24.446  1.00  0.00     0.052 A 
ATOM     11  C   UNL A   1      34.574  22.114  24.151  1.00  0.00     0.045 A 
ATOM     12  C   UNL A   1      32.043  23.229  23.896  1.00  0.00     0.128 A 
ATOM     13  C   UNL A   1      34.416  23.361  23.533  1.00  0.00     0.032 A 
ATOM     14  Cl  UNL A   1      36.189  21.519  24.323  1.00  0.00    -0.084 Cl
ATOM     15  C   UNL A   1      33.147  23.926  23.410  1.00  0.00     0.019 A 
ATOM     16  O   UNL A   1      30.781  23.759  23.862  1.00  0.00    -0.475 OA
ATOM     17  C   UNL A   1      32.934  25.224  22.779  1.00  0.00     0.025 C 
ATOM     18  C   UNL A   1      30.753  25.220  23.913  1.00  0.00     0.314 C 
BRANCH   9  19
ATOM     19  C   UNL A   1      33.560  20.039  25.287  1.00  0.00     0.037 C 
BRANCH  19  20
ATOM     20  C   UNL A   1      32.529  19.012  24.798  1.00  0.00     0.001 C 
ATOM     21  C   UNL A   1      32.781  18.512  23.381  1.00  0.00     0.004 C 
ENDBRANCH  19  20
ENDBRANCH   9  19
BRANCH  18  22
ATOM     22  C   UNL A   1      30.837  25.719  25.370  1.00  0.00     0.429 C 
ATOM     23  F   UNL A   1      30.180  24.923  26.244  1.00  0.00    -0.167 F 
ATOM     24  F   UNL A   1      32.113  25.811  25.812  1.00  0.00    -0.167 F 
ATOM     25  F   UNL A   1      30.293  26.959  25.472  1.00  0.00    -0.167 F 
ENDBRANCH  18  22
ENDBRANCH   5   8
ENDBRANCH   3   4
ENDBRANCH   2   3
ENDBRANCH   1   2
BRANCH   1  26
ATOM     26  C   UNL A   1      32.230  29.859  26.525  1.00  0.00     0.116 C 
BRANCH  26  27
ATOM     27  N   UNL A   1      32.057  31.276  26.815  1.00  0.00    -0.352 N 
ATOM     28  C   UNL A   1      32.986  32.128  27.373  1.00  0.00     0.251 C 
ATOM     29  H   UNL A   1      31.184  31.669  26.588  1.00  0.00     0.163 HD
ATOM     30  O   UNL A   1      32.704  33.296  27.621  1.00  0.00    -0.269 OA
BRANCH  28  31
ATOM     31  C   UNL A   1      34.306  31.571  27.723  1.00  0.00     0.039 A 
ATOM     32  C   UNL A   1      34.433  30.202  27.974  1.00  0.00     0.014 A 
ATOM     33  C   UNL A   1      35.367  32.446  27.966  1.00  0.00     0.014 A 
ATOM     34  C   UNL A   1      35.561  29.739  28.639  1.00  0.00     0.010 A 
ATOM     35  C   UNL A   1      36.529  31.961  28.570  1.00  0.00     0.010 A 
ATOM     36  C   UNL A   1      36.606  30.618  28.971  1.00  0.00    -0.014 A 
BRANCH  36  37
ATOM     37  C   UNL A   1      37.741  30.120  29.788  1.00  0.00     0.031 A 
ATOM     38  C   UNL A   1      38.785  29.218  29.182  1.00  0.00     0.074 A 
ATOM     39  C   UNL A   1      37.869  30.539  31.059  1.00  0.00     0.049 A 
ATOM     40  N   UNL A   1      39.860  28.720  29.738  1.00  0.00    -0.248 NA
ATOM     41  C   UNL A   1      38.607  28.823  27.774  1.00  0.00     0.031 C 
ATOM     42  C   UNL A   1      36.922  31.411  31.755  1.00  0.00     0.029 A 
ATOM     43  N   UNL A   1      38.856  30.311  31.984  1.00  0.00    -0.354 N 
ATOM     44  C   UNL A   1      40.455  27.919  28.772  1.00  0.00     0.074 A 
ATOM     45  C   UNL A   1      39.631  28.001  27.586  1.00  0.00     0.031 C 
ATOM     46  C   UNL A   1      37.401  31.692  32.975  1.00  0.00     0.029 A 
ATOM     47  C   UNL A   1      38.663  30.983  33.167  1.00  0.00     0.049 A 
ATOM     48  H   UNL A   1      39.628  29.724  31.816  1.00  0.00     0.167 HD
ATOM     49  C   UNL A   1      41.596  27.196  28.858  1.00  0.00     0.034 A 
ATOM     50  C   UNL A   1      39.418  31.031  34.281  1.00  0.00     0.034 A 
ATOM     51  C   UNL A   1      42.456  27.168  30.008  1.00  0.00     0.049 A 
ATOM     52  C   UNL A   1      40.698  30.248  34.336  1.00  0.00     0.074 A 
ATOM     53  C   UNL A   1      43.648  26.485  30.173  1.00  0.00     0.029 A 
ATOM     54  N   UNL A   1      42.227  27.866  31.183  1.00  0.00    -0.354 N 
ATOM     55  N   UNL A   1      41.264  29.537  33.393  1.00  0.00    -0.248 NA
ATOM     56  C   UNL A   1      41.443  30.278  35.602  1.00  0.00     0.031 C 
ATOM     57  C   UNL A   1      44.149  26.781  31.445  1.00  0.00     0.029 A 
ATOM     58  C   UNL A   1      43.259  27.638  32.074  1.00  0.00     0.049 A 
ATOM     59  H   UNL A   1      41.446  28.439  31.357  1.00  0.00     0.167 HD
ATOM     60  C   UNL A   1      42.430  29.029  33.952  1.00  0.00     0.074 A 
ATOM     61  C   UNL A   1      42.506  29.541  35.306  1.00  0.00     0.031 C 
ATOM     62  C   UNL A   1      43.339  28.189  33.402  1.00  0.00     0.034 A 
BRANCH  49  63
ATOM     63  C   UNL A   1      42.024  26.410  27.650  1.00  0.00     0.023 A 
ATOM     64  C   UNL A   1      42.814  27.041  26.669  1.00  0.00     0.012 A 
ATOM     65  C   UNL A   1      41.727  25.039  27.530  1.00  0.00     0.148 A 
ATOM     66  C   UNL A   1      43.300  26.318  25.581  1.00  0.00     0.002 A 
ATOM     67  C   UNL A   1      42.234  24.320  26.454  1.00  0.00     0.091 A 
ATOM     68  F   UNL A   1      40.955  24.468  28.466  1.00  0.00    -0.205 F 
ATOM     69  C   UNL A   1      43.019  24.958  25.478  1.00  0.00     0.022 A 
BRANCH  67  70
ATOM     70  S   UNL A   1      41.966  22.555  26.253  1.00  0.00     0.127 S 
ATOM     71  O   UNL A   1      40.508  22.488  26.163  1.00  0.00    -0.237 OA
ATOM     72  O   UNL A   1      42.669  22.275  25.001  1.00  0.00    -0.237 OA
ATOM     73  O   UNL A   1      42.548  21.925  27.431  1.00  0.00    -0.744 OA
ENDBRANCH  67  70
ENDBRANCH  49  63
BRANCH  50  74
ATOM     74  C   UNL A   1      38.998  31.913  35.400  1.00  0.00     0.023 A 
ATOM     75  C   UNL A   1      38.155  31.394  36.399  1.00  0.00     0.012 A 
ATOM     76  C   UNL A   1      39.511  33.217  35.535  1.00  0.00     0.148 A 
ATOM     77  C   UNL A   1      37.832  32.159  37.521  1.00  0.00     0.002 A 
ATOM     78  C   UNL A   1      39.225  33.955  36.677  1.00  0.00     0.091 A 
ATOM     79  F   UNL A   1      40.297  33.695  34.560  1.00  0.00    -0.205 F 
ATOM     80  C   UNL A   1      38.379  33.432  37.668  1.00  0.00     0.022 A 
BRANCH  78  81
ATOM     81  S   UNL A   1      40.002  35.541  37.009  1.00  0.00     0.127 S 
ATOM     82  O   UNL A   1      39.400  35.906  38.289  1.00  0.00    -0.237 OA
ATOM     83  O   UNL A   1      41.418  35.181  37.073  1.00  0.00    -0.237 OA
ATOM     84  O   UNL A   1      39.653  36.389  35.877  1.00  0.00    -0.744 OA
ENDBRANCH  78  81
ENDBRANCH  50  74
BRANCH  62  85
ATOM     85  C   UNL A   1      44.486  27.743  34.262  1.00  0.00     0.023 A 
ATOM     86  C   UNL A   1      45.643  28.543  34.314  1.00  0.00     0.012 A 
ATOM     87  C   UNL A   1      44.384  26.606  35.085  1.00  0.00     0.148 A 
ATOM     88  C   UNL A   1      46.690  28.214  35.173  1.00  0.00     0.002 A 
ATOM     89  C   UNL A   1      45.422  26.297  35.956  1.00  0.00     0.091 A 
ATOM     90  F   UNL A   1      43.278  25.852  35.001  1.00  0.00    -0.205 F 
ATOM     91  C   UNL A   1      46.576  27.099  36.001  1.00  0.00     0.022 A 
BRANCH  89  92
ATOM     92  S   UNL A   1      45.335  24.916  37.102  1.00  0.00     0.127 S 
ATOM     93  O   UNL A   1      44.123  25.229  37.854  1.00  0.00    -0.237 OA
ATOM     94  O   UNL A   1      45.217  23.768  36.201  1.00  0.00    -0.237 OA
ATOM     95  O   UNL A   1      46.575  24.955  37.865  1.00  0.00    -0.744 OA
ENDBRANCH  89  92
ENDBRANCH  62  85
ENDBRANCH  36  37
ENDBRANCH  28  31
ENDBRANCH  26  27
ENDBRANCH   1  26
TORSDOF 17
ENDMDL
