MODEL 1
REMARK VINA RESULT:     -13.1      0.000      0.000
REMARK SMILES CC(C)Cc1ccc(-c2cc(Cl)cc3c2O[C@H](C(F)(F)F)C(C(=O)NCCCCNC(=O)c2ccc(-c4c5nc(c(-c6cccc(S(=O)(=O)[O-])c6F)c6ccc([nH]6)c(-c6cccc(S(=O)(=O)[O-])c6F)c6nc(c(-c7cccc(S(=O)(=O)[O-])c7F)c7ccc4[nH]7)C=C6)C=C5)cc2)=C3)cc1
REMARK SMILES IDX 27 1 26 2 25 3 23 4 24 5 22 7 9 8 10 9 15 10 11 11 14 12
REMARK SMILES IDX 16 13 12 14 13 15 96 16 17 17 8 18 5 19 6 20 98 21 7 22
REMARK SMILES IDX 97 23 4 24 2 25 1 26 3 27 18 28 19 29 20 30 21 31 28 32
REMARK SMILES IDX 29 33 30 34 31 35 32 37 33 38 34 39 95 40 35 41 94 42 36 43
REMARK SMILES IDX 37 44 38 45 88 46 39 47 93 48 87 49 89 50 40 51 92 52 86 53
REMARK SMILES IDX 85 54 41 56 73 57 53 58 72 59 54 60 57 61 71 62 90 63 55 64
REMARK SMILES IDX 56 65 70 67 91 68 58 69 42 70 43 71 51 72 44 73 46 74 52 75
REMARK SMILES IDX 45 76 47 77 48 78 49 79 50 80 74 81 75 82 83 83 76 84 78 85
REMARK SMILES IDX 84 86 77 87 79 88 80 89 81 90 82 91 59 92 60 93 68 94 61 95
REMARK SMILES IDX 63 96 69 97 62 98 64 99 65 100 66 101 67 102
REMARK H PARENT 25 6 30 36 89 55 57 66
REMARK Flexibility Score: inf
ROOT
ATOM      1  C   UNL A   1      35.825  20.339  24.884  1.00  0.00     0.023 C 
ENDROOT
BRANCH   1   2
ATOM      2  C   UNL A   1      35.768  21.469  25.923  1.00  0.00     0.116 C 
BRANCH   2   3
ATOM      3  N   UNL A   1      35.791  22.753  25.254  1.00  0.00    -0.352 N 
ATOM      4  C   UNL A   1      34.998  23.188  24.245  1.00  0.00     0.251 C 
ATOM      5  O   UNL A   1      35.481  23.900  23.371  1.00  0.00    -0.270 OA
ATOM      6  H   UNL A   1      36.471  23.392  25.571  1.00  0.00     0.163 HD
BRANCH   4   7
ATOM      7  C   UNL A   1      33.538  22.869  24.299  1.00  0.00     0.067 C 
ATOM      8  C   UNL A   1      32.068  26.636  23.748  1.00  0.00     0.026 A 
ATOM      9  C   UNL A   1      32.840  27.490  24.577  1.00  0.00     0.033 A 
ATOM     10  C   UNL A   1      32.198  25.254  23.983  1.00  0.00     0.135 A 
ATOM     11  C   UNL A   1      33.528  27.028  25.696  1.00  0.00     0.042 A 
ATOM     12  C   UNL A   1      32.809  24.817  25.187  1.00  0.00     0.019 A 
ATOM     13  O   UNL A   1      31.820  24.277  23.071  1.00  0.00    -0.475 OA
ATOM     14  Cl  UNL A   1      34.430  28.132  26.654  1.00  0.00    -0.084 Cl
ATOM     15  C   UNL A   1      33.450  25.697  26.053  1.00  0.00     0.032 A 
ATOM     16  C   UNL A   1      32.943  23.358  25.406  1.00  0.00     0.025 C 
ATOM     17  C   UNL A   1      32.789  23.133  22.996  1.00  0.00     0.314 C 
BRANCH   8  18
ATOM     18  C   UNL A   1      31.037  27.364  22.955  1.00  0.00    -0.015 A 
ATOM     19  C   UNL A   1      29.154  29.501  22.601  1.00  0.00    -0.048 A 
ATOM     20  C   UNL A   1      30.444  29.579  22.064  1.00  0.00     0.004 A 
ATOM     21  C   UNL A   1      28.775  28.285  23.189  1.00  0.00     0.004 A 
ATOM     22  C   UNL A   1      31.368  28.527  22.230  1.00  0.00     0.009 A 
ATOM     23  C   UNL A   1      29.692  27.229  23.345  1.00  0.00     0.009 A 
BRANCH  19  24
ATOM     24  C   UNL A   1      28.186  30.669  22.529  1.00  0.00     0.038 C 
BRANCH  24  25
ATOM     25  C   UNL A   1      28.678  31.995  21.882  1.00  0.00    -0.013 C 
ATOM     26  C   UNL A   1      27.877  32.419  20.647  1.00  0.00     0.008 C 
ATOM     27  C   UNL A   1      28.599  33.132  22.915  1.00  0.00     0.008 C 
ENDBRANCH  24  25
ENDBRANCH  19  24
ENDBRANCH   8  18
BRANCH  17  28
ATOM     28  C   UNL A   1      32.099  21.820  22.563  1.00  0.00     0.429 C 
ATOM     29  F   UNL A   1      30.756  21.856  22.715  1.00  0.00    -0.167 F 
ATOM     30  F   UNL A   1      32.355  21.536  21.262  1.00  0.00    -0.167 F 
ATOM     31  F   UNL A   1      32.534  20.743  23.271  1.00  0.00    -0.167 F 
ENDBRANCH  17  28
ENDBRANCH   4   7
ENDBRANCH   2   3
ENDBRANCH   1   2
BRANCH   1  32
ATOM     32  C   UNL A   1      37.090  19.468  24.929  1.00  0.00     0.023 C 
BRANCH  32  33
ATOM     33  C   UNL A   1      38.347  20.179  25.415  1.00  0.00     0.116 C 
BRANCH  33  34
ATOM     34  N   UNL A   1      39.429  19.246  25.689  1.00  0.00    -0.352 N 
ATOM     35  C   UNL A   1      40.717  19.513  26.083  1.00  0.00     0.251 C 
ATOM     36  H   UNL A   1      39.207  18.294  25.578  1.00  0.00     0.163 HD
ATOM     37  O   UNL A   1      41.555  18.612  26.087  1.00  0.00    -0.269 OA
BRANCH  35  38
ATOM     38  C   UNL A   1      41.100  20.885  26.479  1.00  0.00     0.039 A 
ATOM     39  C   UNL A   1      41.901  21.070  27.608  1.00  0.00     0.014 A 
ATOM     40  C   UNL A   1      40.681  21.987  25.728  1.00  0.00     0.014 A 
ATOM     41  C   UNL A   1      42.336  22.354  27.947  1.00  0.00     0.010 A 
ATOM     42  C   UNL A   1      41.174  23.255  26.026  1.00  0.00     0.010 A 
ATOM     43  C   UNL A   1      42.006  23.455  27.138  1.00  0.00    -0.014 A 
BRANCH  43  44
ATOM     44  C   UNL A   1      42.527  24.818  27.427  1.00  0.00     0.031 A 
ATOM     45  C   UNL A   1      41.657  25.829  28.127  1.00  0.00     0.074 A 
ATOM     46  C   UNL A   1      43.743  25.179  26.968  1.00  0.00     0.049 A 
ATOM     47  N   UNL A   1      41.900  27.088  28.383  1.00  0.00    -0.248 NA
ATOM     48  C   UNL A   1      40.329  25.375  28.576  1.00  0.00     0.031 C 
ATOM     49  C   UNL A   1      44.653  24.319  26.208  1.00  0.00     0.029 A 
ATOM     50  N   UNL A   1      44.410  26.378  27.042  1.00  0.00    -0.354 N 
ATOM     51  C   UNL A   1      40.745  27.587  28.974  1.00  0.00     0.074 A 
ATOM     52  C   UNL A   1      39.792  26.501  29.025  1.00  0.00     0.031 C 
ATOM     53  C   UNL A   1      45.752  25.018  25.880  1.00  0.00     0.029 A 
ATOM     54  C   UNL A   1      45.614  26.385  26.374  1.00  0.00     0.049 A 
ATOM     55  H   UNL A   1      44.060  27.160  27.527  1.00  0.00     0.167 HD
ATOM     56  C   UNL A   1      40.507  28.832  29.450  1.00  0.00     0.034 A 
ATOM     57  C   UNL A   1      46.499  27.381  26.167  1.00  0.00     0.034 A 
ATOM     58  C   UNL A   1      41.477  29.893  29.454  1.00  0.00     0.049 A 
ATOM     59  C   UNL A   1      46.222  28.740  26.753  1.00  0.00     0.074 A 
ATOM     60  C   UNL A   1      41.365  31.153  30.018  1.00  0.00     0.029 A 
ATOM     61  N   UNL A   1      42.726  29.829  28.862  1.00  0.00    -0.354 N 
ATOM     62  N   UNL A   1      45.197  29.139  27.466  1.00  0.00    -0.248 NA
ATOM     63  C   UNL A   1      47.241  29.779  26.538  1.00  0.00     0.031 C 
ATOM     64  C   UNL A   1      42.536  31.861  29.738  1.00  0.00     0.029 A 
ATOM     65  C   UNL A   1      43.390  31.031  29.031  1.00  0.00     0.049 A 
ATOM     66  H   UNL A   1      43.087  29.045  28.389  1.00  0.00     0.167 HD
ATOM     67  C   UNL A   1      45.469  30.455  27.822  1.00  0.00     0.074 A 
ATOM     68  C   UNL A   1      46.763  30.782  27.263  1.00  0.00     0.031 C 
ATOM     69  C   UNL A   1      44.708  31.321  28.533  1.00  0.00     0.034 A 
BRANCH  56  70
ATOM     70  C   UNL A   1      39.159  29.120  30.057  1.00  0.00     0.023 A 
ATOM     71  C   UNL A   1      38.838  28.596  31.325  1.00  0.00     0.012 A 
ATOM     72  C   UNL A   1      38.262  30.002  29.424  1.00  0.00     0.148 A 
ATOM     73  C   UNL A   1      37.636  28.929  31.946  1.00  0.00     0.002 A 
ATOM     74  C   UNL A   1      37.086  30.365  30.068  1.00  0.00     0.091 A 
ATOM     75  F   UNL A   1      38.580  30.475  28.211  1.00  0.00    -0.205 F 
ATOM     76  C   UNL A   1      36.767  29.823  31.325  1.00  0.00     0.022 A 
BRANCH  74  77
ATOM     77  S   UNL A   1      35.941  31.574  29.395  1.00  0.00     0.127 S 
ATOM     78  O   UNL A   1      36.846  32.660  29.019  1.00  0.00    -0.237 OA
ATOM     79  O   UNL A   1      35.359  30.848  28.265  1.00  0.00    -0.237 OA
ATOM     80  O   UNL A   1      35.007  31.890  30.466  1.00  0.00    -0.744 OA
ENDBRANCH  74  77
ENDBRANCH  56  70
BRANCH  57  81
ATOM     81  C   UNL A   1      47.756  27.132  25.403  1.00  0.00     0.023 A 
ATOM     82  C   UNL A   1      48.862  26.552  26.056  1.00  0.00     0.012 A 
ATOM     83  C   UNL A   1      47.872  27.483  24.044  1.00  0.00     0.148 A 
ATOM     84  C   UNL A   1      50.073  26.375  25.386  1.00  0.00     0.002 A 
ATOM     85  C   UNL A   1      49.063  27.250  23.366  1.00  0.00     0.091 A 
ATOM     86  F   UNL A   1      46.816  28.047  23.440  1.00  0.00    -0.205 F 
ATOM     87  C   UNL A   1      50.172  26.717  24.040  1.00  0.00     0.022 A 
BRANCH  85  88
ATOM     88  S   UNL A   1      49.230  27.538  21.602  1.00  0.00     0.127 S 
ATOM     89  O   UNL A   1      49.353  28.992  21.546  1.00  0.00    -0.237 OA
ATOM     90  O   UNL A   1      50.457  26.803  21.287  1.00  0.00    -0.237 OA
ATOM     91  O   UNL A   1      48.028  26.973  21.002  1.00  0.00    -0.744 OA
ENDBRANCH  85  88
ENDBRANCH  57  81
BRANCH  69  92
ATOM     92  C   UNL A   1      45.269  32.690  28.811  1.00  0.00     0.023 A 
ATOM     93  C   UNL A   1      46.122  32.893  29.914  1.00  0.00     0.012 A 
ATOM     94  C   UNL A   1      45.020  33.756  27.923  1.00  0.00     0.148 A 
ATOM     95  C   UNL A   1      46.692  34.144  30.146  1.00  0.00     0.002 A 
ATOM     96  C   UNL A   1      45.634  34.984  28.131  1.00  0.00     0.091 A 
ATOM     97  F   UNL A   1      44.192  33.546  26.889  1.00  0.00    -0.205 F 
ATOM     98  C   UNL A   1      46.460  35.185  29.249  1.00  0.00     0.022 A 
BRANCH  96  99
ATOM     99  S   UNL A   1      45.475  36.348  26.974  1.00  0.00     0.127 S 
ATOM    100  O   UNL A   1      46.066  37.452  27.730  1.00  0.00    -0.237 OA
ATOM    101  O   UNL A   1      46.276  35.887  25.840  1.00  0.00    -0.237 OA
ATOM    102  O   UNL A   1      44.050  36.477  26.695  1.00  0.00    -0.744 OA
ENDBRANCH  96  99
ENDBRANCH  69  92
ENDBRANCH  43  44
ENDBRANCH  35  38
ENDBRANCH  33  34
ENDBRANCH  32  33
ENDBRANCH   1  32
TORSDOF 18
ENDMDL
MODEL 2
REMARK VINA RESULT:     -13.1      1.686      2.111
REMARK SMILES CC(C)Cc1ccc(-c2cc(Cl)cc3c2O[C@H](C(F)(F)F)C(C(=O)NCCCCNC(=O)c2ccc(-c4c5nc(c(-c6cccc(S(=O)(=O)[O-])c6F)c6ccc([nH]6)c(-c6cccc(S(=O)(=O)[O-])c6F)c6nc(c(-c7cccc(S(=O)(=O)[O-])c7F)c7ccc4[nH]7)C=C6)C=C5)cc2)=C3)cc1
REMARK SMILES IDX 27 1 26 2 25 3 23 4 24 5 22 7 9 8 10 9 15 10 11 11 14 12
REMARK SMILES IDX 16 13 12 14 13 15 96 16 17 17 8 18 5 19 6 20 98 21 7 22
REMARK SMILES IDX 97 23 4 24 2 25 1 26 3 27 18 28 19 29 20 30 21 31 28 32
REMARK SMILES IDX 29 33 30 34 31 35 32 37 33 38 34 39 95 40 35 41 94 42 36 43
REMARK SMILES IDX 37 44 38 45 88 46 39 47 93 48 87 49 89 50 40 51 92 52 86 53
REMARK SMILES IDX 85 54 41 56 73 57 53 58 72 59 54 60 57 61 71 62 90 63 55 64
REMARK SMILES IDX 56 65 70 67 91 68 58 69 42 70 43 71 51 72 44 73 46 74 52 75
REMARK SMILES IDX 45 76 47 77 48 78 49 79 50 80 74 81 75 82 83 83 76 84 78 85
REMARK SMILES IDX 84 86 77 87 79 88 80 89 81 90 82 91 59 92 60 93 68 94 61 95
REMARK SMILES IDX 63 96 69 97 62 98 64 99 65 100 66 101 67 102
REMARK H PARENT 25 6 30 36 89 55 57 66
REMARK Flexibility Score: inf
ROOT
ATOM      1  C   UNL A   1      34.755  19.734  24.723  1.00  0.00     0.023 C 
ENDROOT
BRANCH   1   2
ATOM      2  C   UNL A   1      33.224  19.781  24.598  1.00  0.00     0.116 C 
BRANCH   2   3
ATOM      3  N   UNL A   1      32.846  20.663  23.514  1.00  0.00    -0.352 N 
ATOM      4  C   UNL A   1      32.222  21.863  23.588  1.00  0.00     0.251 C 
ATOM      5  O   UNL A   1      31.403  22.164  22.725  1.00  0.00    -0.270 OA
ATOM      6  H   UNL A   1      33.070  20.351  22.607  1.00  0.00     0.163 HD
BRANCH   4   7
ATOM      7  C   UNL A   1      32.637  22.817  24.662  1.00  0.00     0.067 C 
ATOM      8  C   UNL A   1      31.036  26.230  23.100  1.00  0.00     0.026 A 
ATOM      9  C   UNL A   1      31.358  26.225  21.718  1.00  0.00     0.033 A 
ATOM     10  C   UNL A   1      31.724  25.302  23.904  1.00  0.00     0.135 A 
ATOM     11  C   UNL A   1      32.432  25.505  21.201  1.00  0.00     0.042 A 
ATOM     12  C   UNL A   1      32.880  24.666  23.382  1.00  0.00     0.019 A 
ATOM     13  O   UNL A   1      31.302  24.916  25.170  1.00  0.00    -0.475 OA
ATOM     14  Cl  UNL A   1      32.760  25.563  19.516  1.00  0.00    -0.084 Cl
ATOM     15  C   UNL A   1      33.249  24.783  22.046  1.00  0.00     0.032 A 
ATOM     16  C   UNL A   1      33.580  23.686  24.244  1.00  0.00     0.025 C 
ATOM     17  C   UNL A   1      31.475  23.447  25.426  1.00  0.00     0.314 C 
BRANCH   8  18
ATOM     18  C   UNL A   1      30.225  27.413  23.508  1.00  0.00    -0.015 A 
ATOM     19  C   UNL A   1      28.639  29.728  22.908  1.00  0.00    -0.048 A 
ATOM     20  C   UNL A   1      28.039  28.498  23.203  1.00  0.00     0.004 A 
ATOM     21  C   UNL A   1      30.031  29.818  23.059  1.00  0.00     0.004 A 
ATOM     22  C   UNL A   1      28.817  27.362  23.506  1.00  0.00     0.009 A 
ATOM     23  C   UNL A   1      30.807  28.686  23.374  1.00  0.00     0.009 A 
BRANCH  19  24
ATOM     24  C   UNL A   1      27.822  30.932  22.470  1.00  0.00     0.038 C 
BRANCH  24  25
ATOM     25  C   UNL A   1      28.568  32.135  21.827  1.00  0.00    -0.013 C 
ATOM     26  C   UNL A   1      27.943  32.625  20.517  1.00  0.00     0.008 C 
ATOM     27  C   UNL A   1      28.592  33.314  22.815  1.00  0.00     0.008 C 
ENDBRANCH  24  25
ENDBRANCH  19  24
ENDBRANCH   8  18
BRANCH  17  28
ATOM     28  C   UNL A   1      31.668  23.142  26.929  1.00  0.00     0.429 C 
ATOM     29  F   UNL A   1      32.543  22.136  27.153  1.00  0.00    -0.167 F 
ATOM     30  F   UNL A   1      32.120  24.232  27.597  1.00  0.00    -0.167 F 
ATOM     31  F   UNL A   1      30.508  22.783  27.543  1.00  0.00    -0.167 F 
ENDBRANCH  17  28
ENDBRANCH   4   7
ENDBRANCH   2   3
ENDBRANCH   1   2
BRANCH   1  32
ATOM     32  C   UNL A   1      35.382  20.869  25.546  1.00  0.00     0.023 C 
BRANCH  32  33
ATOM     33  C   UNL A   1      36.791  21.268  25.126  1.00  0.00     0.116 C 
BRANCH  33  34
ATOM     34  N   UNL A   1      37.741  20.179  25.298  1.00  0.00    -0.352 N 
ATOM     35  C   UNL A   1      39.050  20.234  25.709  1.00  0.00     0.251 C 
ATOM     36  H   UNL A   1      37.397  19.279  25.092  1.00  0.00     0.163 HD
ATOM     37  O   UNL A   1      39.763  19.235  25.618  1.00  0.00    -0.269 OA
BRANCH  35  38
ATOM     38  C   UNL A   1      39.606  21.497  26.239  1.00  0.00     0.039 A 
ATOM     39  C   UNL A   1      40.635  21.446  27.182  1.00  0.00     0.014 A 
ATOM     40  C   UNL A   1      39.121  22.731  25.795  1.00  0.00     0.014 A 
ATOM     41  C   UNL A   1      41.223  22.632  27.631  1.00  0.00     0.010 A 
ATOM     42  C   UNL A   1      39.757  23.906  26.189  1.00  0.00     0.010 A 
ATOM     43  C   UNL A   1      40.814  23.871  27.112  1.00  0.00    -0.014 A 
BRANCH  43  44
ATOM     44  C   UNL A   1      41.482  25.140  27.508  1.00  0.00     0.031 A 
ATOM     45  C   UNL A   1      40.723  26.186  28.281  1.00  0.00     0.074 A 
ATOM     46  C   UNL A   1      42.736  25.395  27.081  1.00  0.00     0.049 A 
ATOM     47  N   UNL A   1      41.104  27.386  28.635  1.00  0.00    -0.248 NA
ATOM     48  C   UNL A   1      39.348  25.852  28.689  1.00  0.00     0.031 C 
ATOM     49  C   UNL A   1      43.553  24.499  26.259  1.00  0.00     0.029 A 
ATOM     50  N   UNL A   1      43.534  26.502  27.250  1.00  0.00    -0.354 N 
ATOM     51  C   UNL A   1      40.006  27.966  29.260  1.00  0.00     0.074 A 
ATOM     52  C   UNL A   1      38.936  26.994  29.223  1.00  0.00     0.031 C 
ATOM     53  C   UNL A   1      44.727  25.092  25.990  1.00  0.00     0.029 A 
ATOM     54  C   UNL A   1      44.738  26.423  26.588  1.00  0.00     0.049 A 
ATOM     55  H   UNL A   1      43.268  27.279  27.793  1.00  0.00     0.167 HD
ATOM     56  C   UNL A   1      39.904  29.190  29.830  1.00  0.00     0.034 A 
ATOM     57  C   UNL A   1      45.732  27.326  26.461  1.00  0.00     0.034 A 
ATOM     58  C   UNL A   1      40.987  30.131  29.920  1.00  0.00     0.049 A 
ATOM     59  C   UNL A   1      45.603  28.659  27.151  1.00  0.00     0.074 A 
ATOM     60  C   UNL A   1      41.011  31.348  30.579  1.00  0.00     0.029 A 
ATOM     61  N   UNL A   1      42.228  29.971  29.328  1.00  0.00    -0.354 N 
ATOM     62  N   UNL A   1      44.621  29.115  27.889  1.00  0.00    -0.248 NA
ATOM     63  C   UNL A   1      46.735  29.589  27.020  1.00  0.00     0.031 C 
ATOM     64  C   UNL A   1      42.258  31.939  30.358  1.00  0.00     0.029 A 
ATOM     65  C   UNL A   1      43.021  31.074  29.592  1.00  0.00     0.049 A 
ATOM     66  H   UNL A   1      42.504  29.190  28.796  1.00  0.00     0.167 HD
ATOM     67  C   UNL A   1      45.036  30.361  28.347  1.00  0.00     0.074 A 
ATOM     68  C   UNL A   1      46.365  30.581  27.819  1.00  0.00     0.031 C 
ATOM     69  C   UNL A   1      44.369  31.250  29.122  1.00  0.00     0.034 A 
BRANCH  56  70
ATOM     70  C   UNL A   1      38.590  29.581  30.454  1.00  0.00     0.023 A 
ATOM     71  C   UNL A   1      38.313  29.212  31.785  1.00  0.00     0.012 A 
ATOM     72  C   UNL A   1      37.687  30.410  29.761  1.00  0.00     0.148 A 
ATOM     73  C   UNL A   1      37.146  29.646  32.412  1.00  0.00     0.002 A 
ATOM     74  C   UNL A   1      36.548  30.875  30.407  1.00  0.00     0.091 A 
ATOM     75  F   UNL A   1      37.963  30.734  28.490  1.00  0.00    -0.205 F 
ATOM     76  C   UNL A   1      36.271  30.487  31.728  1.00  0.00     0.022 A 
BRANCH  74  77
ATOM     77  S   UNL A   1      35.402  32.031  29.646  1.00  0.00     0.127 S 
ATOM     78  O   UNL A   1      36.311  33.070  29.160  1.00  0.00    -0.237 OA
ATOM     79  O   UNL A   1      34.795  31.213  28.596  1.00  0.00    -0.237 OA
ATOM     80  O   UNL A   1      34.490  32.451  30.700  1.00  0.00    -0.744 OA
ENDBRANCH  74  77
ENDBRANCH  56  70
BRANCH  57  81
ATOM     81  C   UNL A   1      46.961  26.996  25.684  1.00  0.00     0.023 A 
ATOM     82  C   UNL A   1      47.975  26.222  26.284  1.00  0.00     0.012 A 
ATOM     83  C   UNL A   1      47.144  27.459  24.367  1.00  0.00     0.148 A 
ATOM     84  C   UNL A   1      49.167  25.959  25.606  1.00  0.00     0.002 A 
ATOM     85  C   UNL A   1      48.309  27.144  23.676  1.00  0.00     0.091 A 
ATOM     86  F   UNL A   1      46.178  28.206  23.814  1.00  0.00    -0.205 F 
ATOM     87  C   UNL A   1      49.331  26.414  24.301  1.00  0.00     0.022 A 
BRANCH  85  88
ATOM     88  S   UNL A   1      48.542  27.577  21.949  1.00  0.00     0.127 S 
ATOM     89  O   UNL A   1      48.727  26.266  21.334  1.00  0.00    -0.237 OA
ATOM     90  O   UNL A   1      47.276  28.237  21.626  1.00  0.00    -0.237 OA
ATOM     91  O   UNL A   1      49.698  28.464  21.925  1.00  0.00    -0.744 OA
ENDBRANCH  85  88
ENDBRANCH  57  81
BRANCH  69  92
ATOM     92  C   UNL A   1      45.078  32.522  29.507  1.00  0.00     0.023 A 
ATOM     93  C   UNL A   1      45.884  32.558  30.662  1.00  0.00     0.012 A 
ATOM     94  C   UNL A   1      45.013  33.654  28.671  1.00  0.00     0.148 A 
ATOM     95  C   UNL A   1      46.590  33.714  30.995  1.00  0.00     0.002 A 
ATOM     96  C   UNL A   1      45.761  34.783  28.981  1.00  0.00     0.091 A 
ATOM     97  F   UNL A   1      44.226  33.604  27.586  1.00  0.00    -0.205 F 
ATOM     98  C   UNL A   1      46.540  34.820  30.148  1.00  0.00     0.022 A 
BRANCH  96  99
ATOM     99  S   UNL A   1      45.838  36.214  27.898  1.00  0.00     0.127 S 
ATOM    100  O   UNL A   1      46.503  37.198  28.751  1.00  0.00    -0.237 OA
ATOM    101  O   UNL A   1      46.652  35.718  26.788  1.00  0.00    -0.237 OA
ATOM    102  O   UNL A   1      44.459  36.527  27.544  1.00  0.00    -0.744 OA
ENDBRANCH  96  99
ENDBRANCH  69  92
ENDBRANCH  43  44
ENDBRANCH  35  38
ENDBRANCH  33  34
ENDBRANCH  32  33
ENDBRANCH   1  32
TORSDOF 18
ENDMDL
MODEL 3
REMARK VINA RESULT:     -12.4      2.095      2.432
REMARK SMILES CC(C)Cc1ccc(-c2cc(Cl)cc3c2O[C@H](C(F)(F)F)C(C(=O)NCCCCNC(=O)c2ccc(-c4c5nc(c(-c6cccc(S(=O)(=O)[O-])c6F)c6ccc([nH]6)c(-c6cccc(S(=O)(=O)[O-])c6F)c6nc(c(-c7cccc(S(=O)(=O)[O-])c7F)c7ccc4[nH]7)C=C6)C=C5)cc2)=C3)cc1
REMARK SMILES IDX 27 1 26 2 25 3 23 4 24 5 22 7 9 8 10 9 15 10 11 11 14 12
REMARK SMILES IDX 16 13 12 14 13 15 96 16 17 17 8 18 5 19 6 20 98 21 7 22
REMARK SMILES IDX 97 23 4 24 2 25 1 26 3 27 18 28 19 29 20 30 21 31 28 32
REMARK SMILES IDX 29 33 30 34 31 35 32 37 33 38 34 39 95 40 35 41 94 42 36 43
REMARK SMILES IDX 37 44 38 45 88 46 39 47 93 48 87 49 89 50 40 51 92 52 86 53
REMARK SMILES IDX 85 54 41 56 73 57 53 58 72 59 54 60 57 61 71 62 90 63 55 64
REMARK SMILES IDX 56 65 70 67 91 68 58 69 42 70 43 71 51 72 44 73 46 74 52 75
REMARK SMILES IDX 45 76 47 77 48 78 49 79 50 80 74 81 75 82 83 83 76 84 78 85
REMARK SMILES IDX 84 86 77 87 79 88 80 89 81 90 82 91 59 92 60 93 68 94 61 95
REMARK SMILES IDX 63 96 69 97 62 98 64 99 65 100 66 101 67 102
REMARK H PARENT 25 6 30 36 89 55 57 66
REMARK Flexibility Score: inf
ROOT
ATOM      1  C   UNL A   1      37.087  21.317  24.745  1.00  0.00     0.023 C 
ENDROOT
BRANCH   1   2
ATOM      2  C   UNL A   1      35.864  21.560  25.643  1.00  0.00     0.116 C 
BRANCH   2   3
ATOM      3  N   UNL A   1      35.765  22.967  25.968  1.00  0.00    -0.352 N 
ATOM      4  C   UNL A   1      34.853  23.867  25.530  1.00  0.00     0.251 C 
ATOM      5  O   UNL A   1      35.211  25.018  25.303  1.00  0.00    -0.270 OA
ATOM      6  H   UNL A   1      36.449  23.315  26.586  1.00  0.00     0.163 HD
BRANCH   4   7
ATOM      7  C   UNL A   1      33.420  23.445  25.445  1.00  0.00     0.067 C 
ATOM      8  C   UNL A   1      31.806  27.000  24.259  1.00  0.00     0.026 A 
ATOM      9  C   UNL A   1      32.410  28.001  25.065  1.00  0.00     0.033 A 
ATOM     10  C   UNL A   1      31.989  25.669  24.677  1.00  0.00     0.135 A 
ATOM     11  C   UNL A   1      32.973  27.724  26.308  1.00  0.00     0.042 A 
ATOM     12  C   UNL A   1      32.464  25.420  25.991  1.00  0.00     0.019 A 
ATOM     13  O   UNL A   1      31.793  24.568  23.853  1.00  0.00    -0.475 OA
ATOM     14  Cl  UNL A   1      33.673  28.996  27.225  1.00  0.00    -0.084 Cl
ATOM     15  C   UNL A   1      32.931  26.440  26.814  1.00  0.00     0.032 A 
ATOM     16  C   UNL A   1      32.657  24.011  26.403  1.00  0.00     0.025 C 
ATOM     17  C   UNL A   1      32.832  23.501  24.038  1.00  0.00     0.314 C 
BRANCH   8  18
ATOM     18  C   UNL A   1      30.844  27.553  23.264  1.00  0.00    -0.015 A 
ATOM     19  C   UNL A   1      28.950  29.525  22.392  1.00  0.00    -0.048 A 
ATOM     20  C   UNL A   1      30.287  29.576  21.979  1.00  0.00     0.004 A 
ATOM     21  C   UNL A   1      28.544  28.399  23.124  1.00  0.00     0.004 A 
ATOM     22  C   UNL A   1      31.217  28.603  22.400  1.00  0.00     0.009 A 
ATOM     23  C   UNL A   1      29.470  27.420  23.534  1.00  0.00     0.009 A 
BRANCH  19  24
ATOM     24  C   UNL A   1      27.963  30.625  22.041  1.00  0.00     0.038 C 
BRANCH  24  25
ATOM     25  C   UNL A   1      28.524  31.988  21.546  1.00  0.00    -0.013 C 
ATOM     26  C   UNL A   1      27.660  32.666  20.478  1.00  0.00     0.008 C 
ATOM     27  C   UNL A   1      28.654  32.953  22.738  1.00  0.00     0.008 C 
ENDBRANCH  24  25
ENDBRANCH  19  24
ENDBRANCH   8  18
BRANCH  17  28
ATOM     28  C   UNL A   1      32.287  22.097  23.690  1.00  0.00     0.429 C 
ATOM     29  F   UNL A   1      31.591  22.076  22.530  1.00  0.00    -0.167 F 
ATOM     30  F   UNL A   1      33.292  21.194  23.578  1.00  0.00    -0.167 F 
ATOM     31  F   UNL A   1      31.451  21.608  24.645  1.00  0.00    -0.167 F 
ENDBRANCH  17  28
ENDBRANCH   4   7
ENDBRANCH   2   3
ENDBRANCH   1   2
BRANCH   1  32
ATOM     32  C   UNL A   1      38.026  20.191  25.202  1.00  0.00     0.023 C 
BRANCH  32  33
ATOM     33  C   UNL A   1      39.292  20.655  25.912  1.00  0.00     0.116 C 
BRANCH  33  34
ATOM     34  N   UNL A   1      40.281  19.592  26.015  1.00  0.00    -0.352 N 
ATOM     35  C   UNL A   1      41.642  19.692  26.163  1.00  0.00     0.251 C 
ATOM     36  H   UNL A   1      39.924  18.675  25.972  1.00  0.00     0.163 HD
ATOM     37  O   UNL A   1      42.346  18.691  26.043  1.00  0.00    -0.269 OA
BRANCH  35  38
ATOM     38  C   UNL A   1      42.260  21.006  26.445  1.00  0.00     0.039 A 
ATOM     39  C   UNL A   1      42.409  21.925  25.404  1.00  0.00     0.014 A 
ATOM     40  C   UNL A   1      42.678  21.335  27.737  1.00  0.00     0.014 A 
ATOM     41  C   UNL A   1      42.918  23.199  25.672  1.00  0.00     0.010 A 
ATOM     42  C   UNL A   1      43.117  22.627  28.015  1.00  0.00     0.010 A 
ATOM     43  C   UNL A   1      43.243  23.574  26.987  1.00  0.00    -0.014 A 
BRANCH  43  44
ATOM     44  C   UNL A   1      43.703  24.951  27.313  1.00  0.00     0.031 A 
ATOM     45  C   UNL A   1      42.724  25.976  27.822  1.00  0.00     0.074 A 
ATOM     46  C   UNL A   1      44.978  25.308  27.051  1.00  0.00     0.049 A 
ATOM     47  N   UNL A   1      42.916  27.245  28.072  1.00  0.00    -0.248 NA
ATOM     48  C   UNL A   1      41.342  25.524  28.057  1.00  0.00     0.031 C 
ATOM     49  C   UNL A   1      46.006  24.433  26.483  1.00  0.00     0.029 A 
ATOM     50  N   UNL A   1      45.618  26.515  27.195  1.00  0.00    -0.354 N 
ATOM     51  C   UNL A   1      41.677  27.752  28.444  1.00  0.00     0.074 A 
ATOM     52  C   UNL A   1      40.733  26.660  28.372  1.00  0.00     0.031 C 
ATOM     53  C   UNL A   1      47.141  25.131  26.321  1.00  0.00     0.029 A 
ATOM     54  C   UNL A   1      46.917  26.511  26.738  1.00  0.00     0.049 A 
ATOM     55  H   UNL A   1      45.189  27.310  27.587  1.00  0.00     0.167 HD
ATOM     56  C   UNL A   1      41.358  29.010  28.831  1.00  0.00     0.034 A 
ATOM     57  C   UNL A   1      47.820  27.508  26.648  1.00  0.00     0.034 A 
ATOM     58  C   UNL A   1      42.309  30.080  28.962  1.00  0.00     0.049 A 
ATOM     59  C   UNL A   1      47.444  28.884  27.134  1.00  0.00     0.074 A 
ATOM     60  C   UNL A   1      42.099  31.356  29.456  1.00  0.00     0.029 A 
ATOM     61  N   UNL A   1      43.640  30.008  28.589  1.00  0.00    -0.354 N 
ATOM     62  N   UNL A   1      46.313  29.296  27.651  1.00  0.00    -0.248 NA
ATOM     63  C   UNL A   1      48.480  29.925  27.057  1.00  0.00     0.031 C 
ATOM     64  C   UNL A   1      43.298  32.066  29.352  1.00  0.00     0.029 A 
ATOM     65  C   UNL A   1      44.261  31.221  28.827  1.00  0.00     0.049 A 
ATOM     66  H   UNL A   1      44.078  29.212  28.210  1.00  0.00     0.167 HD
ATOM     67  C   UNL A   1      46.516  30.626  28.002  1.00  0.00     0.074 A 
ATOM     68  C   UNL A   1      47.884  30.946  27.657  1.00  0.00     0.031 C 
ATOM     69  C   UNL A   1      45.643  31.508  28.547  1.00  0.00     0.034 A 
BRANCH  56  70
ATOM     70  C   UNL A   1      39.926  29.305  29.194  1.00  0.00     0.023 A 
ATOM     71  C   UNL A   1      38.957  29.418  28.178  1.00  0.00     0.012 A 
ATOM     72  C   UNL A   1      39.525  29.352  30.544  1.00  0.00     0.148 A 
ATOM     73  C   UNL A   1      37.612  29.593  28.497  1.00  0.00     0.002 A 
ATOM     74  C   UNL A   1      38.176  29.483  30.855  1.00  0.00     0.091 A 
ATOM     75  F   UNL A   1      40.465  29.259  31.493  1.00  0.00    -0.205 F 
ATOM     76  C   UNL A   1      37.220  29.613  29.834  1.00  0.00     0.022 A 
BRANCH  74  77
ATOM     77  S   UNL A   1      37.559  29.432  32.541  1.00  0.00     0.127 S 
ATOM     78  O   UNL A   1      38.483  30.339  33.221  1.00  0.00    -0.237 OA
ATOM     79  O   UNL A   1      36.200  29.952  32.384  1.00  0.00    -0.237 OA
ATOM     80  O   UNL A   1      37.637  28.039  32.960  1.00  0.00    -0.744 OA
ENDBRANCH  74  77
ENDBRANCH  56  70
BRANCH  57  81
ATOM     81  C   UNL A   1      49.188  27.247  26.114  1.00  0.00     0.023 A 
ATOM     82  C   UNL A   1      49.372  27.082  24.726  1.00  0.00     0.012 A 
ATOM     83  C   UNL A   1      50.302  27.139  26.968  1.00  0.00     0.148 A 
ATOM     84  C   UNL A   1      50.627  26.765  24.206  1.00  0.00     0.002 A 
ATOM     85  C   UNL A   1      51.561  26.880  26.437  1.00  0.00     0.091 A 
ATOM     86  F   UNL A   1      50.109  27.283  28.287  1.00  0.00    -0.205 F 
ATOM     87  C   UNL A   1      51.723  26.670  25.060  1.00  0.00     0.022 A 
BRANCH  85  88
ATOM     88  S   UNL A   1      53.043  26.875  27.452  1.00  0.00     0.127 S 
ATOM     89  O   UNL A   1      53.023  28.221  28.018  1.00  0.00    -0.237 OA
ATOM     90  O   UNL A   1      52.757  25.801  28.405  1.00  0.00    -0.237 OA
ATOM     91  O   UNL A   1      54.138  26.583  26.536  1.00  0.00    -0.744 OA
ENDBRANCH  85  88
ENDBRANCH  57  81
BRANCH  69  92
ATOM     92  C   UNL A   1      46.145  32.890  28.868  1.00  0.00     0.023 A 
ATOM     93  C   UNL A   1      46.732  33.154  30.121  1.00  0.00     0.012 A 
ATOM     94  C   UNL A   1      46.113  33.904  27.890  1.00  0.00     0.148 A 
ATOM     95  C   UNL A   1      47.251  34.417  30.407  1.00  0.00     0.002 A 
ATOM     96  C   UNL A   1      46.680  35.143  28.163  1.00  0.00     0.091 A 
ATOM     97  F   UNL A   1      45.535  33.636  26.710  1.00  0.00    -0.205 F 
ATOM     98  C   UNL A   1      47.238  35.405  29.424  1.00  0.00     0.022 A 
BRANCH  96  99
ATOM     99  S   UNL A   1      46.801  36.440  26.926  1.00  0.00     0.127 S 
ATOM    100  O   UNL A   1      45.394  36.762  26.694  1.00  0.00    -0.237 OA
ATOM    101  O   UNL A   1      47.556  37.474  27.635  1.00  0.00    -0.237 OA
ATOM    102  O   UNL A   1      47.501  35.851  25.791  1.00  0.00    -0.744 OA
ENDBRANCH  96  99
ENDBRANCH  69  92
ENDBRANCH  43  44
ENDBRANCH  35  38
ENDBRANCH  33  34
ENDBRANCH  32  33
ENDBRANCH   1  32
TORSDOF 18
ENDMDL
