MODEL 1
REMARK VINA RESULT:     -12.4      0.000      0.000
REMARK SMILES COc1ccc(S(=O)(=O)N2C[C@H](C)C[C@H](C)C2)cc1C(=O)NCCCCNC(=O)c1ccc(-c2c3nc(c(-c4cccc(S(=O)(=O)[O-])c4F)c4ccc([nH]4)c(-c4cccc(S(=O)(=O)[O-])c4F)c4nc(c(-c5cccc(S(=O)(=O)[O-])c5F)c5ccc2[nH]5)C=C4)C=C3)cc1
REMARK SMILES IDX 25 1 24 2 23 3 22 4 20 5 21 6 19 8 3 9 4 10 5 11 18 12 6 13
REMARK SMILES IDX 2 14 1 15 7 16 8 17 9 18 10 19 11 20 17 21 12 22 15 23 13 24
REMARK SMILES IDX 14 25 16 26 26 27 27 28 28 29 29 31 30 32 31 33 92 34 32 35
REMARK SMILES IDX 91 36 33 37 34 38 35 39 85 40 36 41 90 42 84 43 86 44 37 45
REMARK SMILES IDX 89 46 83 47 82 48 38 50 70 51 50 52 69 53 51 54 54 55 68 56
REMARK SMILES IDX 87 57 52 58 53 59 67 61 88 62 55 63 39 64 40 65 48 66 41 67
REMARK SMILES IDX 43 68 49 69 42 70 44 71 45 72 46 73 47 74 71 75 72 76 80 77
REMARK SMILES IDX 73 78 75 79 81 80 74 81 76 82 77 83 78 84 79 85 56 86 57 87
REMARK SMILES IDX 65 88 58 89 60 90 66 91 59 92 61 93 62 94 63 95 64 96
REMARK H PARENT 22 7 27 30 86 49 54 60
REMARK Flexibility Score: inf
ROOT
ATOM      1  C   UNL A   1      31.870  31.603  26.648  1.00  0.00     0.023 C 
ENDROOT
BRANCH   1   2
ATOM      2  C   UNL A   1      32.036  30.081  26.575  1.00  0.00     0.023 C 
BRANCH   2   3
ATOM      3  C   UNL A   1      33.467  29.558  26.489  1.00  0.00     0.116 C 
BRANCH   3   4
ATOM      4  N   UNL A   1      33.840  29.128  25.160  1.00  0.00    -0.352 N 
ATOM      5  C   UNL A   1      33.605  27.943  24.528  1.00  0.00     0.255 C 
ATOM      6  O   UNL A   1      33.968  27.819  23.358  1.00  0.00    -0.269 OA
ATOM      7  H   UNL A   1      34.341  29.792  24.633  1.00  0.00     0.163 HD
BRANCH   5   8
ATOM      8  C   UNL A   1      32.994  26.770  25.199  1.00  0.00     0.083 A 
ATOM      9  C   UNL A   1      31.633  26.513  25.349  1.00  0.00     0.131 A 
ATOM     10  C   UNL A   1      31.215  25.312  25.943  1.00  0.00     0.048 A 
ATOM     11  C   UNL A   1      32.145  24.321  26.287  1.00  0.00     0.025 A 
ATOM     12  C   UNL A   1      33.910  25.779  25.582  1.00  0.00     0.039 A 
ATOM     13  C   UNL A   1      33.506  24.548  26.079  1.00  0.00     0.083 A 
BRANCH   9  14
ATOM     14  O   UNL A   1      30.648  27.383  24.972  1.00  0.00    -0.496 OA
ATOM     15  C   UNL A   1      29.781  26.802  23.996  1.00  0.00     0.278 C 
ENDBRANCH   9  14
BRANCH  13  16
ATOM     16  S   UNL A   1      34.669  23.227  26.380  1.00  0.00     0.243 S 
ATOM     17  O   UNL A   1      35.979  23.792  26.160  1.00  0.00    -0.207 OA
ATOM     18  O   UNL A   1      34.301  22.670  27.670  1.00  0.00    -0.207 OA
BRANCH  16  19
ATOM     19  N   UNL A   1      34.390  22.029  25.229  1.00  0.00    -0.197 NA
ATOM     20  C   UNL A   1      34.298  20.603  25.573  1.00  0.00     0.105 C 
ATOM     21  C   UNL A   1      34.121  22.337  23.816  1.00  0.00     0.105 C 
ATOM     22  C   UNL A   1      32.884  20.091  25.286  1.00  0.00     0.001 C 
ATOM     23  C   UNL A   1      32.692  21.931  23.454  1.00  0.00     0.001 C 
ATOM     24  C   UNL A   1      32.781  18.581  25.503  1.00  0.00     0.009 C 
ATOM     25  C   UNL A   1      32.387  20.478  23.874  1.00  0.00     0.009 C 
ATOM     26  C   UNL A   1      32.407  22.146  21.969  1.00  0.00     0.009 C 
ENDBRANCH  16  19
ENDBRANCH  13  16
ENDBRANCH   5   8
ENDBRANCH   3   4
ENDBRANCH   2   3
ENDBRANCH   1   2
BRANCH   1  27
ATOM     27  C   UNL A   1      32.967  32.380  27.371  1.00  0.00     0.116 C 
BRANCH  27  28
ATOM     28  N   UNL A   1      32.605  33.757  27.666  1.00  0.00    -0.352 N 
ATOM     29  C   UNL A   1      33.144  34.641  28.571  1.00  0.00     0.251 C 
ATOM     30  H   UNL A   1      31.856  34.112  27.135  1.00  0.00     0.163 HD
ATOM     31  O   UNL A   1      32.620  35.740  28.735  1.00  0.00    -0.269 OA
BRANCH  29  32
ATOM     32  C   UNL A   1      34.326  34.259  29.373  1.00  0.00     0.039 A 
ATOM     33  C   UNL A   1      34.126  33.611  30.597  1.00  0.00     0.014 A 
ATOM     34  C   UNL A   1      35.620  34.522  28.923  1.00  0.00     0.014 A 
ATOM     35  C   UNL A   1      35.226  33.146  31.323  1.00  0.00     0.010 A 
ATOM     36  C   UNL A   1      36.711  33.991  29.610  1.00  0.00     0.010 A 
ATOM     37  C   UNL A   1      36.525  33.290  30.812  1.00  0.00    -0.014 A 
BRANCH  37  38
ATOM     38  C   UNL A   1      37.705  32.698  31.496  1.00  0.00     0.031 A 
ATOM     39  C   UNL A   1      38.442  31.545  30.869  1.00  0.00     0.074 A 
ATOM     40  C   UNL A   1      38.038  33.118  32.733  1.00  0.00     0.049 A 
ATOM     41  N   UNL A   1      39.406  30.815  31.366  1.00  0.00    -0.248 NA
ATOM     42  C   UNL A   1      38.015  31.138  29.519  1.00  0.00     0.031 C 
ATOM     43  C   UNL A   1      37.354  34.173  33.483  1.00  0.00     0.029 A 
ATOM     44  N   UNL A   1      39.015  32.681  33.594  1.00  0.00    -0.354 N 
ATOM     45  C   UNL A   1      39.667  29.835  30.416  1.00  0.00     0.074 A 
ATOM     46  C   UNL A   1      38.745  30.050  29.322  1.00  0.00     0.031 C 
ATOM     47  C   UNL A   1      37.928  34.298  34.692  1.00  0.00     0.029 A 
ATOM     48  C   UNL A   1      39.000  33.317  34.815  1.00  0.00     0.049 A 
ATOM     49  H   UNL A   1      39.664  31.979  33.361  1.00  0.00     0.167 HD
ATOM     50  C   UNL A   1      40.609  28.861  30.439  1.00  0.00     0.034 A 
ATOM     51  C   UNL A   1      39.758  33.125  35.914  1.00  0.00     0.034 A 
ATOM     52  C   UNL A   1      41.570  28.693  31.494  1.00  0.00     0.049 A 
ATOM     53  C   UNL A   1      40.844  32.084  35.882  1.00  0.00     0.074 A 
ATOM     54  C   UNL A   1      42.622  27.797  31.564  1.00  0.00     0.029 A 
ATOM     55  N   UNL A   1      41.602  29.441  32.660  1.00  0.00    -0.354 N 
ATOM     56  N   UNL A   1      41.176  31.269  34.910  1.00  0.00    -0.248 NA
ATOM     57  C   UNL A   1      41.686  31.961  37.081  1.00  0.00     0.031 C 
ATOM     58  C   UNL A   1      43.291  28.003  32.775  1.00  0.00     0.029 A 
ATOM     59  C   UNL A   1      42.659  29.032  33.455  1.00  0.00     0.049 A 
ATOM     60  H   UNL A   1      40.967  30.158  32.890  1.00  0.00     0.167 HD
ATOM     61  C   UNL A   1      42.286  30.566  35.363  1.00  0.00     0.074 A 
ATOM     62  C   UNL A   1      42.580  31.061  36.692  1.00  0.00     0.031 C 
ATOM     63  C   UNL A   1      42.987  29.587  34.743  1.00  0.00     0.034 A 
BRANCH  50  64
ATOM     64  C   UNL A   1      40.693  27.942  29.250  1.00  0.00     0.023 A 
ATOM     65  C   UNL A   1      39.845  26.817  29.187  1.00  0.00     0.012 A 
ATOM     66  C   UNL A   1      41.559  28.217  28.174  1.00  0.00     0.148 A 
ATOM     67  C   UNL A   1      39.879  25.963  28.085  1.00  0.00     0.002 A 
ATOM     68  C   UNL A   1      41.558  27.383  27.061  1.00  0.00     0.091 A 
ATOM     69  F   UNL A   1      42.375  29.278  28.262  1.00  0.00    -0.205 F 
ATOM     70  C   UNL A   1      40.727  26.252  27.020  1.00  0.00     0.022 A 
BRANCH  68  71
ATOM     71  S   UNL A   1      42.561  27.712  25.608  1.00  0.00     0.127 S 
ATOM     72  O   UNL A   1      41.957  28.946  25.105  1.00  0.00    -0.237 OA
ATOM     73  O   UNL A   1      43.897  27.879  26.182  1.00  0.00    -0.237 OA
ATOM     74  O   UNL A   1      42.414  26.545  24.749  1.00  0.00    -0.744 OA
ENDBRANCH  68  71
ENDBRANCH  50  64
BRANCH  51  75
ATOM     75  C   UNL A   1      39.569  33.996  37.109  1.00  0.00     0.023 A 
ATOM     76  C   UNL A   1      39.980  35.342  37.047  1.00  0.00     0.012 A 
ATOM     77  C   UNL A   1      38.962  33.518  38.285  1.00  0.00     0.148 A 
ATOM     78  C   UNL A   1      39.818  36.187  38.144  1.00  0.00     0.002 A 
ATOM     79  C   UNL A   1      38.756  34.380  39.357  1.00  0.00     0.091 A 
ATOM     80  F   UNL A   1      38.590  32.231  38.332  1.00  0.00    -0.205 F 
ATOM     81  C   UNL A   1      39.197  35.710  39.296  1.00  0.00     0.022 A 
BRANCH  79  82
ATOM     82  S   UNL A   1      37.846  33.879  40.825  1.00  0.00     0.127 S 
ATOM     83  O   UNL A   1      38.808  33.005  41.490  1.00  0.00    -0.237 OA
ATOM     84  O   UNL A   1      37.612  35.161  41.493  1.00  0.00    -0.237 OA
ATOM     85  O   UNL A   1      36.635  33.238  40.327  1.00  0.00    -0.744 OA
ENDBRANCH  79  82
ENDBRANCH  51  75
BRANCH  63  86
ATOM     86  C   UNL A   1      44.173  29.004  35.462  1.00  0.00     0.023 A 
ATOM     87  C   UNL A   1      45.436  29.611  35.328  1.00  0.00     0.012 A 
ATOM     88  C   UNL A   1      44.014  27.919  36.346  1.00  0.00     0.148 A 
ATOM     89  C   UNL A   1      46.530  29.134  36.049  1.00  0.00     0.002 A 
ATOM     90  C   UNL A   1      45.099  27.476  37.093  1.00  0.00     0.091 A 
ATOM     91  F   UNL A   1      42.807  27.342  36.442  1.00  0.00    -0.205 F 
ATOM     92  C   UNL A   1      46.359  28.077  36.940  1.00  0.00     0.022 A 
BRANCH  90  93
ATOM     93  S   UNL A   1      44.947  26.183  38.332  1.00  0.00     0.127 S 
ATOM     94  O   UNL A   1      46.205  26.321  39.063  1.00  0.00    -0.237 OA
ATOM     95  O   UNL A   1      43.759  26.601  39.077  1.00  0.00    -0.237 OA
ATOM     96  O   UNL A   1      44.784  24.939  37.591  1.00  0.00    -0.744 OA
ENDBRANCH  90  93
ENDBRANCH  63  86
ENDBRANCH  37  38
ENDBRANCH  29  32
ENDBRANCH  27  28
ENDBRANCH   1  27
TORSDOF 17
ENDMDL
MODEL 2
REMARK VINA RESULT:     -12.4      2.507      8.153
REMARK SMILES COc1ccc(S(=O)(=O)N2C[C@H](C)C[C@H](C)C2)cc1C(=O)NCCCCNC(=O)c1ccc(-c2c3nc(c(-c4cccc(S(=O)(=O)[O-])c4F)c4ccc([nH]4)c(-c4cccc(S(=O)(=O)[O-])c4F)c4nc(c(-c5cccc(S(=O)(=O)[O-])c5F)c5ccc2[nH]5)C=C4)C=C3)cc1
REMARK SMILES IDX 25 1 24 2 23 3 22 4 20 5 21 6 19 8 3 9 4 10 5 11 18 12 6 13
REMARK SMILES IDX 2 14 1 15 7 16 8 17 9 18 10 19 11 20 17 21 12 22 15 23 13 24
REMARK SMILES IDX 14 25 16 26 26 27 27 28 28 29 29 31 30 32 31 33 92 34 32 35
REMARK SMILES IDX 91 36 33 37 34 38 35 39 85 40 36 41 90 42 84 43 86 44 37 45
REMARK SMILES IDX 89 46 83 47 82 48 38 50 70 51 50 52 69 53 51 54 54 55 68 56
REMARK SMILES IDX 87 57 52 58 53 59 67 61 88 62 55 63 39 64 40 65 48 66 41 67
REMARK SMILES IDX 43 68 49 69 42 70 44 71 45 72 46 73 47 74 71 75 72 76 80 77
REMARK SMILES IDX 73 78 75 79 81 80 74 81 76 82 77 83 78 84 79 85 56 86 57 87
REMARK SMILES IDX 65 88 58 89 60 90 66 91 59 92 61 93 62 94 63 95 64 96
REMARK H PARENT 22 7 27 30 86 49 54 60
REMARK Flexibility Score: inf
ROOT
ATOM      1  C   UNL A   1      32.257  29.550  25.549  1.00  0.00     0.023 C 
ENDROOT
BRANCH   1   2
ATOM      2  C   UNL A   1      33.516  28.904  24.960  1.00  0.00     0.023 C 
BRANCH   2   3
ATOM      3  C   UNL A   1      33.557  28.760  23.441  1.00  0.00     0.116 C 
BRANCH   3   4
ATOM      4  N   UNL A   1      32.246  28.767  22.831  1.00  0.00    -0.352 N 
ATOM      5  C   UNL A   1      31.435  27.724  22.493  1.00  0.00     0.255 C 
ATOM      6  O   UNL A   1      30.320  27.970  22.033  1.00  0.00    -0.269 OA
ATOM      7  H   UNL A   1      31.885  29.660  22.628  1.00  0.00     0.163 HD
BRANCH   5   8
ATOM      8  C   UNL A   1      31.855  26.304  22.586  1.00  0.00     0.083 A 
ATOM      9  C   UNL A   1      32.615  25.598  21.656  1.00  0.00     0.131 A 
ATOM     10  C   UNL A   1      32.995  24.276  21.932  1.00  0.00     0.048 A 
ATOM     11  C   UNL A   1      32.714  23.694  23.176  1.00  0.00     0.025 A 
ATOM     12  C   UNL A   1      31.555  25.691  23.812  1.00  0.00     0.039 A 
ATOM     13  C   UNL A   1      32.009  24.420  24.135  1.00  0.00     0.083 A 
BRANCH   9  14
ATOM     14  O   UNL A   1      33.005  26.107  20.449  1.00  0.00    -0.496 OA
ATOM     15  C   UNL A   1      32.528  25.307  19.365  1.00  0.00     0.278 C 
ENDBRANCH   9  14
BRANCH  13  16
ATOM     16  S   UNL A   1      31.786  23.728  25.767  1.00  0.00     0.243 S 
ATOM     17  O   UNL A   1      31.777  24.850  26.677  1.00  0.00    -0.207 OA
ATOM     18  O   UNL A   1      30.640  22.841  25.662  1.00  0.00    -0.207 OA
BRANCH  16  19
ATOM     19  N   UNL A   1      33.125  22.765  26.100  1.00  0.00    -0.197 NA
ATOM     20  C   UNL A   1      33.124  21.307  25.906  1.00  0.00     0.105 C 
ATOM     21  C   UNL A   1      34.421  23.325  26.514  1.00  0.00     0.105 C 
ATOM     22  C   UNL A   1      34.123  20.929  24.810  1.00  0.00     0.001 C 
ATOM     23  C   UNL A   1      35.473  23.066  25.436  1.00  0.00     0.001 C 
ATOM     24  C   UNL A   1      34.251  19.412  24.669  1.00  0.00     0.009 C 
ATOM     25  C   UNL A   1      35.509  21.580  25.019  1.00  0.00     0.009 C 
ATOM     26  C   UNL A   1      36.855  23.549  25.872  1.00  0.00     0.009 C 
ENDBRANCH  16  19
ENDBRANCH  13  16
ENDBRANCH   5   8
ENDBRANCH   3   4
ENDBRANCH   2   3
ENDBRANCH   1   2
BRANCH   1  27
ATOM     27  C   UNL A   1      32.361  30.085  26.975  1.00  0.00     0.116 C 
BRANCH  27  28
ATOM     28  N   UNL A   1      32.522  31.528  27.044  1.00  0.00    -0.352 N 
ATOM     29  C   UNL A   1      33.563  32.282  27.533  1.00  0.00     0.251 C 
ATOM     30  H   UNL A   1      31.767  32.047  26.683  1.00  0.00     0.163 HD
ATOM     31  O   UNL A   1      33.457  33.504  27.588  1.00  0.00    -0.269 OA
BRANCH  29  32
ATOM     32  C   UNL A   1      34.791  31.624  28.028  1.00  0.00     0.039 A 
ATOM     33  C   UNL A   1      35.949  32.393  28.185  1.00  0.00     0.014 A 
ATOM     34  C   UNL A   1      34.805  30.265  28.349  1.00  0.00     0.014 A 
ATOM     35  C   UNL A   1      37.091  31.820  28.750  1.00  0.00     0.010 A 
ATOM     36  C   UNL A   1      35.918  29.717  28.982  1.00  0.00     0.010 A 
ATOM     37  C   UNL A   1      37.070  30.490  29.197  1.00  0.00    -0.014 A 
BRANCH  37  38
ATOM     38  C   UNL A   1      38.224  29.887  29.915  1.00  0.00     0.031 A 
ATOM     39  C   UNL A   1      38.579  30.353  31.301  1.00  0.00     0.074 A 
ATOM     40  C   UNL A   1      39.023  29.010  29.274  1.00  0.00     0.049 A 
ATOM     41  N   UNL A   1      39.616  30.045  32.034  1.00  0.00    -0.248 NA
ATOM     42  C   UNL A   1      37.662  31.318  31.933  1.00  0.00     0.031 C 
ATOM     43  C   UNL A   1      38.835  28.537  27.901  1.00  0.00     0.029 A 
ATOM     44  N   UNL A   1      40.178  28.387  29.682  1.00  0.00    -0.354 N 
ATOM     45  C   UNL A   1      39.506  30.812  33.188  1.00  0.00     0.074 A 
ATOM     46  C   UNL A   1      38.312  31.617  33.048  1.00  0.00     0.031 C 
ATOM     47  C   UNL A   1      39.838  27.704  27.579  1.00  0.00     0.029 A 
ATOM     48  C   UNL A   1      40.756  27.604  28.709  1.00  0.00     0.049 A 
ATOM     49  H   UNL A   1      40.556  28.490  30.585  1.00  0.00     0.167 HD
ATOM     50  C   UNL A   1      40.310  30.825  34.278  1.00  0.00     0.034 A 
ATOM     51  C   UNL A   1      41.902  26.893  28.721  1.00  0.00     0.034 A 
ATOM     52  C   UNL A   1      41.456  29.974  34.445  1.00  0.00     0.049 A 
ATOM     53  C   UNL A   1      42.737  26.870  29.973  1.00  0.00     0.074 A 
ATOM     54  C   UNL A   1      42.278  29.845  35.551  1.00  0.00     0.029 A 
ATOM     55  N   UNL A   1      41.939  29.100  33.484  1.00  0.00    -0.354 N 
ATOM     56  N   UNL A   1      42.530  27.484  31.112  1.00  0.00    -0.248 NA
ATOM     57  C   UNL A   1      43.941  26.026  29.956  1.00  0.00     0.031 C 
ATOM     58  C   UNL A   1      43.260  28.893  35.257  1.00  0.00     0.029 A 
ATOM     59  C   UNL A   1      43.043  28.424  33.971  1.00  0.00     0.049 A 
ATOM     60  H   UNL A   1      41.552  28.977  32.586  1.00  0.00     0.167 HD
ATOM     61  C   UNL A   1      43.553  27.073  31.959  1.00  0.00     0.074 A 
ATOM     62  C   UNL A   1      44.370  26.143  31.207  1.00  0.00     0.031 C 
ATOM     63  C   UNL A   1      43.802  27.444  33.237  1.00  0.00     0.034 A 
BRANCH  50  64
ATOM     64  C   UNL A   1      39.937  31.743  35.411  1.00  0.00     0.023 A 
ATOM     65  C   UNL A   1      40.505  33.032  35.470  1.00  0.00     0.012 A 
ATOM     66  C   UNL A   1      38.988  31.360  36.379  1.00  0.00     0.148 A 
ATOM     67  C   UNL A   1      40.158  33.914  36.492  1.00  0.00     0.002 A 
ATOM     68  C   UNL A   1      38.616  32.261  37.371  1.00  0.00     0.091 A 
ATOM     69  F   UNL A   1      38.476  30.121  36.320  1.00  0.00    -0.205 F 
ATOM     70  C   UNL A   1      39.207  33.534  37.434  1.00  0.00     0.022 A 
BRANCH  68  71
ATOM     71  S   UNL A   1      37.346  31.889  38.586  1.00  0.00     0.127 S 
ATOM     72  O   UNL A   1      37.030  30.497  38.265  1.00  0.00    -0.237 OA
ATOM     73  O   UNL A   1      38.060  32.074  39.849  1.00  0.00    -0.237 OA
ATOM     74  O   UNL A   1      36.276  32.847  38.349  1.00  0.00    -0.744 OA
ENDBRANCH  68  71
ENDBRANCH  50  64
BRANCH  51  75
ATOM     75  C   UNL A   1      42.283  26.077  27.533  1.00  0.00     0.023 A 
ATOM     76  C   UNL A   1      43.033  26.679  26.502  1.00  0.00     0.012 A 
ATOM     77  C   UNL A   1      41.943  24.716  27.427  1.00  0.00     0.148 A 
ATOM     78  C   UNL A   1      43.410  25.948  25.376  1.00  0.00     0.002 A 
ATOM     79  C   UNL A   1      42.367  23.980  26.326  1.00  0.00     0.091 A 
ATOM     80  F   UNL A   1      41.217  24.163  28.410  1.00  0.00    -0.205 F 
ATOM     81  C   UNL A   1      43.086  24.596  25.292  1.00  0.00     0.022 A 
BRANCH  79  82
ATOM     82  S   UNL A   1      42.104  22.206  26.205  1.00  0.00     0.127 S 
ATOM     83  O   UNL A   1      40.654  22.126  26.057  1.00  0.00    -0.237 OA
ATOM     84  O   UNL A   1      42.866  21.864  25.002  1.00  0.00    -0.237 OA
ATOM     85  O   UNL A   1      42.655  21.650  27.434  1.00  0.00    -0.744 OA
ENDBRANCH  79  82
ENDBRANCH  51  75
BRANCH  63  86
ATOM     86  C   UNL A   1      44.980  26.820  33.936  1.00  0.00     0.023 A 
ATOM     87  C   UNL A   1      46.229  27.468  33.910  1.00  0.00     0.012 A 
ATOM     88  C   UNL A   1      44.822  25.646  34.699  1.00  0.00     0.148 A 
ATOM     89  C   UNL A   1      47.311  26.946  34.618  1.00  0.00     0.002 A 
ATOM     90  C   UNL A   1      45.892  25.155  35.436  1.00  0.00     0.091 A 
ATOM     91  F   UNL A   1      43.628  25.034  34.692  1.00  0.00    -0.205 F 
ATOM     92  C   UNL A   1      47.140  25.799  35.391  1.00  0.00     0.022 A 
BRANCH  90  93
ATOM     93  S   UNL A   1      45.735  23.739  36.530  1.00  0.00     0.127 S 
ATOM     94  O   UNL A   1      47.133  23.368  36.741  1.00  0.00    -0.237 OA
ATOM     95  O   UNL A   1      45.075  24.319  37.701  1.00  0.00    -0.237 OA
ATOM     96  O   UNL A   1      44.929  22.765  35.807  1.00  0.00    -0.744 OA
ENDBRANCH  90  93
ENDBRANCH  63  86
ENDBRANCH  37  38
ENDBRANCH  29  32
ENDBRANCH  27  28
ENDBRANCH   1  27
TORSDOF 17
ENDMDL
MODEL 3
REMARK VINA RESULT:     -12.3      3.857      8.877
REMARK SMILES COc1ccc(S(=O)(=O)N2C[C@H](C)C[C@H](C)C2)cc1C(=O)NCCCCNC(=O)c1ccc(-c2c3nc(c(-c4cccc(S(=O)(=O)[O-])c4F)c4ccc([nH]4)c(-c4cccc(S(=O)(=O)[O-])c4F)c4nc(c(-c5cccc(S(=O)(=O)[O-])c5F)c5ccc2[nH]5)C=C4)C=C3)cc1
REMARK SMILES IDX 25 1 24 2 23 3 22 4 20 5 21 6 19 8 3 9 4 10 5 11 18 12 6 13
REMARK SMILES IDX 2 14 1 15 7 16 8 17 9 18 10 19 11 20 17 21 12 22 15 23 13 24
REMARK SMILES IDX 14 25 16 26 26 27 27 28 28 29 29 31 30 32 31 33 92 34 32 35
REMARK SMILES IDX 91 36 33 37 34 38 35 39 85 40 36 41 90 42 84 43 86 44 37 45
REMARK SMILES IDX 89 46 83 47 82 48 38 50 70 51 50 52 69 53 51 54 54 55 68 56
REMARK SMILES IDX 87 57 52 58 53 59 67 61 88 62 55 63 39 64 40 65 48 66 41 67
REMARK SMILES IDX 43 68 49 69 42 70 44 71 45 72 46 73 47 74 71 75 72 76 80 77
REMARK SMILES IDX 73 78 75 79 81 80 74 81 76 82 77 83 78 84 79 85 56 86 57 87
REMARK SMILES IDX 65 88 58 89 60 90 66 91 59 92 61 93 62 94 63 95 64 96
REMARK H PARENT 22 7 27 30 86 49 54 60
REMARK Flexibility Score: inf
ROOT
ATOM      1  C   UNL A   1      33.136  28.194  25.945  1.00  0.00     0.023 C 
ENDROOT
BRANCH   1   2
ATOM      2  C   UNL A   1      33.691  29.090  24.831  1.00  0.00     0.023 C 
BRANCH   2   3
ATOM      3  C   UNL A   1      33.660  28.513  23.419  1.00  0.00     0.116 C 
BRANCH   3   4
ATOM      4  N   UNL A   1      32.333  28.477  22.845  1.00  0.00    -0.352 N 
ATOM      5  C   UNL A   1      31.545  27.409  22.534  1.00  0.00     0.255 C 
ATOM      6  O   UNL A   1      30.410  27.621  22.104  1.00  0.00    -0.269 OA
ATOM      7  H   UNL A   1      31.940  29.358  22.648  1.00  0.00     0.163 HD
BRANCH   5   8
ATOM      8  C   UNL A   1      32.008  26.003  22.623  1.00  0.00     0.083 A 
ATOM      9  C   UNL A   1      32.788  25.323  21.689  1.00  0.00     0.131 A 
ATOM     10  C   UNL A   1      33.209  24.012  21.961  1.00  0.00     0.048 A 
ATOM     11  C   UNL A   1      32.949  23.419  23.204  1.00  0.00     0.025 A 
ATOM     12  C   UNL A   1      31.729  25.377  23.847  1.00  0.00     0.039 A 
ATOM     13  C   UNL A   1      32.223  24.120  24.166  1.00  0.00     0.083 A 
BRANCH   9  14
ATOM     14  O   UNL A   1      33.160  25.847  20.483  1.00  0.00    -0.496 OA
ATOM     15  C   UNL A   1      32.273  25.440  19.440  1.00  0.00     0.278 C 
ENDBRANCH   9  14
BRANCH  13  16
ATOM     16  S   UNL A   1      32.024  23.417  25.796  1.00  0.00     0.243 S 
ATOM     17  O   UNL A   1      31.950  24.536  26.706  1.00  0.00    -0.207 OA
ATOM     18  O   UNL A   1      30.927  22.472  25.682  1.00  0.00    -0.207 OA
BRANCH  16  19
ATOM     19  N   UNL A   1      33.410  22.524  26.139  1.00  0.00    -0.197 NA
ATOM     20  C   UNL A   1      33.482  21.067  25.956  1.00  0.00     0.105 C 
ATOM     21  C   UNL A   1      34.675  23.152  26.551  1.00  0.00     0.105 C 
ATOM     22  C   UNL A   1      34.502  20.731  24.865  1.00  0.00     0.001 C 
ATOM     23  C   UNL A   1      35.741  22.938  25.476  1.00  0.00     0.001 C 
ATOM     24  C   UNL A   1      34.706  19.222  24.735  1.00  0.00     0.009 C 
ATOM     25  C   UNL A   1      35.852  21.453  25.071  1.00  0.00     0.009 C 
ATOM     26  C   UNL A   1      37.096  23.493  25.912  1.00  0.00     0.009 C 
ENDBRANCH  16  19
ENDBRANCH  13  16
ENDBRANCH   5   8
ENDBRANCH   3   4
ENDBRANCH   2   3
ENDBRANCH   1   2
BRANCH   1  27
ATOM     27  C   UNL A   1      33.129  28.776  27.356  1.00  0.00     0.116 C 
BRANCH  27  28
ATOM     28  N   UNL A   1      33.364  30.211  27.394  1.00  0.00    -0.352 N 
ATOM     29  C   UNL A   1      34.470  30.917  27.803  1.00  0.00     0.251 C 
ATOM     30  H   UNL A   1      32.613  30.763  27.077  1.00  0.00     0.163 HD
ATOM     31  O   UNL A   1      34.428  32.144  27.848  1.00  0.00    -0.269 OA
BRANCH  29  32
ATOM     32  C   UNL A   1      35.696  30.205  28.225  1.00  0.00     0.039 A 
ATOM     33  C   UNL A   1      36.771  30.131  27.333  1.00  0.00     0.014 A 
ATOM     34  C   UNL A   1      35.795  29.626  29.491  1.00  0.00     0.014 A 
ATOM     35  C   UNL A   1      37.976  29.557  27.746  1.00  0.00     0.010 A 
ATOM     36  C   UNL A   1      37.020  29.123  29.926  1.00  0.00     0.010 A 
ATOM     37  C   UNL A   1      38.125  29.091  29.061  1.00  0.00    -0.014 A 
BRANCH  37  38
ATOM     38  C   UNL A   1      39.430  28.590  29.570  1.00  0.00     0.031 A 
ATOM     39  C   UNL A   1      40.149  29.331  30.664  1.00  0.00     0.074 A 
ATOM     40  C   UNL A   1      40.021  27.539  28.966  1.00  0.00     0.049 A 
ATOM     41  N   UNL A   1      41.346  29.128  31.148  1.00  0.00    -0.248 NA
ATOM     42  C   UNL A   1      39.443  30.473  31.270  1.00  0.00     0.031 C 
ATOM     43  C   UNL A   1      39.465  26.783  27.843  1.00  0.00     0.029 A 
ATOM     44  N   UNL A   1      41.241  26.948  29.190  1.00  0.00    -0.354 N 
ATOM     45  C   UNL A   1      41.557  30.141  32.076  1.00  0.00     0.074 A 
ATOM     46  C   UNL A   1      40.373  30.972  32.071  1.00  0.00     0.031 C 
ATOM     47  C   UNL A   1      40.340  25.833  27.473  1.00  0.00     0.029 A 
ATOM     48  C   UNL A   1      41.531  25.929  28.311  1.00  0.00     0.049 A 
ATOM     49  H   UNL A   1      41.851  27.227  29.910  1.00  0.00     0.167 HD
ATOM     50  C   UNL A   1      42.628  30.345  32.881  1.00  0.00     0.034 A 
ATOM     51  C   UNL A   1      42.634  25.164  28.187  1.00  0.00     0.034 A 
ATOM     52  C   UNL A   1      43.773  29.479  32.934  1.00  0.00     0.049 A 
ATOM     53  C   UNL A   1      43.778  25.368  29.143  1.00  0.00     0.074 A 
ATOM     54  C   UNL A   1      44.865  29.548  33.782  1.00  0.00     0.029 A 
ATOM     55  N   UNL A   1      43.973  28.380  32.114  1.00  0.00    -0.354 N 
ATOM     56  N   UNL A   1      43.891  26.236  30.119  1.00  0.00    -0.248 NA
ATOM     57  C   UNL A   1      44.929  24.464  29.009  1.00  0.00     0.031 C 
ATOM     58  C   UNL A   1      45.726  28.491  33.473  1.00  0.00     0.029 A 
ATOM     59  C   UNL A   1      45.167  27.760  32.437  1.00  0.00     0.049 A 
ATOM     60  H   UNL A   1      43.356  28.085  31.405  1.00  0.00     0.167 HD
ATOM     61  C   UNL A   1      45.104  25.959  30.738  1.00  0.00     0.074 A 
ATOM     62  C   UNL A   1      45.683  24.831  30.037  1.00  0.00     0.031 C 
ATOM     63  C   UNL A   1      45.694  26.591  31.781  1.00  0.00     0.034 A 
BRANCH  50  64
ATOM     64  C   UNL A   1      42.580  31.518  33.824  1.00  0.00     0.023 A 
ATOM     65  C   UNL A   1      43.084  32.764  33.400  1.00  0.00     0.012 A 
ATOM     66  C   UNL A   1      41.988  31.408  35.097  1.00  0.00     0.148 A 
ATOM     67  C   UNL A   1      43.028  33.876  34.240  1.00  0.00     0.002 A 
ATOM     68  C   UNL A   1      41.900  32.530  35.913  1.00  0.00     0.091 A 
ATOM     69  F   UNL A   1      41.536  30.208  35.492  1.00  0.00    -0.205 F 
ATOM     70  C   UNL A   1      42.428  33.761  35.490  1.00  0.00     0.022 A 
BRANCH  68  71
ATOM     71  S   UNL A   1      41.079  32.500  37.510  1.00  0.00     0.127 S 
ATOM     72  O   UNL A   1      41.975  31.643  38.287  1.00  0.00    -0.237 OA
ATOM     73  O   UNL A   1      41.099  33.910  37.898  1.00  0.00    -0.237 OA
ATOM     74  O   UNL A   1      39.749  31.959  37.265  1.00  0.00    -0.744 OA
ENDBRANCH  68  71
ENDBRANCH  50  64
BRANCH  51  75
ATOM     75  C   UNL A   1      42.675  24.078  27.167  1.00  0.00     0.023 A 
ATOM     76  C   UNL A   1      43.345  24.309  25.948  1.00  0.00     0.012 A 
ATOM     77  C   UNL A   1      42.091  22.819  27.400  1.00  0.00     0.148 A 
ATOM     78  C   UNL A   1      43.406  23.317  24.970  1.00  0.00     0.002 A 
ATOM     79  C   UNL A   1      42.201  21.817  26.441  1.00  0.00     0.091 A 
ATOM     80  F   UNL A   1      41.445  22.621  28.558  1.00  0.00    -0.205 F 
ATOM     81  C   UNL A   1      42.843  22.068  25.220  1.00  0.00     0.022 A 
BRANCH  79  82
ATOM     82  S   UNL A   1      41.619  20.143  26.739  1.00  0.00     0.127 S 
ATOM     83  O   UNL A   1      41.834  19.514  25.439  1.00  0.00    -0.237 OA
ATOM     84  O   UNL A   1      42.520  19.688  27.800  1.00  0.00    -0.237 OA
ATOM     85  O   UNL A   1      40.231  20.286  27.160  1.00  0.00    -0.744 OA
ENDBRANCH  79  82
ENDBRANCH  51  75
BRANCH  63  86
ATOM     86  C   UNL A   1      47.015  26.063  32.270  1.00  0.00     0.023 A 
ATOM     87  C   UNL A   1      47.044  25.112  33.308  1.00  0.00     0.012 A 
ATOM     88  C   UNL A   1      48.217  26.436  31.636  1.00  0.00     0.148 A 
ATOM     89  C   UNL A   1      48.253  24.552  33.721  1.00  0.00     0.002 A 
ATOM     90  C   UNL A   1      49.411  25.842  32.023  1.00  0.00     0.091 A 
ATOM     91  F   UNL A   1      48.168  27.359  30.664  1.00  0.00    -0.205 F 
ATOM     92  C   UNL A   1      49.433  24.906  33.070  1.00  0.00     0.022 A 
BRANCH  90  93
ATOM     93  S   UNL A   1      50.964  26.170  31.178  1.00  0.00     0.127 S 
ATOM     94  O   UNL A   1      50.644  25.781  29.806  1.00  0.00    -0.237 OA
ATOM     95  O   UNL A   1      51.132  27.610  31.380  1.00  0.00    -0.237 OA
ATOM     96  O   UNL A   1      51.963  25.349  31.849  1.00  0.00    -0.744 OA
ENDBRANCH  90  93
ENDBRANCH  63  86
ENDBRANCH  37  38
ENDBRANCH  29  32
ENDBRANCH  27  28
ENDBRANCH   1  27
TORSDOF 17
ENDMDL
