MODEL 1
REMARK VINA RESULT:     -13.6      0.000      0.000
REMARK SMILES O=C1[NH+]=C(Nc2ccc(C(=O)NCCCCNC(=O)c3ccc(-c4c5nc(c(-c6cccc(S(=O)(=O)[O-])c6F)c6ccc([nH]6)c(-c6cccc(S(=O)(=O)[O-])c6F)c6nc(c(-c7cccc(S(=O)(=O)[O-])c7F)c7ccc4[nH]7)C=C6)C=C5)cc3)c(O)c2)S/C1=C\c1ccc[nH]1
REMARK SMILES IDX 15 1 14 2 13 3 12 4 10 5 11 6 9 8 6 9 7 10 85 11 8 12 83 13
REMARK SMILES IDX 5 14 1 15 2 16 3 17 87 18 4 19 86 21 88 22 89 24 90 25 93 26
REMARK SMILES IDX 91 27 92 28 84 30 16 32 17 33 18 34 19 36 20 37 21 38 82 39
REMARK SMILES IDX 22 40 81 41 23 42 24 43 25 44 75 45 26 46 80 47 74 48 76 49
REMARK SMILES IDX 27 50 79 51 73 52 72 53 28 55 60 56 40 57 59 58 41 59 44 60
REMARK SMILES IDX 58 61 77 62 42 63 43 64 57 66 78 67 45 68 29 69 30 70 38 71
REMARK SMILES IDX 31 72 33 73 39 74 32 75 34 76 35 77 36 78 37 79 61 80 62 81
REMARK SMILES IDX 70 82 63 83 65 84 71 85 64 86 66 87 67 88 68 89 69 90 46 91
REMARK SMILES IDX 47 92 55 93 48 94 50 95 56 96 49 97 51 98 52 99 53 100
REMARK SMILES IDX 54 101
REMARK H PARENT 12 7 3 20 5 23 93 29 84 31 17 35 76 54 44 65
REMARK Flexibility Score: inf
ROOT
ATOM      1  C   UNL A   1      31.785  31.742  26.708  1.00  0.00     0.023 C 
ENDROOT
BRANCH   1   2
ATOM      2  C   UNL A   1      32.010  30.237  26.583  1.00  0.00     0.023 C 
BRANCH   2   3
ATOM      3  C   UNL A   1      32.161  29.685  25.169  1.00  0.00     0.116 C 
BRANCH   3   4
ATOM      4  N   UNL A   1      30.963  29.754  24.349  1.00  0.00    -0.352 N 
ATOM      5  C   UNL A   1      30.250  28.748  23.738  1.00  0.00     0.255 C 
ATOM      6  O   UNL A   1      29.246  29.029  23.088  1.00  0.00    -0.269 OA
ATOM      7  H   UNL A   1      30.606  30.662  24.208  1.00  0.00     0.163 HD
BRANCH   5   8
ATOM      8  C   UNL A   1      30.692  27.333  23.794  1.00  0.00     0.081 A 
ATOM      9  C   UNL A   1      31.256  24.580  24.084  1.00  0.00     0.129 A 
ATOM     10  C   UNL A   1      30.982  25.374  25.201  1.00  0.00     0.053 A 
ATOM     11  C   UNL A   1      31.316  25.198  22.829  1.00  0.00     0.098 A 
ATOM     12  C   UNL A   1      30.707  26.737  25.062  1.00  0.00     0.022 A 
ATOM     13  C   UNL A   1      31.080  26.568  22.693  1.00  0.00     0.132 A 
BRANCH   9  14
ATOM     14  N   UNL A   1      31.387  23.189  24.166  1.00  0.00    -0.234 N 
ATOM     15  O   UNL A   1      35.817  22.084  25.139  1.00  0.00    -0.240 OA
ATOM     16  C   UNL A   1      34.642  21.918  24.838  1.00  0.00     0.346 C 
ATOM     17  N   UNL A   1      33.727  22.924  24.628  1.00  0.00    -0.199 N 
ATOM     18  C   UNL A   1      34.029  20.571  24.661  1.00  0.00     0.111 C 
ATOM     19  C   UNL A   1      32.540  22.491  24.367  1.00  0.00     0.322 C 
ATOM     20  H   UNL A   1      33.957  23.879  24.672  1.00  0.00     0.316 HD
ATOM     21  S   UNL A   1      32.359  20.751  24.304  1.00  0.00     0.006 SA
ATOM     22  C   UNL A   1      34.739  19.443  24.801  1.00  0.00     0.050 C 
ATOM     23  H   UNL A   1      30.562  22.660  24.069  1.00  0.00     0.313 HD
BRANCH  22  24
ATOM     24  C   UNL A   1      34.187  18.161  24.569  1.00  0.00     0.039 A 
ATOM     25  C   UNL A   1      33.874  17.452  23.426  1.00  0.00     0.027 A 
ATOM     26  N   UNL A   1      33.859  17.376  25.647  1.00  0.00    -0.362 N 
ATOM     27  C   UNL A   1      33.308  16.219  23.828  1.00  0.00     0.020 A 
ATOM     28  C   UNL A   1      33.302  16.201  25.203  1.00  0.00     0.083 A 
ATOM     29  H   UNL A   1      34.002  17.617  26.590  1.00  0.00     0.166 HD
ENDBRANCH  22  24
ENDBRANCH   9  14
BRANCH  13  30
ATOM     30  O   UNL A   1      31.280  27.077  21.440  1.00  0.00    -0.507 OA
ATOM     31  H   UNL A   1      30.549  27.359  20.927  1.00  0.00     0.293 HD
ENDBRANCH  13  30
ENDBRANCH   5   8
ENDBRANCH   3   4
ENDBRANCH   2   3
ENDBRANCH   1   2
BRANCH   1  32
ATOM     32  C   UNL A   1      32.918  32.547  27.332  1.00  0.00     0.116 C 
BRANCH  32  33
ATOM     33  N   UNL A   1      32.562  33.929  27.631  1.00  0.00    -0.352 N 
ATOM     34  C   UNL A   1      33.098  34.797  28.555  1.00  0.00     0.251 C 
ATOM     35  H   UNL A   1      31.826  34.296  27.090  1.00  0.00     0.163 HD
ATOM     36  O   UNL A   1      32.584  35.900  28.727  1.00  0.00    -0.269 OA
BRANCH  34  37
ATOM     37  C   UNL A   1      34.266  34.391  29.368  1.00  0.00     0.039 A 
ATOM     38  C   UNL A   1      34.050  33.821  30.627  1.00  0.00     0.014 A 
ATOM     39  C   UNL A   1      35.565  34.537  28.881  1.00  0.00     0.014 A 
ATOM     40  C   UNL A   1      35.133  33.311  31.349  1.00  0.00     0.010 A 
ATOM     41  C   UNL A   1      36.625  33.940  29.554  1.00  0.00     0.010 A 
ATOM     42  C   UNL A   1      36.425  33.320  30.797  1.00  0.00    -0.014 A 
BRANCH  42  43
ATOM     43  C   UNL A   1      37.570  32.668  31.489  1.00  0.00     0.031 A 
ATOM     44  C   UNL A   1      38.284  31.508  30.850  1.00  0.00     0.074 A 
ATOM     45  C   UNL A   1      37.907  33.059  32.735  1.00  0.00     0.049 A 
ATOM     46  N   UNL A   1      39.259  30.776  31.326  1.00  0.00    -0.248 NA
ATOM     47  C   UNL A   1      37.825  31.094  29.512  1.00  0.00     0.031 C 
ATOM     48  C   UNL A   1      37.241  34.114  33.502  1.00  0.00     0.029 A 
ATOM     49  N   UNL A   1      38.879  32.595  33.589  1.00  0.00    -0.354 N 
ATOM     50  C   UNL A   1      39.500  29.795  30.371  1.00  0.00     0.074 A 
ATOM     51  C   UNL A   1      38.546  30.002  29.304  1.00  0.00     0.031 C 
ATOM     52  C   UNL A   1      37.827  34.222  34.706  1.00  0.00     0.029 A 
ATOM     53  C   UNL A   1      38.883  33.221  34.814  1.00  0.00     0.049 A 
ATOM     54  H   UNL A   1      39.513  31.882  33.347  1.00  0.00     0.167 HD
ATOM     55  C   UNL A   1      40.447  28.827  30.366  1.00  0.00     0.034 A 
ATOM     56  C   UNL A   1      39.639  33.005  35.910  1.00  0.00     0.034 A 
ATOM     57  C   UNL A   1      41.417  28.645  31.411  1.00  0.00     0.049 A 
ATOM     58  C   UNL A   1      40.704  31.944  35.867  1.00  0.00     0.074 A 
ATOM     59  C   UNL A   1      42.474  27.754  31.455  1.00  0.00     0.029 A 
ATOM     60  N   UNL A   1      41.439  29.350  32.604  1.00  0.00    -0.354 N 
ATOM     61  N   UNL A   1      41.022  31.133  34.888  1.00  0.00    -0.248 NA
ATOM     62  C   UNL A   1      41.541  31.792  37.067  1.00  0.00     0.031 C 
ATOM     63  C   UNL A   1      43.110  27.892  32.693  1.00  0.00     0.029 A 
ATOM     64  C   UNL A   1      42.480  28.904  33.398  1.00  0.00     0.049 A 
ATOM     65  H   UNL A   1      40.807  30.065  32.849  1.00  0.00     0.167 HD
ATOM     66  C   UNL A   1      42.116  30.401  35.337  1.00  0.00     0.074 A 
ATOM     67  C   UNL A   1      42.418  30.881  36.670  1.00  0.00     0.031 C 
ATOM     68  C   UNL A   1      42.803  29.418  34.705  1.00  0.00     0.034 A 
BRANCH  55  69
ATOM     69  C   UNL A   1      40.503  27.907  29.173  1.00  0.00     0.023 A 
ATOM     70  C   UNL A   1      39.601  26.826  29.077  1.00  0.00     0.012 A 
ATOM     71  C   UNL A   1      41.410  28.144  28.121  1.00  0.00     0.148 A 
ATOM     72  C   UNL A   1      39.629  25.973  27.975  1.00  0.00     0.002 A 
ATOM     73  C   UNL A   1      41.396  27.320  27.002  1.00  0.00     0.091 A 
ATOM     74  F   UNL A   1      42.272  29.163  28.238  1.00  0.00    -0.205 F 
ATOM     75  C   UNL A   1      40.518  26.226  26.933  1.00  0.00     0.022 A 
BRANCH  73  76
ATOM     76  S   UNL A   1      42.442  27.611  25.571  1.00  0.00     0.127 S 
ATOM     77  O   UNL A   1      43.770  27.655  26.181  1.00  0.00    -0.237 OA
ATOM     78  O   UNL A   1      42.184  26.422  24.758  1.00  0.00    -0.237 OA
ATOM     79  O   UNL A   1      41.983  28.861  24.984  1.00  0.00    -0.744 OA
ENDBRANCH  73  76
ENDBRANCH  55  69
BRANCH  56  80
ATOM     80  C   UNL A   1      39.447  33.846  37.127  1.00  0.00     0.023 A 
ATOM     81  C   UNL A   1      39.918  35.173  37.138  1.00  0.00     0.012 A 
ATOM     82  C   UNL A   1      38.783  33.343  38.262  1.00  0.00     0.148 A 
ATOM     83  C   UNL A   1      39.764  35.972  38.272  1.00  0.00     0.002 A 
ATOM     84  C   UNL A   1      38.580  34.163  39.366  1.00  0.00     0.091 A 
ATOM     85  F   UNL A   1      38.349  32.075  38.233  1.00  0.00    -0.205 F 
ATOM     86  C   UNL A   1      39.087  35.472  39.381  1.00  0.00     0.022 A 
BRANCH  84  87
ATOM     87  S   UNL A   1      37.607  33.647  40.784  1.00  0.00     0.127 S 
ATOM     88  O   UNL A   1      36.410  33.108  40.145  1.00  0.00    -0.237 OA
ATOM     89  O   UNL A   1      38.482  32.648  41.399  1.00  0.00    -0.237 OA
ATOM     90  O   UNL A   1      37.407  34.847  41.584  1.00  0.00    -0.744 OA
ENDBRANCH  84  87
ENDBRANCH  56  80
BRANCH  68  91
ATOM     91  C   UNL A   1      43.988  28.819  35.417  1.00  0.00     0.023 A 
ATOM     92  C   UNL A   1      45.274  29.363  35.239  1.00  0.00     0.012 A 
ATOM     93  C   UNL A   1      43.806  27.757  36.327  1.00  0.00     0.148 A 
ATOM     94  C   UNL A   1      46.368  28.838  35.927  1.00  0.00     0.002 A 
ATOM     95  C   UNL A   1      44.890  27.275  37.050  1.00  0.00     0.091 A 
ATOM     96  F   UNL A   1      42.578  27.241  36.470  1.00  0.00    -0.205 F 
ATOM     97  C   UNL A   1      46.174  27.805  36.840  1.00  0.00     0.022 A 
BRANCH  95  98
ATOM     98  S   UNL A   1      44.719  26.018  38.320  1.00  0.00     0.127 S 
ATOM     99  O   UNL A   1      43.813  26.669  39.264  1.00  0.00    -0.237 OA
ATOM    100  O   UNL A   1      44.129  24.905  37.576  1.00  0.00    -0.237 OA
ATOM    101  O   UNL A   1      46.063  25.765  38.822  1.00  0.00    -0.744 OA
ENDBRANCH  95  98
ENDBRANCH  68  91
ENDBRANCH  42  43
ENDBRANCH  34  37
ENDBRANCH  32  33
ENDBRANCH   1  32
TORSDOF 17
ENDMDL
MODEL 2
REMARK VINA RESULT:     -13.3      6.276     12.009
REMARK SMILES O=C1[NH+]=C(Nc2ccc(C(=O)NCCCCNC(=O)c3ccc(-c4c5nc(c(-c6cccc(S(=O)(=O)[O-])c6F)c6ccc([nH]6)c(-c6cccc(S(=O)(=O)[O-])c6F)c6nc(c(-c7cccc(S(=O)(=O)[O-])c7F)c7ccc4[nH]7)C=C6)C=C5)cc3)c(O)c2)S/C1=C\c1ccc[nH]1
REMARK SMILES IDX 15 1 14 2 13 3 12 4 10 5 11 6 9 8 6 9 7 10 85 11 8 12 83 13
REMARK SMILES IDX 5 14 1 15 2 16 3 17 87 18 4 19 86 21 88 22 89 24 90 25 93 26
REMARK SMILES IDX 91 27 92 28 84 30 16 32 17 33 18 34 19 36 20 37 21 38 82 39
REMARK SMILES IDX 22 40 81 41 23 42 24 43 25 44 75 45 26 46 80 47 74 48 76 49
REMARK SMILES IDX 27 50 79 51 73 52 72 53 28 55 60 56 40 57 59 58 41 59 44 60
REMARK SMILES IDX 58 61 77 62 42 63 43 64 57 66 78 67 45 68 29 69 30 70 38 71
REMARK SMILES IDX 31 72 33 73 39 74 32 75 34 76 35 77 36 78 37 79 61 80 62 81
REMARK SMILES IDX 70 82 63 83 65 84 71 85 64 86 66 87 67 88 68 89 69 90 46 91
REMARK SMILES IDX 47 92 55 93 48 94 50 95 56 96 49 97 51 98 52 99 53 100
REMARK SMILES IDX 54 101
REMARK H PARENT 12 7 3 20 5 23 93 29 84 31 17 35 76 54 44 65
REMARK Flexibility Score: inf
ROOT
ATOM      1  C   UNL A   1      38.287  19.920  24.820  1.00  0.00     0.023 C 
ENDROOT
BRANCH   1   2
ATOM      2  C   UNL A   1      37.565  21.265  24.773  1.00  0.00     0.023 C 
BRANCH   2   3
ATOM      3  C   UNL A   1      36.204  21.332  25.458  1.00  0.00     0.116 C 
BRANCH   3   4
ATOM      4  N   UNL A   1      35.291  20.252  25.123  1.00  0.00    -0.352 N 
ATOM      5  C   UNL A   1      34.008  20.301  24.629  1.00  0.00     0.255 C 
ATOM      6  O   UNL A   1      33.408  19.253  24.404  1.00  0.00    -0.269 OA
ATOM      7  H   UNL A   1      35.645  19.345  25.273  1.00  0.00     0.163 HD
BRANCH   5   8
ATOM      8  C   UNL A   1      33.302  21.588  24.412  1.00  0.00     0.081 A 
ATOM      9  C   UNL A   1      32.035  24.002  23.672  1.00  0.00     0.129 A 
ATOM     10  C   UNL A   1      33.353  23.740  23.286  1.00  0.00     0.053 A 
ATOM     11  C   UNL A   1      31.387  23.073  24.494  1.00  0.00     0.098 A 
ATOM     12  C   UNL A   1      33.985  22.549  23.655  1.00  0.00     0.022 A 
ATOM     13  C   UNL A   1      32.031  21.900  24.895  1.00  0.00     0.132 A 
BRANCH   9  14
ATOM     14  N   UNL A   1      31.321  25.110  23.199  1.00  0.00    -0.234 N 
ATOM     15  O   UNL A   1      32.429  28.882  25.716  1.00  0.00    -0.240 OA
ATOM     16  C   UNL A   1      31.834  28.196  24.894  1.00  0.00     0.346 C 
ATOM     17  N   UNL A   1      32.050  26.855  24.677  1.00  0.00    -0.199 N 
ATOM     18  C   UNL A   1      30.777  28.736  23.993  1.00  0.00     0.111 C 
ATOM     19  C   UNL A   1      31.330  26.367  23.724  1.00  0.00     0.322 C 
ATOM     20  H   UNL A   1      32.691  26.320  25.198  1.00  0.00     0.316 HD
ATOM     21  S   UNL A   1      30.229  27.487  22.949  1.00  0.00     0.006 SA
ATOM     22  C   UNL A   1      30.390  30.018  24.041  1.00  0.00     0.050 C 
ATOM     23  H   UNL A   1      30.754  24.965  22.408  1.00  0.00     0.313 HD
BRANCH  22  24
ATOM     24  C   UNL A   1      29.341  30.528  23.240  1.00  0.00     0.039 A 
ATOM     25  C   UNL A   1      27.964  30.480  23.331  1.00  0.00     0.027 A 
ATOM     26  N   UNL A   1      29.657  31.237  22.107  1.00  0.00    -0.362 N 
ATOM     27  C   UNL A   1      27.436  31.149  22.202  1.00  0.00     0.020 A 
ATOM     28  C   UNL A   1      28.502  31.599  21.458  1.00  0.00     0.083 A 
ATOM     29  H   UNL A   1      30.569  31.454  21.808  1.00  0.00     0.166 HD
ENDBRANCH  22  24
ENDBRANCH   9  14
BRANCH  13  30
ATOM     30  O   UNL A   1      31.342  21.128  25.789  1.00  0.00    -0.507 OA
ATOM     31  H   UNL A   1      30.518  21.422  26.124  1.00  0.00     0.293 HD
ENDBRANCH  13  30
ENDBRANCH   5   8
ENDBRANCH   3   4
ENDBRANCH   2   3
ENDBRANCH   1   2
BRANCH   1  32
ATOM     32  C   UNL A   1      38.978  19.568  26.131  1.00  0.00     0.116 C 
BRANCH  32  33
ATOM     33  N   UNL A   1      40.271  18.916  25.958  1.00  0.00    -0.352 N 
ATOM     34  C   UNL A   1      41.541  19.440  26.046  1.00  0.00     0.251 C 
ATOM     35  H   UNL A   1      40.228  17.956  25.745  1.00  0.00     0.163 HD
ATOM     36  O   UNL A   1      42.510  18.741  25.761  1.00  0.00    -0.269 OA
BRANCH  34  37
ATOM     37  C   UNL A   1      41.737  20.851  26.445  1.00  0.00     0.039 A 
ATOM     38  C   UNL A   1      42.264  21.131  27.709  1.00  0.00     0.014 A 
ATOM     39  C   UNL A   1      41.438  21.894  25.567  1.00  0.00     0.014 A 
ATOM     40  C   UNL A   1      42.580  22.449  28.051  1.00  0.00     0.010 A 
ATOM     41  C   UNL A   1      41.845  23.189  25.869  1.00  0.00     0.010 A 
ATOM     42  C   UNL A   1      42.421  23.485  27.114  1.00  0.00    -0.014 A 
BRANCH  42  43
ATOM     43  C   UNL A   1      42.869  24.873  27.408  1.00  0.00     0.031 A 
ATOM     44  C   UNL A   1      41.925  25.858  28.044  1.00  0.00     0.074 A 
ATOM     45  C   UNL A   1      44.095  25.277  27.016  1.00  0.00     0.049 A 
ATOM     46  N   UNL A   1      42.115  27.124  28.317  1.00  0.00    -0.248 NA
ATOM     47  C   UNL A   1      40.581  25.368  28.392  1.00  0.00     0.031 C 
ATOM     48  C   UNL A   1      45.076  24.447  26.314  1.00  0.00     0.029 A 
ATOM     49  N   UNL A   1      44.716  26.498  27.128  1.00  0.00    -0.354 N 
ATOM     50  C   UNL A   1      40.909  27.588  28.828  1.00  0.00     0.074 A 
ATOM     51  C   UNL A   1      39.981  26.479  28.792  1.00  0.00     0.031 C 
ATOM     52  C   UNL A   1      46.176  25.176  26.065  1.00  0.00     0.029 A 
ATOM     53  C   UNL A   1      45.966  26.536  26.554  1.00  0.00     0.049 A 
ATOM     54  H   UNL A   1      44.306  27.271  27.577  1.00  0.00     0.167 HD
ATOM     55  C   UNL A   1      40.605  28.817  29.309  1.00  0.00     0.034 A 
ATOM     56  C   UNL A   1      46.842  27.553  26.419  1.00  0.00     0.034 A 
ATOM     57  C   UNL A   1      41.539  29.908  29.375  1.00  0.00     0.049 A 
ATOM     58  C   UNL A   1      46.492  28.900  26.990  1.00  0.00     0.074 A 
ATOM     59  C   UNL A   1      41.355  31.162  29.931  1.00  0.00     0.029 A 
ATOM     60  N   UNL A   1      42.823  29.886  28.854  1.00  0.00    -0.354 N 
ATOM     61  N   UNL A   1      45.403  29.274  27.614  1.00  0.00    -0.248 NA
ATOM     62  C   UNL A   1      47.507  29.958  26.869  1.00  0.00     0.031 C 
ATOM     63  C   UNL A   1      42.514  31.912  29.708  1.00  0.00     0.029 A 
ATOM     64  C   UNL A   1      43.437  31.109  29.059  1.00  0.00     0.049 A 
ATOM     65  H   UNL A   1      43.237  29.113  28.405  1.00  0.00     0.167 HD
ATOM     66  C   UNL A   1      45.614  30.595  27.995  1.00  0.00     0.074 A 
ATOM     67  C   UNL A   1      46.945  30.949  27.546  1.00  0.00     0.031 C 
ATOM     68  C   UNL A   1      44.779  31.438  28.650  1.00  0.00     0.034 A 
BRANCH  55  69
ATOM     69  C   UNL A   1      39.210  29.039  29.836  1.00  0.00     0.023 A 
ATOM     70  C   UNL A   1      38.884  28.644  31.150  1.00  0.00     0.012 A 
ATOM     71  C   UNL A   1      38.238  29.689  29.050  1.00  0.00     0.148 A 
ATOM     72  C   UNL A   1      37.603  28.853  31.658  1.00  0.00     0.002 A 
ATOM     73  C   UNL A   1      36.979  29.941  29.582  1.00  0.00     0.091 A 
ATOM     74  F   UNL A   1      38.559  30.041  27.797  1.00  0.00    -0.205 F 
ATOM     75  C   UNL A   1      36.655  29.511  30.879  1.00  0.00     0.022 A 
BRANCH  73  76
ATOM     76  S   UNL A   1      35.716  30.856  28.692  1.00  0.00     0.127 S 
ATOM     77  O   UNL A   1      35.046  31.569  29.780  1.00  0.00    -0.237 OA
ATOM     78  O   UNL A   1      36.518  31.705  27.811  1.00  0.00    -0.237 OA
ATOM     79  O   UNL A   1      34.905  29.861  28.005  1.00  0.00    -0.744 OA
ENDBRANCH  73  76
ENDBRANCH  55  69
BRANCH  56  80
ATOM     80  C   UNL A   1      48.157  27.323  25.754  1.00  0.00     0.023 A 
ATOM     81  C   UNL A   1      49.266  26.922  26.524  1.00  0.00     0.012 A 
ATOM     82  C   UNL A   1      48.306  27.479  24.363  1.00  0.00     0.148 A 
ATOM     83  C   UNL A   1      50.510  26.718  25.925  1.00  0.00     0.002 A 
ATOM     84  C   UNL A   1      49.533  27.217  23.764  1.00  0.00     0.091 A 
ATOM     85  F   UNL A   1      47.241  27.868  23.650  1.00  0.00    -0.205 F 
ATOM     86  C   UNL A   1      50.642  26.854  24.546  1.00  0.00     0.022 A 
BRANCH  84  87
ATOM     87  S   UNL A   1      49.762  27.239  21.984  1.00  0.00     0.127 S 
ATOM     88  O   UNL A   1      49.525  28.646  21.670  1.00  0.00    -0.237 OA
ATOM     89  O   UNL A   1      51.154  26.805  21.856  1.00  0.00    -0.237 OA
ATOM     90  O   UNL A   1      48.787  26.301  21.447  1.00  0.00    -0.744 OA
ENDBRANCH  84  87
ENDBRANCH  56  80
BRANCH  68  91
ATOM     91  C   UNL A   1      45.288  32.819  28.975  1.00  0.00     0.023 A 
ATOM     92  C   UNL A   1      46.010  33.049  30.163  1.00  0.00     0.012 A 
ATOM     93  C   UNL A   1      45.112  33.874  28.058  1.00  0.00     0.148 A 
ATOM     94  C   UNL A   1      46.517  34.316  30.449  1.00  0.00     0.002 A 
ATOM     95  C   UNL A   1      45.667  35.119  28.323  1.00  0.00     0.091 A 
ATOM     96  F   UNL A   1      44.408  33.640  26.941  1.00  0.00    -0.205 F 
ATOM     97  C   UNL A   1      46.358  35.346  29.525  1.00  0.00     0.022 A 
BRANCH  95  98
ATOM     98  S   UNL A   1      45.601  36.475  27.147  1.00  0.00     0.127 S 
ATOM     99  O   UNL A   1      46.243  35.884  25.974  1.00  0.00    -0.237 OA
ATOM    100  O   UNL A   1      44.161  36.695  27.010  1.00  0.00    -0.237 OA
ATOM    101  O   UNL A   1      46.326  37.579  27.763  1.00  0.00    -0.744 OA
ENDBRANCH  95  98
ENDBRANCH  68  91
ENDBRANCH  42  43
ENDBRANCH  34  37
ENDBRANCH  32  33
ENDBRANCH   1  32
TORSDOF 17
ENDMDL
MODEL 3
REMARK VINA RESULT:     -13.3      3.353      8.498
REMARK SMILES O=C1[NH+]=C(Nc2ccc(C(=O)NCCCCNC(=O)c3ccc(-c4c5nc(c(-c6cccc(S(=O)(=O)[O-])c6F)c6ccc([nH]6)c(-c6cccc(S(=O)(=O)[O-])c6F)c6nc(c(-c7cccc(S(=O)(=O)[O-])c7F)c7ccc4[nH]7)C=C6)C=C5)cc3)c(O)c2)S/C1=C\c1ccc[nH]1
REMARK SMILES IDX 15 1 14 2 13 3 12 4 10 5 11 6 9 8 6 9 7 10 85 11 8 12 83 13
REMARK SMILES IDX 5 14 1 15 2 16 3 17 87 18 4 19 86 21 88 22 89 24 90 25 93 26
REMARK SMILES IDX 91 27 92 28 84 30 16 32 17 33 18 34 19 36 20 37 21 38 82 39
REMARK SMILES IDX 22 40 81 41 23 42 24 43 25 44 75 45 26 46 80 47 74 48 76 49
REMARK SMILES IDX 27 50 79 51 73 52 72 53 28 55 60 56 40 57 59 58 41 59 44 60
REMARK SMILES IDX 58 61 77 62 42 63 43 64 57 66 78 67 45 68 29 69 30 70 38 71
REMARK SMILES IDX 31 72 33 73 39 74 32 75 34 76 35 77 36 78 37 79 61 80 62 81
REMARK SMILES IDX 70 82 63 83 65 84 71 85 64 86 66 87 67 88 68 89 69 90 46 91
REMARK SMILES IDX 47 92 55 93 48 94 50 95 56 96 49 97 51 98 52 99 53 100
REMARK SMILES IDX 54 101
REMARK H PARENT 12 7 3 20 5 23 93 29 84 31 17 35 76 54 44 65
REMARK Flexibility Score: inf
ROOT
ATOM      1  C   UNL A   1      33.035  28.565  25.847  1.00  0.00     0.023 C 
ENDROOT
BRANCH   1   2
ATOM      2  C   UNL A   1      32.564  29.710  24.954  1.00  0.00     0.023 C 
BRANCH   2   3
ATOM      3  C   UNL A   1      31.061  29.967  24.912  1.00  0.00     0.116 C 
BRANCH   3   4
ATOM      4  N   UNL A   1      30.492  30.085  23.578  1.00  0.00    -0.352 N 
ATOM      5  C   UNL A   1      30.303  29.126  22.610  1.00  0.00     0.255 C 
ATOM      6  O   UNL A   1      29.789  29.443  21.540  1.00  0.00    -0.269 OA
ATOM      7  H   UNL A   1      30.198  30.991  23.330  1.00  0.00     0.163 HD
BRANCH   5   8
ATOM      8  C   UNL A   1      30.755  27.725  22.798  1.00  0.00     0.081 A 
ATOM      9  C   UNL A   1      31.317  24.966  23.028  1.00  0.00     0.129 A 
ATOM     10  C   UNL A   1      30.134  25.499  23.547  1.00  0.00     0.053 A 
ATOM     11  C   UNL A   1      32.247  25.845  22.459  1.00  0.00     0.098 A 
ATOM     12  C   UNL A   1      29.855  26.864  23.440  1.00  0.00     0.022 A 
ATOM     13  C   UNL A   1      31.986  27.215  22.385  1.00  0.00     0.132 A 
BRANCH   9  14
ATOM     14  N   UNL A   1      31.563  23.589  22.982  1.00  0.00    -0.234 N 
ATOM     15  O   UNL A   1      32.937  22.099  27.187  1.00  0.00    -0.240 OA
ATOM     16  C   UNL A   1      32.695  22.057  25.987  1.00  0.00     0.346 C 
ATOM     17  N   UNL A   1      32.275  23.123  25.226  1.00  0.00    -0.199 N 
ATOM     18  C   UNL A   1      32.820  20.815  25.173  1.00  0.00     0.111 C 
ATOM     19  C   UNL A   1      32.043  22.815  23.995  1.00  0.00     0.322 C 
ATOM     20  H   UNL A   1      32.164  24.032  25.585  1.00  0.00     0.316 HD
ATOM     21  S   UNL A   1      32.338  21.145  23.558  1.00  0.00     0.006 SA
ATOM     22  C   UNL A   1      33.231  19.655  25.705  1.00  0.00     0.050 C 
ATOM     23  H   UNL A   1      31.371  23.133  22.130  1.00  0.00     0.313 HD
BRANCH  22  24
ATOM     24  C   UNL A   1      33.419  18.486  24.931  1.00  0.00     0.039 A 
ATOM     25  C   UNL A   1      32.555  17.564  24.374  1.00  0.00     0.027 A 
ATOM     26  N   UNL A   1      34.698  18.101  24.611  1.00  0.00    -0.362 N 
ATOM     27  C   UNL A   1      33.338  16.576  23.732  1.00  0.00     0.020 A 
ATOM     28  C   UNL A   1      34.657  16.927  23.901  1.00  0.00     0.083 A 
ATOM     29  H   UNL A   1      35.516  18.592  24.852  1.00  0.00     0.166 HD
ENDBRANCH  22  24
ENDBRANCH   9  14
BRANCH  13  30
ATOM     30  O   UNL A   1      33.014  27.984  21.916  1.00  0.00    -0.507 OA
ATOM     31  H   UNL A   1      32.858  28.875  21.669  1.00  0.00     0.293 HD
ENDBRANCH  13  30
ENDBRANCH   5   8
ENDBRANCH   3   4
ENDBRANCH   2   3
ENDBRANCH   1   2
BRANCH   1  32
ATOM     32  C   UNL A   1      33.325  28.915  27.301  1.00  0.00     0.116 C 
BRANCH  32  33
ATOM     33  N   UNL A   1      33.508  30.342  27.537  1.00  0.00    -0.352 N 
ATOM     34  C   UNL A   1      34.583  31.018  28.068  1.00  0.00     0.251 C 
ATOM     35  H   UNL A   1      32.746  30.908  27.277  1.00  0.00     0.163 HD
ATOM     36  O   UNL A   1      34.501  32.225  28.282  1.00  0.00    -0.269 OA
BRANCH  34  37
ATOM     37  C   UNL A   1      35.823  30.287  28.416  1.00  0.00     0.039 A 
ATOM     38  C   UNL A   1      36.892  30.298  27.515  1.00  0.00     0.014 A 
ATOM     39  C   UNL A   1      35.945  29.624  29.638  1.00  0.00     0.014 A 
ATOM     40  C   UNL A   1      38.113  29.727  27.884  1.00  0.00     0.010 A 
ATOM     41  C   UNL A   1      37.188  29.147  30.041  1.00  0.00     0.010 A 
ATOM     42  C   UNL A   1      38.288  29.191  29.171  1.00  0.00    -0.014 A 
BRANCH  42  43
ATOM     43  C   UNL A   1      39.613  28.695  29.632  1.00  0.00     0.031 A 
ATOM     44  C   UNL A   1      40.354  29.412  30.729  1.00  0.00     0.074 A 
ATOM     45  C   UNL A   1      40.194  27.655  29.000  1.00  0.00     0.049 A 
ATOM     46  N   UNL A   1      41.542  29.166  31.219  1.00  0.00    -0.248 NA
ATOM     47  C   UNL A   1      39.687  30.577  31.336  1.00  0.00     0.031 C 
ATOM     48  C   UNL A   1      39.622  26.925  27.867  1.00  0.00     0.029 A 
ATOM     49  N   UNL A   1      41.410  27.047  29.203  1.00  0.00    -0.354 N 
ATOM     50  C   UNL A   1      41.781  30.164  32.156  1.00  0.00     0.074 A 
ATOM     51  C   UNL A   1      40.631  31.041  32.141  1.00  0.00     0.031 C 
ATOM     52  C   UNL A   1      40.478  25.966  27.480  1.00  0.00     0.029 A 
ATOM     53  C   UNL A   1      41.678  26.035  28.310  1.00  0.00     0.049 A 
ATOM     54  H   UNL A   1      42.031  27.311  29.919  1.00  0.00     0.167 HD
ATOM     55  C   UNL A   1      42.847  30.323  32.977  1.00  0.00     0.034 A 
ATOM     56  C   UNL A   1      42.770  25.258  28.161  1.00  0.00     0.034 A 
ATOM     57  C   UNL A   1      43.973  29.431  33.014  1.00  0.00     0.049 A 
ATOM     58  C   UNL A   1      43.928  25.436  29.106  1.00  0.00     0.074 A 
ATOM     59  C   UNL A   1      45.057  29.453  33.874  1.00  0.00     0.029 A 
ATOM     60  N   UNL A   1      44.173  28.369  32.147  1.00  0.00    -0.354 N 
ATOM     61  N   UNL A   1      44.064  26.286  30.093  1.00  0.00    -0.248 NA
ATOM     62  C   UNL A   1      45.069  24.522  28.939  1.00  0.00     0.031 C 
ATOM     63  C   UNL A   1      45.933  28.430  33.498  1.00  0.00     0.029 A 
ATOM     64  C   UNL A   1      45.370  27.739  32.438  1.00  0.00     0.049 A 
ATOM     65  H   UNL A   1      43.553  28.101  31.429  1.00  0.00     0.167 HD
ATOM     66  C   UNL A   1      45.284  25.987  30.690  1.00  0.00     0.074 A 
ATOM     67  C   UNL A   1      45.839  24.863  29.962  1.00  0.00     0.031 C 
ATOM     68  C   UNL A   1      45.892  26.592  31.739  1.00  0.00     0.034 A 
BRANCH  55  69
ATOM     69  C   UNL A   1      42.830  31.492  33.929  1.00  0.00     0.023 A 
ATOM     70  C   UNL A   1      43.376  32.730  33.530  1.00  0.00     0.012 A 
ATOM     71  C   UNL A   1      42.226  31.381  35.197  1.00  0.00     0.148 A 
ATOM     72  C   UNL A   1      43.358  33.825  34.392  1.00  0.00     0.002 A 
ATOM     73  C   UNL A   1      42.165  32.492  36.029  1.00  0.00     0.091 A 
ATOM     74  F   UNL A   1      41.729  30.192  35.567  1.00  0.00    -0.205 F 
ATOM     75  C   UNL A   1      42.743  33.710  35.636  1.00  0.00     0.022 A 
BRANCH  73  76
ATOM     76  S   UNL A   1      41.321  32.470  37.615  1.00  0.00     0.127 S 
ATOM     77  O   UNL A   1      42.169  31.563  38.388  1.00  0.00    -0.237 OA
ATOM     78  O   UNL A   1      41.400  33.873  38.021  1.00  0.00    -0.237 OA
ATOM     79  O   UNL A   1      39.974  31.988  37.349  1.00  0.00    -0.744 OA
ENDBRANCH  73  76
ENDBRANCH  55  69
BRANCH  56  80
ATOM     80  C   UNL A   1      42.801  24.208  27.103  1.00  0.00     0.023 A 
ATOM     81  C   UNL A   1      43.482  24.456  25.895  1.00  0.00     0.012 A 
ATOM     82  C   UNL A   1      42.178  22.960  27.297  1.00  0.00     0.148 A 
ATOM     83  C   UNL A   1      43.509  23.494  24.884  1.00  0.00     0.002 A 
ATOM     84  C   UNL A   1      42.259  21.985  26.310  1.00  0.00     0.091 A 
ATOM     85  F   UNL A   1      41.529  22.747  28.450  1.00  0.00    -0.205 F 
ATOM     86  C   UNL A   1      42.908  22.256  25.095  1.00  0.00     0.022 A 
BRANCH  84  87
ATOM     87  S   UNL A   1      41.629  20.320  26.546  1.00  0.00     0.127 S 
ATOM     88  O   UNL A   1      40.187  20.550  26.586  1.00  0.00    -0.237 OA
ATOM     89  O   UNL A   1      42.112  19.644  25.340  1.00  0.00    -0.237 OA
ATOM     90  O   UNL A   1      42.226  19.842  27.784  1.00  0.00    -0.744 OA
ENDBRANCH  84  87
ENDBRANCH  56  80
BRANCH  68  91
ATOM     91  C   UNL A   1      47.208  26.029  32.209  1.00  0.00     0.023 A 
ATOM     92  C   UNL A   1      48.419  26.502  31.667  1.00  0.00     0.012 A 
ATOM     93  C   UNL A   1      47.242  25.078  33.250  1.00  0.00     0.148 A 
ATOM     94  C   UNL A   1      49.641  26.013  32.127  1.00  0.00     0.002 A 
ATOM     95  C   UNL A   1      48.464  24.637  33.741  1.00  0.00     0.091 A 
ATOM     96  F   UNL A   1      46.079  24.628  33.742  1.00  0.00    -0.205 F 
ATOM     97  C   UNL A   1      49.663  25.092  33.172  1.00  0.00     0.022 A 
BRANCH  95  98
ATOM     98  S   UNL A   1      48.593  23.530  35.150  1.00  0.00     0.127 S 
ATOM     99  O   UNL A   1      50.042  23.403  35.297  1.00  0.00    -0.237 OA
ATOM    100  O   UNL A   1      47.938  24.300  36.209  1.00  0.00    -0.237 OA
ATOM    101  O   UNL A   1      47.896  22.309  34.770  1.00  0.00    -0.744 OA
ENDBRANCH  95  98
ENDBRANCH  68  91
ENDBRANCH  42  43
ENDBRANCH  34  37
ENDBRANCH  32  33
ENDBRANCH   1  32
TORSDOF 17
ENDMDL
