MODEL 1
REMARK VINA RESULT:     -13.0      0.000      0.000
REMARK SMILES Cc1cc(C(=O)N[C@@H]2C(=O)N3C(C(=O)NCCCCNC(=O)c4ccc(-c5c6nc(c(-c7cccc(S(=O)(=O)[O-])c7F)c7ccc([nH]7)c(-c7cccc(S(=O)(=O)[O-])c7F)c7nc(c(-c8cccc(S(=O)(=O)[O-])c8F)c8ccc5[nH]8)C=C7)C=C6)cc4)=C(CSc4nnc(C)s4)CS[C@H]23)n(C)n1
REMARK SMILES IDX 17 1 16 2 15 3 13 4 14 5 12 7 8 8 9 9 97 10 10 11 11 12
REMARK SMILES IDX 96 13 95 14 86 15 7 16 5 17 6 18 4 20 1 21 2 22 3 23 100 24
REMARK SMILES IDX 98 25 99 26 87 27 88 28 89 29 90 30 94 31 91 32 92 33 93 34
REMARK SMILES IDX 18 35 19 36 20 37 21 38 22 40 23 41 24 42 85 43 25 44 84 45
REMARK SMILES IDX 26 46 27 47 28 48 78 49 29 50 83 51 77 52 79 53 30 54 82 55
REMARK SMILES IDX 76 56 75 57 31 59 63 60 43 61 62 62 44 63 47 64 61 65 80 66
REMARK SMILES IDX 45 67 46 68 60 70 81 71 48 72 32 73 33 74 41 75 34 76 36 77
REMARK SMILES IDX 42 78 35 79 37 80 38 81 39 82 40 83 64 84 65 85 73 86 66 87
REMARK SMILES IDX 68 88 74 89 67 90 69 91 70 92 71 93 72 94 49 95 50 96 58 97
REMARK SMILES IDX 51 98 53 99 59 100 52 101 54 102 55 103 56 104 57 105
REMARK H PARENT 15 6 7 19 20 39 79 58 47 69
REMARK Flexibility Score: inf
ROOT
ATOM      1  C   UNL A   1      31.435  30.838  25.794  1.00  0.00     0.023 C 
ENDROOT
BRANCH   1   2
ATOM      2  C   UNL A   1      32.754  30.084  26.001  1.00  0.00     0.116 C 
BRANCH   2   3
ATOM      3  N   UNL A   1      33.328  29.697  24.730  1.00  0.00    -0.351 N 
ATOM      4  C   UNL A   1      33.174  28.700  23.828  1.00  0.00     0.268 C 
ATOM      5  O   UNL A   1      33.757  28.930  22.759  1.00  0.00    -0.268 OA
ATOM      6  H   UNL A   1      34.021  30.334  24.444  1.00  0.00     0.163 HD
BRANCH   4   7
ATOM      7  C   UNL A   1      32.233  27.483  23.921  1.00  0.00     0.111 C 
ATOM      8  C   UNL A   1      33.456  24.702  25.553  1.00  0.00     0.206 C 
ATOM      9  C   UNL A   1      33.577  26.249  25.633  1.00  0.00     0.253 C 
ATOM     10  C   UNL A   1      32.346  25.032  24.516  1.00  0.00     0.181 C 
ATOM     11  O   UNL A   1      33.988  27.015  26.485  1.00  0.00    -0.272 OA
ATOM     12  N   UNL A   1      32.885  26.376  24.457  1.00  0.00    -0.290 N 
ATOM     13  S   UNL A   1      30.633  25.096  25.132  1.00  0.00    -0.129 SA
ATOM     14  C   UNL A   1      30.158  26.048  23.689  1.00  0.00     0.106 C 
ATOM     15  C   UNL A   1      30.881  27.382  23.726  1.00  0.00    -0.020 C 
BRANCH   8  16
ATOM     16  N   UNL A   1      33.124  23.967  26.805  1.00  0.00    -0.336 N 
ATOM     17  C   UNL A   1      33.079  22.607  27.047  1.00  0.00     0.270 C 
ATOM     18  O   UNL A   1      32.814  22.237  28.189  1.00  0.00    -0.268 OA
ATOM     19  H   UNL A   1      32.904  24.536  27.578  1.00  0.00     0.164 HD
BRANCH  17  20
ATOM     20  C   UNL A   1      33.266  21.691  25.942  1.00  0.00     0.126 A 
ATOM     21  C   UNL A   1      32.457  18.660  24.104  1.00  0.00     0.069 C 
ATOM     22  C   UNL A   1      33.034  19.919  24.633  1.00  0.00     0.060 A 
ATOM     23  C   UNL A   1      32.349  21.053  25.120  1.00  0.00     0.059 A 
ATOM     24  N   UNL A   1      34.350  20.043  24.809  1.00  0.00    -0.178 NA
ATOM     25  N   UNL A   1      34.478  21.178  25.534  1.00  0.00    -0.263 N 
ATOM     26  C   UNL A   1      35.816  21.623  25.843  1.00  0.00     0.174 C 
ENDBRANCH  17  20
ENDBRANCH   8  16
BRANCH  15  27
ATOM     27  C   UNL A   1      29.876  28.494  23.915  1.00  0.00     0.111 C 
BRANCH  27  28
ATOM     28  S   UNL A   1      28.566  28.217  22.720  1.00  0.00    -0.089 SA
BRANCH  28  29
ATOM     29  C   UNL A   1      27.773  29.732  22.544  1.00  0.00     0.174 A 
ATOM     30  N   UNL A   1      26.954  30.216  23.452  1.00  0.00    -0.132 NA
ATOM     31  S   UNL A   1      28.453  30.918  21.513  1.00  0.00    -0.091 S 
ATOM     32  N   UNL A   1      27.175  31.575  23.618  1.00  0.00    -0.143 NA
ATOM     33  C   UNL A   1      28.112  32.007  22.796  1.00  0.00     0.115 A 
ATOM     34  C   UNL A   1      28.954  33.208  22.986  1.00  0.00     0.081 C 
ENDBRANCH  28  29
ENDBRANCH  27  28
ENDBRANCH  15  27
ENDBRANCH   4   7
ENDBRANCH   2   3
ENDBRANCH   1   2
BRANCH   1  35
ATOM     35  C   UNL A   1      31.285  32.173  26.494  1.00  0.00     0.023 C 
BRANCH  35  36
ATOM     36  C   UNL A   1      32.591  32.846  26.851  1.00  0.00     0.116 C 
BRANCH  36  37
ATOM     37  N   UNL A   1      32.450  34.082  27.615  1.00  0.00    -0.352 N 
ATOM     38  C   UNL A   1      33.315  34.563  28.576  1.00  0.00     0.251 C 
ATOM     39  H   UNL A   1      31.655  34.629  27.424  1.00  0.00     0.163 HD
ATOM     40  O   UNL A   1      33.072  35.595  29.190  1.00  0.00    -0.269 OA
BRANCH  38  41
ATOM     41  C   UNL A   1      34.517  33.758  28.877  1.00  0.00     0.039 A 
ATOM     42  C   UNL A   1      35.776  34.343  28.742  1.00  0.00     0.014 A 
ATOM     43  C   UNL A   1      34.366  32.511  29.487  1.00  0.00     0.014 A 
ATOM     44  C   UNL A   1      36.882  33.709  29.312  1.00  0.00     0.010 A 
ATOM     45  C   UNL A   1      35.443  31.956  30.161  1.00  0.00     0.010 A 
ATOM     46  C   UNL A   1      36.716  32.541  30.075  1.00  0.00    -0.014 A 
BRANCH  46  47
ATOM     47  C   UNL A   1      37.853  31.906  30.792  1.00  0.00     0.031 A 
ATOM     48  C   UNL A   1      38.675  30.854  30.095  1.00  0.00     0.074 A 
ATOM     49  C   UNL A   1      38.085  32.198  32.088  1.00  0.00     0.049 A 
ATOM     50  N   UNL A   1      39.657  30.130  30.565  1.00  0.00    -0.248 NA
ATOM     51  C   UNL A   1      38.319  30.542  28.699  1.00  0.00     0.031 C 
ATOM     52  C   UNL A   1      37.298  33.124  32.908  1.00  0.00     0.029 A 
ATOM     53  N   UNL A   1      39.041  31.725  32.955  1.00  0.00    -0.354 N 
ATOM     54  C   UNL A   1      40.001  29.253  29.543  1.00  0.00     0.074 A 
ATOM     55  C   UNL A   1      39.089  29.495  28.449  1.00  0.00     0.031 C 
ATOM     56  C   UNL A   1      37.814  33.165  34.147  1.00  0.00     0.029 A 
ATOM     57  C   UNL A   1      38.945  32.247  34.224  1.00  0.00     0.049 A 
ATOM     58  H   UNL A   1      39.728  31.072  32.692  1.00  0.00     0.167 HD
ATOM     59  C   UNL A   1      41.013  28.357  29.499  1.00  0.00     0.034 A 
ATOM     60  C   UNL A   1      39.687  32.012  35.326  1.00  0.00     0.034 A 
ATOM     61  C   UNL A   1      41.957  28.164  30.563  1.00  0.00     0.049 A 
ATOM     62  C   UNL A   1      40.844  31.053  35.233  1.00  0.00     0.074 A 
ATOM     63  C   UNL A   1      43.078  27.355  30.582  1.00  0.00     0.029 A 
ATOM     64  N   UNL A   1      41.889  28.787  31.800  1.00  0.00    -0.354 N 
ATOM     65  N   UNL A   1      41.256  30.355  34.202  1.00  0.00    -0.248 NA
ATOM     66  C   UNL A   1      41.664  30.879  36.441  1.00  0.00     0.031 C 
ATOM     67  C   UNL A   1      43.676  27.470  31.840  1.00  0.00     0.029 A 
ATOM     68  C   UNL A   1      42.944  28.375  32.593  1.00  0.00     0.049 A 
ATOM     69  H   UNL A   1      41.191  29.426  32.072  1.00  0.00     0.167 HD
ATOM     70  C   UNL A   1      42.402  29.691  34.624  1.00  0.00     0.074 A 
ATOM     71  C   UNL A   1      42.630  30.085  35.999  1.00  0.00     0.031 C 
ATOM     72  C   UNL A   1      43.188  28.823  33.940  1.00  0.00     0.034 A 
BRANCH  59  73
ATOM     73  C   UNL A   1      41.184  27.560  28.232  1.00  0.00     0.023 A 
ATOM     74  C   UNL A   1      41.819  28.148  27.118  1.00  0.00     0.012 A 
ATOM     75  C   UNL A   1      40.757  26.222  28.155  1.00  0.00     0.148 A 
ATOM     76  C   UNL A   1      41.990  27.431  25.936  1.00  0.00     0.002 A 
ATOM     77  C   UNL A   1      40.975  25.496  26.990  1.00  0.00     0.091 A 
ATOM     78  F   UNL A   1      40.133  25.686  29.215  1.00  0.00    -0.205 F 
ATOM     79  C   UNL A   1      41.579  26.102  25.876  1.00  0.00     0.022 A 
BRANCH  77  80
ATOM     80  S   UNL A   1      40.559  23.756  26.840  1.00  0.00     0.127 S 
ATOM     81  O   UNL A   1      39.138  23.822  26.501  1.00  0.00    -0.237 OA
ATOM     82  O   UNL A   1      41.427  23.326  25.742  1.00  0.00    -0.237 OA
ATOM     83  O   UNL A   1      40.866  23.155  28.129  1.00  0.00    -0.744 OA
ENDBRANCH  77  80
ENDBRANCH  59  73
BRANCH  60  84
ATOM     84  C   UNL A   1      39.405  32.749  36.592  1.00  0.00     0.023 A 
ATOM     85  C   UNL A   1      40.044  33.982  36.833  1.00  0.00     0.012 A 
ATOM     86  C   UNL A   1      38.498  32.250  37.547  1.00  0.00     0.148 A 
ATOM     87  C   UNL A   1      39.814  34.685  38.016  1.00  0.00     0.002 A 
ATOM     88  C   UNL A   1      38.229  32.983  38.697  1.00  0.00     0.091 A 
ATOM     89  F   UNL A   1      37.907  31.072  37.305  1.00  0.00    -0.205 F 
ATOM     90  C   UNL A   1      38.900  34.192  38.943  1.00  0.00     0.022 A 
BRANCH  88  91
ATOM     91  S   UNL A   1      36.971  32.493  39.880  1.00  0.00     0.127 S 
ATOM     92  O   UNL A   1      35.773  32.458  39.046  1.00  0.00    -0.237 OA
ATOM     93  O   UNL A   1      37.459  31.183  40.314  1.00  0.00    -0.237 OA
ATOM     94  O   UNL A   1      36.991  33.513  40.919  1.00  0.00    -0.744 OA
ENDBRANCH  88  91
ENDBRANCH  60  84
BRANCH  72  95
ATOM     95  C   UNL A   1      44.400  28.272  34.641  1.00  0.00     0.023 A 
ATOM     96  C   UNL A   1      45.652  28.898  34.485  1.00  0.00     0.012 A 
ATOM     97  C   UNL A   1      44.277  27.183  35.527  1.00  0.00     0.148 A 
ATOM     98  C   UNL A   1      46.769  28.430  35.174  1.00  0.00     0.002 A 
ATOM     99  C   UNL A   1      45.381  26.754  36.251  1.00  0.00     0.091 A 
ATOM    100  F   UNL A   1      43.079  26.591  35.648  1.00  0.00    -0.205 F 
ATOM    101  C   UNL A   1      46.631  27.368  36.066  1.00  0.00     0.022 A 
BRANCH  99 102
ATOM    102  S   UNL A   1      45.275  25.464  37.496  1.00  0.00     0.127 S 
ATOM    103  O   UNL A   1      44.145  25.921  38.303  1.00  0.00    -0.237 OA
ATOM    104  O   UNL A   1      45.005  24.275  36.687  1.00  0.00    -0.237 OA
ATOM    105  O   UNL A   1      46.564  25.454  38.174  1.00  0.00    -0.744 OA
ENDBRANCH  99 102
ENDBRANCH  72  95
ENDBRANCH  46  47
ENDBRANCH  38  41
ENDBRANCH  36  37
ENDBRANCH  35  36
ENDBRANCH   1  35
TORSDOF 19
ENDMDL
MODEL 2
REMARK VINA RESULT:     -12.7      2.538      7.754
REMARK SMILES Cc1cc(C(=O)N[C@@H]2C(=O)N3C(C(=O)NCCCCNC(=O)c4ccc(-c5c6nc(c(-c7cccc(S(=O)(=O)[O-])c7F)c7ccc([nH]7)c(-c7cccc(S(=O)(=O)[O-])c7F)c7nc(c(-c8cccc(S(=O)(=O)[O-])c8F)c8ccc5[nH]8)C=C7)C=C6)cc4)=C(CSc4nnc(C)s4)CS[C@H]23)n(C)n1
REMARK SMILES IDX 17 1 16 2 15 3 13 4 14 5 12 7 8 8 9 9 97 10 10 11 11 12
REMARK SMILES IDX 96 13 95 14 86 15 7 16 5 17 6 18 4 20 1 21 2 22 3 23 100 24
REMARK SMILES IDX 98 25 99 26 87 27 88 28 89 29 90 30 94 31 91 32 92 33 93 34
REMARK SMILES IDX 18 35 19 36 20 37 21 38 22 40 23 41 24 42 85 43 25 44 84 45
REMARK SMILES IDX 26 46 27 47 28 48 78 49 29 50 83 51 77 52 79 53 30 54 82 55
REMARK SMILES IDX 76 56 75 57 31 59 63 60 43 61 62 62 44 63 47 64 61 65 80 66
REMARK SMILES IDX 45 67 46 68 60 70 81 71 48 72 32 73 33 74 41 75 34 76 36 77
REMARK SMILES IDX 42 78 35 79 37 80 38 81 39 82 40 83 64 84 65 85 73 86 66 87
REMARK SMILES IDX 68 88 74 89 67 90 69 91 70 92 71 93 72 94 49 95 50 96 58 97
REMARK SMILES IDX 51 98 53 99 59 100 52 101 54 102 55 103 56 104 57 105
REMARK H PARENT 15 6 7 19 20 39 79 58 47 69
REMARK Flexibility Score: inf
ROOT
ATOM      1  C   UNL A   1      33.876  28.807  24.957  1.00  0.00     0.023 C 
ENDROOT
BRANCH   1   2
ATOM      2  C   UNL A   1      33.484  29.253  23.543  1.00  0.00     0.116 C 
BRANCH   2   3
ATOM      3  N   UNL A   1      33.735  28.198  22.585  1.00  0.00    -0.351 N 
ATOM      4  C   UNL A   1      33.179  27.015  22.235  1.00  0.00     0.268 C 
ATOM      5  O   UNL A   1      33.639  26.566  21.176  1.00  0.00    -0.268 OA
ATOM      6  H   UNL A   1      34.529  28.395  22.038  1.00  0.00     0.163 HD
BRANCH   4   7
ATOM      7  C   UNL A   1      31.961  26.321  22.875  1.00  0.00     0.111 C 
ATOM      8  C   UNL A   1      32.609  23.586  24.872  1.00  0.00     0.206 C 
ATOM      9  C   UNL A   1      33.274  24.938  24.496  1.00  0.00     0.253 C 
ATOM     10  C   UNL A   1      31.410  24.169  24.075  1.00  0.00     0.181 C 
ATOM     11  O   UNL A   1      34.174  25.596  24.984  1.00  0.00    -0.272 OA
ATOM     12  N   UNL A   1      32.328  25.146  23.525  1.00  0.00    -0.290 N 
ATOM     13  S   UNL A   1      30.120  25.026  25.034  1.00  0.00    -0.129 SA
ATOM     14  C   UNL A   1      29.563  25.843  23.539  1.00  0.00     0.106 C 
ATOM     15  C   UNL A   1      30.670  26.752  23.039  1.00  0.00    -0.020 C 
BRANCH   8  16
ATOM     16  N   UNL A   1      32.468  23.262  26.319  1.00  0.00    -0.336 N 
ATOM     17  C   UNL A   1      33.226  22.427  27.117  1.00  0.00     0.270 C 
ATOM     18  O   UNL A   1      32.933  22.352  28.309  1.00  0.00    -0.268 OA
ATOM     19  H   UNL A   1      31.721  23.712  26.777  1.00  0.00     0.164 HD
BRANCH  17  20
ATOM     20  C   UNL A   1      34.267  21.628  26.507  1.00  0.00     0.126 A 
ATOM     21  C   UNL A   1      37.294  21.258  24.526  1.00  0.00     0.069 C 
ATOM     22  C   UNL A   1      36.057  21.077  25.324  1.00  0.00     0.060 A 
ATOM     23  C   UNL A   1      35.642  21.801  26.463  1.00  0.00     0.059 A 
ATOM     24  N   UNL A   1      35.112  20.224  24.929  1.00  0.00    -0.178 NA
ATOM     25  N   UNL A   1      34.055  20.515  25.723  1.00  0.00    -0.263 N 
ATOM     26  C   UNL A   1      32.869  19.706  25.575  1.00  0.00     0.174 C 
ENDBRANCH  17  20
ENDBRANCH   8  16
BRANCH  15  27
ATOM     27  C   UNL A   1      30.228  28.193  23.146  1.00  0.00     0.111 C 
BRANCH  27  28
ATOM     28  S   UNL A   1      28.437  28.176  23.268  1.00  0.00    -0.089 SA
BRANCH  28  29
ATOM     29  C   UNL A   1      27.925  29.738  22.764  1.00  0.00     0.174 A 
ATOM     30  N   UNL A   1      26.982  30.412  23.385  1.00  0.00    -0.132 NA
ATOM     31  S   UNL A   1      28.992  30.713  21.846  1.00  0.00    -0.091 S 
ATOM     32  N   UNL A   1      27.339  31.749  23.486  1.00  0.00    -0.143 NA
ATOM     33  C   UNL A   1      28.498  31.976  22.899  1.00  0.00     0.115 A 
ATOM     34  C   UNL A   1      29.423  33.091  23.196  1.00  0.00     0.081 C 
ENDBRANCH  28  29
ENDBRANCH  27  28
ENDBRANCH  15  27
ENDBRANCH   4   7
ENDBRANCH   2   3
ENDBRANCH   1   2
BRANCH   1  35
ATOM     35  C   UNL A   1      32.760  28.673  25.973  1.00  0.00     0.023 C 
BRANCH  35  36
ATOM     36  C   UNL A   1      33.154  29.028  27.388  1.00  0.00     0.116 C 
BRANCH  36  37
ATOM     37  N   UNL A   1      33.347  30.455  27.627  1.00  0.00    -0.352 N 
ATOM     38  C   UNL A   1      34.505  31.074  28.051  1.00  0.00     0.251 C 
ATOM     39  H   UNL A   1      32.569  31.036  27.468  1.00  0.00     0.163 HD
ATOM     40  O   UNL A   1      34.540  32.280  28.264  1.00  0.00    -0.269 OA
BRANCH  38  41
ATOM     41  C   UNL A   1      35.686  30.220  28.293  1.00  0.00     0.039 A 
ATOM     42  C   UNL A   1      36.738  30.243  27.377  1.00  0.00     0.014 A 
ATOM     43  C   UNL A   1      35.820  29.575  29.524  1.00  0.00     0.014 A 
ATOM     44  C   UNL A   1      37.968  29.693  27.744  1.00  0.00     0.010 A 
ATOM     45  C   UNL A   1      37.076  29.151  29.930  1.00  0.00     0.010 A 
ATOM     46  C   UNL A   1      38.163  29.195  29.043  1.00  0.00    -0.014 A 
BRANCH  46  47
ATOM     47  C   UNL A   1      39.490  28.710  29.504  1.00  0.00     0.031 A 
ATOM     48  C   UNL A   1      40.197  29.432  30.622  1.00  0.00     0.074 A 
ATOM     49  C   UNL A   1      40.101  27.693  28.863  1.00  0.00     0.049 A 
ATOM     50  N   UNL A   1      41.386  29.216  31.121  1.00  0.00    -0.248 NA
ATOM     51  C   UNL A   1      39.495  30.577  31.229  1.00  0.00     0.031 C 
ATOM     52  C   UNL A   1      39.568  26.975  27.702  1.00  0.00     0.029 A 
ATOM     53  N   UNL A   1      41.321  27.099  29.084  1.00  0.00    -0.354 N 
ATOM     54  C   UNL A   1      41.588  30.219  32.061  1.00  0.00     0.074 A 
ATOM     55  C   UNL A   1      40.426  31.076  32.026  1.00  0.00     0.031 C 
ATOM     56  C   UNL A   1      40.445  26.029  27.327  1.00  0.00     0.029 A 
ATOM     57  C   UNL A   1      41.615  26.090  28.195  1.00  0.00     0.049 A 
ATOM     58  H   UNL A   1      41.927  27.371  29.809  1.00  0.00     0.167 HD
ATOM     59  C   UNL A   1      42.626  30.388  32.912  1.00  0.00     0.034 A 
ATOM     60  C   UNL A   1      42.707  25.305  28.092  1.00  0.00     0.034 A 
ATOM     61  C   UNL A   1      43.749  29.498  32.989  1.00  0.00     0.049 A 
ATOM     62  C   UNL A   1      43.822  25.476  29.089  1.00  0.00     0.074 A 
ATOM     63  C   UNL A   1      44.805  29.521  33.881  1.00  0.00     0.029 A 
ATOM     64  N   UNL A   1      43.965  28.425  32.138  1.00  0.00    -0.354 N 
ATOM     65  N   UNL A   1      43.918  26.327  30.082  1.00  0.00    -0.248 NA
ATOM     66  C   UNL A   1      44.961  24.553  28.979  1.00  0.00     0.031 C 
ATOM     67  C   UNL A   1      45.673  28.475  33.555  1.00  0.00     0.029 A 
ATOM     68  C   UNL A   1      45.140  27.782  32.479  1.00  0.00     0.049 A 
ATOM     69  H   UNL A   1      43.369  28.161  31.400  1.00  0.00     0.167 HD
ATOM     70  C   UNL A   1      45.105  26.019  30.736  1.00  0.00     0.074 A 
ATOM     71  C   UNL A   1      45.684  24.889  30.039  1.00  0.00     0.031 C 
ATOM     72  C   UNL A   1      45.672  26.623  31.810  1.00  0.00     0.034 A 
BRANCH  59  73
ATOM     73  C   UNL A   1      42.561  31.550  33.868  1.00  0.00     0.023 A 
ATOM     74  C   UNL A   1      43.194  32.766  33.535  1.00  0.00     0.012 A 
ATOM     75  C   UNL A   1      41.840  31.455  35.074  1.00  0.00     0.148 A 
ATOM     76  C   UNL A   1      43.145  33.855  34.404  1.00  0.00     0.002 A 
ATOM     77  C   UNL A   1      41.753  32.560  35.912  1.00  0.00     0.091 A 
ATOM     78  F   UNL A   1      41.265  30.284  35.386  1.00  0.00    -0.205 F 
ATOM     79  C   UNL A   1      42.416  33.756  35.585  1.00  0.00     0.022 A 
BRANCH  77  80
ATOM     80  S   UNL A   1      40.771  32.562  37.415  1.00  0.00     0.127 S 
ATOM     81  O   UNL A   1      40.433  33.979  37.543  1.00  0.00    -0.237 OA
ATOM     82  O   UNL A   1      39.648  31.699  37.049  1.00  0.00    -0.237 OA
ATOM     83  O   UNL A   1      41.633  32.030  38.460  1.00  0.00    -0.744 OA
ENDBRANCH  77  80
ENDBRANCH  59  73
BRANCH  60  84
ATOM     84  C   UNL A   1      42.768  24.237  27.053  1.00  0.00     0.023 A 
ATOM     85  C   UNL A   1      43.488  24.468  25.863  1.00  0.00     0.012 A 
ATOM     86  C   UNL A   1      42.137  22.992  27.240  1.00  0.00     0.148 A 
ATOM     87  C   UNL A   1      43.548  23.495  24.865  1.00  0.00     0.002 A 
ATOM     88  C   UNL A   1      42.249  22.005  26.267  1.00  0.00     0.091 A 
ATOM     89  F   UNL A   1      41.450  22.794  28.373  1.00  0.00    -0.205 F 
ATOM     90  C   UNL A   1      42.938  22.261  25.071  1.00  0.00     0.022 A 
BRANCH  88  91
ATOM     91  S   UNL A   1      41.609  20.343  26.502  1.00  0.00     0.127 S 
ATOM     92  O   UNL A   1      42.182  19.638  25.359  1.00  0.00    -0.237 OA
ATOM     93  O   UNL A   1      42.181  19.981  27.800  1.00  0.00    -0.237 OA
ATOM     94  O   UNL A   1      40.160  20.478  26.503  1.00  0.00    -0.744 OA
ENDBRANCH  88  91
ENDBRANCH  60  84
BRANCH  72  95
ATOM     95  C   UNL A   1      46.961  26.052  32.337  1.00  0.00     0.023 A 
ATOM     96  C   UNL A   1      48.194  26.552  31.874  1.00  0.00     0.012 A 
ATOM     97  C   UNL A   1      46.946  25.081  33.356  1.00  0.00     0.148 A 
ATOM     98  C   UNL A   1      49.393  26.070  32.396  1.00  0.00     0.002 A 
ATOM     99  C   UNL A   1      48.142  24.643  33.910  1.00  0.00     0.091 A 
ATOM    100  F   UNL A   1      45.762  24.607  33.770  1.00  0.00    -0.205 F 
ATOM    101  C   UNL A   1      49.367  25.127  33.421  1.00  0.00     0.022 A 
BRANCH  99 102
ATOM    102  S   UNL A   1      48.202  23.509  35.301  1.00  0.00     0.127 S 
ATOM    103  O   UNL A   1      47.640  22.292  34.718  1.00  0.00    -0.237 OA
ATOM    104  O   UNL A   1      49.636  23.443  35.585  1.00  0.00    -0.237 OA
ATOM    105  O   UNL A   1      47.405  24.123  36.354  1.00  0.00    -0.744 OA
ENDBRANCH  99 102
ENDBRANCH  72  95
ENDBRANCH  46  47
ENDBRANCH  38  41
ENDBRANCH  36  37
ENDBRANCH  35  36
ENDBRANCH   1  35
TORSDOF 19
ENDMDL
MODEL 3
REMARK VINA RESULT:     -12.6      1.038      7.168
REMARK SMILES Cc1cc(C(=O)N[C@@H]2C(=O)N3C(C(=O)NCCCCNC(=O)c4ccc(-c5c6nc(c(-c7cccc(S(=O)(=O)[O-])c7F)c7ccc([nH]7)c(-c7cccc(S(=O)(=O)[O-])c7F)c7nc(c(-c8cccc(S(=O)(=O)[O-])c8F)c8ccc5[nH]8)C=C7)C=C6)cc4)=C(CSc4nnc(C)s4)CS[C@H]23)n(C)n1
REMARK SMILES IDX 17 1 16 2 15 3 13 4 14 5 12 7 8 8 9 9 97 10 10 11 11 12
REMARK SMILES IDX 96 13 95 14 86 15 7 16 5 17 6 18 4 20 1 21 2 22 3 23 100 24
REMARK SMILES IDX 98 25 99 26 87 27 88 28 89 29 90 30 94 31 91 32 92 33 93 34
REMARK SMILES IDX 18 35 19 36 20 37 21 38 22 40 23 41 24 42 85 43 25 44 84 45
REMARK SMILES IDX 26 46 27 47 28 48 78 49 29 50 83 51 77 52 79 53 30 54 82 55
REMARK SMILES IDX 76 56 75 57 31 59 63 60 43 61 62 62 44 63 47 64 61 65 80 66
REMARK SMILES IDX 45 67 46 68 60 70 81 71 48 72 32 73 33 74 41 75 34 76 36 77
REMARK SMILES IDX 42 78 35 79 37 80 38 81 39 82 40 83 64 84 65 85 73 86 66 87
REMARK SMILES IDX 68 88 74 89 67 90 69 91 70 92 71 93 72 94 49 95 50 96 58 97
REMARK SMILES IDX 51 98 53 99 59 100 52 101 54 102 55 103 56 104 57 105
REMARK H PARENT 15 6 7 19 20 39 79 58 47 69
REMARK Flexibility Score: inf
ROOT
ATOM      1  C   UNL A   1      31.416  30.940  26.067  1.00  0.00     0.023 C 
ENDROOT
BRANCH   1   2
ATOM      2  C   UNL A   1      32.597  29.964  26.116  1.00  0.00     0.116 C 
BRANCH   2   3
ATOM      3  N   UNL A   1      33.089  29.685  24.784  1.00  0.00    -0.351 N 
ATOM      4  C   UNL A   1      32.915  28.737  23.834  1.00  0.00     0.268 C 
ATOM      5  O   UNL A   1      33.401  29.062  22.742  1.00  0.00    -0.268 OA
ATOM      6  H   UNL A   1      33.725  30.375  24.488  1.00  0.00     0.163 HD
BRANCH   4   7
ATOM      7  C   UNL A   1      32.046  27.467  23.919  1.00  0.00     0.111 C 
ATOM      8  C   UNL A   1      33.457  24.727  25.465  1.00  0.00     0.206 C 
ATOM      9  C   UNL A   1      33.493  26.276  25.577  1.00  0.00     0.253 C 
ATOM     10  C   UNL A   1      32.309  25.015  24.458  1.00  0.00     0.181 C 
ATOM     11  O   UNL A   1      33.878  27.047  26.437  1.00  0.00    -0.272 OA
ATOM     12  N   UNL A   1      32.771  26.388  24.417  1.00  0.00    -0.290 N 
ATOM     13  S   UNL A   1      30.609  24.969  25.110  1.00  0.00    -0.129 SA
ATOM     14  C   UNL A   1      30.051  25.922  23.697  1.00  0.00     0.106 C 
ATOM     15  C   UNL A   1      30.698  27.294  23.749  1.00  0.00    -0.020 C 
BRANCH   8  16
ATOM     16  N   UNL A   1      33.194  23.948  26.707  1.00  0.00    -0.336 N 
ATOM     17  C   UNL A   1      33.200  22.582  26.913  1.00  0.00     0.270 C 
ATOM     18  O   UNL A   1      32.988  22.173  28.053  1.00  0.00    -0.268 OA
ATOM     19  H   UNL A   1      32.984  24.489  27.502  1.00  0.00     0.164 HD
BRANCH  17  20
ATOM     20  C   UNL A   1      33.376  21.702  25.777  1.00  0.00     0.126 A 
ATOM     21  C   UNL A   1      32.505  18.767  23.816  1.00  0.00     0.069 C 
ATOM     22  C   UNL A   1      33.111  19.987  24.399  1.00  0.00     0.060 A 
ATOM     23  C   UNL A   1      32.453  21.123  24.920  1.00  0.00     0.059 A 
ATOM     24  N   UNL A   1      34.427  20.065  24.598  1.00  0.00    -0.178 NA
ATOM     25  N   UNL A   1      34.578  21.168  25.367  1.00  0.00    -0.263 N 
ATOM     26  C   UNL A   1      35.924  21.561  25.711  1.00  0.00     0.174 C 
ENDBRANCH  17  20
ENDBRANCH   8  16
BRANCH  15  27
ATOM     27  C   UNL A   1      29.636  28.343  23.982  1.00  0.00     0.111 C 
BRANCH  27  28
ATOM     28  S   UNL A   1      28.476  28.217  22.619  1.00  0.00    -0.089 SA
BRANCH  28  29
ATOM     29  C   UNL A   1      27.717  29.757  22.514  1.00  0.00     0.174 A 
ATOM     30  N   UNL A   1      26.950  30.237  23.467  1.00  0.00    -0.132 NA
ATOM     31  S   UNL A   1      28.386  30.951  21.485  1.00  0.00    -0.091 S 
ATOM     32  N   UNL A   1      27.215  31.586  23.658  1.00  0.00    -0.143 NA
ATOM     33  C   UNL A   1      28.128  32.015  22.808  1.00  0.00     0.115 A 
ATOM     34  C   UNL A   1      29.009  33.188  22.992  1.00  0.00     0.081 C 
ENDBRANCH  28  29
ENDBRANCH  27  28
ENDBRANCH  15  27
ENDBRANCH   4   7
ENDBRANCH   2   3
ENDBRANCH   1   2
BRANCH   1  35
ATOM     35  C   UNL A   1      31.677  32.365  26.509  1.00  0.00     0.023 C 
BRANCH  35  36
ATOM     36  C   UNL A   1      32.968  32.558  27.272  1.00  0.00     0.116 C 
BRANCH  36  37
ATOM     37  N   UNL A   1      33.106  33.862  27.913  1.00  0.00    -0.352 N 
ATOM     38  C   UNL A   1      34.179  34.309  28.659  1.00  0.00     0.251 C 
ATOM     39  H   UNL A   1      32.356  34.489  27.802  1.00  0.00     0.163 HD
ATOM     40  O   UNL A   1      34.167  35.411  29.192  1.00  0.00    -0.269 OA
BRANCH  38  41
ATOM     41  C   UNL A   1      35.317  33.384  28.837  1.00  0.00     0.039 A 
ATOM     42  C   UNL A   1      36.610  33.843  28.580  1.00  0.00     0.014 A 
ATOM     43  C   UNL A   1      35.103  32.150  29.454  1.00  0.00     0.014 A 
ATOM     44  C   UNL A   1      37.697  33.096  29.035  1.00  0.00     0.010 A 
ATOM     45  C   UNL A   1      36.180  31.483  30.016  1.00  0.00     0.010 A 
ATOM     46  C   UNL A   1      37.491  31.940  29.807  1.00  0.00    -0.014 A 
BRANCH  46  47
ATOM     47  C   UNL A   1      38.623  31.186  30.406  1.00  0.00     0.031 A 
ATOM     48  C   UNL A   1      39.140  31.578  31.765  1.00  0.00     0.074 A 
ATOM     49  C   UNL A   1      39.245  30.221  29.697  1.00  0.00     0.049 A 
ATOM     50  N   UNL A   1      40.159  31.099  32.429  1.00  0.00    -0.248 NA
ATOM     51  C   UNL A   1      38.449  32.685  32.450  1.00  0.00     0.031 C 
ATOM     52  C   UNL A   1      38.907  29.815  28.331  1.00  0.00     0.029 A 
ATOM     53  N   UNL A   1      40.314  29.422  30.022  1.00  0.00    -0.354 N 
ATOM     54  C   UNL A   1      40.256  31.872  33.579  1.00  0.00     0.074 A 
ATOM     55  C   UNL A   1      39.231  32.886  33.499  1.00  0.00     0.031 C 
ATOM     56  C   UNL A   1      39.736  28.832  27.944  1.00  0.00     0.029 A 
ATOM     57  C   UNL A   1      40.686  28.558  29.016  1.00  0.00     0.049 A 
ATOM     58  H   UNL A   1      40.772  29.463  30.891  1.00  0.00     0.167 HD
ATOM     59  C   UNL A   1      41.094  31.726  34.632  1.00  0.00     0.034 A 
ATOM     60  C   UNL A   1      41.682  27.649  28.966  1.00  0.00     0.034 A 
ATOM     61  C   UNL A   1      42.069  30.678  34.738  1.00  0.00     0.049 A 
ATOM     62  C   UNL A   1      42.562  27.467  30.174  1.00  0.00     0.074 A 
ATOM     63  C   UNL A   1      42.898  30.381  35.803  1.00  0.00     0.029 A 
ATOM     64  N   UNL A   1      42.348  29.758  33.740  1.00  0.00    -0.354 N 
ATOM     65  N   UNL A   1      42.528  28.100  31.322  1.00  0.00    -0.248 NA
ATOM     66  C   UNL A   1      43.590  26.419  30.096  1.00  0.00     0.031 C 
ATOM     67  C   UNL A   1      43.697  29.292  35.441  1.00  0.00     0.029 A 
ATOM     68  C   UNL A   1      43.343  28.894  34.161  1.00  0.00     0.049 A 
ATOM     69  H   UNL A   1      41.905  29.725  32.861  1.00  0.00     0.167 HD
ATOM     70  C   UNL A   1      43.501  27.503  32.115  1.00  0.00     0.074 A 
ATOM     71  C   UNL A   1      44.094  26.444  31.323  1.00  0.00     0.031 C 
ATOM     72  C   UNL A   1      43.879  27.809  33.381  1.00  0.00     0.034 A 
BRANCH  59  73
ATOM     73  C   UNL A   1      40.946  32.692  35.779  1.00  0.00     0.023 A 
ATOM     74  C   UNL A   1      41.790  33.819  35.857  1.00  0.00     0.012 A 
ATOM     75  C   UNL A   1      39.947  32.509  36.754  1.00  0.00     0.148 A 
ATOM     76  C   UNL A   1      41.671  34.725  36.908  1.00  0.00     0.002 A 
ATOM     77  C   UNL A   1      39.800  33.444  37.771  1.00  0.00     0.091 A 
ATOM     78  F   UNL A   1      39.168  31.419  36.677  1.00  0.00    -0.205 F 
ATOM     79  C   UNL A   1      40.668  34.545  37.858  1.00  0.00     0.022 A 
BRANCH  77  80
ATOM     80  S   UNL A   1      38.489  33.348  38.995  1.00  0.00     0.127 S 
ATOM     81  O   UNL A   1      38.908  32.190  39.783  1.00  0.00    -0.237 OA
ATOM     82  O   UNL A   1      38.617  34.633  39.684  1.00  0.00    -0.237 OA
ATOM     83  O   UNL A   1      37.252  33.179  38.247  1.00  0.00    -0.744 OA
ENDBRANCH  77  80
ENDBRANCH  59  73
BRANCH  60  84
ATOM     84  C   UNL A   1      41.854  26.791  27.758  1.00  0.00     0.023 A 
ATOM     85  C   UNL A   1      42.495  27.318  26.619  1.00  0.00     0.012 A 
ATOM     86  C   UNL A   1      41.407  25.456  27.735  1.00  0.00     0.148 A 
ATOM     87  C   UNL A   1      42.655  26.546  25.468  1.00  0.00     0.002 A 
ATOM     88  C   UNL A   1      41.621  24.673  26.607  1.00  0.00     0.091 A 
ATOM     89  F   UNL A   1      40.792  24.975  28.824  1.00  0.00    -0.205 F 
ATOM     90  C   UNL A   1      42.228  25.221  25.465  1.00  0.00     0.022 A 
BRANCH  88  91
ATOM     91  S   UNL A   1      41.225  22.922  26.559  1.00  0.00     0.127 S 
ATOM     92  O   UNL A   1      41.945  22.485  25.366  1.00  0.00    -0.237 OA
ATOM     93  O   UNL A   1      41.787  22.451  27.826  1.00  0.00    -0.237 OA
ATOM     94  O   UNL A   1      39.772  22.850  26.486  1.00  0.00    -0.744 OA
ENDBRANCH  88  91
ENDBRANCH  60  84
BRANCH  72  95
ATOM     95  C   UNL A   1      44.951  26.966  34.017  1.00  0.00     0.023 A 
ATOM     96  C   UNL A   1      46.306  27.320  33.872  1.00  0.00     0.012 A 
ATOM     97  C   UNL A   1      44.605  25.871  34.833  1.00  0.00     0.148 A 
ATOM     98  C   UNL A   1      47.303  26.578  34.503  1.00  0.00     0.002 A 
ATOM     99  C   UNL A   1      45.599  25.168  35.502  1.00  0.00     0.091 A 
ATOM    100  F   UNL A   1      43.310  25.541  34.944  1.00  0.00    -0.205 F 
ATOM    101  C   UNL A   1      46.949  25.512  35.327  1.00  0.00     0.022 A 
BRANCH  99 102
ATOM    102  S   UNL A   1      45.230  23.848  36.662  1.00  0.00     0.127 S 
ATOM    103  O   UNL A   1      44.474  22.918  35.826  1.00  0.00    -0.237 OA
ATOM    104  O   UNL A   1      46.566  23.384  37.037  1.00  0.00    -0.237 OA
ATOM    105  O   UNL A   1      44.478  24.465  37.746  1.00  0.00    -0.744 OA
ENDBRANCH  99 102
ENDBRANCH  72  95
ENDBRANCH  46  47
ENDBRANCH  38  41
ENDBRANCH  36  37
ENDBRANCH  35  36
ENDBRANCH   1  35
TORSDOF 19
ENDMDL
