MODEL 1
REMARK VINA RESULT:      -9.0      0.000      0.000
REMARK SMILES C[C@@H]1C[C@@H]1C[N@@H+](C)Cc1cc(F)cc(/C=C/C(=O)NCCCCNC(=O)c2ccc(-c3c4nc(c(-c5cccc(S(=O)(=O)[O-])c5F)c5ccc([nH]5)c(-c5cccc(S(=O)(=O)[O-])c5F)c5nc(c(-c6cccc(S(=O)(=O)[O-])c6F)c6ccc3[nH]6)C=C5)C=C4)cc2)c1
REMARK SMILES IDX 20 1 19 2 17 3 18 4 16 6 15 7 14 8 9 9 10 10 90 11 11 12
REMARK SMILES IDX 12 13 13 14 8 15 6 16 7 17 5 19 4 20 1 21 2 22 3 23 21 24
REMARK SMILES IDX 22 25 23 26 24 27 25 28 26 30 27 31 28 32 89 33 29 34 88 35
REMARK SMILES IDX 30 36 31 37 32 38 82 39 33 40 87 41 81 42 83 43 34 44 86 45
REMARK SMILES IDX 80 46 79 47 35 49 67 50 47 51 66 52 48 53 51 54 65 55 84 56
REMARK SMILES IDX 49 57 50 58 64 60 85 61 52 62 36 63 37 64 45 65 38 66 40 67
REMARK SMILES IDX 46 68 39 69 41 70 42 71 43 72 44 73 68 74 69 75 77 76 70 77
REMARK SMILES IDX 72 78 78 79 71 80 73 81 74 82 75 83 76 84 53 85 54 86 62 87
REMARK SMILES IDX 55 88 57 89 63 90 56 91 58 92 59 93 60 94 61 95
REMARK H PARENT 19 5 6 18 24 29 83 48 51 59
REMARK Flexibility Score: inf
ROOT
ATOM      1  C   UNL A   1      43.882  19.775  25.862  1.00  0.00     0.116 C 
ENDROOT
BRANCH   1   2
ATOM      2  N   UNL A   1      43.899  20.573  24.646  1.00  0.00    -0.353 N 
ATOM      3  C   UNL A   1      44.536  21.746  24.370  1.00  0.00     0.243 C 
ATOM      4  O   UNL A   1      44.529  22.208  23.234  1.00  0.00    -0.270 OA
ATOM      5  H   UNL A   1      43.365  20.209  23.903  1.00  0.00     0.163 HD
BRANCH   3   6
ATOM      6  C   UNL A   1      45.310  22.434  25.427  1.00  0.00     0.072 C 
ATOM      7  C   UNL A   1      44.720  23.236  26.322  1.00  0.00     0.014 C 
BRANCH   7   8
ATOM      8  C   UNL A   1      45.424  23.886  27.425  1.00  0.00    -0.022 A 
ATOM      9  C   UNL A   1      45.297  24.723  29.720  1.00  0.00     0.010 A 
ATOM     10  C   UNL A   1      46.578  25.274  29.553  1.00  0.00     0.048 A 
ATOM     11  C   UNL A   1      44.748  24.007  28.650  1.00  0.00     0.018 A 
ATOM     12  C   UNL A   1      47.262  25.117  28.350  1.00  0.00     0.124 A 
ATOM     13  F   UNL A   1      48.487  25.646  28.221  1.00  0.00    -0.207 F 
ATOM     14  C   UNL A   1      46.696  24.434  27.281  1.00  0.00     0.047 A 
BRANCH   9  15
ATOM     15  C   UNL A   1      44.600  24.849  31.059  1.00  0.00     0.298 C 
BRANCH  15  16
ATOM     16  N   UNL A   1      44.657  26.123  31.785  1.00  0.00    -0.333 N 
ATOM     17  C   UNL A   1      44.984  25.993  33.200  1.00  0.00     0.333 C 
ATOM     18  H   UNL A   1      45.449  26.576  31.328  1.00  0.00     0.348 HD
BRANCH  16  19
ATOM     19  C   UNL A   1      43.533  27.029  31.583  1.00  0.00     0.266 C 
BRANCH  19  20
ATOM     20  C   UNL A   1      43.280  28.029  32.674  1.00  0.00     0.047 C 
ATOM     21  C   UNL A   1      40.669  28.604  32.404  1.00  0.00     0.008 C 
ATOM     22  C   UNL A   1      42.006  28.790  33.032  1.00  0.00    -0.005 C 
ATOM     23  C   UNL A   1      43.087  29.477  32.256  1.00  0.00     0.013 C 
ENDBRANCH  19  20
ENDBRANCH  16  19
ENDBRANCH  15  16
ENDBRANCH   9  15
ENDBRANCH   7   8
ENDBRANCH   3   6
ENDBRANCH   1   2
BRANCH   1  24
ATOM     24  C   UNL A   1      42.453  19.490  26.327  1.00  0.00     0.023 C 
BRANCH  24  25
ATOM     25  C   UNL A   1      41.950  20.417  27.439  1.00  0.00     0.023 C 
BRANCH  25  26
ATOM     26  C   UNL A   1      41.406  21.762  26.967  1.00  0.00     0.116 C 
BRANCH  26  27
ATOM     27  N   UNL A   1      40.064  21.675  26.411  1.00  0.00    -0.352 N 
ATOM     28  C   UNL A   1      39.096  22.652  26.343  1.00  0.00     0.251 C 
ATOM     29  H   UNL A   1      39.815  20.800  26.035  1.00  0.00     0.163 HD
ATOM     30  O   UNL A   1      37.978  22.376  25.944  1.00  0.00    -0.269 OA
BRANCH  28  31
ATOM     31  C   UNL A   1      39.416  24.027  26.796  1.00  0.00     0.039 A 
ATOM     32  C   UNL A   1      39.146  24.376  28.121  1.00  0.00     0.014 A 
ATOM     33  C   UNL A   1      39.987  24.958  25.925  1.00  0.00     0.014 A 
ATOM     34  C   UNL A   1      39.505  25.643  28.588  1.00  0.00     0.010 A 
ATOM     35  C   UNL A   1      40.405  26.195  26.410  1.00  0.00     0.010 A 
ATOM     36  C   UNL A   1      40.163  26.553  27.744  1.00  0.00    -0.014 A 
BRANCH  36  37
ATOM     37  C   UNL A   1      40.614  27.876  28.246  1.00  0.00     0.031 A 
ATOM     38  C   UNL A   1      42.079  28.215  28.293  1.00  0.00     0.074 A 
ATOM     39  C   UNL A   1      39.705  28.748  28.729  1.00  0.00     0.049 A 
ATOM     40  N   UNL A   1      42.656  29.308  28.719  1.00  0.00    -0.248 NA
ATOM     41  C   UNL A   1      43.022  27.184  27.827  1.00  0.00     0.031 C 
ATOM     42  C   UNL A   1      38.264  28.502  28.816  1.00  0.00     0.029 A 
ATOM     43  N   UNL A   1      39.859  30.007  29.254  1.00  0.00    -0.354 N 
ATOM     44  C   UNL A   1      44.022  29.087  28.601  1.00  0.00     0.074 A 
ATOM     45  C   UNL A   1      44.193  27.742  28.100  1.00  0.00     0.031 C 
ATOM     46  C   UNL A   1      37.665  29.580  29.345  1.00  0.00     0.029 A 
ATOM     47  C   UNL A   1      38.678  30.585  29.660  1.00  0.00     0.049 A 
ATOM     48  H   UNL A   1      40.732  30.456  29.331  1.00  0.00     0.167 HD
ATOM     49  C   UNL A   1      45.042  29.941  28.853  1.00  0.00     0.034 A 
ATOM     50  C   UNL A   1      38.435  31.787  30.218  1.00  0.00     0.034 A 
ATOM     51  C   UNL A   1      44.865  31.296  29.294  1.00  0.00     0.049 A 
ATOM     52  C   UNL A   1      39.580  32.737  30.438  1.00  0.00     0.074 A 
ATOM     53  C   UNL A   1      45.832  32.269  29.480  1.00  0.00     0.029 A 
ATOM     54  N   UNL A   1      43.648  31.872  29.620  1.00  0.00    -0.354 N 
ATOM     55  N   UNL A   1      40.852  32.568  30.168  1.00  0.00    -0.248 NA
ATOM     56  C   UNL A   1      39.260  34.054  31.009  1.00  0.00     0.031 C 
ATOM     57  C   UNL A   1      45.199  33.429  29.938  1.00  0.00     0.029 A 
ATOM     58  C   UNL A   1      43.837  33.185  30.014  1.00  0.00     0.049 A 
ATOM     59  H   UNL A   1      42.777  31.415  29.576  1.00  0.00     0.167 HD
ATOM     60  C   UNL A   1      41.478  33.762  30.504  1.00  0.00     0.074 A 
ATOM     61  C   UNL A   1      40.443  34.656  30.983  1.00  0.00     0.031 C 
ATOM     62  C   UNL A   1      42.793  34.083  30.435  1.00  0.00     0.034 A 
BRANCH  49  63
ATOM     63  C   UNL A   1      46.447  29.466  28.584  1.00  0.00     0.023 A 
ATOM     64  C   UNL A   1      46.974  29.576  27.281  1.00  0.00     0.012 A 
ATOM     65  C   UNL A   1      47.273  29.010  29.629  1.00  0.00     0.148 A 
ATOM     66  C   UNL A   1      48.294  29.217  27.016  1.00  0.00     0.002 A 
ATOM     67  C   UNL A   1      48.602  28.696  29.366  1.00  0.00     0.091 A 
ATOM     68  F   UNL A   1      46.749  28.896  30.857  1.00  0.00    -0.205 F 
ATOM     69  C   UNL A   1      49.110  28.790  28.059  1.00  0.00     0.022 A 
BRANCH  67  70
ATOM     70  S   UNL A   1      49.761  28.217  30.653  1.00  0.00     0.127 S 
ATOM     71  O   UNL A   1      49.370  26.829  30.898  1.00  0.00    -0.237 OA
ATOM     72  O   UNL A   1      51.050  28.377  29.979  1.00  0.00    -0.237 OA
ATOM     73  O   UNL A   1      49.534  29.133  31.761  1.00  0.00    -0.744 OA
ENDBRANCH  67  70
ENDBRANCH  49  63
BRANCH  50  74
ATOM     74  C   UNL A   1      37.030  32.187  30.516  1.00  0.00     0.023 A 
ATOM     75  C   UNL A   1      36.533  32.031  31.824  1.00  0.00     0.012 A 
ATOM     76  C   UNL A   1      36.211  32.784  29.538  1.00  0.00     0.148 A 
ATOM     77  C   UNL A   1      35.242  32.447  32.150  1.00  0.00     0.002 A 
ATOM     78  C   UNL A   1      34.946  33.247  29.882  1.00  0.00     0.091 A 
ATOM     79  F   UNL A   1      36.698  32.914  28.295  1.00  0.00    -0.205 F 
ATOM     80  C   UNL A   1      34.454  33.067  31.185  1.00  0.00     0.022 A 
BRANCH  78  81
ATOM     81  S   UNL A   1      33.918  34.185  28.746  1.00  0.00     0.127 S 
ATOM     82  O   UNL A   1      33.495  33.152  27.803  1.00  0.00    -0.237 OA
ATOM     83  O   UNL A   1      32.864  34.680  29.632  1.00  0.00    -0.237 OA
ATOM     84  O   UNL A   1      34.781  35.224  28.200  1.00  0.00    -0.744 OA
ENDBRANCH  78  81
ENDBRANCH  50  74
BRANCH  62  85
ATOM     85  C   UNL A   1      43.216  35.462  30.868  1.00  0.00     0.023 A 
ATOM     86  C   UNL A   1      43.519  35.702  32.222  1.00  0.00     0.012 A 
ATOM     87  C   UNL A   1      43.451  36.472  29.914  1.00  0.00     0.148 A 
ATOM     88  C   UNL A   1      44.042  36.930  32.622  1.00  0.00     0.002 A 
ATOM     89  C   UNL A   1      44.018  37.677  30.312  1.00  0.00     0.091 A 
ATOM     90  F   UNL A   1      43.143  36.226  28.632  1.00  0.00    -0.205 F 
ATOM     91  C   UNL A   1      44.306  37.910  31.667  1.00  0.00     0.022 A 
BRANCH  89  92
ATOM     92  S   UNL A   1      44.491  38.957  29.144  1.00  0.00     0.127 S 
ATOM     93  O   UNL A   1      43.294  39.058  28.311  1.00  0.00    -0.237 OA
ATOM     94  O   UNL A   1      44.722  40.105  30.021  1.00  0.00    -0.237 OA
ATOM     95  O   UNL A   1      45.681  38.465  28.464  1.00  0.00    -0.744 OA
ENDBRANCH  89  92
ENDBRANCH  62  85
ENDBRANCH  36  37
ENDBRANCH  28  31
ENDBRANCH  26  27
ENDBRANCH  25  26
ENDBRANCH  24  25
ENDBRANCH   1  24
TORSDOF 19
ENDMDL
MODEL 2
REMARK VINA RESULT:      -8.6      5.424     10.466
REMARK SMILES C[C@@H]1C[C@@H]1C[N@@H+](C)Cc1cc(F)cc(/C=C/C(=O)NCCCCNC(=O)c2ccc(-c3c4nc(c(-c5cccc(S(=O)(=O)[O-])c5F)c5ccc([nH]5)c(-c5cccc(S(=O)(=O)[O-])c5F)c5nc(c(-c6cccc(S(=O)(=O)[O-])c6F)c6ccc3[nH]6)C=C5)C=C4)cc2)c1
REMARK SMILES IDX 20 1 19 2 17 3 18 4 16 6 15 7 14 8 9 9 10 10 90 11 11 12
REMARK SMILES IDX 12 13 13 14 8 15 6 16 7 17 5 19 4 20 1 21 2 22 3 23 21 24
REMARK SMILES IDX 22 25 23 26 24 27 25 28 26 30 27 31 28 32 89 33 29 34 88 35
REMARK SMILES IDX 30 36 31 37 32 38 82 39 33 40 87 41 81 42 83 43 34 44 86 45
REMARK SMILES IDX 80 46 79 47 35 49 67 50 47 51 66 52 48 53 51 54 65 55 84 56
REMARK SMILES IDX 49 57 50 58 64 60 85 61 52 62 36 63 37 64 45 65 38 66 40 67
REMARK SMILES IDX 46 68 39 69 41 70 42 71 43 72 44 73 68 74 69 75 77 76 70 77
REMARK SMILES IDX 72 78 78 79 71 80 73 81 74 82 75 83 76 84 53 85 54 86 62 87
REMARK SMILES IDX 55 88 57 89 63 90 56 91 58 92 59 93 60 94 61 95
REMARK H PARENT 19 5 6 18 24 29 83 48 51 59
REMARK Flexibility Score: inf
ROOT
ATOM      1  C   UNL A   1      31.839  29.031  25.258  1.00  0.00     0.116 C 
ENDROOT
BRANCH   1   2
ATOM      2  N   UNL A   1      33.020  29.369  24.478  1.00  0.00    -0.353 N 
ATOM      3  C   UNL A   1      33.686  28.652  23.531  1.00  0.00     0.243 C 
ATOM      4  O   UNL A   1      34.599  29.161  22.889  1.00  0.00    -0.270 OA
ATOM      5  H   UNL A   1      33.399  30.259  24.665  1.00  0.00     0.163 HD
BRANCH   3   6
ATOM      6  C   UNL A   1      33.259  27.272  23.212  1.00  0.00     0.072 C 
ATOM      7  C   UNL A   1      33.848  26.207  23.771  1.00  0.00     0.014 C 
BRANCH   7   8
ATOM      8  C   UNL A   1      33.425  24.827  23.545  1.00  0.00    -0.022 A 
ATOM      9  C   UNL A   1      33.010  22.627  24.533  1.00  0.00     0.010 A 
ATOM     10  C   UNL A   1      32.809  22.123  23.239  1.00  0.00     0.048 A 
ATOM     11  C   UNL A   1      33.290  23.993  24.666  1.00  0.00     0.018 A 
ATOM     12  C   UNL A   1      32.902  22.962  22.131  1.00  0.00     0.124 A 
ATOM     13  F   UNL A   1      32.697  22.455  20.908  1.00  0.00    -0.207 F 
ATOM     14  C   UNL A   1      33.214  24.309  22.270  1.00  0.00     0.047 A 
BRANCH   9  15
ATOM     15  C   UNL A   1      32.837  21.712  25.727  1.00  0.00     0.298 C 
BRANCH  15  16
ATOM     16  N   UNL A   1      34.024  21.167  26.396  1.00  0.00    -0.333 N 
ATOM     17  C   UNL A   1      34.481  21.949  27.539  1.00  0.00     0.333 C 
ATOM     18  H   UNL A   1      33.661  20.283  26.755  1.00  0.00     0.348 HD
BRANCH  16  19
ATOM     19  C   UNL A   1      35.137  20.796  25.531  1.00  0.00     0.266 C 
BRANCH  19  20
ATOM     20  C   UNL A   1      36.383  21.626  25.655  1.00  0.00     0.047 C 
ATOM     21  C   UNL A   1      36.546  22.870  23.279  1.00  0.00     0.008 C 
ATOM     22  C   UNL A   1      37.064  22.531  24.633  1.00  0.00    -0.005 C 
ATOM     23  C   UNL A   1      37.606  21.159  24.886  1.00  0.00     0.013 C 
ENDBRANCH  19  20
ENDBRANCH  16  19
ENDBRANCH  15  16
ENDBRANCH   9  15
ENDBRANCH   7   8
ENDBRANCH   3   6
ENDBRANCH   1   2
BRANCH   1  24
ATOM     24  C   UNL A   1      31.840  29.736  26.615  1.00  0.00     0.023 C 
BRANCH  24  25
ATOM     25  C   UNL A   1      31.669  31.257  26.542  1.00  0.00     0.023 C 
BRANCH  25  26
ATOM     26  C   UNL A   1      32.876  32.070  27.000  1.00  0.00     0.116 C 
BRANCH  26  27
ATOM     27  N   UNL A   1      32.544  33.443  27.351  1.00  0.00    -0.352 N 
ATOM     28  C   UNL A   1      33.114  34.246  28.312  1.00  0.00     0.251 C 
ATOM     29  H   UNL A   1      31.814  33.850  26.831  1.00  0.00     0.163 HD
ATOM     30  O   UNL A   1      32.637  35.342  28.553  1.00  0.00    -0.269 OA
BRANCH  28  31
ATOM     31  C   UNL A   1      34.285  33.751  29.076  1.00  0.00     0.039 A 
ATOM     32  C   UNL A   1      34.085  32.763  30.043  1.00  0.00     0.014 A 
ATOM     33  C   UNL A   1      35.567  34.247  28.832  1.00  0.00     0.014 A 
ATOM     34  C   UNL A   1      35.183  32.231  30.724  1.00  0.00     0.010 A 
ATOM     35  C   UNL A   1      36.666  33.668  29.462  1.00  0.00     0.010 A 
ATOM     36  C   UNL A   1      36.485  32.658  30.419  1.00  0.00    -0.014 A 
BRANCH  36  37
ATOM     37  C   UNL A   1      37.667  32.052  31.083  1.00  0.00     0.031 A 
ATOM     38  C   UNL A   1      38.541  31.076  30.343  1.00  0.00     0.074 A 
ATOM     39  C   UNL A   1      37.912  32.325  32.381  1.00  0.00     0.049 A 
ATOM     40  N   UNL A   1      39.596  30.433  30.767  1.00  0.00    -0.248 NA
ATOM     41  C   UNL A   1      38.167  30.760  28.953  1.00  0.00     0.031 C 
ATOM     42  C   UNL A   1      37.090  33.188  33.231  1.00  0.00     0.029 A 
ATOM     43  N   UNL A   1      38.912  31.892  33.217  1.00  0.00    -0.354 N 
ATOM     44  C   UNL A   1      39.994  29.618  29.715  1.00  0.00     0.074 A 
ATOM     45  C   UNL A   1      39.045  29.817  28.643  1.00  0.00     0.031 C 
ATOM     46  C   UNL A   1      37.625  33.235  34.460  1.00  0.00     0.029 A 
ATOM     47  C   UNL A   1      38.814  32.386  34.497  1.00  0.00     0.049 A 
ATOM     48  H   UNL A   1      39.631  31.286  32.927  1.00  0.00     0.167 HD
ATOM     49  C   UNL A   1      41.073  28.804  29.635  1.00  0.00     0.034 A 
ATOM     50  C   UNL A   1      39.593  32.185  35.578  1.00  0.00     0.034 A 
ATOM     51  C   UNL A   1      42.046  28.656  30.681  1.00  0.00     0.049 A 
ATOM     52  C   UNL A   1      40.816  31.317  35.448  1.00  0.00     0.074 A 
ATOM     53  C   UNL A   1      43.226  27.933  30.657  1.00  0.00     0.029 A 
ATOM     54  N   UNL A   1      41.955  29.234  31.937  1.00  0.00    -0.354 N 
ATOM     55  N   UNL A   1      41.264  30.682  34.392  1.00  0.00    -0.248 NA
ATOM     56  C   UNL A   1      41.659  31.163  36.642  1.00  0.00     0.031 C 
ATOM     57  C   UNL A   1      43.839  28.059  31.906  1.00  0.00     0.029 A 
ATOM     58  C   UNL A   1      43.054  28.879  32.700  1.00  0.00     0.049 A 
ATOM     59  H   UNL A   1      41.220  29.813  32.241  1.00  0.00     0.167 HD
ATOM     60  C   UNL A   1      42.454  30.080  34.783  1.00  0.00     0.074 A 
ATOM     61  C   UNL A   1      42.668  30.439  36.170  1.00  0.00     0.031 C 
ATOM     62  C   UNL A   1      43.285  29.289  34.061  1.00  0.00     0.034 A 
BRANCH  49  63
ATOM     63  C   UNL A   1      41.310  28.066  28.343  1.00  0.00     0.023 A 
ATOM     64  C   UNL A   1      41.964  28.725  27.282  1.00  0.00     0.012 A 
ATOM     65  C   UNL A   1      40.982  26.703  28.214  1.00  0.00     0.148 A 
ATOM     66  C   UNL A   1      42.266  28.047  26.104  1.00  0.00     0.002 A 
ATOM     67  C   UNL A   1      41.326  26.021  27.052  1.00  0.00     0.091 A 
ATOM     68  F   UNL A   1      40.344  26.099  29.227  1.00  0.00    -0.205 F 
ATOM     69  C   UNL A   1      41.959  26.694  25.993  1.00  0.00     0.022 A 
BRANCH  67  70
ATOM     70  S   UNL A   1      41.051  24.258  26.841  1.00  0.00     0.127 S 
ATOM     71  O   UNL A   1      42.075  23.916  25.855  1.00  0.00    -0.237 OA
ATOM     72  O   UNL A   1      41.308  23.746  28.188  1.00  0.00    -0.237 OA
ATOM     73  O   UNL A   1      39.676  24.116  26.387  1.00  0.00    -0.744 OA
ENDBRANCH  67  70
ENDBRANCH  49  63
BRANCH  50  74
ATOM     74  C   UNL A   1      39.283  32.898  36.850  1.00  0.00     0.023 A 
ATOM     75  C   UNL A   1      38.400  32.305  37.773  1.00  0.00     0.012 A 
ATOM     76  C   UNL A   1      39.907  34.116  37.183  1.00  0.00     0.148 A 
ATOM     77  C   UNL A   1      38.131  32.919  38.997  1.00  0.00     0.002 A 
ATOM     78  C   UNL A   1      39.679  34.694  38.426  1.00  0.00     0.091 A 
ATOM     79  F   UNL A   1      40.735  34.669  36.285  1.00  0.00    -0.205 F 
ATOM     80  C   UNL A   1      38.780  34.104  39.329  1.00  0.00     0.022 A 
BRANCH  78  81
ATOM     81  S   UNL A   1      40.576  36.142  38.998  1.00  0.00     0.127 S 
ATOM     82  O   UNL A   1      40.237  37.128  37.976  1.00  0.00    -0.237 OA
ATOM     83  O   UNL A   1      39.967  36.376  40.308  1.00  0.00    -0.237 OA
ATOM     84  O   UNL A   1      41.976  35.740  39.050  1.00  0.00    -0.744 OA
ENDBRANCH  78  81
ENDBRANCH  50  74
BRANCH  62  85
ATOM     85  C   UNL A   1      44.524  28.756  34.731  1.00  0.00     0.023 A 
ATOM     86  C   UNL A   1      45.707  29.519  34.709  1.00  0.00     0.012 A 
ATOM     87  C   UNL A   1      44.472  27.576  35.501  1.00  0.00     0.148 A 
ATOM     88  C   UNL A   1      46.824  29.112  35.436  1.00  0.00     0.002 A 
ATOM     89  C   UNL A   1      45.574  27.202  36.262  1.00  0.00     0.091 A 
ATOM     90  F   UNL A   1      43.340  26.859  35.496  1.00  0.00    -0.205 F 
ATOM     91  C   UNL A   1      46.753  27.965  36.223  1.00  0.00     0.022 A 
BRANCH  89  92
ATOM     92  S   UNL A   1      45.543  25.802  37.386  1.00  0.00     0.127 S 
ATOM     93  O   UNL A   1      45.103  26.429  38.631  1.00  0.00    -0.237 OA
ATOM     94  O   UNL A   1      44.551  24.926  36.762  1.00  0.00    -0.237 OA
ATOM     95  O   UNL A   1      46.897  25.268  37.405  1.00  0.00    -0.744 OA
ENDBRANCH  89  92
ENDBRANCH  62  85
ENDBRANCH  36  37
ENDBRANCH  28  31
ENDBRANCH  26  27
ENDBRANCH  25  26
ENDBRANCH  24  25
ENDBRANCH   1  24
TORSDOF 19
ENDMDL
MODEL 3
REMARK VINA RESULT:      -8.6      3.658     10.703
REMARK SMILES C[C@@H]1C[C@@H]1C[N@@H+](C)Cc1cc(F)cc(/C=C/C(=O)NCCCCNC(=O)c2ccc(-c3c4nc(c(-c5cccc(S(=O)(=O)[O-])c5F)c5ccc([nH]5)c(-c5cccc(S(=O)(=O)[O-])c5F)c5nc(c(-c6cccc(S(=O)(=O)[O-])c6F)c6ccc3[nH]6)C=C5)C=C4)cc2)c1
REMARK SMILES IDX 20 1 19 2 17 3 18 4 16 6 15 7 14 8 9 9 10 10 90 11 11 12
REMARK SMILES IDX 12 13 13 14 8 15 6 16 7 17 5 19 4 20 1 21 2 22 3 23 21 24
REMARK SMILES IDX 22 25 23 26 24 27 25 28 26 30 27 31 28 32 89 33 29 34 88 35
REMARK SMILES IDX 30 36 31 37 32 38 82 39 33 40 87 41 81 42 83 43 34 44 86 45
REMARK SMILES IDX 80 46 79 47 35 49 67 50 47 51 66 52 48 53 51 54 65 55 84 56
REMARK SMILES IDX 49 57 50 58 64 60 85 61 52 62 36 63 37 64 45 65 38 66 40 67
REMARK SMILES IDX 46 68 39 69 41 70 42 71 43 72 44 73 68 74 69 75 77 76 70 77
REMARK SMILES IDX 72 78 78 79 71 80 73 81 74 82 75 83 76 84 53 85 54 86 62 87
REMARK SMILES IDX 55 88 57 89 63 90 56 91 58 92 59 93 60 94 61 95
REMARK H PARENT 19 5 6 18 24 29 83 48 51 59
REMARK Flexibility Score: inf
ROOT
ATOM      1  C   UNL A   1      36.343  33.915  30.294  1.00  0.00     0.116 C 
ENDROOT
BRANCH   1   2
ATOM      2  N   UNL A   1      37.002  34.284  31.537  1.00  0.00    -0.353 N 
ATOM      3  C   UNL A   1      38.328  34.339  31.850  1.00  0.00     0.243 C 
ATOM      4  O   UNL A   1      38.696  34.798  32.927  1.00  0.00    -0.270 OA
ATOM      5  H   UNL A   1      36.394  34.534  32.270  1.00  0.00     0.163 HD
BRANCH   3   6
ATOM      6  C   UNL A   1      39.340  33.917  30.857  1.00  0.00     0.072 C 
ATOM      7  C   UNL A   1      40.639  34.199  31.014  1.00  0.00     0.014 C 
BRANCH   7   8
ATOM      8  C   UNL A   1      41.689  33.751  30.102  1.00  0.00    -0.022 A 
ATOM      9  C   UNL A   1      42.948  31.853  29.209  1.00  0.00     0.010 A 
ATOM     10  C   UNL A   1      43.781  32.765  28.542  1.00  0.00     0.048 A 
ATOM     11  C   UNL A   1      41.887  32.368  29.963  1.00  0.00     0.018 A 
ATOM     12  C   UNL A   1      43.557  34.135  28.649  1.00  0.00     0.124 A 
ATOM     13  F   UNL A   1      44.363  34.983  27.995  1.00  0.00    -0.207 F 
ATOM     14  C   UNL A   1      42.522  34.639  29.428  1.00  0.00     0.047 A 
BRANCH   9  15
ATOM     15  C   UNL A   1      43.170  30.367  29.024  1.00  0.00     0.298 C 
BRANCH  15  16
ATOM     16  N   UNL A   1      44.076  29.898  27.969  1.00  0.00    -0.333 N 
ATOM     17  C   UNL A   1      43.459  28.994  27.005  1.00  0.00     0.333 C 
ATOM     18  H   UNL A   1      44.280  30.771  27.481  1.00  0.00     0.348 HD
BRANCH  16  19
ATOM     19  C   UNL A   1      45.372  29.397  28.408  1.00  0.00     0.266 C 
BRANCH  19  20
ATOM     20  C   UNL A   1      45.529  29.159  29.882  1.00  0.00     0.047 C 
ATOM     21  C   UNL A   1      46.486  31.498  30.797  1.00  0.00     0.008 C 
ATOM     22  C   UNL A   1      46.077  30.077  30.972  1.00  0.00    -0.005 C 
ATOM     23  C   UNL A   1      46.943  28.993  30.411  1.00  0.00     0.013 C 
ENDBRANCH  19  20
ENDBRANCH  16  19
ENDBRANCH  15  16
ENDBRANCH   9  15
ENDBRANCH   7   8
ENDBRANCH   3   6
ENDBRANCH   1   2
BRANCH   1  24
ATOM     24  C   UNL A   1      34.892  34.397  30.262  1.00  0.00     0.023 C 
BRANCH  24  25
ATOM     25  C   UNL A   1      34.025  33.729  29.190  1.00  0.00     0.023 C 
BRANCH  25  26
ATOM     26  C   UNL A   1      34.787  32.893  28.166  1.00  0.00     0.116 C 
BRANCH  26  27
ATOM     27  N   UNL A   1      34.033  31.743  27.689  1.00  0.00    -0.352 N 
ATOM     28  C   UNL A   1      34.428  30.426  27.616  1.00  0.00     0.251 C 
ATOM     29  H   UNL A   1      33.119  31.933  27.376  1.00  0.00     0.163 HD
ATOM     30  O   UNL A   1      33.707  29.601  27.082  1.00  0.00    -0.269 OA
BRANCH  28  31
ATOM     31  C   UNL A   1      35.751  30.032  28.157  1.00  0.00     0.039 A 
ATOM     32  C   UNL A   1      35.836  29.633  29.494  1.00  0.00     0.014 A 
ATOM     33  C   UNL A   1      36.892  30.044  27.353  1.00  0.00     0.014 A 
ATOM     34  C   UNL A   1      37.058  29.189  30.005  1.00  0.00     0.010 A 
ATOM     35  C   UNL A   1      38.092  29.537  27.845  1.00  0.00     0.010 A 
ATOM     36  C   UNL A   1      38.190  29.110  29.177  1.00  0.00    -0.014 A 
BRANCH  36  37
ATOM     37  C   UNL A   1      39.477  28.574  29.687  1.00  0.00     0.031 A 
ATOM     38  C   UNL A   1      40.129  29.181  30.900  1.00  0.00     0.074 A 
ATOM     39  C   UNL A   1      40.098  27.584  29.013  1.00  0.00     0.049 A 
ATOM     40  N   UNL A   1      41.259  28.859  31.472  1.00  0.00    -0.248 NA
ATOM     41  C   UNL A   1      39.437  30.314  31.538  1.00  0.00     0.031 C 
ATOM     42  C   UNL A   1      39.609  26.970  27.777  1.00  0.00     0.029 A 
ATOM     43  N   UNL A   1      41.280  26.932  29.262  1.00  0.00    -0.354 N 
ATOM     44  C   UNL A   1      41.429  29.762  32.514  1.00  0.00     0.074 A 
ATOM     45  C   UNL A   1      40.306  30.671  32.473  1.00  0.00     0.031 C 
ATOM     46  C   UNL A   1      40.474  26.023  27.384  1.00  0.00     0.029 A 
ATOM     47  C   UNL A   1      41.592  25.975  28.323  1.00  0.00     0.049 A 
ATOM     48  H   UNL A   1      41.852  27.130  30.038  1.00  0.00     0.167 HD
ATOM     49  C   UNL A   1      42.413  29.808  33.443  1.00  0.00     0.034 A 
ATOM     50  C   UNL A   1      42.653  25.150  28.229  1.00  0.00     0.034 A 
ATOM     51  C   UNL A   1      43.495  28.866  33.514  1.00  0.00     0.049 A 
ATOM     52  C   UNL A   1      43.706  25.186  29.303  1.00  0.00     0.074 A 
ATOM     53  C   UNL A   1      44.484  28.770  34.477  1.00  0.00     0.029 A 
ATOM     54  N   UNL A   1      43.734  27.861  32.591  1.00  0.00    -0.354 N 
ATOM     55  N   UNL A   1      43.763  25.942  30.372  1.00  0.00    -0.248 NA
ATOM     56  C   UNL A   1      44.822  24.236  29.181  1.00  0.00     0.031 C 
ATOM     57  C   UNL A   1      45.334  27.717  34.125  1.00  0.00     0.029 A 
ATOM     58  C   UNL A   1      44.860  27.143  32.956  1.00  0.00     0.049 A 
ATOM     59  H   UNL A   1      43.184  27.683  31.794  1.00  0.00     0.167 HD
ATOM     60  C   UNL A   1      44.899  25.541  31.065  1.00  0.00     0.074 A 
ATOM     61  C   UNL A   1      45.494  24.462  30.304  1.00  0.00     0.031 C 
ATOM     62  C   UNL A   1      45.411  26.035  32.220  1.00  0.00     0.034 A 
BRANCH  49  63
ATOM     63  C   UNL A   1      42.329  30.866  34.512  1.00  0.00     0.023 A 
ATOM     64  C   UNL A   1      41.755  30.542  35.758  1.00  0.00     0.012 A 
ATOM     65  C   UNL A   1      42.904  32.138  34.324  1.00  0.00     0.148 A 
ATOM     66  C   UNL A   1      41.731  31.475  36.792  1.00  0.00     0.002 A 
ATOM     67  C   UNL A   1      42.917  33.047  35.375  1.00  0.00     0.091 A 
ATOM     68  F   UNL A   1      43.429  32.432  33.126  1.00  0.00    -0.205 F 
ATOM     69  C   UNL A   1      42.322  32.721  36.606  1.00  0.00     0.022 A 
BRANCH  67  70
ATOM     70  S   UNL A   1      43.727  34.648  35.266  1.00  0.00     0.127 S 
ATOM     71  O   UNL A   1      43.471  35.198  36.596  1.00  0.00    -0.237 OA
ATOM     72  O   UNL A   1      45.119  34.270  35.019  1.00  0.00    -0.237 OA
ATOM     73  O   UNL A   1      43.082  35.351  34.167  1.00  0.00    -0.744 OA
ENDBRANCH  67  70
ENDBRANCH  49  63
BRANCH  50  74
ATOM     74  C   UNL A   1      42.715  24.157  27.119  1.00  0.00     0.023 A 
ATOM     75  C   UNL A   1      43.455  24.465  25.961  1.00  0.00     0.012 A 
ATOM     76  C   UNL A   1      42.110  22.890  27.229  1.00  0.00     0.148 A 
ATOM     77  C   UNL A   1      43.579  23.536  24.927  1.00  0.00     0.002 A 
ATOM     78  C   UNL A   1      42.283  21.949  26.221  1.00  0.00     0.091 A 
ATOM     79  F   UNL A   1      41.400  22.621  28.335  1.00  0.00    -0.205 F 
ATOM     80  C   UNL A   1      43.006  22.275  25.062  1.00  0.00     0.022 A 
BRANCH  78  81
ATOM     81  S   UNL A   1      41.705  20.255  26.371  1.00  0.00     0.127 S 
ATOM     82  O   UNL A   1      42.472  19.582  25.325  1.00  0.00    -0.237 OA
ATOM     83  O   UNL A   1      42.102  19.920  27.739  1.00  0.00    -0.237 OA
ATOM     84  O   UNL A   1      40.264  20.311  26.161  1.00  0.00    -0.744 OA
ENDBRANCH  78  81
ENDBRANCH  50  74
BRANCH  62  85
ATOM     85  C   UNL A   1      46.671  25.415  32.765  1.00  0.00     0.023 A 
ATOM     86  C   UNL A   1      47.916  26.005  32.471  1.00  0.00     0.012 A 
ATOM     87  C   UNL A   1      46.607  24.346  33.680  1.00  0.00     0.148 A 
ATOM     88  C   UNL A   1      49.080  25.532  33.074  1.00  0.00     0.002 A 
ATOM     89  C   UNL A   1      47.765  23.912  34.314  1.00  0.00     0.091 A 
ATOM     90  F   UNL A   1      45.412  23.792  33.934  1.00  0.00    -0.205 F 
ATOM     91  C   UNL A   1      49.003  24.499  34.005  1.00  0.00     0.022 A 
BRANCH  89  92
ATOM     92  S   UNL A   1      47.752  22.661  35.603  1.00  0.00     0.127 S 
ATOM     93  O   UNL A   1      46.607  23.077  36.411  1.00  0.00    -0.237 OA
ATOM     94  O   UNL A   1      47.542  21.432  34.838  1.00  0.00    -0.237 OA
ATOM     95  O   UNL A   1      49.045  22.749  36.266  1.00  0.00    -0.744 OA
ENDBRANCH  89  92
ENDBRANCH  62  85
ENDBRANCH  36  37
ENDBRANCH  28  31
ENDBRANCH  26  27
ENDBRANCH  25  26
ENDBRANCH  24  25
ENDBRANCH   1  24
TORSDOF 19
ENDMDL
