MODEL 1
REMARK VINA RESULT:     -11.8      0.000      0.000
REMARK SMILES CC[N@@H+](C)Cc1cc2c(cc1Cl)C=C(C(=O)NCCCCNC(=O)c1ccc(-c3c4nc(c(-c5cccc(S(=O)(=O)[O-])c5F)c5ccc([nH]5)c(-c5cccc(S(=O)(=O)[O-])c5F)c5nc(c(-c6cccc(S(=O)(=O)[O-])c6F)c6ccc3[nH]6)C=C5)C=C4)cc1)[C@@H](C(F)(F)F)O2
REMARK SMILES IDX 19 1 18 2 17 3 15 4 16 5 14 7 6 8 7 9 11 10 8 11 10 12 12 13
REMARK SMILES IDX 9 14 93 15 13 16 88 17 5 18 3 19 4 20 2 22 1 23 89 24 90 25
REMARK SMILES IDX 91 26 92 27 20 28 21 29 22 30 23 31 24 33 25 34 26 35 87 36
REMARK SMILES IDX 27 37 86 38 28 39 29 40 30 41 80 42 31 43 85 44 79 45 81 46
REMARK SMILES IDX 32 47 84 48 78 49 77 50 33 52 65 53 45 54 64 55 46 56 49 57
REMARK SMILES IDX 63 58 82 59 47 60 48 61 62 63 83 64 50 65 34 66 35 67 43 68
REMARK SMILES IDX 36 69 38 70 44 71 37 72 39 73 40 74 41 75 42 76 66 77 67 78
REMARK SMILES IDX 75 79 68 80 70 81 76 82 69 83 71 84 72 85 73 86 74 87 51 88
REMARK SMILES IDX 52 89 60 90 53 91 55 92 61 93 54 94 56 95 57 96 58 97 59 98
REMARK H PARENT 17 6 3 21 22 32 81 51 49 62
REMARK Flexibility Score: inf
ROOT
ATOM      1  C   UNL A   1      37.537  20.518  25.001  1.00  0.00     0.023 C 
ENDROOT
BRANCH   1   2
ATOM      2  C   UNL A   1      36.108  20.957  25.308  1.00  0.00     0.116 C 
BRANCH   2   3
ATOM      3  N   UNL A   1      35.133  19.945  24.944  1.00  0.00    -0.352 N 
ATOM      4  C   UNL A   1      33.802  19.913  24.705  1.00  0.00     0.251 C 
ATOM      5  O   UNL A   1      33.330  18.799  24.454  1.00  0.00    -0.270 OA
ATOM      6  H   UNL A   1      35.545  19.056  24.847  1.00  0.00     0.163 HD
BRANCH   4   7
ATOM      7  C   UNL A   1      32.902  21.105  24.708  1.00  0.00     0.067 C 
ATOM      8  C   UNL A   1      30.800  25.561  23.582  1.00  0.00     0.029 A 
ATOM      9  C   UNL A   1      30.628  24.610  24.605  1.00  0.00     0.058 A 
ATOM     10  C   UNL A   1      31.606  25.202  22.489  1.00  0.00     0.050 A 
ATOM     11  C   UNL A   1      31.314  23.398  24.587  1.00  0.00     0.128 A 
ATOM     12  C   UNL A   1      32.290  23.976  22.472  1.00  0.00     0.033 A 
ATOM     13  Cl  UNL A   1      31.782  26.212  21.097  1.00  0.00    -0.084 Cl
ATOM     14  C   UNL A   1      32.164  23.081  23.536  1.00  0.00     0.019 A 
ATOM     15  O   UNL A   1      31.080  22.551  25.628  1.00  0.00    -0.475 OA
ATOM     16  C   UNL A   1      32.903  21.826  23.571  1.00  0.00     0.025 C 
ATOM     17  C   UNL A   1      32.118  21.567  25.906  1.00  0.00     0.314 C 
BRANCH   8  18
ATOM     18  C   UNL A   1      30.114  26.907  23.732  1.00  0.00     0.300 C 
BRANCH  18  19
ATOM     19  N   UNL A   1      30.971  28.076  24.016  1.00  0.00    -0.334 N 
ATOM     20  C   UNL A   1      31.503  28.062  25.377  1.00  0.00     0.333 C 
ATOM     21  H   UNL A   1      31.740  27.958  23.356  1.00  0.00     0.348 HD
BRANCH  19  22
ATOM     22  C   UNL A   1      30.393  29.388  23.703  1.00  0.00     0.258 C 
ATOM     23  C   UNL A   1      29.603  29.400  22.400  1.00  0.00     0.071 C 
ENDBRANCH  19  22
ENDBRANCH  18  19
ENDBRANCH   8  18
BRANCH  17  24
ATOM     24  C   UNL A   1      33.004  22.102  27.045  1.00  0.00     0.429 C 
ATOM     25  F   UNL A   1      33.683  21.083  27.631  1.00  0.00    -0.167 F 
ATOM     26  F   UNL A   1      33.931  22.987  26.620  1.00  0.00    -0.167 F 
ATOM     27  F   UNL A   1      32.284  22.713  28.015  1.00  0.00    -0.167 F 
ENDBRANCH  17  24
ENDBRANCH   4   7
ENDBRANCH   2   3
ENDBRANCH   1   2
BRANCH   1  28
ATOM     28  C   UNL A   1      38.607  21.543  25.386  1.00  0.00     0.023 C 
BRANCH  28  29
ATOM     29  C   UNL A   1      39.590  21.094  26.466  1.00  0.00     0.116 C 
BRANCH  29  30
ATOM     30  N   UNL A   1      40.321  19.876  26.139  1.00  0.00    -0.352 N 
ATOM     31  C   UNL A   1      41.689  19.722  26.072  1.00  0.00     0.251 C 
ATOM     32  H   UNL A   1      39.780  19.077  25.946  1.00  0.00     0.163 HD
ATOM     33  O   UNL A   1      42.190  18.655  25.743  1.00  0.00    -0.269 OA
BRANCH  31  34
ATOM     34  C   UNL A   1      42.522  20.906  26.351  1.00  0.00     0.039 A 
ATOM     35  C   UNL A   1      42.857  21.218  27.671  1.00  0.00     0.014 A 
ATOM     36  C   UNL A   1      42.823  21.779  25.304  1.00  0.00     0.014 A 
ATOM     37  C   UNL A   1      43.354  22.484  27.961  1.00  0.00     0.010 A 
ATOM     38  C   UNL A   1      43.377  23.026  25.596  1.00  0.00     0.010 A 
ATOM     39  C   UNL A   1      43.591  23.408  26.929  1.00  0.00    -0.014 A 
BRANCH  39  40
ATOM     40  C   UNL A   1      44.031  24.782  27.268  1.00  0.00     0.031 A 
ATOM     41  C   UNL A   1      45.438  25.231  26.977  1.00  0.00     0.074 A 
ATOM     42  C   UNL A   1      43.141  25.643  27.796  1.00  0.00     0.049 A 
ATOM     43  N   UNL A   1      45.990  26.396  27.202  1.00  0.00    -0.248 NA
ATOM     44  C   UNL A   1      46.344  24.251  26.354  1.00  0.00     0.031 C 
ATOM     45  C   UNL A   1      41.752  25.317  28.121  1.00  0.00     0.029 A 
ATOM     46  N   UNL A   1      43.265  26.966  28.133  1.00  0.00    -0.354 N 
ATOM     47  C   UNL A   1      47.313  26.277  26.794  1.00  0.00     0.074 A 
ATOM     48  C   UNL A   1      47.483  24.930  26.295  1.00  0.00     0.031 C 
ATOM     49  C   UNL A   1      41.139  26.422  28.570  1.00  0.00     0.029 A 
ATOM     50  C   UNL A   1      42.099  27.520  28.605  1.00  0.00     0.049 A 
ATOM     51  H   UNL A   1      44.106  27.469  28.046  1.00  0.00     0.167 HD
ATOM     52  C   UNL A   1      48.290  27.213  26.817  1.00  0.00     0.034 A 
ATOM     53  C   UNL A   1      41.831  28.775  29.016  1.00  0.00     0.034 A 
ATOM     54  C   UNL A   1      48.103  28.568  27.260  1.00  0.00     0.049 A 
ATOM     55  C   UNL A   1      42.921  29.805  28.982  1.00  0.00     0.074 A 
ATOM     56  C   UNL A   1      49.039  29.586  27.324  1.00  0.00     0.029 A 
ATOM     57  N   UNL A   1      46.899  29.100  27.690  1.00  0.00    -0.354 N 
ATOM     58  N   UNL A   1      44.155  29.680  28.561  1.00  0.00    -0.248 NA
ATOM     59  C   UNL A   1      42.580  31.151  29.466  1.00  0.00     0.031 C 
ATOM     60  C   UNL A   1      48.394  30.743  27.776  1.00  0.00     0.029 A 
ATOM     61  C   UNL A   1      47.061  30.439  28.002  1.00  0.00     0.049 A 
ATOM     62  H   UNL A   1      46.054  28.601  27.764  1.00  0.00     0.167 HD
ATOM     63  C   UNL A   1      44.740  30.929  28.723  1.00  0.00     0.074 A 
ATOM     64  C   UNL A   1      43.716  31.805  29.256  1.00  0.00     0.031 C 
ATOM     65  C   UNL A   1      46.016  31.307  28.478  1.00  0.00     0.034 A 
BRANCH  52  66
ATOM     66  C   UNL A   1      49.648  26.829  26.301  1.00  0.00     0.023 A 
ATOM     67  C   UNL A   1      50.471  26.009  27.094  1.00  0.00     0.012 A 
ATOM     68  C   UNL A   1      50.066  27.193  25.007  1.00  0.00     0.148 A 
ATOM     69  C   UNL A   1      51.696  25.554  26.607  1.00  0.00     0.002 A 
ATOM     70  C   UNL A   1      51.278  26.719  24.520  1.00  0.00     0.091 A 
ATOM     71  F   UNL A   1      49.272  27.994  24.281  1.00  0.00    -0.205 F 
ATOM     72  C   UNL A   1      52.094  25.900  25.319  1.00  0.00     0.022 A 
BRANCH  70  73
ATOM     73  S   UNL A   1      51.860  27.068  22.855  1.00  0.00     0.127 S 
ATOM     74  O   UNL A   1      52.198  28.487  22.955  1.00  0.00    -0.237 OA
ATOM     75  O   UNL A   1      53.011  26.174  22.736  1.00  0.00    -0.237 OA
ATOM     76  O   UNL A   1      50.748  26.753  21.968  1.00  0.00    -0.744 OA
ENDBRANCH  70  73
ENDBRANCH  52  66
BRANCH  53  77
ATOM     77  C   UNL A   1      40.441  29.118  29.413  1.00  0.00     0.023 A 
ATOM     78  C   UNL A   1      39.505  29.447  28.415  1.00  0.00     0.012 A 
ATOM     79  C   UNL A   1      40.016  29.010  30.752  1.00  0.00     0.148 A 
ATOM     80  C   UNL A   1      38.167  29.660  28.742  1.00  0.00     0.002 A 
ATOM     81  C   UNL A   1      38.672  29.176  31.063  1.00  0.00     0.091 A 
ATOM     82  F   UNL A   1      40.930  28.715  31.687  1.00  0.00    -0.205 F 
ATOM     83  C   UNL A   1      37.747  29.508  30.061  1.00  0.00     0.022 A 
BRANCH  81  84
ATOM     84  S   UNL A   1      38.028  28.856  32.710  1.00  0.00     0.127 S 
ATOM     85  O   UNL A   1      36.640  29.287  32.577  1.00  0.00    -0.237 OA
ATOM     86  O   UNL A   1      38.216  27.410  32.836  1.00  0.00    -0.237 OA
ATOM     87  O   UNL A   1      38.857  29.646  33.611  1.00  0.00    -0.744 OA
ENDBRANCH  81  84
ENDBRANCH  53  77
BRANCH  65  88
ATOM     88  C   UNL A   1      46.393  32.728  28.781  1.00  0.00     0.023 A 
ATOM     89  C   UNL A   1      46.975  33.026  30.028  1.00  0.00     0.012 A 
ATOM     90  C   UNL A   1      46.268  33.737  27.808  1.00  0.00     0.148 A 
ATOM     91  C   UNL A   1      47.424  34.316  30.305  1.00  0.00     0.002 A 
ATOM     92  C   UNL A   1      46.739  35.015  28.084  1.00  0.00     0.091 A 
ATOM     93  F   UNL A   1      45.691  33.431  26.638  1.00  0.00    -0.205 F 
ATOM     94  C   UNL A   1      47.315  35.307  29.332  1.00  0.00     0.022 A 
BRANCH  92  95
ATOM     95  S   UNL A   1      46.695  36.332  26.862  1.00  0.00     0.127 S 
ATOM     96  O   UNL A   1      47.461  35.746  25.765  1.00  0.00    -0.237 OA
ATOM     97  O   UNL A   1      45.262  36.473  26.600  1.00  0.00    -0.237 OA
ATOM     98  O   UNL A   1      47.303  37.489  27.508  1.00  0.00    -0.744 OA
ENDBRANCH  92  95
ENDBRANCH  65  88
ENDBRANCH  39  40
ENDBRANCH  31  34
ENDBRANCH  29  30
ENDBRANCH  28  29
ENDBRANCH   1  28
TORSDOF 18
ENDMDL
MODEL 2
REMARK VINA RESULT:     -11.6      2.445      3.058
REMARK SMILES CC[N@@H+](C)Cc1cc2c(cc1Cl)C=C(C(=O)NCCCCNC(=O)c1ccc(-c3c4nc(c(-c5cccc(S(=O)(=O)[O-])c5F)c5ccc([nH]5)c(-c5cccc(S(=O)(=O)[O-])c5F)c5nc(c(-c6cccc(S(=O)(=O)[O-])c6F)c6ccc3[nH]6)C=C5)C=C4)cc1)[C@@H](C(F)(F)F)O2
REMARK SMILES IDX 19 1 18 2 17 3 15 4 16 5 14 7 6 8 7 9 11 10 8 11 10 12 12 13
REMARK SMILES IDX 9 14 93 15 13 16 88 17 5 18 3 19 4 20 2 22 1 23 89 24 90 25
REMARK SMILES IDX 91 26 92 27 20 28 21 29 22 30 23 31 24 33 25 34 26 35 87 36
REMARK SMILES IDX 27 37 86 38 28 39 29 40 30 41 80 42 31 43 85 44 79 45 81 46
REMARK SMILES IDX 32 47 84 48 78 49 77 50 33 52 65 53 45 54 64 55 46 56 49 57
REMARK SMILES IDX 63 58 82 59 47 60 48 61 62 63 83 64 50 65 34 66 35 67 43 68
REMARK SMILES IDX 36 69 38 70 44 71 37 72 39 73 40 74 41 75 42 76 66 77 67 78
REMARK SMILES IDX 75 79 68 80 70 81 76 82 69 83 71 84 72 85 73 86 74 87 51 88
REMARK SMILES IDX 52 89 60 90 53 91 55 92 61 93 54 94 56 95 57 96 58 97 59 98
REMARK H PARENT 17 6 3 21 22 32 81 51 49 62
REMARK Flexibility Score: inf
ROOT
ATOM      1  C   UNL A   1      37.327  20.683  24.616  1.00  0.00     0.023 C 
ENDROOT
BRANCH   1   2
ATOM      2  C   UNL A   1      37.219  21.768  25.683  1.00  0.00     0.116 C 
BRANCH   2   3
ATOM      3  N   UNL A   1      35.979  21.679  26.431  1.00  0.00    -0.352 N 
ATOM      4  C   UNL A   1      34.799  22.342  26.449  1.00  0.00     0.251 C 
ATOM      5  O   UNL A   1      33.986  21.965  27.299  1.00  0.00    -0.270 OA
ATOM      6  H   UNL A   1      36.002  20.953  27.095  1.00  0.00     0.163 HD
BRANCH   4   7
ATOM      7  C   UNL A   1      34.427  23.452  25.522  1.00  0.00     0.067 C 
ATOM      8  C   UNL A   1      32.571  27.780  23.683  1.00  0.00     0.029 A 
ATOM      9  C   UNL A   1      33.140  26.622  23.121  1.00  0.00     0.058 A 
ATOM     10  C   UNL A   1      32.640  27.925  25.079  1.00  0.00     0.050 A 
ATOM     11  C   UNL A   1      33.658  25.608  23.923  1.00  0.00     0.128 A 
ATOM     12  C   UNL A   1      33.171  26.905  25.883  1.00  0.00     0.033 A 
ATOM     13  Cl  UNL A   1      32.119  29.362  25.887  1.00  0.00    -0.084 Cl
ATOM     14  C   UNL A   1      33.658  25.731  25.306  1.00  0.00     0.019 A 
ATOM     15  O   UNL A   1      34.179  24.528  23.278  1.00  0.00    -0.475 OA
ATOM     16  C   UNL A   1      34.165  24.632  26.118  1.00  0.00     0.025 C 
ATOM     17  C   UNL A   1      34.240  23.287  24.039  1.00  0.00     0.314 C 
BRANCH   8  18
ATOM     18  C   UNL A   1      31.917  28.783  22.752  1.00  0.00     0.300 C 
BRANCH  18  19
ATOM     19  N   UNL A   1      30.477  29.052  22.947  1.00  0.00    -0.334 N 
ATOM     20  C   UNL A   1      29.681  27.827  22.992  1.00  0.00     0.333 C 
ATOM     21  H   UNL A   1      30.454  29.499  23.864  1.00  0.00     0.348 HD
BRANCH  19  22
ATOM     22  C   UNL A   1      29.874  30.025  22.029  1.00  0.00     0.258 C 
ATOM     23  C   UNL A   1      28.742  30.825  22.661  1.00  0.00     0.071 C 
ENDBRANCH  19  22
ENDBRANCH  18  19
ENDBRANCH   8  18
BRANCH  17  24
ATOM     24  C   UNL A   1      33.015  22.430  23.671  1.00  0.00     0.429 C 
ATOM     25  F   UNL A   1      31.966  22.738  24.476  1.00  0.00    -0.167 F 
ATOM     26  F   UNL A   1      32.596  22.628  22.402  1.00  0.00    -0.167 F 
ATOM     27  F   UNL A   1      33.252  21.106  23.811  1.00  0.00    -0.167 F 
ENDBRANCH  17  24
ENDBRANCH   4   7
ENDBRANCH   2   3
ENDBRANCH   1   2
BRANCH   1  28
ATOM     28  C   UNL A   1      38.234  19.510  24.999  1.00  0.00     0.023 C 
BRANCH  28  29
ATOM     29  C   UNL A   1      39.177  19.764  26.174  1.00  0.00     0.116 C 
BRANCH  29  30
ATOM     30  N   UNL A   1      40.507  19.191  26.008  1.00  0.00    -0.352 N 
ATOM     31  C   UNL A   1      41.713  19.816  26.233  1.00  0.00     0.251 C 
ATOM     32  H   UNL A   1      40.546  18.256  25.703  1.00  0.00     0.163 HD
ATOM     33  O   UNL A   1      42.773  19.242  26.016  1.00  0.00    -0.269 OA
BRANCH  31  34
ATOM     34  C   UNL A   1      41.680  21.219  26.686  1.00  0.00     0.039 A 
ATOM     35  C   UNL A   1      41.473  22.240  25.755  1.00  0.00     0.014 A 
ATOM     36  C   UNL A   1      42.018  21.506  28.010  1.00  0.00     0.014 A 
ATOM     37  C   UNL A   1      41.761  23.551  26.115  1.00  0.00     0.010 A 
ATOM     38  C   UNL A   1      42.248  22.832  28.380  1.00  0.00     0.010 A 
ATOM     39  C   UNL A   1      42.178  23.855  27.422  1.00  0.00    -0.014 A 
BRANCH  39  40
ATOM     40  C   UNL A   1      42.570  25.244  27.758  1.00  0.00     0.031 A 
ATOM     41  C   UNL A   1      43.955  25.747  27.448  1.00  0.00     0.074 A 
ATOM     42  C   UNL A   1      41.656  26.068  28.302  1.00  0.00     0.049 A 
ATOM     43  N   UNL A   1      44.464  26.931  27.668  1.00  0.00    -0.248 NA
ATOM     44  C   UNL A   1      44.888  24.804  26.808  1.00  0.00     0.031 C 
ATOM     45  C   UNL A   1      40.286  25.688  28.646  1.00  0.00     0.029 A 
ATOM     46  N   UNL A   1      41.734  27.394  28.641  1.00  0.00    -0.354 N 
ATOM     47  C   UNL A   1      45.784  26.865  27.240  1.00  0.00     0.074 A 
ATOM     48  C   UNL A   1      45.999  25.527  26.735  1.00  0.00     0.031 C 
ATOM     49  C   UNL A   1      39.637  26.767  29.108  1.00  0.00     0.029 A 
ATOM     50  C   UNL A   1      40.554  27.902  29.132  1.00  0.00     0.049 A 
ATOM     51  H   UNL A   1      42.553  27.929  28.543  1.00  0.00     0.167 HD
ATOM     52  C   UNL A   1      46.725  27.838  27.253  1.00  0.00     0.034 A 
ATOM     53  C   UNL A   1      40.245  29.144  29.550  1.00  0.00     0.034 A 
ATOM     54  C   UNL A   1      46.493  29.184  27.702  1.00  0.00     0.049 A 
ATOM     55  C   UNL A   1      41.293  30.216  29.505  1.00  0.00     0.074 A 
ATOM     56  C   UNL A   1      47.390  30.237  27.755  1.00  0.00     0.029 A 
ATOM     57  N   UNL A   1      45.276  29.668  28.151  1.00  0.00    -0.354 N 
ATOM     58  N   UNL A   1      42.525  30.140  29.065  1.00  0.00    -0.248 NA
ATOM     59  C   UNL A   1      40.908  31.546  29.997  1.00  0.00     0.031 C 
ATOM     60  C   UNL A   1      46.708  31.366  28.221  1.00  0.00     0.029 A 
ATOM     61  C   UNL A   1      45.391  31.011  28.465  1.00  0.00     0.049 A 
ATOM     62  H   UNL A   1      44.452  29.136  28.236  1.00  0.00     0.167 HD
ATOM     63  C   UNL A   1      43.064  31.409  29.221  1.00  0.00     0.074 A 
ATOM     64  C   UNL A   1      42.015  32.244  29.773  1.00  0.00     0.031 C 
ATOM     65  C   UNL A   1      44.321  31.837  28.959  1.00  0.00     0.034 A 
BRANCH  52  66
ATOM     66  C   UNL A   1      48.089  27.508  26.715  1.00  0.00     0.023 A 
ATOM     67  C   UNL A   1      48.330  27.648  25.336  1.00  0.00     0.012 A 
ATOM     68  C   UNL A   1      49.148  27.160  27.576  1.00  0.00     0.148 A 
ATOM     69  C   UNL A   1      49.609  27.445  24.817  1.00  0.00     0.002 A 
ATOM     70  C   UNL A   1      50.423  26.980  27.055  1.00  0.00     0.091 A 
ATOM     71  F   UNL A   1      48.886  27.012  28.883  1.00  0.00    -0.205 F 
ATOM     72  C   UNL A   1      50.655  27.121  25.677  1.00  0.00     0.022 A 
BRANCH  70  73
ATOM     73  S   UNL A   1      51.849  26.607  28.084  1.00  0.00     0.127 S 
ATOM     74  O   UNL A   1      51.380  25.435  28.822  1.00  0.00    -0.237 OA
ATOM     75  O   UNL A   1      52.884  26.328  27.089  1.00  0.00    -0.237 OA
ATOM     76  O   UNL A   1      52.084  27.797  28.889  1.00  0.00    -0.744 OA
ENDBRANCH  70  73
ENDBRANCH  52  66
BRANCH  53  77
ATOM     77  C   UNL A   1      38.848  29.432  29.970  1.00  0.00     0.023 A 
ATOM     78  C   UNL A   1      38.453  29.130  31.286  1.00  0.00     0.012 A 
ATOM     79  C   UNL A   1      37.952  30.101  29.114  1.00  0.00     0.148 A 
ATOM     80  C   UNL A   1      37.188  29.494  31.747  1.00  0.00     0.002 A 
ATOM     81  C   UNL A   1      36.711  30.503  29.595  1.00  0.00     0.091 A 
ATOM     82  F   UNL A   1      38.345  30.360  27.858  1.00  0.00    -0.205 F 
ATOM     83  C   UNL A   1      36.325  30.194  30.908  1.00  0.00     0.022 A 
BRANCH  81  84
ATOM     84  S   UNL A   1      35.602  31.533  28.626  1.00  0.00     0.127 S 
ATOM     85  O   UNL A   1      35.100  30.583  27.638  1.00  0.00    -0.237 OA
ATOM     86  O   UNL A   1      34.623  31.956  29.630  1.00  0.00    -0.237 OA
ATOM     87  O   UNL A   1      36.429  32.614  28.108  1.00  0.00    -0.744 OA
ENDBRANCH  81  84
ENDBRANCH  53  77
BRANCH  65  88
ATOM     88  C   UNL A   1      44.647  33.270  29.261  1.00  0.00     0.023 A 
ATOM     89  C   UNL A   1      45.142  33.602  30.537  1.00  0.00     0.012 A 
ATOM     90  C   UNL A   1      44.563  34.261  28.265  1.00  0.00     0.148 A 
ATOM     91  C   UNL A   1      45.544  34.905  30.820  1.00  0.00     0.002 A 
ATOM     92  C   UNL A   1      44.988  35.553  28.548  1.00  0.00     0.091 A 
ATOM     93  F   UNL A   1      44.068  33.923  27.066  1.00  0.00    -0.205 F 
ATOM     94  C   UNL A   1      45.477  35.878  29.825  1.00  0.00     0.022 A 
BRANCH  92  95
ATOM     95  S   UNL A   1      44.994  36.850  27.304  1.00  0.00     0.127 S 
ATOM     96  O   UNL A   1      45.903  36.298  26.303  1.00  0.00    -0.237 OA
ATOM     97  O   UNL A   1      43.591  36.900  26.893  1.00  0.00    -0.237 OA
ATOM     98  O   UNL A   1      45.461  38.050  27.987  1.00  0.00    -0.744 OA
ENDBRANCH  92  95
ENDBRANCH  65  88
ENDBRANCH  39  40
ENDBRANCH  31  34
ENDBRANCH  29  30
ENDBRANCH  28  29
ENDBRANCH   1  28
TORSDOF 18
ENDMDL
MODEL 3
REMARK VINA RESULT:     -11.5      6.211     11.061
REMARK SMILES CC[N@@H+](C)Cc1cc2c(cc1Cl)C=C(C(=O)NCCCCNC(=O)c1ccc(-c3c4nc(c(-c5cccc(S(=O)(=O)[O-])c5F)c5ccc([nH]5)c(-c5cccc(S(=O)(=O)[O-])c5F)c5nc(c(-c6cccc(S(=O)(=O)[O-])c6F)c6ccc3[nH]6)C=C5)C=C4)cc1)[C@@H](C(F)(F)F)O2
REMARK SMILES IDX 19 1 18 2 17 3 15 4 16 5 14 7 6 8 7 9 11 10 8 11 10 12 12 13
REMARK SMILES IDX 9 14 93 15 13 16 88 17 5 18 3 19 4 20 2 22 1 23 89 24 90 25
REMARK SMILES IDX 91 26 92 27 20 28 21 29 22 30 23 31 24 33 25 34 26 35 87 36
REMARK SMILES IDX 27 37 86 38 28 39 29 40 30 41 80 42 31 43 85 44 79 45 81 46
REMARK SMILES IDX 32 47 84 48 78 49 77 50 33 52 65 53 45 54 64 55 46 56 49 57
REMARK SMILES IDX 63 58 82 59 47 60 48 61 62 63 83 64 50 65 34 66 35 67 43 68
REMARK SMILES IDX 36 69 38 70 44 71 37 72 39 73 40 74 41 75 42 76 66 77 67 78
REMARK SMILES IDX 75 79 68 80 70 81 76 82 69 83 71 84 72 85 73 86 74 87 51 88
REMARK SMILES IDX 52 89 60 90 53 91 55 92 61 93 54 94 56 95 57 96 58 97 59 98
REMARK H PARENT 17 6 3 21 22 32 81 51 49 62
REMARK Flexibility Score: inf
ROOT
ATOM      1  C   UNL A   1      32.477  29.275  27.284  1.00  0.00     0.023 C 
ENDROOT
BRANCH   1   2
ATOM      2  C   UNL A   1      31.938  28.265  26.275  1.00  0.00     0.116 C 
BRANCH   2   3
ATOM      3  N   UNL A   1      32.691  28.274  25.034  1.00  0.00    -0.352 N 
ATOM      4  C   UNL A   1      33.274  27.347  24.239  1.00  0.00     0.251 C 
ATOM      5  O   UNL A   1      33.875  27.788  23.255  1.00  0.00    -0.270 OA
ATOM      6  H   UNL A   1      32.808  29.185  24.683  1.00  0.00     0.163 HD
BRANCH   4   7
ATOM      7  C   UNL A   1      33.220  25.871  24.463  1.00  0.00     0.067 C 
ATOM      8  C   UNL A   1      34.492  20.987  24.730  1.00  0.00     0.029 A 
ATOM      9  C   UNL A   1      33.294  21.711  24.864  1.00  0.00     0.058 A 
ATOM     10  C   UNL A   1      35.691  21.718  24.664  1.00  0.00     0.050 A 
ATOM     11  C   UNL A   1      33.284  23.104  24.828  1.00  0.00     0.128 A 
ATOM     12  C   UNL A   1      35.676  23.121  24.636  1.00  0.00     0.033 A 
ATOM     13  Cl  UNL A   1      37.241  20.954  24.649  1.00  0.00    -0.084 Cl
ATOM     14  C   UNL A   1      34.468  23.817  24.692  1.00  0.00     0.019 A 
ATOM     15  O   UNL A   1      32.070  23.707  24.961  1.00  0.00    -0.475 OA
ATOM     16  C   UNL A   1      34.417  25.271  24.611  1.00  0.00     0.025 C 
ATOM     17  C   UNL A   1      31.956  25.057  24.425  1.00  0.00     0.314 C 
BRANCH   8  18
ATOM     18  C   UNL A   1      34.411  19.473  24.656  1.00  0.00     0.300 C 
BRANCH  18  19
ATOM     19  N   UNL A   1      33.064  18.866  24.640  1.00  0.00    -0.334 N 
ATOM     20  C   UNL A   1      32.684  18.312  25.937  1.00  0.00     0.333 C 
ATOM     21  H   UNL A   1      32.461  19.662  24.427  1.00  0.00     0.348 HD
BRANCH  19  22
ATOM     22  C   UNL A   1      32.809  17.895  23.569  1.00  0.00     0.258 C 
ATOM     23  C   UNL A   1      34.025  17.040  23.233  1.00  0.00     0.071 C 
ENDBRANCH  19  22
ENDBRANCH  18  19
ENDBRANCH   8  18
BRANCH  17  24
ATOM     24  C   UNL A   1      31.327  24.972  23.022  1.00  0.00     0.429 C 
ATOM     25  F   UNL A   1      32.254  24.572  22.115  1.00  0.00    -0.167 F 
ATOM     26  F   UNL A   1      30.313  24.083  22.952  1.00  0.00    -0.167 F 
ATOM     27  F   UNL A   1      30.844  26.163  22.601  1.00  0.00    -0.167 F 
ENDBRANCH  17  24
ENDBRANCH   4   7
ENDBRANCH   2   3
ENDBRANCH   1   2
BRANCH   1  28
ATOM     28  C   UNL A   1      32.154  30.734  26.948  1.00  0.00     0.023 C 
BRANCH  28  29
ATOM     29  C   UNL A   1      33.226  31.751  27.335  1.00  0.00     0.116 C 
BRANCH  29  30
ATOM     30  N   UNL A   1      32.724  33.106  27.528  1.00  0.00    -0.352 N 
ATOM     31  C   UNL A   1      33.233  34.066  28.374  1.00  0.00     0.251 C 
ATOM     32  H   UNL A   1      31.936  33.361  26.997  1.00  0.00     0.163 HD
ATOM     33  O   UNL A   1      32.696  35.162  28.483  1.00  0.00    -0.269 OA
BRANCH  31  34
ATOM     34  C   UNL A   1      34.411  33.706  29.185  1.00  0.00     0.039 A 
ATOM     35  C   UNL A   1      35.677  34.148  28.797  1.00  0.00     0.014 A 
ATOM     36  C   UNL A   1      34.253  32.797  30.233  1.00  0.00     0.014 A 
ATOM     37  C   UNL A   1      36.802  33.553  29.357  1.00  0.00     0.010 A 
ATOM     38  C   UNL A   1      35.386  32.247  30.833  1.00  0.00     0.010 A 
ATOM     39  C   UNL A   1      36.665  32.578  30.360  1.00  0.00    -0.014 A 
BRANCH  39  40
ATOM     40  C   UNL A   1      37.872  31.889  30.877  1.00  0.00     0.031 A 
ATOM     41  C   UNL A   1      38.383  32.176  32.264  1.00  0.00     0.074 A 
ATOM     42  C   UNL A   1      38.478  30.966  30.109  1.00  0.00     0.049 A 
ATOM     43  N   UNL A   1      39.418  31.663  32.877  1.00  0.00    -0.248 NA
ATOM     44  C   UNL A   1      37.640  33.162  33.067  1.00  0.00     0.031 C 
ATOM     45  C   UNL A   1      38.071  30.609  28.750  1.00  0.00     0.029 A 
ATOM     46  N   UNL A   1      39.549  30.150  30.365  1.00  0.00    -0.354 N 
ATOM     47  C   UNL A   1      39.480  32.293  34.114  1.00  0.00     0.074 A 
ATOM     48  C   UNL A   1      38.372  33.221  34.173  1.00  0.00     0.031 C 
ATOM     49  C   UNL A   1      38.854  29.614  28.307  1.00  0.00     0.029 A 
ATOM     50  C   UNL A   1      39.844  29.294  29.331  1.00  0.00     0.049 A 
ATOM     51  H   UNL A   1      40.058  30.175  31.207  1.00  0.00     0.167 HD
ATOM     52  C   UNL A   1      40.370  32.101  35.115  1.00  0.00     0.034 A 
ATOM     53  C   UNL A   1      40.801  28.353  29.220  1.00  0.00     0.034 A 
ATOM     54  C   UNL A   1      41.437  31.138  35.077  1.00  0.00     0.049 A 
ATOM     55  C   UNL A   1      41.742  28.126  30.366  1.00  0.00     0.074 A 
ATOM     56  C   UNL A   1      42.392  30.877  36.044  1.00  0.00     0.029 A 
ATOM     57  N   UNL A   1      41.675  30.263  34.030  1.00  0.00    -0.354 N 
ATOM     58  N   UNL A   1      41.762  28.710  31.539  1.00  0.00    -0.248 NA
ATOM     59  C   UNL A   1      42.783  27.105  30.182  1.00  0.00     0.031 C 
ATOM     60  C   UNL A   1      43.198  29.828  35.588  1.00  0.00     0.029 A 
ATOM     61  C   UNL A   1      42.749  29.446  34.335  1.00  0.00     0.049 A 
ATOM     62  H   UNL A   1      41.157  30.228  33.194  1.00  0.00     0.167 HD
ATOM     63  C   UNL A   1      42.810  28.127  32.236  1.00  0.00     0.074 A 
ATOM     64  C   UNL A   1      43.387  27.123  31.364  1.00  0.00     0.031 C 
ATOM     65  C   UNL A   1      43.271  28.415  33.476  1.00  0.00     0.034 A 
BRANCH  52  66
ATOM     66  C   UNL A   1      40.208  32.911  36.370  1.00  0.00     0.023 A 
ATOM     67  C   UNL A   1      39.276  32.490  37.337  1.00  0.00     0.012 A 
ATOM     68  C   UNL A   1      41.035  34.020  36.636  1.00  0.00     0.148 A 
ATOM     69  C   UNL A   1      39.168  33.161  38.555  1.00  0.00     0.002 A 
ATOM     70  C   UNL A   1      40.936  34.670  37.860  1.00  0.00     0.091 A 
ATOM     71  F   UNL A   1      41.898  34.414  35.689  1.00  0.00    -0.205 F 
ATOM     72  C   UNL A   1      40.003  34.242  38.819  1.00  0.00     0.022 A 
BRANCH  70  73
ATOM     73  S   UNL A   1      41.999  36.045  38.317  1.00  0.00     0.127 S 
ATOM     74  O   UNL A   1      41.281  36.603  39.462  1.00  0.00    -0.237 OA
ATOM     75  O   UNL A   1      43.252  35.370  38.653  1.00  0.00    -0.237 OA
ATOM     76  O   UNL A   1      42.067  36.906  37.145  1.00  0.00    -0.744 OA
ENDBRANCH  70  73
ENDBRANCH  52  66
BRANCH  53  77
ATOM     77  C   UNL A   1      40.842  27.512  27.995  1.00  0.00     0.023 A 
ATOM     78  C   UNL A   1      41.497  28.003  26.851  1.00  0.00     0.012 A 
ATOM     79  C   UNL A   1      40.339  26.197  27.995  1.00  0.00     0.148 A 
ATOM     80  C   UNL A   1      41.655  27.196  25.725  1.00  0.00     0.002 A 
ATOM     81  C   UNL A   1      40.543  25.382  26.888  1.00  0.00     0.091 A 
ATOM     82  F   UNL A   1      39.702  25.759  29.091  1.00  0.00    -0.205 F 
ATOM     83  C   UNL A   1      41.194  25.882  25.749  1.00  0.00     0.022 A 
BRANCH  81  84
ATOM     84  S   UNL A   1      40.110  23.638  26.894  1.00  0.00     0.127 S 
ATOM     85  O   UNL A   1      40.964  23.114  25.833  1.00  0.00    -0.237 OA
ATOM     86  O   UNL A   1      40.489  23.234  28.249  1.00  0.00    -0.237 OA
ATOM     87  O   UNL A   1      38.676  23.594  26.639  1.00  0.00    -0.744 OA
ENDBRANCH  81  84
ENDBRANCH  53  77
BRANCH  65  88
ATOM     88  C   UNL A   1      44.458  27.645  33.976  1.00  0.00     0.023 A 
ATOM     89  C   UNL A   1      45.750  28.147  33.727  1.00  0.00     0.012 A 
ATOM     90  C   UNL A   1      44.297  26.494  34.769  1.00  0.00     0.148 A 
ATOM     91  C   UNL A   1      46.869  27.509  34.258  1.00  0.00     0.002 A 
ATOM     92  C   UNL A   1      45.416  25.877  35.314  1.00  0.00     0.091 A 
ATOM     93  F   UNL A   1      43.057  26.025  34.973  1.00  0.00    -0.205 F 
ATOM     94  C   UNL A   1      46.702  26.381  35.059  1.00  0.00     0.022 A 
BRANCH  92  95
ATOM     95  S   UNL A   1      45.284  24.458  36.409  1.00  0.00     0.127 S 
ATOM     96  O   UNL A   1      44.682  23.458  35.530  1.00  0.00    -0.237 OA
ATOM     97  O   UNL A   1      46.681  24.199  36.760  1.00  0.00    -0.237 OA
ATOM     98  O   UNL A   1      44.457  24.896  37.526  1.00  0.00    -0.744 OA
ENDBRANCH  92  95
ENDBRANCH  65  88
ENDBRANCH  39  40
ENDBRANCH  31  34
ENDBRANCH  29  30
ENDBRANCH  28  29
ENDBRANCH   1  28
TORSDOF 18
ENDMDL
