MODEL 1
REMARK VINA RESULT:      -9.6      0.000      0.000
REMARK SMILES COc1ccc(-c2ccc(C(=O)NCc3ccc(C(=O)NCCCCNC(=O)c4ccc(-c5c6nc(c(-c7cccc(S(=O)(=O)[O-])c7F)c7ccc([nH]7)c(-c7cccc(S(=O)(=O)[O-])c7F)c7nc(c(-c8cccc(S(=O)(=O)[O-])c8F)c8ccc5[nH]8)C=C7)C=C6)cc4)cc3)o2)c([N+](=O)[O-])c1
REMARK SMILES IDX 22 1 21 2 19 3 20 4 18 6 15 7 16 8 93 9 17 10 92 11 14 12
REMARK SMILES IDX 13 13 11 14 12 15 10 17 7 18 8 19 94 20 9 21 6 22 3 23 4 24
REMARK SMILES IDX 99 25 5 26 95 27 2 28 1 29 96 30 97 31 98 32 23 33 24 34
REMARK SMILES IDX 25 35 26 36 27 37 28 39 29 40 30 41 91 42 31 43 90 44 32 45
REMARK SMILES IDX 33 46 34 47 84 48 35 49 89 50 83 51 85 52 36 53 88 54 82 55
REMARK SMILES IDX 81 56 37 58 69 59 49 60 68 61 50 62 53 63 67 64 86 65 51 66
REMARK SMILES IDX 52 67 66 69 87 70 54 71 38 72 39 73 47 74 40 75 42 76 48 77
REMARK SMILES IDX 41 78 43 79 44 80 45 81 46 82 70 83 71 84 79 85 72 86 74 87
REMARK SMILES IDX 80 88 73 89 75 90 76 91 77 92 78 93 55 94 56 95 64 96 57 97
REMARK SMILES IDX 59 98 65 99 58 100 60 101 61 102 62 103 63 104
REMARK H PARENT 21 5 13 16 26 38 85 57 53 68
REMARK Flexibility Score: inf
ROOT
ATOM      1  C   UNL A   1      35.632  32.053  31.842  1.00  0.00     0.116 C 
ENDROOT
BRANCH   1   2
ATOM      2  N   UNL A   1      35.726  33.037  30.781  1.00  0.00    -0.352 N 
ATOM      3  C   UNL A   1      36.348  33.009  29.559  1.00  0.00     0.251 C 
ATOM      4  O   UNL A   1      36.228  33.988  28.823  1.00  0.00    -0.269 OA
ATOM      5  H   UNL A   1      35.257  33.881  30.973  1.00  0.00     0.163 HD
BRANCH   3   6
ATOM      6  C   UNL A   1      37.112  31.832  29.061  1.00  0.00     0.039 A 
ATOM      7  C   UNL A   1      38.725  29.672  28.194  1.00  0.00    -0.029 A 
ATOM      8  C   UNL A   1      39.206  30.589  29.139  1.00  0.00     0.006 A 
ATOM      9  C   UNL A   1      37.427  29.846  27.700  1.00  0.00     0.006 A 
ATOM     10  C   UNL A   1      38.408  31.656  29.565  1.00  0.00     0.014 A 
ATOM     11  C   UNL A   1      36.616  30.888  28.163  1.00  0.00     0.014 A 
BRANCH   7  12
ATOM     12  C   UNL A   1      39.595  28.553  27.677  1.00  0.00     0.152 C 
BRANCH  12  13
ATOM     13  N   UNL A   1      40.427  28.964  26.570  1.00  0.00    -0.345 N 
ATOM     14  C   UNL A   1      41.601  28.452  26.073  1.00  0.00     0.287 C 
ATOM     15  O   UNL A   1      41.992  28.949  25.013  1.00  0.00    -0.266 OA
ATOM     16  H   UNL A   1      40.093  29.751  26.083  1.00  0.00     0.164 HD
BRANCH  14  17
ATOM     17  C   UNL A   1      42.315  27.385  26.747  1.00  0.00     0.192 A 
ATOM     18  C   UNL A   1      43.053  25.303  26.886  1.00  0.00     0.142 A 
ATOM     19  C   UNL A   1      43.499  25.937  28.020  1.00  0.00     0.052 A 
ATOM     20  O   UNL A   1      42.353  26.168  26.107  1.00  0.00    -0.451 OA
ATOM     21  C   UNL A   1      43.049  27.275  27.916  1.00  0.00     0.057 A 
BRANCH  18  22
ATOM     22  C   UNL A   1      43.209  23.969  26.347  1.00  0.00     0.095 A 
ATOM     23  C   UNL A   1      43.698  21.409  25.257  1.00  0.00     0.125 A 
ATOM     24  C   UNL A   1      44.373  22.526  24.767  1.00  0.00     0.047 A 
ATOM     25  C   UNL A   1      42.789  21.555  26.301  1.00  0.00     0.132 A 
ATOM     26  C   UNL A   1      44.122  23.795  25.295  1.00  0.00     0.023 A 
ATOM     27  C   UNL A   1      42.547  22.834  26.837  1.00  0.00     0.284 A 
BRANCH  23  28
ATOM     28  O   UNL A   1      44.042  20.217  24.680  1.00  0.00    -0.497 OA
ATOM     29  C   UNL A   1      45.434  20.036  24.444  1.00  0.00     0.278 C 
ENDBRANCH  23  28
BRANCH  27  30
ATOM     30  N   UNL A   1      41.588  22.927  27.935  1.00  0.00     0.063 N 
ATOM     31  O   UNL A   1      40.385  23.030  27.663  1.00  0.00    -0.258 OA
ATOM     32  O   UNL A   1      42.044  22.850  29.086  1.00  0.00    -0.258 OA
ENDBRANCH  27  30
ENDBRANCH  18  22
ENDBRANCH  14  17
ENDBRANCH  12  13
ENDBRANCH   7  12
ENDBRANCH   3   6
ENDBRANCH   1   2
BRANCH   1  33
ATOM     33  C   UNL A   1      35.230  32.717  33.161  1.00  0.00     0.023 C 
BRANCH  33  34
ATOM     34  C   UNL A   1      35.860  34.096  33.382  1.00  0.00     0.023 C 
BRANCH  34  35
ATOM     35  C   UNL A   1      37.154  34.079  34.189  1.00  0.00     0.116 C 
BRANCH  35  36
ATOM     36  N   UNL A   1      37.033  33.360  35.449  1.00  0.00    -0.352 N 
ATOM     37  C   UNL A   1      37.722  32.235  35.847  1.00  0.00     0.251 C 
ATOM     38  H   UNL A   1      36.381  33.719  36.093  1.00  0.00     0.163 HD
ATOM     39  O   UNL A   1      37.447  31.670  36.894  1.00  0.00    -0.269 OA
BRANCH  37  40
ATOM     40  C   UNL A   1      38.775  31.705  34.956  1.00  0.00     0.039 A 
ATOM     41  C   UNL A   1      38.409  30.874  33.893  1.00  0.00     0.014 A 
ATOM     42  C   UNL A   1      40.106  32.085  35.138  1.00  0.00     0.014 A 
ATOM     43  C   UNL A   1      39.376  30.476  32.967  1.00  0.00     0.010 A 
ATOM     44  C   UNL A   1      41.052  31.740  34.183  1.00  0.00     0.010 A 
ATOM     45  C   UNL A   1      40.697  30.935  33.087  1.00  0.00    -0.014 A 
BRANCH  45  46
ATOM     46  C   UNL A   1      41.744  30.592  32.095  1.00  0.00     0.031 A 
ATOM     47  C   UNL A   1      42.464  29.278  32.208  1.00  0.00     0.074 A 
ATOM     48  C   UNL A   1      42.136  31.509  31.188  1.00  0.00     0.049 A 
ATOM     49  N   UNL A   1      43.523  28.859  31.568  1.00  0.00    -0.248 NA
ATOM     50  C   UNL A   1      41.945  28.322  33.202  1.00  0.00     0.031 C 
ATOM     51  C   UNL A   1      41.555  32.844  31.026  1.00  0.00     0.029 A 
ATOM     52  N   UNL A   1      43.148  31.473  30.262  1.00  0.00    -0.354 N 
ATOM     53  C   UNL A   1      43.830  27.620  32.117  1.00  0.00     0.074 A 
ATOM     54  C   UNL A   1      42.857  27.363  33.155  1.00  0.00     0.031 C 
ATOM     55  C   UNL A   1      42.228  33.503  30.068  1.00  0.00     0.029 A 
ATOM     56  C   UNL A   1      43.307  32.654  29.572  1.00  0.00     0.049 A 
ATOM     57  H   UNL A   1      43.708  30.679  30.104  1.00  0.00     0.167 HD
ATOM     58  C   UNL A   1      44.820  26.764  31.771  1.00  0.00     0.034 A 
ATOM     59  C   UNL A   1      44.227  33.015  28.657  1.00  0.00     0.034 A 
ATOM     60  C   UNL A   1      45.739  26.997  30.693  1.00  0.00     0.049 A 
ATOM     61  C   UNL A   1      45.278  32.017  28.245  1.00  0.00     0.074 A 
ATOM     62  C   UNL A   1      46.723  26.155  30.205  1.00  0.00     0.029 A 
ATOM     63  N   UNL A   1      45.785  28.153  29.930  1.00  0.00    -0.354 N 
ATOM     64  N   UNL A   1      45.468  30.795  28.680  1.00  0.00    -0.248 NA
ATOM     65  C   UNL A   1      46.217  32.432  27.193  1.00  0.00     0.031 C 
ATOM     66  C   UNL A   1      47.366  26.806  29.147  1.00  0.00     0.029 A 
ATOM     67  C   UNL A   1      46.773  28.046  28.969  1.00  0.00     0.049 A 
ATOM     68  H   UNL A   1      45.199  28.935  30.054  1.00  0.00     0.167 HD
ATOM     69  C   UNL A   1      46.514  30.279  27.925  1.00  0.00     0.074 A 
ATOM     70  C   UNL A   1      46.915  31.320  26.999  1.00  0.00     0.031 C 
ATOM     71  C   UNL A   1      47.100  29.060  28.001  1.00  0.00     0.034 A 
BRANCH  58  72
ATOM     72  C   UNL A   1      44.917  25.465  32.524  1.00  0.00     0.023 A 
ATOM     73  C   UNL A   1      44.144  24.363  32.107  1.00  0.00     0.012 A 
ATOM     74  C   UNL A   1      45.808  25.316  33.604  1.00  0.00     0.148 A 
ATOM     75  C   UNL A   1      44.231  23.142  32.772  1.00  0.00     0.002 A 
ATOM     76  C   UNL A   1      45.920  24.082  34.236  1.00  0.00     0.091 A 
ATOM     77  F   UNL A   1      46.516  26.383  34.004  1.00  0.00    -0.205 F 
ATOM     78  C   UNL A   1      45.126  22.998  33.828  1.00  0.00     0.022 A 
BRANCH  76  79
ATOM     79  S   UNL A   1      47.100  23.781  35.557  1.00  0.00     0.127 S 
ATOM     80  O   UNL A   1      46.935  22.345  35.778  1.00  0.00    -0.237 OA
ATOM     81  O   UNL A   1      48.369  24.158  34.932  1.00  0.00    -0.237 OA
ATOM     82  O   UNL A   1      46.692  24.639  36.660  1.00  0.00    -0.744 OA
ENDBRANCH  76  79
ENDBRANCH  58  72
BRANCH  59  83
ATOM     83  C   UNL A   1      44.151  34.357  28.013  1.00  0.00     0.023 A 
ATOM     84  C   UNL A   1      43.355  34.519  26.862  1.00  0.00     0.012 A 
ATOM     85  C   UNL A   1      44.825  35.473  28.544  1.00  0.00     0.148 A 
ATOM     86  C   UNL A   1      43.254  35.761  26.235  1.00  0.00     0.002 A 
ATOM     87  C   UNL A   1      44.679  36.720  27.943  1.00  0.00     0.091 A 
ATOM     88  F   UNL A   1      45.589  35.297  29.631  1.00  0.00    -0.205 F 
ATOM     89  C   UNL A   1      43.908  36.863  26.780  1.00  0.00     0.022 A 
BRANCH  87  90
ATOM     90  S   UNL A   1      45.379  38.215  28.653  1.00  0.00     0.127 S 
ATOM     91  O   UNL A   1      44.955  39.230  27.693  1.00  0.00    -0.237 OA
ATOM     92  O   UNL A   1      44.710  38.278  29.953  1.00  0.00    -0.237 OA
ATOM     93  O   UNL A   1      46.814  37.972  28.731  1.00  0.00    -0.744 OA
ENDBRANCH  87  90
ENDBRANCH  59  83
BRANCH  71  94
ATOM     94  C   UNL A   1      48.197  28.739  27.023  1.00  0.00     0.023 A 
ATOM     95  C   UNL A   1      49.543  28.854  27.419  1.00  0.00     0.012 A 
ATOM     96  C   UNL A   1      47.886  28.201  25.758  1.00  0.00     0.148 A 
ATOM     97  C   UNL A   1      50.567  28.451  26.562  1.00  0.00     0.002 A 
ATOM     98  C   UNL A   1      48.909  27.761  24.928  1.00  0.00     0.091 A 
ATOM     99  F   UNL A   1      46.598  28.118  25.398  1.00  0.00    -0.205 F 
ATOM    100  C   UNL A   1      50.250  27.892  25.325  1.00  0.00     0.022 A 
BRANCH  98 101
ATOM    101  S   UNL A   1      48.593  26.941  23.361  1.00  0.00     0.127 S 
ATOM    102  O   UNL A   1      47.961  25.698  23.797  1.00  0.00    -0.237 OA
ATOM    103  O   UNL A   1      47.693  27.883  22.694  1.00  0.00    -0.237 OA
ATOM    104  O   UNL A   1      49.891  26.789  22.718  1.00  0.00    -0.744 OA
ENDBRANCH  98 101
ENDBRANCH  71  94
ENDBRANCH  45  46
ENDBRANCH  37  40
ENDBRANCH  35  36
ENDBRANCH  34  35
ENDBRANCH  33  34
ENDBRANCH   1  33
TORSDOF 20
ENDMDL
MODEL 2
REMARK VINA RESULT:      -9.1      4.920      7.045
REMARK SMILES COc1ccc(-c2ccc(C(=O)NCc3ccc(C(=O)NCCCCNC(=O)c4ccc(-c5c6nc(c(-c7cccc(S(=O)(=O)[O-])c7F)c7ccc([nH]7)c(-c7cccc(S(=O)(=O)[O-])c7F)c7nc(c(-c8cccc(S(=O)(=O)[O-])c8F)c8ccc5[nH]8)C=C7)C=C6)cc4)cc3)o2)c([N+](=O)[O-])c1
REMARK SMILES IDX 22 1 21 2 19 3 20 4 18 6 15 7 16 8 93 9 17 10 92 11 14 12
REMARK SMILES IDX 13 13 11 14 12 15 10 17 7 18 8 19 94 20 9 21 6 22 3 23 4 24
REMARK SMILES IDX 99 25 5 26 95 27 2 28 1 29 96 30 97 31 98 32 23 33 24 34
REMARK SMILES IDX 25 35 26 36 27 37 28 39 29 40 30 41 91 42 31 43 90 44 32 45
REMARK SMILES IDX 33 46 34 47 84 48 35 49 89 50 83 51 85 52 36 53 88 54 82 55
REMARK SMILES IDX 81 56 37 58 69 59 49 60 68 61 50 62 53 63 67 64 86 65 51 66
REMARK SMILES IDX 52 67 66 69 87 70 54 71 38 72 39 73 47 74 40 75 42 76 48 77
REMARK SMILES IDX 41 78 43 79 44 80 45 81 46 82 70 83 71 84 79 85 72 86 74 87
REMARK SMILES IDX 80 88 73 89 75 90 76 91 77 92 78 93 55 94 56 95 64 96 57 97
REMARK SMILES IDX 59 98 65 99 58 100 60 101 61 102 62 103 63 104
REMARK H PARENT 21 5 13 16 26 38 85 57 53 68
REMARK Flexibility Score: inf
ROOT
ATOM      1  C   UNL A   1      34.868  32.833  31.322  1.00  0.00     0.116 C 
ENDROOT
BRANCH   1   2
ATOM      2  N   UNL A   1      35.883  33.302  30.399  1.00  0.00    -0.352 N 
ATOM      3  C   UNL A   1      36.222  32.905  29.130  1.00  0.00     0.251 C 
ATOM      4  O   UNL A   1      37.116  33.519  28.548  1.00  0.00    -0.269 OA
ATOM      5  H   UNL A   1      36.431  34.043  30.747  1.00  0.00     0.163 HD
BRANCH   3   6
ATOM      6  C   UNL A   1      35.524  31.806  28.408  1.00  0.00     0.039 A 
ATOM      7  C   UNL A   1      34.369  29.629  27.013  1.00  0.00    -0.029 A 
ATOM      8  C   UNL A   1      35.683  29.553  27.495  1.00  0.00     0.006 A 
ATOM      9  C   UNL A   1      33.642  30.802  27.249  1.00  0.00     0.006 A 
ATOM     10  C   UNL A   1      36.253  30.630  28.182  1.00  0.00     0.014 A 
ATOM     11  C   UNL A   1      34.199  31.858  27.977  1.00  0.00     0.014 A 
BRANCH   7  12
ATOM     12  C   UNL A   1      33.762  28.502  26.216  1.00  0.00     0.152 C 
BRANCH  12  13
ATOM     13  N   UNL A   1      33.739  28.776  24.797  1.00  0.00    -0.345 N 
ATOM     14  C   UNL A   1      32.896  28.348  23.800  1.00  0.00     0.287 C 
ATOM     15  O   UNL A   1      33.059  28.885  22.700  1.00  0.00    -0.266 OA
ATOM     16  H   UNL A   1      34.455  29.377  24.489  1.00  0.00     0.164 HD
BRANCH  14  17
ATOM     17  C   UNL A   1      31.874  27.348  24.040  1.00  0.00     0.192 A 
ATOM     18  C   UNL A   1      31.200  25.254  24.279  1.00  0.00     0.142 A 
ATOM     19  C   UNL A   1      30.081  26.032  24.452  1.00  0.00     0.052 A 
ATOM     20  O   UNL A   1      32.286  26.036  24.046  1.00  0.00    -0.451 OA
ATOM     21  C   UNL A   1      30.520  27.372  24.326  1.00  0.00     0.057 A 
BRANCH  18  22
ATOM     22  C   UNL A   1      31.460  23.831  24.339  1.00  0.00     0.095 A 
ATOM     23  C   UNL A   1      32.099  21.079  24.316  1.00  0.00     0.125 A 
ATOM     24  C   UNL A   1      32.180  21.833  23.146  1.00  0.00     0.047 A 
ATOM     25  C   UNL A   1      31.715  21.692  25.507  1.00  0.00     0.132 A 
ATOM     26  C   UNL A   1      31.851  23.191  23.152  1.00  0.00     0.023 A 
ATOM     27  C   UNL A   1      31.394  23.063  25.510  1.00  0.00     0.284 A 
BRANCH  23  28
ATOM     28  O   UNL A   1      32.467  19.768  24.195  1.00  0.00    -0.497 OA
ATOM     29  C   UNL A   1      33.677  19.413  24.855  1.00  0.00     0.278 C 
ENDBRANCH  23  28
BRANCH  27  30
ATOM     30  N   UNL A   1      31.005  23.654  26.788  1.00  0.00     0.063 N 
ATOM     31  O   UNL A   1      31.794  24.424  27.348  1.00  0.00    -0.258 OA
ATOM     32  O   UNL A   1      29.873  23.374  27.212  1.00  0.00    -0.258 OA
ENDBRANCH  27  30
ENDBRANCH  18  22
ENDBRANCH  14  17
ENDBRANCH  12  13
ENDBRANCH   7  12
ENDBRANCH   3   6
ENDBRANCH   1   2
BRANCH   1  33
ATOM     33  C   UNL A   1      35.472  32.574  32.704  1.00  0.00     0.023 C 
BRANCH  33  34
ATOM     34  C   UNL A   1      37.001  32.662  32.743  1.00  0.00     0.023 C 
BRANCH  34  35
ATOM     35  C   UNL A   1      37.656  31.815  33.827  1.00  0.00     0.116 C 
BRANCH  35  36
ATOM     36  N   UNL A   1      37.314  30.402  33.735  1.00  0.00    -0.352 N 
ATOM     37  C   UNL A   1      37.915  29.438  32.956  1.00  0.00     0.251 C 
ATOM     38  H   UNL A   1      36.562  30.101  34.295  1.00  0.00     0.163 HD
ATOM     39  O   UNL A   1      37.458  28.307  32.896  1.00  0.00    -0.269 OA
BRANCH  37  40
ATOM     40  C   UNL A   1      39.103  29.817  32.162  1.00  0.00     0.039 A 
ATOM     41  C   UNL A   1      38.942  30.133  30.810  1.00  0.00     0.014 A 
ATOM     42  C   UNL A   1      40.353  29.920  32.775  1.00  0.00     0.014 A 
ATOM     43  C   UNL A   1      40.031  30.621  30.085  1.00  0.00     0.010 A 
ATOM     44  C   UNL A   1      41.417  30.463  32.069  1.00  0.00     0.010 A 
ATOM     45  C   UNL A   1      41.267  30.821  30.718  1.00  0.00    -0.014 A 
BRANCH  45  46
ATOM     46  C   UNL A   1      42.435  31.395  30.007  1.00  0.00     0.031 A 
ATOM     47  C   UNL A   1      43.507  30.478  29.491  1.00  0.00     0.074 A 
ATOM     48  C   UNL A   1      42.594  32.733  29.949  1.00  0.00     0.049 A 
ATOM     49  N   UNL A   1      44.684  30.773  29.008  1.00  0.00    -0.248 NA
ATOM     50  C   UNL A   1      43.232  29.032  29.563  1.00  0.00     0.031 C 
ATOM     51  C   UNL A   1      41.651  33.723  30.473  1.00  0.00     0.029 A 
ATOM     52  N   UNL A   1      43.632  33.488  29.461  1.00  0.00    -0.354 N 
ATOM     53  C   UNL A   1      45.310  29.556  28.771  1.00  0.00     0.074 A 
ATOM     54  C   UNL A   1      44.391  28.518  29.180  1.00  0.00     0.031 C 
ATOM     55  C   UNL A   1      42.159  34.953  30.291  1.00  0.00     0.029 A 
ATOM     56  C   UNL A   1      43.475  34.839  29.669  1.00  0.00     0.049 A 
ATOM     57  H   UNL A   1      44.413  33.100  29.006  1.00  0.00     0.167 HD
ATOM     58  C   UNL A   1      46.533  29.324  28.238  1.00  0.00     0.034 A 
ATOM     59  C   UNL A   1      44.305  35.867  29.403  1.00  0.00     0.034 A 
ATOM     60  C   UNL A   1      47.413  30.360  27.771  1.00  0.00     0.049 A 
ATOM     61  C   UNL A   1      45.632  35.583  28.750  1.00  0.00     0.074 A 
ATOM     62  C   UNL A   1      48.635  30.227  27.137  1.00  0.00     0.029 A 
ATOM     63  N   UNL A   1      47.160  31.718  27.880  1.00  0.00    -0.354 N 
ATOM     64  N   UNL A   1      46.151  34.428  28.407  1.00  0.00    -0.248 NA
ATOM     65  C   UNL A   1      46.474  36.741  28.415  1.00  0.00     0.031 C 
ATOM     66  C   UNL A   1      49.123  31.510  26.865  1.00  0.00     0.029 A 
ATOM     67  C   UNL A   1      48.199  32.437  27.318  1.00  0.00     0.049 A 
ATOM     68  H   UNL A   1      46.360  32.113  28.297  1.00  0.00     0.167 HD
ATOM     69  C   UNL A   1      47.353  34.722  27.776  1.00  0.00     0.074 A 
ATOM     70  C   UNL A   1      47.485  36.165  27.778  1.00  0.00     0.031 C 
ATOM     71  C   UNL A   1      48.271  33.874  27.254  1.00  0.00     0.034 A 
BRANCH  58  72
ATOM     72  C   UNL A   1      46.965  27.892  28.072  1.00  0.00     0.023 A 
ATOM     73  C   UNL A   1      47.580  27.226  29.150  1.00  0.00     0.012 A 
ATOM     74  C   UNL A   1      46.713  27.191  26.877  1.00  0.00     0.148 A 
ATOM     75  C   UNL A   1      47.969  25.893  29.032  1.00  0.00     0.002 A 
ATOM     76  C   UNL A   1      47.066  25.849  26.782  1.00  0.00     0.091 A 
ATOM     77  F   UNL A   1      46.150  27.849  25.853  1.00  0.00    -0.205 F 
ATOM     78  C   UNL A   1      47.702  25.202  27.853  1.00  0.00     0.022 A 
BRANCH  76  79
ATOM     79  S   UNL A   1      46.694  24.857  25.331  1.00  0.00     0.127 S 
ATOM     80  O   UNL A   1      45.395  25.395  24.930  1.00  0.00    -0.237 OA
ATOM     81  O   UNL A   1      47.798  25.196  24.432  1.00  0.00    -0.237 OA
ATOM     82  O   UNL A   1      46.688  23.473  25.785  1.00  0.00    -0.744 OA
ENDBRANCH  76  79
ENDBRANCH  58  72
BRANCH  59  83
ATOM     83  C   UNL A   1      43.873  37.265  29.684  1.00  0.00     0.023 A 
ATOM     84  C   UNL A   1      43.206  37.991  28.677  1.00  0.00     0.012 A 
ATOM     85  C   UNL A   1      44.083  37.867  30.939  1.00  0.00     0.148 A 
ATOM     86  C   UNL A   1      42.781  39.300  28.905  1.00  0.00     0.002 A 
ATOM     87  C   UNL A   1      43.611  39.155  31.175  1.00  0.00     0.091 A 
ATOM     88  F   UNL A   1      44.731  37.167  31.880  1.00  0.00    -0.205 F 
ATOM     89  C   UNL A   1      42.976  39.879  30.156  1.00  0.00     0.022 A 
BRANCH  87  90
ATOM     90  S   UNL A   1      43.702  39.927  32.796  1.00  0.00     0.127 S 
ATOM     91  O   UNL A   1      42.876  39.030  33.601  1.00  0.00    -0.237 OA
ATOM     92  O   UNL A   1      45.135  39.869  33.083  1.00  0.00    -0.237 OA
ATOM     93  O   UNL A   1      43.184  41.276  32.613  1.00  0.00    -0.744 OA
ENDBRANCH  87  90
ENDBRANCH  59  83
BRANCH  71  94
ATOM     94  C   UNL A   1      49.479  34.464  26.579  1.00  0.00     0.023 A 
ATOM     95  C   UNL A   1      49.410  34.836  25.222  1.00  0.00     0.012 A 
ATOM     96  C   UNL A   1      50.635  34.767  27.326  1.00  0.00     0.148 A 
ATOM     97  C   UNL A   1      50.482  35.489  24.615  1.00  0.00     0.002 A 
ATOM     98  C   UNL A   1      51.681  35.455  26.726  1.00  0.00     0.091 A 
ATOM     99  F   UNL A   1      50.682  34.386  28.611  1.00  0.00    -0.205 F 
ATOM    100  C   UNL A   1      51.609  35.811  25.369  1.00  0.00     0.022 A 
BRANCH  98 101
ATOM    101  S   UNL A   1      53.129  35.997  27.642  1.00  0.00     0.127 S 
ATOM    102  O   UNL A   1      53.675  37.023  26.756  1.00  0.00    -0.237 OA
ATOM    103  O   UNL A   1      52.538  36.510  28.878  1.00  0.00    -0.237 OA
ATOM    104  O   UNL A   1      53.960  34.814  27.815  1.00  0.00    -0.744 OA
ENDBRANCH  98 101
ENDBRANCH  71  94
ENDBRANCH  45  46
ENDBRANCH  37  40
ENDBRANCH  35  36
ENDBRANCH  34  35
ENDBRANCH  33  34
ENDBRANCH   1  33
TORSDOF 20
ENDMDL
MODEL 3
REMARK VINA RESULT:      -9.1      5.264      9.920
REMARK SMILES COc1ccc(-c2ccc(C(=O)NCc3ccc(C(=O)NCCCCNC(=O)c4ccc(-c5c6nc(c(-c7cccc(S(=O)(=O)[O-])c7F)c7ccc([nH]7)c(-c7cccc(S(=O)(=O)[O-])c7F)c7nc(c(-c8cccc(S(=O)(=O)[O-])c8F)c8ccc5[nH]8)C=C7)C=C6)cc4)cc3)o2)c([N+](=O)[O-])c1
REMARK SMILES IDX 22 1 21 2 19 3 20 4 18 6 15 7 16 8 93 9 17 10 92 11 14 12
REMARK SMILES IDX 13 13 11 14 12 15 10 17 7 18 8 19 94 20 9 21 6 22 3 23 4 24
REMARK SMILES IDX 99 25 5 26 95 27 2 28 1 29 96 30 97 31 98 32 23 33 24 34
REMARK SMILES IDX 25 35 26 36 27 37 28 39 29 40 30 41 91 42 31 43 90 44 32 45
REMARK SMILES IDX 33 46 34 47 84 48 35 49 89 50 83 51 85 52 36 53 88 54 82 55
REMARK SMILES IDX 81 56 37 58 69 59 49 60 68 61 50 62 53 63 67 64 86 65 51 66
REMARK SMILES IDX 52 67 66 69 87 70 54 71 38 72 39 73 47 74 40 75 42 76 48 77
REMARK SMILES IDX 41 78 43 79 44 80 45 81 46 82 70 83 71 84 79 85 72 86 74 87
REMARK SMILES IDX 80 88 73 89 75 90 76 91 77 92 78 93 55 94 56 95 64 96 57 97
REMARK SMILES IDX 59 98 65 99 58 100 60 101 61 102 62 103 63 104
REMARK H PARENT 21 5 13 16 26 38 85 57 53 68
REMARK Flexibility Score: inf
ROOT
ATOM      1  C   UNL A   1      37.260  22.609  25.105  1.00  0.00     0.116 C 
ENDROOT
BRANCH   1   2
ATOM      2  N   UNL A   1      36.216  22.582  26.112  1.00  0.00    -0.352 N 
ATOM      3  C   UNL A   1      35.086  23.341  26.282  1.00  0.00     0.251 C 
ATOM      4  O   UNL A   1      34.338  23.068  27.220  1.00  0.00    -0.269 OA
ATOM      5  H   UNL A   1      36.342  21.891  26.802  1.00  0.00     0.163 HD
BRANCH   3   6
ATOM      6  C   UNL A   1      34.698  24.440  25.355  1.00  0.00     0.039 A 
ATOM      7  C   UNL A   1      33.914  26.635  23.748  1.00  0.00    -0.029 A 
ATOM      8  C   UNL A   1      34.106  26.791  25.128  1.00  0.00     0.006 A 
ATOM      9  C   UNL A   1      34.130  25.371  23.186  1.00  0.00     0.006 A 
ATOM     10  C   UNL A   1      34.491  25.706  25.920  1.00  0.00     0.014 A 
ATOM     11  C   UNL A   1      34.561  24.299  23.974  1.00  0.00     0.014 A 
BRANCH   7  12
ATOM     12  C   UNL A   1      33.437  27.781  22.890  1.00  0.00     0.152 C 
BRANCH  12  13
ATOM     13  N   UNL A   1      32.601  28.709  23.618  1.00  0.00    -0.345 N 
ATOM     14  C   UNL A   1      31.365  28.560  24.198  1.00  0.00     0.287 C 
ATOM     15  O   UNL A   1      30.980  29.515  24.879  1.00  0.00    -0.266 OA
ATOM     16  H   UNL A   1      32.987  29.609  23.715  1.00  0.00     0.164 HD
BRANCH  14  17
ATOM     17  C   UNL A   1      30.583  27.351  24.032  1.00  0.00     0.192 A 
ATOM     18  C   UNL A   1      30.342  25.151  24.077  1.00  0.00     0.142 A 
ATOM     19  C   UNL A   1      29.120  25.656  23.705  1.00  0.00     0.052 A 
ATOM     20  O   UNL A   1      31.225  26.162  24.291  1.00  0.00    -0.451 OA
ATOM     21  C   UNL A   1      29.269  27.064  23.703  1.00  0.00     0.057 A 
BRANCH  18  22
ATOM     22  C   UNL A   1      30.851  23.819  24.326  1.00  0.00     0.095 A 
ATOM     23  C   UNL A   1      31.960  21.242  24.658  1.00  0.00     0.125 A 
ATOM     24  C   UNL A   1      31.834  21.798  23.386  1.00  0.00     0.047 A 
ATOM     25  C   UNL A   1      31.551  21.970  25.774  1.00  0.00     0.132 A 
ATOM     26  C   UNL A   1      31.273  23.067  23.219  1.00  0.00     0.023 A 
ATOM     27  C   UNL A   1      30.996  23.252  25.600  1.00  0.00     0.284 A 
BRANCH  23  28
ATOM     28  O   UNL A   1      32.544  20.007  24.702  1.00  0.00    -0.497 OA
ATOM     29  C   UNL A   1      33.961  20.000  24.563  1.00  0.00     0.278 C 
ENDBRANCH  23  28
BRANCH  27  30
ATOM     30  N   UNL A   1      30.590  23.971  26.805  1.00  0.00     0.063 N 
ATOM     31  O   UNL A   1      31.333  24.859  27.242  1.00  0.00    -0.258 OA
ATOM     32  O   UNL A   1      29.490  23.671  27.292  1.00  0.00    -0.258 OA
ENDBRANCH  27  30
ENDBRANCH  18  22
ENDBRANCH  14  17
ENDBRANCH  12  13
ENDBRANCH   7  12
ENDBRANCH   3   6
ENDBRANCH   1   2
BRANCH   1  33
ATOM     33  C   UNL A   1      37.329  21.273  24.362  1.00  0.00     0.023 C 
BRANCH  33  34
ATOM     34  C   UNL A   1      38.118  20.188  25.102  1.00  0.00     0.023 C 
BRANCH  34  35
ATOM     35  C   UNL A   1      39.188  20.718  26.049  1.00  0.00     0.116 C 
BRANCH  35  36
ATOM     36  N   UNL A   1      40.362  19.859  26.124  1.00  0.00    -0.352 N 
ATOM     37  C   UNL A   1      41.667  20.233  26.357  1.00  0.00     0.251 C 
ATOM     38  H   UNL A   1      40.204  18.896  25.992  1.00  0.00     0.163 HD
ATOM     39  O   UNL A   1      42.573  19.417  26.290  1.00  0.00    -0.269 OA
BRANCH  37  40
ATOM     40  C   UNL A   1      41.948  21.654  26.648  1.00  0.00     0.039 A 
ATOM     41  C   UNL A   1      42.184  22.041  27.970  1.00  0.00     0.014 A 
ATOM     42  C   UNL A   1      42.043  22.578  25.606  1.00  0.00     0.014 A 
ATOM     43  C   UNL A   1      42.582  23.352  28.241  1.00  0.00     0.010 A 
ATOM     44  C   UNL A   1      42.499  23.863  25.871  1.00  0.00     0.010 A 
ATOM     45  C   UNL A   1      42.775  24.262  27.190  1.00  0.00    -0.014 A 
BRANCH  45  46
ATOM     46  C   UNL A   1      43.258  25.645  27.421  1.00  0.00     0.031 A 
ATOM     47  C   UNL A   1      44.726  25.942  27.298  1.00  0.00     0.074 A 
ATOM     48  C   UNL A   1      42.406  26.588  27.870  1.00  0.00     0.049 A 
ATOM     49  N   UNL A   1      45.381  27.023  27.629  1.00  0.00    -0.248 NA
ATOM     50  C   UNL A   1      45.577  24.863  26.765  1.00  0.00     0.031 C 
ATOM     51  C   UNL A   1      40.971  26.399  28.091  1.00  0.00     0.029 A 
ATOM     52  N   UNL A   1      42.635  27.882  28.265  1.00  0.00    -0.354 N 
ATOM     53  C   UNL A   1      46.720  26.738  27.399  1.00  0.00     0.074 A 
ATOM     54  C   UNL A   1      46.789  25.376  26.917  1.00  0.00     0.031 C 
ATOM     55  C   UNL A   1      40.450  27.530  28.593  1.00  0.00     0.029 A 
ATOM     56  C   UNL A   1      41.516  28.513  28.762  1.00  0.00     0.049 A 
ATOM     57  H   UNL A   1      43.514  28.319  28.199  1.00  0.00     0.167 HD
ATOM     58  C   UNL A   1      47.795  27.547  27.553  1.00  0.00     0.034 A 
ATOM     59  C   UNL A   1      41.372  29.736  29.306  1.00  0.00     0.034 A 
ATOM     60  C   UNL A   1      47.711  28.919  27.966  1.00  0.00     0.049 A 
ATOM     61  C   UNL A   1      42.575  30.638  29.404  1.00  0.00     0.074 A 
ATOM     62  C   UNL A   1      48.731  29.849  28.071  1.00  0.00     0.029 A 
ATOM     63  N   UNL A   1      46.541  29.562  28.337  1.00  0.00    -0.354 N 
ATOM     64  N   UNL A   1      43.815  30.398  29.053  1.00  0.00    -0.248 NA
ATOM     65  C   UNL A   1      42.355  31.990  29.940  1.00  0.00     0.031 C 
ATOM     66  C   UNL A   1      48.174  31.056  28.507  1.00  0.00     0.029 A 
ATOM     67  C   UNL A   1      46.808  30.879  28.662  1.00  0.00     0.049 A 
ATOM     68  H   UNL A   1      45.650  29.143  28.364  1.00  0.00     0.167 HD
ATOM     69  C   UNL A   1      44.512  31.579  29.279  1.00  0.00     0.074 A 
ATOM     70  C   UNL A   1      43.555  32.538  29.794  1.00  0.00     0.031 C 
ATOM     71  C   UNL A   1      45.827  31.841  29.091  1.00  0.00     0.034 A 
BRANCH  58  72
ATOM     72  C   UNL A   1      49.149  26.985  27.209  1.00  0.00     0.023 A 
ATOM     73  C   UNL A   1      49.743  26.038  28.068  1.00  0.00     0.012 A 
ATOM     74  C   UNL A   1      49.805  27.348  26.018  1.00  0.00     0.148 A 
ATOM     75  C   UNL A   1      50.985  25.485  27.763  1.00  0.00     0.002 A 
ATOM     76  C   UNL A   1      51.025  26.760  25.700  1.00  0.00     0.091 A 
ATOM     77  F   UNL A   1      49.236  28.270  25.227  1.00  0.00    -0.205 F 
ATOM     78  C   UNL A   1      51.620  25.837  26.575  1.00  0.00     0.022 A 
BRANCH  76  79
ATOM     79  S   UNL A   1      51.881  27.094  24.157  1.00  0.00     0.127 S 
ATOM     80  O   UNL A   1      50.829  26.840  23.174  1.00  0.00    -0.237 OA
ATOM     81  O   UNL A   1      52.249  28.503  24.304  1.00  0.00    -0.237 OA
ATOM     82  O   UNL A   1      53.011  26.176  24.121  1.00  0.00    -0.744 OA
ENDBRANCH  76  79
ENDBRANCH  58  72
BRANCH  59  83
ATOM     83  C   UNL A   1      40.024  30.209  29.729  1.00  0.00     0.023 A 
ATOM     84  C   UNL A   1      39.094  30.597  28.745  1.00  0.00     0.012 A 
ATOM     85  C   UNL A   1      39.643  30.245  31.084  1.00  0.00     0.148 A 
ATOM     86  C   UNL A   1      37.820  31.040  29.102  1.00  0.00     0.002 A 
ATOM     87  C   UNL A   1      38.354  30.639  31.431  1.00  0.00     0.091 A 
ATOM     88  F   UNL A   1      40.545  29.886  32.008  1.00  0.00    -0.205 F 
ATOM     89  C   UNL A   1      37.447  31.052  30.444  1.00  0.00     0.022 A 
BRANCH  87  90
ATOM     90  S   UNL A   1      37.748  30.559  33.121  1.00  0.00     0.127 S 
ATOM     91  O   UNL A   1      37.801  29.125  33.390  1.00  0.00    -0.237 OA
ATOM     92  O   UNL A   1      38.740  31.358  33.840  1.00  0.00    -0.237 OA
ATOM     93  O   UNL A   1      36.417  31.152  33.084  1.00  0.00    -0.744 OA
ENDBRANCH  87  90
ENDBRANCH  59  83
BRANCH  71  94
ATOM     94  C   UNL A   1      46.320  33.234  29.377  1.00  0.00     0.023 A 
ATOM     95  C   UNL A   1      46.869  33.537  30.637  1.00  0.00     0.012 A 
ATOM     96  C   UNL A   1      46.353  34.200  28.352  1.00  0.00     0.148 A 
ATOM     97  C   UNL A   1      47.433  34.789  30.878  1.00  0.00     0.002 A 
ATOM     98  C   UNL A   1      46.955  35.430  28.586  1.00  0.00     0.091 A 
ATOM     99  F   UNL A   1      45.807  33.893  27.166  1.00  0.00    -0.205 F 
ATOM    100  C   UNL A   1      47.490  35.728  29.850  1.00  0.00     0.022 A 
BRANCH  98 101
ATOM    101  S   UNL A   1      47.160  36.663  27.295  1.00  0.00     0.127 S 
ATOM    102  O   UNL A   1      47.904  37.707  27.996  1.00  0.00    -0.237 OA
ATOM    103  O   UNL A   1      47.932  35.933  26.289  1.00  0.00    -0.237 OA
ATOM    104  O   UNL A   1      45.815  37.031  26.874  1.00  0.00    -0.744 OA
ENDBRANCH  98 101
ENDBRANCH  71  94
ENDBRANCH  45  46
ENDBRANCH  37  40
ENDBRANCH  35  36
ENDBRANCH  34  35
ENDBRANCH  33  34
ENDBRANCH   1  33
TORSDOF 20
ENDMDL
