MODEL 1
REMARK VINA RESULT:     -11.5      0.000      0.000
REMARK SMILES O=C(NCCCCNC(=O)c1ccc(NC2CC2)c(F)c1F)c1ccc(-c2c3nc(c(-c4cccc(S(=O)(=O)[O-])c4F)c4ccc([nH]4)c(-c4cccc(S(=O)(=O)[O-])c4F)c4nc(c(-c5cccc(S(=O)(=O)[O-])c5F)c5ccc2[nH]5)C=C4)C=C3)cc1
REMARK SMILES IDX 5 1 4 2 3 3 1 4 2 5 23 7 24 8 85 9 25 10 84 11 26 12 27 13
REMARK SMILES IDX 28 14 78 15 29 16 83 17 77 18 79 19 30 20 82 21 76 22 75 23
REMARK SMILES IDX 31 25 63 26 43 27 62 28 44 29 47 30 61 31 80 32 45 33 46 34
REMARK SMILES IDX 60 36 81 37 48 38 32 39 33 40 41 41 34 42 36 43 42 44 35 45
REMARK SMILES IDX 37 46 38 47 39 48 40 49 64 50 65 51 73 52 66 53 68 54 74 55
REMARK SMILES IDX 67 56 69 57 70 58 71 59 72 60 49 61 50 62 58 63 51 64 53 65
REMARK SMILES IDX 59 66 52 67 54 68 55 69 56 70 57 71 6 72 7 73 8 74 9 75
REMARK SMILES IDX 10 77 11 78 12 79 21 80 13 81 19 82 22 83 14 84 20 85 15 86
REMARK SMILES IDX 16 88 17 89 18 90
REMARK H PARENT 3 6 79 24 47 35 8 76 15 87
REMARK Flexibility Score: inf
ROOT
ATOM      1  C   UNL A   1      31.804  28.733  26.127  1.00  0.00     0.023 C 
ENDROOT
BRANCH   1   2
ATOM      2  C   UNL A   1      32.814  29.785  25.688  1.00  0.00     0.116 C 
BRANCH   2   3
ATOM      3  N   UNL A   1      32.455  31.131  26.109  1.00  0.00    -0.352 N 
ATOM      4  O   UNL A   1      32.525  32.991  27.379  1.00  0.00    -0.269 OA
ATOM      5  C   UNL A   1      33.056  31.933  27.053  1.00  0.00     0.251 C 
ATOM      6  H   UNL A   1      31.673  31.521  25.657  1.00  0.00     0.163 HD
BRANCH   5   7
ATOM      7  C   UNL A   1      34.319  31.497  27.688  1.00  0.00     0.039 A 
ATOM      8  C   UNL A   1      34.507  30.162  28.050  1.00  0.00     0.014 A 
ATOM      9  C   UNL A   1      35.319  32.440  27.941  1.00  0.00     0.014 A 
ATOM     10  C   UNL A   1      35.616  29.801  28.806  1.00  0.00     0.010 A 
ATOM     11  C   UNL A   1      36.478  32.055  28.623  1.00  0.00     0.010 A 
ATOM     12  C   UNL A   1      36.620  30.742  29.095  1.00  0.00    -0.014 A 
BRANCH  12  13
ATOM     13  C   UNL A   1      37.837  30.303  29.825  1.00  0.00     0.031 A 
ATOM     14  C   UNL A   1      38.124  30.764  31.228  1.00  0.00     0.074 A 
ATOM     15  C   UNL A   1      38.693  29.469  29.201  1.00  0.00     0.049 A 
ATOM     16  N   UNL A   1      39.126  30.444  32.006  1.00  0.00    -0.248 NA
ATOM     17  C   UNL A   1      37.175  31.711  31.836  1.00  0.00     0.031 C 
ATOM     18  C   UNL A   1      38.547  28.995  27.822  1.00  0.00     0.029 A 
ATOM     19  N   UNL A   1      39.849  28.875  29.635  1.00  0.00    -0.354 N 
ATOM     20  C   UNL A   1      38.955  31.177  33.175  1.00  0.00     0.074 A 
ATOM     21  C   UNL A   1      37.752  31.964  33.003  1.00  0.00     0.031 C 
ATOM     22  C   UNL A   1      39.559  28.167  27.531  1.00  0.00     0.029 A 
ATOM     23  C   UNL A   1      40.452  28.089  28.681  1.00  0.00     0.049 A 
ATOM     24  H   UNL A   1      40.213  28.998  30.542  1.00  0.00     0.167 HD
ATOM     25  C   UNL A   1      39.723  31.182  34.292  1.00  0.00     0.034 A 
ATOM     26  C   UNL A   1      41.604  27.392  28.717  1.00  0.00     0.034 A 
ATOM     27  C   UNL A   1      40.893  30.363  34.473  1.00  0.00     0.049 A 
ATOM     28  C   UNL A   1      42.409  27.384  29.983  1.00  0.00     0.074 A 
ATOM     29  C   UNL A   1      41.689  30.239  35.600  1.00  0.00     0.029 A 
ATOM     30  N   UNL A   1      41.443  29.537  33.505  1.00  0.00    -0.354 N 
ATOM     31  N   UNL A   1      42.153  27.974  31.125  1.00  0.00    -0.248 NA
ATOM     32  C   UNL A   1      43.648  26.593  29.977  1.00  0.00     0.031 C 
ATOM     33  C   UNL A   1      42.731  29.353  35.305  1.00  0.00     0.029 A 
ATOM     34  C   UNL A   1      42.573  28.909  34.002  1.00  0.00     0.049 A 
ATOM     35  H   UNL A   1      41.082  29.414  32.597  1.00  0.00     0.167 HD
ATOM     36  C   UNL A   1      43.185  27.611  31.980  1.00  0.00     0.074 A 
ATOM     37  C   UNL A   1      44.054  26.725  31.232  1.00  0.00     0.031 C 
ATOM     38  C   UNL A   1      43.405  27.994  33.261  1.00  0.00     0.034 A 
BRANCH  25  39
ATOM     39  C   UNL A   1      39.303  32.069  35.435  1.00  0.00     0.023 A 
ATOM     40  C   UNL A   1      38.455  31.557  36.439  1.00  0.00     0.012 A 
ATOM     41  C   UNL A   1      39.812  33.376  35.564  1.00  0.00     0.148 A 
ATOM     42  C   UNL A   1      38.103  32.338  37.539  1.00  0.00     0.002 A 
ATOM     43  C   UNL A   1      39.487  34.136  36.683  1.00  0.00     0.091 A 
ATOM     44  F   UNL A   1      40.601  33.854  34.591  1.00  0.00    -0.205 F 
ATOM     45  C   UNL A   1      38.626  33.622  37.666  1.00  0.00     0.022 A 
BRANCH  43  46
ATOM     46  S   UNL A   1      40.171  35.772  36.973  1.00  0.00     0.127 S 
ATOM     47  O   UNL A   1      39.643  36.519  35.832  1.00  0.00    -0.237 OA
ATOM     48  O   UNL A   1      39.579  36.132  38.262  1.00  0.00    -0.237 OA
ATOM     49  O   UNL A   1      41.617  35.603  36.997  1.00  0.00    -0.744 OA
ENDBRANCH  43  46
ENDBRANCH  25  39
BRANCH  26  50
ATOM     50  C   UNL A   1      42.023  26.611  27.522  1.00  0.00     0.023 A 
ATOM     51  C   UNL A   1      42.781  27.237  26.514  1.00  0.00     0.012 A 
ATOM     52  C   UNL A   1      41.735  25.236  27.412  1.00  0.00     0.148 A 
ATOM     53  C   UNL A   1      43.231  26.512  25.410  1.00  0.00     0.002 A 
ATOM     54  C   UNL A   1      42.236  24.507  26.341  1.00  0.00     0.091 A 
ATOM     55  F   UNL A   1      40.997  24.663  28.374  1.00  0.00    -0.205 F 
ATOM     56  C   UNL A   1      42.970  25.145  25.331  1.00  0.00     0.022 A 
BRANCH  54  57
ATOM     57  S   UNL A   1      42.078  22.720  26.246  1.00  0.00     0.127 S 
ATOM     58  O   UNL A   1      40.629  22.549  26.224  1.00  0.00    -0.237 OA
ATOM     59  O   UNL A   1      42.754  22.421  24.982  1.00  0.00    -0.237 OA
ATOM     60  O   UNL A   1      42.763  22.206  27.424  1.00  0.00    -0.744 OA
ENDBRANCH  54  57
ENDBRANCH  26  50
BRANCH  38  61
ATOM     61  C   UNL A   1      44.629  27.448  33.947  1.00  0.00     0.023 A 
ATOM     62  C   UNL A   1      45.839  28.165  33.885  1.00  0.00     0.012 A 
ATOM     63  C   UNL A   1      44.565  26.261  34.702  1.00  0.00     0.148 A 
ATOM     64  C   UNL A   1      46.977  27.693  34.538  1.00  0.00     0.002 A 
ATOM     65  C   UNL A   1      45.690  25.820  35.389  1.00  0.00     0.091 A 
ATOM     66  F   UNL A   1      43.409  25.580  34.731  1.00  0.00    -0.205 F 
ATOM     67  C   UNL A   1      46.899  26.529  35.299  1.00  0.00     0.022 A 
BRANCH  65  68
ATOM     68  S   UNL A   1      45.656  24.380  36.463  1.00  0.00     0.127 S 
ATOM     69  O   UNL A   1      45.350  23.309  35.515  1.00  0.00    -0.237 OA
ATOM     70  O   UNL A   1      47.019  24.354  36.994  1.00  0.00    -0.237 OA
ATOM     71  O   UNL A   1      44.627  24.651  37.458  1.00  0.00    -0.744 OA
ENDBRANCH  65  68
ENDBRANCH  38  61
ENDBRANCH  12  13
ENDBRANCH   5   7
ENDBRANCH   2   3
ENDBRANCH   1   2
BRANCH   1  72
ATOM     72  C   UNL A   1      32.260  27.286  25.965  1.00  0.00     0.023 C 
BRANCH  72  73
ATOM     73  C   UNL A   1      31.186  26.234  26.223  1.00  0.00     0.116 C 
BRANCH  73  74
ATOM     74  N   UNL A   1      31.121  25.222  25.177  1.00  0.00    -0.352 N 
ATOM     75  C   UNL A   1      30.481  25.285  23.963  1.00  0.00     0.254 C 
ATOM     76  H   UNL A   1      31.599  24.383  25.365  1.00  0.00     0.163 HD
ATOM     77  O   UNL A   1      30.485  24.334  23.189  1.00  0.00    -0.269 OA
BRANCH  75  78
ATOM     78  C   UNL A   1      29.807  26.531  23.589  1.00  0.00     0.078 A 
ATOM     79  C   UNL A   1      28.463  26.724  23.920  1.00  0.00     0.019 A 
ATOM     80  C   UNL A   1      30.492  27.489  22.859  1.00  0.00     0.173 A 
ATOM     81  C   UNL A   1      27.780  27.843  23.435  1.00  0.00     0.030 A 
ATOM     82  C   UNL A   1      29.805  28.605  22.397  1.00  0.00     0.182 A 
ATOM     83  F   UNL A   1      31.784  27.327  22.539  1.00  0.00    -0.203 F 
ATOM     84  C   UNL A   1      28.428  28.796  22.643  1.00  0.00     0.074 A 
ATOM     85  F   UNL A   1      30.459  29.515  21.655  1.00  0.00    -0.201 F 
BRANCH  84  86
ATOM     86  N   UNL A   1      27.800  29.906  22.044  1.00  0.00    -0.380 N 
ATOM     87  H   UNL A   1      27.412  29.728  21.157  1.00  0.00     0.160 HD
BRANCH  86  88
ATOM     88  C   UNL A   1      27.627  31.274  22.514  1.00  0.00     0.079 C 
ATOM     89  C   UNL A   1      28.323  31.894  23.688  1.00  0.00     0.027 C 
ATOM     90  C   UNL A   1      28.616  32.378  22.291  1.00  0.00     0.027 C 
ENDBRANCH  86  88
ENDBRANCH  84  86
ENDBRANCH  75  78
ENDBRANCH  73  74
ENDBRANCH  72  73
ENDBRANCH   1  72
TORSDOF 16
ENDMDL
MODEL 2
REMARK VINA RESULT:     -11.3      2.562      4.147
REMARK SMILES O=C(NCCCCNC(=O)c1ccc(NC2CC2)c(F)c1F)c1ccc(-c2c3nc(c(-c4cccc(S(=O)(=O)[O-])c4F)c4ccc([nH]4)c(-c4cccc(S(=O)(=O)[O-])c4F)c4nc(c(-c5cccc(S(=O)(=O)[O-])c5F)c5ccc2[nH]5)C=C4)C=C3)cc1
REMARK SMILES IDX 5 1 4 2 3 3 1 4 2 5 23 7 24 8 85 9 25 10 84 11 26 12 27 13
REMARK SMILES IDX 28 14 78 15 29 16 83 17 77 18 79 19 30 20 82 21 76 22 75 23
REMARK SMILES IDX 31 25 63 26 43 27 62 28 44 29 47 30 61 31 80 32 45 33 46 34
REMARK SMILES IDX 60 36 81 37 48 38 32 39 33 40 41 41 34 42 36 43 42 44 35 45
REMARK SMILES IDX 37 46 38 47 39 48 40 49 64 50 65 51 73 52 66 53 68 54 74 55
REMARK SMILES IDX 67 56 69 57 70 58 71 59 72 60 49 61 50 62 58 63 51 64 53 65
REMARK SMILES IDX 59 66 52 67 54 68 55 69 56 70 57 71 6 72 7 73 8 74 9 75
REMARK SMILES IDX 10 77 11 78 12 79 21 80 13 81 19 82 22 83 14 84 20 85 15 86
REMARK SMILES IDX 16 88 17 89 18 90
REMARK H PARENT 3 6 79 24 47 35 8 76 15 87
REMARK Flexibility Score: inf
ROOT
ATOM      1  C   UNL A   1      32.939  27.982  26.598  1.00  0.00     0.023 C 
ENDROOT
BRANCH   1   2
ATOM      2  C   UNL A   1      33.537  29.131  25.797  1.00  0.00     0.116 C 
BRANCH   2   3
ATOM      3  N   UNL A   1      33.147  30.439  26.300  1.00  0.00    -0.352 N 
ATOM      4  O   UNL A   1      33.187  32.227  27.671  1.00  0.00    -0.269 OA
ATOM      5  C   UNL A   1      33.742  31.206  27.277  1.00  0.00     0.251 C 
ATOM      6  H   UNL A   1      32.345  30.831  25.885  1.00  0.00     0.163 HD
BRANCH   5   7
ATOM      7  C   UNL A   1      35.029  30.773  27.864  1.00  0.00     0.039 A 
ATOM      8  C   UNL A   1      35.129  29.554  28.537  1.00  0.00     0.014 A 
ATOM      9  C   UNL A   1      36.146  31.607  27.755  1.00  0.00     0.014 A 
ATOM     10  C   UNL A   1      36.289  29.245  29.237  1.00  0.00     0.010 A 
ATOM     11  C   UNL A   1      37.342  31.250  28.386  1.00  0.00     0.010 A 
ATOM     12  C   UNL A   1      37.413  30.085  29.163  1.00  0.00    -0.014 A 
BRANCH  12  13
ATOM     13  C   UNL A   1      38.668  29.679  29.848  1.00  0.00     0.031 A 
ATOM     14  C   UNL A   1      39.043  30.228  31.197  1.00  0.00     0.074 A 
ATOM     15  C   UNL A   1      39.477  28.795  29.230  1.00  0.00     0.049 A 
ATOM     16  N   UNL A   1      40.087  29.947  31.934  1.00  0.00    -0.248 NA
ATOM     17  C   UNL A   1      38.141  31.225  31.796  1.00  0.00     0.031 C 
ATOM     18  C   UNL A   1      39.245  28.234  27.897  1.00  0.00     0.029 A 
ATOM     19  N   UNL A   1      40.652  28.216  29.633  1.00  0.00    -0.354 N 
ATOM     20  C   UNL A   1      39.993  30.757  33.059  1.00  0.00     0.074 A 
ATOM     21  C   UNL A   1      38.789  31.546  32.908  1.00  0.00     0.031 C 
ATOM     22  C   UNL A   1      40.230  27.375  27.602  1.00  0.00     0.029 A 
ATOM     23  C   UNL A   1      41.190  27.362  28.700  1.00  0.00     0.049 A 
ATOM     24  H   UNL A   1      41.071  28.394  30.507  1.00  0.00     0.167 HD
ATOM     25  C   UNL A   1      40.827  30.825  34.126  1.00  0.00     0.034 A 
ATOM     26  C   UNL A   1      42.335  26.654  28.713  1.00  0.00     0.034 A 
ATOM     27  C   UNL A   1      41.999  30.005  34.291  1.00  0.00     0.049 A 
ATOM     28  C   UNL A   1      43.215  26.719  29.926  1.00  0.00     0.074 A 
ATOM     29  C   UNL A   1      42.860  29.945  35.374  1.00  0.00     0.029 A 
ATOM     30  N   UNL A   1      42.482  29.110  33.349  1.00  0.00    -0.354 N 
ATOM     31  N   UNL A   1      43.034  27.385  31.040  1.00  0.00    -0.248 NA
ATOM     32  C   UNL A   1      44.444  25.913  29.899  1.00  0.00     0.031 C 
ATOM     33  C   UNL A   1      43.874  29.029  35.077  1.00  0.00     0.029 A 
ATOM     34  C   UNL A   1      43.634  28.502  33.818  1.00  0.00     0.049 A 
ATOM     35  H   UNL A   1      42.066  28.933  32.474  1.00  0.00     0.167 HD
ATOM     36  C   UNL A   1      44.112  27.067  31.855  1.00  0.00     0.074 A 
ATOM     37  C   UNL A   1      44.927  26.122  31.117  1.00  0.00     0.031 C 
ATOM     38  C   UNL A   1      44.411  27.530  33.092  1.00  0.00     0.034 A 
BRANCH  25  39
ATOM     39  C   UNL A   1      40.484  31.791  35.231  1.00  0.00     0.023 A 
ATOM     40  C   UNL A   1      41.195  33.004  35.341  1.00  0.00     0.012 A 
ATOM     41  C   UNL A   1      39.408  31.541  36.105  1.00  0.00     0.148 A 
ATOM     42  C   UNL A   1      40.855  33.941  36.315  1.00  0.00     0.002 A 
ATOM     43  C   UNL A   1      39.050  32.497  37.050  1.00  0.00     0.091 A 
ATOM     44  F   UNL A   1      38.756  30.374  36.000  1.00  0.00    -0.205 F 
ATOM     45  C   UNL A   1      39.778  33.693  37.162  1.00  0.00     0.022 A 
BRANCH  43  46
ATOM     46  S   UNL A   1      37.631  32.302  38.135  1.00  0.00     0.127 S 
ATOM     47  O   UNL A   1      38.117  32.917  39.369  1.00  0.00    -0.237 OA
ATOM     48  O   UNL A   1      36.599  33.070  37.438  1.00  0.00    -0.237 OA
ATOM     49  O   UNL A   1      37.376  30.870  38.206  1.00  0.00    -0.744 OA
ENDBRANCH  43  46
ENDBRANCH  25  39
BRANCH  26  50
ATOM     50  C   UNL A   1      42.675  25.791  27.549  1.00  0.00     0.023 A 
ATOM     51  C   UNL A   1      43.556  26.271  26.562  1.00  0.00     0.012 A 
ATOM     52  C   UNL A   1      42.186  24.473  27.452  1.00  0.00     0.148 A 
ATOM     53  C   UNL A   1      43.931  25.461  25.490  1.00  0.00     0.002 A 
ATOM     54  C   UNL A   1      42.609  23.651  26.415  1.00  0.00     0.091 A 
ATOM     55  F   UNL A   1      41.334  24.041  28.393  1.00  0.00    -0.205 F 
ATOM     56  C   UNL A   1      43.469  24.148  25.424  1.00  0.00     0.022 A 
BRANCH  54  57
ATOM     57  S   UNL A   1      42.185  21.908  26.344  1.00  0.00     0.127 S 
ATOM     58  O   UNL A   1      40.760  21.959  26.036  1.00  0.00    -0.237 OA
ATOM     59  O   UNL A   1      43.036  21.431  25.253  1.00  0.00    -0.237 OA
ATOM     60  O   UNL A   1      42.536  21.370  27.652  1.00  0.00    -0.744 OA
ENDBRANCH  54  57
ENDBRANCH  26  50
BRANCH  38  61
ATOM     61  C   UNL A   1      45.670  27.014  33.739  1.00  0.00     0.023 A 
ATOM     62  C   UNL A   1      46.871  27.734  33.594  1.00  0.00     0.012 A 
ATOM     63  C   UNL A   1      45.648  25.855  34.538  1.00  0.00     0.148 A 
ATOM     64  C   UNL A   1      48.042  27.292  34.209  1.00  0.00     0.002 A 
ATOM     65  C   UNL A   1      46.808  25.444  35.186  1.00  0.00     0.091 A 
ATOM     66  F   UNL A   1      44.499  25.171  34.645  1.00  0.00    -0.205 F 
ATOM     67  C   UNL A   1      48.007  26.155  35.014  1.00  0.00     0.022 A 
BRANCH  65  68
ATOM     68  S   UNL A   1      46.833  24.044  36.311  1.00  0.00     0.127 S 
ATOM     69  O   UNL A   1      45.712  24.354  37.197  1.00  0.00    -0.237 OA
ATOM     70  O   UNL A   1      46.605  22.914  35.410  1.00  0.00    -0.237 OA
ATOM     71  O   UNL A   1      48.149  24.060  36.935  1.00  0.00    -0.744 OA
ENDBRANCH  65  68
ENDBRANCH  38  61
ENDBRANCH  12  13
ENDBRANCH   5   7
ENDBRANCH   2   3
ENDBRANCH   1   2
BRANCH   1  72
ATOM     72  C   UNL A   1      31.819  27.216  25.900  1.00  0.00     0.023 C 
BRANCH  72  73
ATOM     73  C   UNL A   1      31.994  25.702  25.861  1.00  0.00     0.116 C 
BRANCH  73  74
ATOM     74  N   UNL A   1      30.917  24.988  26.535  1.00  0.00    -0.352 N 
ATOM     75  C   UNL A   1      30.856  23.662  26.887  1.00  0.00     0.254 C 
ATOM     76  H   UNL A   1      30.129  25.530  26.770  1.00  0.00     0.163 HD
ATOM     77  O   UNL A   1      29.863  23.189  27.427  1.00  0.00    -0.269 OA
BRANCH  75  78
ATOM     78  C   UNL A   1      32.023  22.815  26.630  1.00  0.00     0.078 A 
ATOM     79  C   UNL A   1      32.977  22.618  27.632  1.00  0.00     0.019 A 
ATOM     80  C   UNL A   1      32.204  22.257  25.375  1.00  0.00     0.173 A 
ATOM     81  C   UNL A   1      34.162  21.934  27.342  1.00  0.00     0.030 A 
ATOM     82  C   UNL A   1      33.379  21.565  25.105  1.00  0.00     0.182 A 
ATOM     83  F   UNL A   1      31.297  22.426  24.402  1.00  0.00    -0.203 F 
ATOM     84  C   UNL A   1      34.401  21.414  26.067  1.00  0.00     0.074 A 
ATOM     85  F   UNL A   1      33.571  21.058  23.875  1.00  0.00    -0.201 F 
BRANCH  84  86
ATOM     86  N   UNL A   1      35.596  20.787  25.664  1.00  0.00    -0.380 N 
ATOM     87  H   UNL A   1      35.621  19.815  25.819  1.00  0.00     0.160 HD
BRANCH  86  88
ATOM     88  C   UNL A   1      36.802  21.332  25.054  1.00  0.00     0.079 C 
ATOM     89  C   UNL A   1      36.858  22.478  24.089  1.00  0.00     0.027 C 
ATOM     90  C   UNL A   1      37.453  22.617  25.467  1.00  0.00     0.027 C 
ENDBRANCH  86  88
ENDBRANCH  84  86
ENDBRANCH  75  78
ENDBRANCH  73  74
ENDBRANCH  72  73
ENDBRANCH   1  72
TORSDOF 16
ENDMDL
MODEL 3
REMARK VINA RESULT:     -11.3      5.879     10.786
REMARK SMILES O=C(NCCCCNC(=O)c1ccc(NC2CC2)c(F)c1F)c1ccc(-c2c3nc(c(-c4cccc(S(=O)(=O)[O-])c4F)c4ccc([nH]4)c(-c4cccc(S(=O)(=O)[O-])c4F)c4nc(c(-c5cccc(S(=O)(=O)[O-])c5F)c5ccc2[nH]5)C=C4)C=C3)cc1
REMARK SMILES IDX 5 1 4 2 3 3 1 4 2 5 23 7 24 8 85 9 25 10 84 11 26 12 27 13
REMARK SMILES IDX 28 14 78 15 29 16 83 17 77 18 79 19 30 20 82 21 76 22 75 23
REMARK SMILES IDX 31 25 63 26 43 27 62 28 44 29 47 30 61 31 80 32 45 33 46 34
REMARK SMILES IDX 60 36 81 37 48 38 32 39 33 40 41 41 34 42 36 43 42 44 35 45
REMARK SMILES IDX 37 46 38 47 39 48 40 49 64 50 65 51 73 52 66 53 68 54 74 55
REMARK SMILES IDX 67 56 69 57 70 58 71 59 72 60 49 61 50 62 58 63 51 64 53 65
REMARK SMILES IDX 59 66 52 67 54 68 55 69 56 70 57 71 6 72 7 73 8 74 9 75
REMARK SMILES IDX 10 77 11 78 12 79 21 80 13 81 19 82 22 83 14 84 20 85 15 86
REMARK SMILES IDX 16 88 17 89 18 90
REMARK H PARENT 3 6 79 24 47 35 8 76 15 87
REMARK Flexibility Score: inf
ROOT
ATOM      1  C   UNL A   1      35.896  22.432  25.813  1.00  0.00     0.023 C 
ENDROOT
BRANCH   1   2
ATOM      2  C   UNL A   1      37.071  22.121  24.895  1.00  0.00     0.116 C 
BRANCH   2   3
ATOM      3  N   UNL A   1      37.891  21.019  25.373  1.00  0.00    -0.352 N 
ATOM      4  O   UNL A   1      39.708  20.020  26.256  1.00  0.00    -0.269 OA
ATOM      5  C   UNL A   1      39.084  21.059  26.058  1.00  0.00     0.251 C 
ATOM      6  H   UNL A   1      37.544  20.118  25.179  1.00  0.00     0.163 HD
BRANCH   5   7
ATOM      7  C   UNL A   1      39.620  22.358  26.521  1.00  0.00     0.039 A 
ATOM      8  C   UNL A   1      39.202  23.550  25.927  1.00  0.00     0.014 A 
ATOM      9  C   UNL A   1      40.566  22.381  27.549  1.00  0.00     0.014 A 
ATOM     10  C   UNL A   1      39.843  24.742  26.243  1.00  0.00     0.010 A 
ATOM     11  C   UNL A   1      41.146  23.596  27.930  1.00  0.00     0.010 A 
ATOM     12  C   UNL A   1      40.817  24.781  27.255  1.00  0.00    -0.014 A 
BRANCH  12  13
ATOM     13  C   UNL A   1      41.418  26.086  27.635  1.00  0.00     0.031 A 
ATOM     14  C   UNL A   1      42.818  26.457  27.230  1.00  0.00     0.074 A 
ATOM     15  C   UNL A   1      40.674  26.948  28.358  1.00  0.00     0.049 A 
ATOM     16  N   UNL A   1      43.468  27.569  27.457  1.00  0.00    -0.248 NA
ATOM     17  C   UNL A   1      43.594  25.454  26.482  1.00  0.00     0.031 C 
ATOM     18  C   UNL A   1      39.322  26.677  28.854  1.00  0.00     0.029 A 
ATOM     19  N   UNL A   1      40.943  28.215  28.803  1.00  0.00    -0.354 N 
ATOM     20  C   UNL A   1      44.739  27.389  26.922  1.00  0.00     0.074 A 
ATOM     21  C   UNL A   1      44.770  26.056  26.359  1.00  0.00     0.031 C 
ATOM     22  C   UNL A   1      38.871  27.752  29.513  1.00  0.00     0.029 A 
ATOM     23  C   UNL A   1      39.916  28.768  29.532  1.00  0.00     0.049 A 
ATOM     24  H   UNL A   1      41.789  28.685  28.619  1.00  0.00     0.167 HD
ATOM     25  C   UNL A   1      45.777  28.260  26.890  1.00  0.00     0.034 A 
ATOM     26  C   UNL A   1      39.826  29.956  30.160  1.00  0.00     0.034 A 
ATOM     27  C   UNL A   1      45.724  29.601  27.412  1.00  0.00     0.049 A 
ATOM     28  C   UNL A   1      40.976  30.915  30.071  1.00  0.00     0.074 A 
ATOM     29  C   UNL A   1      46.697  30.585  27.355  1.00  0.00     0.029 A 
ATOM     30  N   UNL A   1      44.648  30.146  28.095  1.00  0.00    -0.354 N 
ATOM     31  N   UNL A   1      42.116  30.777  29.438  1.00  0.00    -0.248 NA
ATOM     32  C   UNL A   1      40.820  32.205  30.758  1.00  0.00     0.031 C 
ATOM     33  C   UNL A   1      46.216  31.717  28.020  1.00  0.00     0.029 A 
ATOM     34  C   UNL A   1      44.935  31.447  28.475  1.00  0.00     0.049 A 
ATOM     35  H   UNL A   1      43.802  29.678  28.282  1.00  0.00     0.167 HD
ATOM     36  C   UNL A   1      42.806  31.966  29.632  1.00  0.00     0.074 A 
ATOM     37  C   UNL A   1      41.941  32.826  30.416  1.00  0.00     0.031 C 
ATOM     38  C   UNL A   1      44.049  32.308  29.216  1.00  0.00     0.034 A 
BRANCH  25  39
ATOM     39  C   UNL A   1      47.056  27.813  26.230  1.00  0.00     0.023 A 
ATOM     40  C   UNL A   1      48.043  27.162  26.996  1.00  0.00     0.012 A 
ATOM     41  C   UNL A   1      47.245  27.960  24.842  1.00  0.00     0.148 A 
ATOM     42  C   UNL A   1      49.208  26.683  26.396  1.00  0.00     0.002 A 
ATOM     43  C   UNL A   1      48.390  27.447  24.244  1.00  0.00     0.091 A 
ATOM     44  F   UNL A   1      46.304  28.600  24.132  1.00  0.00    -0.205 F 
ATOM     45  C   UNL A   1      49.376  26.816  25.020  1.00  0.00     0.022 A 
BRANCH  43  46
ATOM     46  S   UNL A   1      48.664  27.503  22.468  1.00  0.00     0.127 S 
ATOM     47  O   UNL A   1      49.973  28.150  22.392  1.00  0.00    -0.237 OA
ATOM     48  O   UNL A   1      48.665  26.084  22.110  1.00  0.00    -0.237 OA
ATOM     49  O   UNL A   1      47.554  28.266  21.916  1.00  0.00    -0.744 OA
ENDBRANCH  43  46
ENDBRANCH  25  39
BRANCH  26  50
ATOM     50  C   UNL A   1      38.573  30.306  30.884  1.00  0.00     0.023 A 
ATOM     51  C   UNL A   1      38.429  29.943  32.236  1.00  0.00     0.012 A 
ATOM     52  C   UNL A   1      37.558  31.058  30.261  1.00  0.00     0.148 A 
ATOM     53  C   UNL A   1      37.286  30.307  32.950  1.00  0.00     0.002 A 
ATOM     54  C   UNL A   1      36.451  31.468  30.993  1.00  0.00     0.091 A 
ATOM     55  F   UNL A   1      37.708  31.379  28.968  1.00  0.00    -0.205 F 
ATOM     56  C   UNL A   1      36.305  31.081  32.333  1.00  0.00     0.022 A 
BRANCH  54  57
ATOM     57  S   UNL A   1      35.224  32.592  30.319  1.00  0.00     0.127 S 
ATOM     58  O   UNL A   1      34.692  31.819  29.201  1.00  0.00    -0.237 OA
ATOM     59  O   UNL A   1      34.306  32.755  31.448  1.00  0.00    -0.237 OA
ATOM     60  O   UNL A   1      35.956  33.802  29.968  1.00  0.00    -0.744 OA
ENDBRANCH  54  57
ENDBRANCH  26  50
BRANCH  38  61
ATOM     61  C   UNL A   1      44.552  33.677  29.590  1.00  0.00     0.023 A 
ATOM     62  C   UNL A   1      45.237  33.858  30.807  1.00  0.00     0.012 A 
ATOM     63  C   UNL A   1      44.402  34.766  28.711  1.00  0.00     0.148 A 
ATOM     64  C   UNL A   1      45.738  35.110  31.159  1.00  0.00     0.002 A 
ATOM     65  C   UNL A   1      44.943  36.002  29.046  1.00  0.00     0.091 A 
ATOM     66  F   UNL A   1      43.727  34.579  27.566  1.00  0.00    -0.205 F 
ATOM     67  C   UNL A   1      45.602  36.178  30.274  1.00  0.00     0.022 A 
BRANCH  65  68
ATOM     68  S   UNL A   1      44.893  37.407  27.929  1.00  0.00     0.127 S 
ATOM     69  O   UNL A   1      45.648  36.904  26.783  1.00  0.00    -0.237 OA
ATOM     70  O   UNL A   1      43.458  37.567  27.692  1.00  0.00    -0.237 OA
ATOM     71  O   UNL A   1      45.510  38.512  28.651  1.00  0.00    -0.744 OA
ENDBRANCH  65  68
ENDBRANCH  38  61
ENDBRANCH  12  13
ENDBRANCH   5   7
ENDBRANCH   2   3
ENDBRANCH   1   2
BRANCH   1  72
ATOM     72  C   UNL A   1      35.246  23.797  25.599  1.00  0.00     0.023 C 
BRANCH  72  73
ATOM     73  C   UNL A   1      34.523  23.969  24.267  1.00  0.00     0.116 C 
BRANCH  73  74
ATOM     74  N   UNL A   1      33.117  24.317  24.427  1.00  0.00    -0.352 N 
ATOM     75  C   UNL A   1      32.016  23.505  24.318  1.00  0.00     0.254 C 
ATOM     76  H   UNL A   1      32.934  25.260  24.641  1.00  0.00     0.163 HD
ATOM     77  O   UNL A   1      30.880  23.947  24.448  1.00  0.00    -0.269 OA
BRANCH  75  78
ATOM     78  C   UNL A   1      32.221  22.076  24.070  1.00  0.00     0.078 A 
ATOM     79  C   UNL A   1      32.116  21.572  22.770  1.00  0.00     0.019 A 
ATOM     80  C   UNL A   1      32.461  21.221  25.133  1.00  0.00     0.173 A 
ATOM     81  C   UNL A   1      32.163  20.191  22.553  1.00  0.00     0.030 A 
ATOM     82  C   UNL A   1      32.522  19.852  24.900  1.00  0.00     0.182 A 
ATOM     83  F   UNL A   1      32.573  21.685  26.386  1.00  0.00    -0.203 F 
ATOM     84  C   UNL A   1      32.342  19.300  23.613  1.00  0.00     0.074 A 
ATOM     85  F   UNL A   1      32.715  19.020  25.938  1.00  0.00    -0.201 F 
BRANCH  84  86
ATOM     86  N   UNL A   1      32.317  17.895  23.499  1.00  0.00    -0.380 N 
ATOM     87  H   UNL A   1      31.416  17.507  23.422  1.00  0.00     0.160 HD
BRANCH  86  88
ATOM     88  C   UNL A   1      33.399  16.920  23.474  1.00  0.00     0.079 C 
ATOM     89  C   UNL A   1      34.755  17.097  24.087  1.00  0.00     0.027 C 
ATOM     90  C   UNL A   1      33.801  16.071  24.640  1.00  0.00     0.027 C 
ENDBRANCH  86  88
ENDBRANCH  84  86
ENDBRANCH  75  78
ENDBRANCH  73  74
ENDBRANCH  72  73
ENDBRANCH   1  72
TORSDOF 16
ENDMDL
