MODEL 1
REMARK VINA RESULT:     -12.4      0.000      0.000
REMARK SMILES COc1cccc(C(=O)NNC(=O)[C@H]2CC(C)=C(C)C[C@@H]2C(=O)NCCCCNC(=O)c2ccc(-c3c4nc(c(-c5cccc(S(=O)(=O)[O-])c5F)c5ccc([nH]5)c(-c5cccc(S(=O)(=O)[O-])c5F)c5nc(c(-c6cccc(S(=O)(=O)[O-])c6F)c6ccc3[nH]6)C=C5)C=C4)cc2)c1
REMARK SMILES IDX 26 1 25 2 24 3 22 4 23 5 21 7 14 8 15 9 16 10 20 11 17 12
REMARK SMILES IDX 18 13 19 14 12 15 11 16 13 18 10 19 8 20 9 21 7 23 3 24 4 25
REMARK SMILES IDX 95 26 5 27 6 28 2 29 1 30 27 31 28 32 29 33 30 34 31 36
REMARK SMILES IDX 32 37 33 38 94 39 34 40 93 41 35 42 36 43 37 44 87 45 38 46
REMARK SMILES IDX 92 47 86 48 88 49 39 50 91 51 85 52 84 53 40 55 72 56 52 57
REMARK SMILES IDX 71 58 53 59 56 60 70 61 89 62 54 63 55 64 69 66 90 67 57 68
REMARK SMILES IDX 41 69 42 70 50 71 43 72 45 73 51 74 44 75 46 76 47 77 48 78
REMARK SMILES IDX 49 79 73 80 74 81 82 82 75 83 77 84 83 85 76 86 78 87 79 88
REMARK SMILES IDX 80 89 81 90 58 91 59 92 67 93 60 94 62 95 68 96 61 97 63 98
REMARK SMILES IDX 64 99 65 100 66 101
REMARK H PARENT 24 6 11 17 10 22 29 35 88 54 56 65
REMARK Flexibility Score: inf
ROOT
ATOM      1  C   UNL A   1      31.947  28.289  27.372  1.00  0.00     0.023 C 
ENDROOT
BRANCH   1   2
ATOM      2  C   UNL A   1      31.147  27.327  26.495  1.00  0.00     0.116 C 
BRANCH   2   3
ATOM      3  N   UNL A   1      31.449  25.950  26.800  1.00  0.00    -0.356 N 
ATOM      4  C   UNL A   1      31.737  24.889  26.025  1.00  0.00     0.224 C 
ATOM      5  O   UNL A   1      31.897  23.810  26.618  1.00  0.00    -0.275 OA
ATOM      6  H   UNL A   1      31.443  25.747  27.763  1.00  0.00     0.163 HD
BRANCH   4   7
ATOM      7  C   UNL A   1      31.869  24.875  24.508  1.00  0.00     0.095 C 
ATOM      8  C   UNL A   1      33.362  25.094  24.164  1.00  0.00     0.097 C 
ATOM      9  C   UNL A   1      33.713  26.539  23.776  1.00  0.00     0.045 C 
ATOM     10  C   UNL A   1      32.591  27.448  23.324  1.00  0.00    -0.074 C 
ATOM     11  C   UNL A   1      30.937  25.604  23.547  1.00  0.00     0.045 C 
ATOM     12  C   UNL A   1      33.039  28.853  23.005  1.00  0.00     0.039 C 
ATOM     13  C   UNL A   1      31.317  27.021  23.209  1.00  0.00    -0.074 C 
ATOM     14  C   UNL A   1      30.184  27.899  22.739  1.00  0.00     0.039 C 
BRANCH   8  15
ATOM     15  C   UNL A   1      33.736  24.043  23.128  1.00  0.00     0.242 C 
ATOM     16  N   UNL A   1      33.963  22.760  23.586  1.00  0.00    -0.267 N 
ATOM     17  H   UNL A   1      33.945  22.028  22.928  1.00  0.00     0.191 HD
ATOM     18  O   UNL A   1      33.759  24.267  21.918  1.00  0.00    -0.273 OA
BRANCH  16  19
ATOM     19  N   UNL A   1      34.217  22.427  24.925  1.00  0.00    -0.263 N 
ATOM     20  C   UNL A   1      34.086  21.168  25.484  1.00  0.00     0.269 C 
ATOM     21  O   UNL A   1      34.274  21.003  26.687  1.00  0.00    -0.267 OA
ATOM     22  H   UNL A   1      34.514  23.154  25.518  1.00  0.00     0.191 HD
BRANCH  20  23
ATOM     23  C   UNL A   1      33.653  20.005  24.671  1.00  0.00     0.045 A 
ATOM     24  C   UNL A   1      33.890  17.725  23.896  1.00  0.00     0.119 A 
ATOM     25  C   UNL A   1      32.834  17.926  23.003  1.00  0.00     0.046 A 
ATOM     26  C   UNL A   1      34.254  18.746  24.774  1.00  0.00     0.060 A 
ATOM     27  C   UNL A   1      32.170  19.152  22.955  1.00  0.00     0.005 A 
ATOM     28  C   UNL A   1      32.588  20.195  23.779  1.00  0.00     0.014 A 
BRANCH  24  29
ATOM     29  O   UNL A   1      34.493  16.499  23.828  1.00  0.00    -0.497 OA
ATOM     30  C   UNL A   1      34.595  15.793  25.064  1.00  0.00     0.278 C 
ENDBRANCH  24  29
ENDBRANCH  20  23
ENDBRANCH  16  19
ENDBRANCH   8  15
ENDBRANCH   4   7
ENDBRANCH   2   3
ENDBRANCH   1   2
BRANCH   1  31
ATOM     31  C   UNL A   1      33.458  28.262  27.129  1.00  0.00     0.023 C 
BRANCH  31  32
ATOM     32  C   UNL A   1      34.023  29.477  26.401  1.00  0.00     0.116 C 
BRANCH  32  33
ATOM     33  N   UNL A   1      33.887  30.713  27.159  1.00  0.00    -0.352 N 
ATOM     34  C   UNL A   1      34.717  31.203  28.138  1.00  0.00     0.251 C 
ATOM     35  H   UNL A   1      33.104  31.268  26.941  1.00  0.00     0.163 HD
ATOM     36  O   UNL A   1      34.418  32.223  28.752  1.00  0.00    -0.269 OA
BRANCH  34  37
ATOM     37  C   UNL A   1      35.948  30.460  28.469  1.00  0.00     0.039 A 
ATOM     38  C   UNL A   1      37.081  30.647  27.675  1.00  0.00     0.014 A 
ATOM     39  C   UNL A   1      35.995  29.635  29.596  1.00  0.00     0.014 A 
ATOM     40  C   UNL A   1      38.288  30.058  28.053  1.00  0.00     0.010 A 
ATOM     41  C   UNL A   1      37.213  29.101  30.004  1.00  0.00     0.010 A 
ATOM     42  C   UNL A   1      38.371  29.313  29.240  1.00  0.00    -0.014 A 
BRANCH  42  43
ATOM     43  C   UNL A   1      39.668  28.775  29.722  1.00  0.00     0.031 A 
ATOM     44  C   UNL A   1      40.417  29.477  30.819  1.00  0.00     0.074 A 
ATOM     45  C   UNL A   1      40.217  27.716  29.095  1.00  0.00     0.049 A 
ATOM     46  N   UNL A   1      41.589  29.197  31.323  1.00  0.00    -0.248 NA
ATOM     47  C   UNL A   1      39.778  30.666  31.410  1.00  0.00     0.031 C 
ATOM     48  C   UNL A   1      39.628  27.007  27.955  1.00  0.00     0.029 A 
ATOM     49  N   UNL A   1      41.411  27.071  29.303  1.00  0.00    -0.354 N 
ATOM     50  C   UNL A   1      41.848  30.191  32.259  1.00  0.00     0.074 A 
ATOM     51  C   UNL A   1      40.721  31.098  32.237  1.00  0.00     0.031 C 
ATOM     52  C   UNL A   1      40.463  26.031  27.564  1.00  0.00     0.029 A 
ATOM     53  C   UNL A   1      41.656  26.059  28.404  1.00  0.00     0.049 A 
ATOM     54  H   UNL A   1      42.032  27.310  30.028  1.00  0.00     0.167 HD
ATOM     55  C   UNL A   1      42.913  30.319  33.084  1.00  0.00     0.034 A 
ATOM     56  C   UNL A   1      42.725  25.250  28.267  1.00  0.00     0.034 A 
ATOM     57  C   UNL A   1      44.005  29.385  33.142  1.00  0.00     0.049 A 
ATOM     58  C   UNL A   1      43.868  25.382  29.236  1.00  0.00     0.074 A 
ATOM     59  C   UNL A   1      45.074  29.367  34.019  1.00  0.00     0.029 A 
ATOM     60  N   UNL A   1      44.169  28.308  32.285  1.00  0.00    -0.354 N 
ATOM     61  N   UNL A   1      44.007  26.216  30.239  1.00  0.00    -0.248 NA
ATOM     62  C   UNL A   1      44.986  24.439  29.081  1.00  0.00     0.031 C 
ATOM     63  C   UNL A   1      45.896  28.287  33.682  1.00  0.00     0.029 A 
ATOM     64  C   UNL A   1      45.329  27.624  32.606  1.00  0.00     0.049 A 
ATOM     65  H   UNL A   1      43.554  28.065  31.558  1.00  0.00     0.167 HD
ATOM     66  C   UNL A   1      45.208  25.879  30.850  1.00  0.00     0.074 A 
ATOM     67  C   UNL A   1      45.746  24.748  30.123  1.00  0.00     0.031 C 
ATOM     68  C   UNL A   1      45.822  26.464  31.908  1.00  0.00     0.034 A 
BRANCH  55  69
ATOM     69  C   UNL A   1      42.924  31.481  34.043  1.00  0.00     0.023 A 
ATOM     70  C   UNL A   1      43.470  32.712  33.629  1.00  0.00     0.012 A 
ATOM     71  C   UNL A   1      42.330  31.378  35.315  1.00  0.00     0.148 A 
ATOM     72  C   UNL A   1      43.449  33.819  34.476  1.00  0.00     0.002 A 
ATOM     73  C   UNL A   1      42.276  32.498  36.139  1.00  0.00     0.091 A 
ATOM     74  F   UNL A   1      41.836  30.192  35.698  1.00  0.00    -0.205 F 
ATOM     75  C   UNL A   1      42.842  33.714  35.725  1.00  0.00     0.022 A 
BRANCH  73  76
ATOM     76  S   UNL A   1      41.451  32.489  37.735  1.00  0.00     0.127 S 
ATOM     77  O   UNL A   1      41.501  33.905  38.100  1.00  0.00    -0.237 OA
ATOM     78  O   UNL A   1      40.118  31.996  37.390  1.00  0.00    -0.237 OA
ATOM     79  O   UNL A   1      42.228  31.598  38.584  1.00  0.00    -0.744 OA
ENDBRANCH  73  76
ENDBRANCH  55  69
BRANCH  56  80
ATOM     80  C   UNL A   1      42.735  24.199  27.210  1.00  0.00     0.023 A 
ATOM     81  C   UNL A   1      43.388  24.456  25.989  1.00  0.00     0.012 A 
ATOM     82  C   UNL A   1      42.125  22.946  27.412  1.00  0.00     0.148 A 
ATOM     83  C   UNL A   1      43.405  23.497  24.976  1.00  0.00     0.002 A 
ATOM     84  C   UNL A   1      42.194  21.975  26.419  1.00  0.00     0.091 A 
ATOM     85  F   UNL A   1      41.494  22.725  28.573  1.00  0.00    -0.205 F 
ATOM     86  C   UNL A   1      42.818  22.254  25.194  1.00  0.00     0.022 A 
BRANCH  84  87
ATOM     87  S   UNL A   1      41.583  20.304  26.674  1.00  0.00     0.127 S 
ATOM     88  O   UNL A   1      40.154  20.534  26.861  1.00  0.00    -0.237 OA
ATOM     89  O   UNL A   1      41.943  19.651  25.414  1.00  0.00    -0.237 OA
ATOM     90  O   UNL A   1      42.308  19.801  27.832  1.00  0.00    -0.744 OA
ENDBRANCH  84  87
ENDBRANCH  56  80
BRANCH  68  91
ATOM     91  C   UNL A   1      47.133  25.884  32.366  1.00  0.00     0.023 A 
ATOM     92  C   UNL A   1      48.338  26.372  31.823  1.00  0.00     0.012 A 
ATOM     93  C   UNL A   1      47.176  24.918  33.391  1.00  0.00     0.148 A 
ATOM     94  C   UNL A   1      49.565  25.888  32.274  1.00  0.00     0.002 A 
ATOM     95  C   UNL A   1      48.403  24.474  33.868  1.00  0.00     0.091 A 
ATOM     96  F   UNL A   1      46.017  24.454  33.881  1.00  0.00    -0.205 F 
ATOM     97  C   UNL A   1      49.598  24.950  33.303  1.00  0.00     0.022 A 
BRANCH  95  98
ATOM     98  S   UNL A   1      48.543  23.340  35.254  1.00  0.00     0.127 S 
ATOM     99  O   UNL A   1      49.959  22.980  35.203  1.00  0.00    -0.237 OA
ATOM    100  O   UNL A   1      48.169  24.186  36.388  1.00  0.00    -0.237 OA
ATOM    101  O   UNL A   1      47.611  22.255  34.978  1.00  0.00    -0.744 OA
ENDBRANCH  95  98
ENDBRANCH  68  91
ENDBRANCH  42  43
ENDBRANCH  34  37
ENDBRANCH  32  33
ENDBRANCH  31  32
ENDBRANCH   1  31
TORSDOF 18
ENDMDL
MODEL 2
REMARK VINA RESULT:     -12.3      5.100      8.760
REMARK SMILES COc1cccc(C(=O)NNC(=O)[C@H]2CC(C)=C(C)C[C@@H]2C(=O)NCCCCNC(=O)c2ccc(-c3c4nc(c(-c5cccc(S(=O)(=O)[O-])c5F)c5ccc([nH]5)c(-c5cccc(S(=O)(=O)[O-])c5F)c5nc(c(-c6cccc(S(=O)(=O)[O-])c6F)c6ccc3[nH]6)C=C5)C=C4)cc2)c1
REMARK SMILES IDX 26 1 25 2 24 3 22 4 23 5 21 7 14 8 15 9 16 10 20 11 17 12
REMARK SMILES IDX 18 13 19 14 12 15 11 16 13 18 10 19 8 20 9 21 7 23 3 24 4 25
REMARK SMILES IDX 95 26 5 27 6 28 2 29 1 30 27 31 28 32 29 33 30 34 31 36
REMARK SMILES IDX 32 37 33 38 94 39 34 40 93 41 35 42 36 43 37 44 87 45 38 46
REMARK SMILES IDX 92 47 86 48 88 49 39 50 91 51 85 52 84 53 40 55 72 56 52 57
REMARK SMILES IDX 71 58 53 59 56 60 70 61 89 62 54 63 55 64 69 66 90 67 57 68
REMARK SMILES IDX 41 69 42 70 50 71 43 72 45 73 51 74 44 75 46 76 47 77 48 78
REMARK SMILES IDX 49 79 73 80 74 81 82 82 75 83 77 84 83 85 76 86 78 87 79 88
REMARK SMILES IDX 80 89 81 90 58 91 59 92 67 93 60 94 62 95 68 96 61 97 63 98
REMARK SMILES IDX 64 99 65 100 66 101
REMARK H PARENT 24 6 11 17 10 22 29 35 88 54 56 65
REMARK Flexibility Score: inf
ROOT
ATOM      1  C   UNL A   1      37.007  22.257  23.860  1.00  0.00     0.023 C 
ENDROOT
BRANCH   1   2
ATOM      2  C   UNL A   1      36.078  23.240  24.573  1.00  0.00     0.116 C 
BRANCH   2   3
ATOM      3  N   UNL A   1      35.491  24.182  23.653  1.00  0.00    -0.356 N 
ATOM      4  C   UNL A   1      34.250  24.311  23.150  1.00  0.00     0.224 C 
ATOM      5  O   UNL A   1      34.090  25.220  22.321  1.00  0.00    -0.275 OA
ATOM      6  H   UNL A   1      36.122  24.865  23.328  1.00  0.00     0.163 HD
BRANCH   4   7
ATOM      7  C   UNL A   1      33.038  23.450  23.480  1.00  0.00     0.095 C 
ATOM      8  C   UNL A   1      32.324  24.090  24.695  1.00  0.00     0.097 C 
ATOM      9  C   UNL A   1      32.655  23.427  26.041  1.00  0.00     0.045 C 
ATOM     10  C   UNL A   1      33.215  22.021  26.024  1.00  0.00    -0.074 C 
ATOM     11  C   UNL A   1      33.045  21.926  23.545  1.00  0.00     0.045 C 
ATOM     12  C   UNL A   1      33.540  21.481  27.396  1.00  0.00     0.039 C 
ATOM     13  C   UNL A   1      33.387  21.326  24.883  1.00  0.00    -0.074 C 
ATOM     14  C   UNL A   1      33.922  19.916  24.838  1.00  0.00     0.039 C 
BRANCH   8  15
ATOM     15  C   UNL A   1      30.841  24.147  24.356  1.00  0.00     0.242 C 
ATOM     16  N   UNL A   1      30.076  25.082  25.028  1.00  0.00    -0.267 N 
ATOM     17  H   UNL A   1      29.198  25.315  24.650  1.00  0.00     0.191 HD
ATOM     18  O   UNL A   1      30.325  23.471  23.467  1.00  0.00    -0.273 OA
BRANCH  16  19
ATOM     19  N   UNL A   1      30.466  25.722  26.214  1.00  0.00    -0.263 N 
ATOM     20  C   UNL A   1      31.188  26.900  26.297  1.00  0.00     0.269 C 
ATOM     21  O   UNL A   1      31.531  27.339  27.392  1.00  0.00    -0.267 OA
ATOM     22  H   UNL A   1      30.203  25.296  27.061  1.00  0.00     0.191 HD
BRANCH  20  23
ATOM     23  C   UNL A   1      31.625  27.624  25.078  1.00  0.00     0.045 A 
ATOM     24  C   UNL A   1      31.187  28.745  22.979  1.00  0.00     0.119 A 
ATOM     25  C   UNL A   1      32.563  28.855  22.758  1.00  0.00     0.046 A 
ATOM     26  C   UNL A   1      30.722  28.188  24.170  1.00  0.00     0.060 A 
ATOM     27  C   UNL A   1      33.472  28.373  23.700  1.00  0.00     0.005 A 
ATOM     28  C   UNL A   1      33.003  27.746  24.853  1.00  0.00     0.014 A 
BRANCH  24  29
ATOM     29  O   UNL A   1      30.390  29.215  21.971  1.00  0.00    -0.497 OA
ATOM     30  C   UNL A   1      29.011  29.376  22.300  1.00  0.00     0.278 C 
ENDBRANCH  24  29
ENDBRANCH  20  23
ENDBRANCH  16  19
ENDBRANCH   8  15
ENDBRANCH   4   7
ENDBRANCH   2   3
ENDBRANCH   1   2
BRANCH   1  31
ATOM     31  C   UNL A   1      37.320  20.989  24.657  1.00  0.00     0.023 C 
BRANCH  31  32
ATOM     32  C   UNL A   1      38.403  21.138  25.721  1.00  0.00     0.116 C 
BRANCH  32  33
ATOM     33  N   UNL A   1      39.267  19.970  25.827  1.00  0.00    -0.352 N 
ATOM     34  C   UNL A   1      40.600  19.929  26.155  1.00  0.00     0.251 C 
ATOM     35  H   UNL A   1      38.842  19.102  25.640  1.00  0.00     0.163 HD
ATOM     36  O   UNL A   1      41.217  18.868  26.114  1.00  0.00    -0.269 OA
BRANCH  34  37
ATOM     37  C   UNL A   1      41.287  21.184  26.514  1.00  0.00     0.039 A 
ATOM     38  C   UNL A   1      41.882  21.938  25.500  1.00  0.00     0.014 A 
ATOM     39  C   UNL A   1      41.286  21.640  27.834  1.00  0.00     0.014 A 
ATOM     40  C   UNL A   1      42.416  23.191  25.801  1.00  0.00     0.010 A 
ATOM     41  C   UNL A   1      41.763  22.915  28.120  1.00  0.00     0.010 A 
ATOM     42  C   UNL A   1      42.326  23.704  27.105  1.00  0.00    -0.014 A 
BRANCH  42  43
ATOM     43  C   UNL A   1      42.783  25.080  27.424  1.00  0.00     0.031 A 
ATOM     44  C   UNL A   1      41.836  26.065  28.050  1.00  0.00     0.074 A 
ATOM     45  C   UNL A   1      44.018  25.469  27.050  1.00  0.00     0.049 A 
ATOM     46  N   UNL A   1      42.032  27.325  28.337  1.00  0.00    -0.248 NA
ATOM     47  C   UNL A   1      40.483  25.580  28.370  1.00  0.00     0.031 C 
ATOM     48  C   UNL A   1      44.995  24.629  26.351  1.00  0.00     0.029 A 
ATOM     49  N   UNL A   1      44.652  26.681  27.173  1.00  0.00    -0.354 N 
ATOM     50  C   UNL A   1      40.823  27.794  28.834  1.00  0.00     0.074 A 
ATOM     51  C   UNL A   1      39.889  26.691  28.787  1.00  0.00     0.031 C 
ATOM     52  C   UNL A   1      46.100  25.351  26.104  1.00  0.00     0.029 A 
ATOM     53  C   UNL A   1      45.903  26.709  26.602  1.00  0.00     0.049 A 
ATOM     54  H   UNL A   1      44.249  27.455  27.627  1.00  0.00     0.167 HD
ATOM     55  C   UNL A   1      40.526  29.024  29.315  1.00  0.00     0.034 A 
ATOM     56  C   UNL A   1      46.789  27.718  26.484  1.00  0.00     0.034 A 
ATOM     57  C   UNL A   1      41.473  30.101  29.412  1.00  0.00     0.049 A 
ATOM     58  C   UNL A   1      46.450  29.058  27.080  1.00  0.00     0.074 A 
ATOM     59  C   UNL A   1      41.301  31.348  29.986  1.00  0.00     0.029 A 
ATOM     60  N   UNL A   1      42.768  30.062  28.918  1.00  0.00    -0.354 N 
ATOM     61  N   UNL A   1      45.364  29.428  27.715  1.00  0.00    -0.248 NA
ATOM     62  C   UNL A   1      47.473  30.111  26.976  1.00  0.00     0.031 C 
ATOM     63  C   UNL A   1      42.487  32.071  29.824  1.00  0.00     0.029 A 
ATOM     64  C   UNL A   1      43.403  31.267  29.164  1.00  0.00     0.049 A 
ATOM     65  H   UNL A   1      43.175  29.293  28.461  1.00  0.00     0.167 HD
ATOM     66  C   UNL A   1      45.584  30.741  28.113  1.00  0.00     0.074 A 
ATOM     67  C   UNL A   1      46.917  31.095  27.671  1.00  0.00     0.031 C 
ATOM     68  C   UNL A   1      44.751  31.585  28.769  1.00  0.00     0.034 A 
BRANCH  55  69
ATOM     69  C   UNL A   1      39.133  29.258  29.838  1.00  0.00     0.023 A 
ATOM     70  C   UNL A   1      38.821  28.887  31.161  1.00  0.00     0.012 A 
ATOM     71  C   UNL A   1      38.162  29.909  29.053  1.00  0.00     0.148 A 
ATOM     72  C   UNL A   1      37.555  29.137  31.689  1.00  0.00     0.002 A 
ATOM     73  C   UNL A   1      36.915  30.192  29.599  1.00  0.00     0.091 A 
ATOM     74  F   UNL A   1      38.473  30.234  27.789  1.00  0.00    -0.205 F 
ATOM     75  C   UNL A   1      36.607  29.799  30.912  1.00  0.00     0.022 A 
BRANCH  73  76
ATOM     76  S   UNL A   1      35.650  31.106  28.709  1.00  0.00     0.127 S 
ATOM     77  O   UNL A   1      35.013  30.044  27.930  1.00  0.00    -0.237 OA
ATOM     78  O   UNL A   1      34.830  31.636  29.798  1.00  0.00    -0.237 OA
ATOM     79  O   UNL A   1      36.354  32.114  27.931  1.00  0.00    -0.744 OA
ENDBRANCH  73  76
ENDBRANCH  55  69
BRANCH  56  80
ATOM     80  C   UNL A   1      48.108  27.481  25.833  1.00  0.00     0.023 A 
ATOM     81  C   UNL A   1      49.210  27.103  26.624  1.00  0.00     0.012 A 
ATOM     82  C   UNL A   1      48.274  27.606  24.440  1.00  0.00     0.148 A 
ATOM     83  C   UNL A   1      50.460  26.885  26.046  1.00  0.00     0.002 A 
ATOM     84  C   UNL A   1      49.510  27.333  23.863  1.00  0.00     0.091 A 
ATOM     85  F   UNL A   1      47.219  27.982  23.704  1.00  0.00    -0.205 F 
ATOM     86  C   UNL A   1      50.608  26.990  24.666  1.00  0.00     0.022 A 
BRANCH  84  87
ATOM     87  S   UNL A   1      49.748  27.312  22.082  1.00  0.00     0.127 S 
ATOM     88  O   UNL A   1      49.513  28.709  21.732  1.00  0.00    -0.237 OA
ATOM     89  O   UNL A   1      51.140  26.872  21.964  1.00  0.00    -0.237 OA
ATOM     90  O   UNL A   1      48.777  26.352  21.575  1.00  0.00    -0.744 OA
ENDBRANCH  84  87
ENDBRANCH  56  80
BRANCH  68  91
ATOM     91  C   UNL A   1      45.256  32.969  29.076  1.00  0.00     0.023 A 
ATOM     92  C   UNL A   1      46.013  33.190  30.243  1.00  0.00     0.012 A 
ATOM     93  C   UNL A   1      45.054  34.029  28.171  1.00  0.00     0.148 A 
ATOM     94  C   UNL A   1      46.539  34.452  30.518  1.00  0.00     0.002 A 
ATOM     95  C   UNL A   1      45.618  35.272  28.427  1.00  0.00     0.091 A 
ATOM     96  F   UNL A   1      44.314  33.801  27.075  1.00  0.00    -0.205 F 
ATOM     97  C   UNL A   1      46.352  35.488  29.605  1.00  0.00     0.022 A 
BRANCH  95  98
ATOM     98  S   UNL A   1      45.510  36.636  27.264  1.00  0.00     0.127 S 
ATOM     99  O   UNL A   1      46.360  36.164  26.172  1.00  0.00    -0.237 OA
ATOM    100  O   UNL A   1      44.080  36.668  26.953  1.00  0.00    -0.237 OA
ATOM    101  O   UNL A   1      45.998  37.809  27.976  1.00  0.00    -0.744 OA
ENDBRANCH  95  98
ENDBRANCH  68  91
ENDBRANCH  42  43
ENDBRANCH  34  37
ENDBRANCH  32  33
ENDBRANCH  31  32
ENDBRANCH   1  31
TORSDOF 18
ENDMDL
MODEL 3
REMARK VINA RESULT:     -12.2      2.688      8.012
REMARK SMILES COc1cccc(C(=O)NNC(=O)[C@H]2CC(C)=C(C)C[C@@H]2C(=O)NCCCCNC(=O)c2ccc(-c3c4nc(c(-c5cccc(S(=O)(=O)[O-])c5F)c5ccc([nH]5)c(-c5cccc(S(=O)(=O)[O-])c5F)c5nc(c(-c6cccc(S(=O)(=O)[O-])c6F)c6ccc3[nH]6)C=C5)C=C4)cc2)c1
REMARK SMILES IDX 26 1 25 2 24 3 22 4 23 5 21 7 14 8 15 9 16 10 20 11 17 12
REMARK SMILES IDX 18 13 19 14 12 15 11 16 13 18 10 19 8 20 9 21 7 23 3 24 4 25
REMARK SMILES IDX 95 26 5 27 6 28 2 29 1 30 27 31 28 32 29 33 30 34 31 36
REMARK SMILES IDX 32 37 33 38 94 39 34 40 93 41 35 42 36 43 37 44 87 45 38 46
REMARK SMILES IDX 92 47 86 48 88 49 39 50 91 51 85 52 84 53 40 55 72 56 52 57
REMARK SMILES IDX 71 58 53 59 56 60 70 61 89 62 54 63 55 64 69 66 90 67 57 68
REMARK SMILES IDX 41 69 42 70 50 71 43 72 45 73 51 74 44 75 46 76 47 77 48 78
REMARK SMILES IDX 49 79 73 80 74 81 82 82 75 83 77 84 83 85 76 86 78 87 79 88
REMARK SMILES IDX 80 89 81 90 58 91 59 92 67 93 60 94 62 95 68 96 61 97 63 98
REMARK SMILES IDX 64 99 65 100 66 101
REMARK H PARENT 24 6 11 17 10 22 29 35 88 54 56 65
REMARK Flexibility Score: inf
ROOT
ATOM      1  C   UNL A   1      31.434  30.826  26.083  1.00  0.00     0.023 C 
ENDROOT
BRANCH   1   2
ATOM      2  C   UNL A   1      31.762  29.721  27.087  1.00  0.00     0.116 C 
BRANCH   2   3
ATOM      3  N   UNL A   1      33.011  29.070  26.775  1.00  0.00    -0.356 N 
ATOM      4  C   UNL A   1      33.321  27.798  26.467  1.00  0.00     0.224 C 
ATOM      5  O   UNL A   1      34.528  27.556  26.304  1.00  0.00    -0.275 OA
ATOM      6  H   UNL A   1      33.787  29.674  26.791  1.00  0.00     0.163 HD
BRANCH   4   7
ATOM      7  C   UNL A   1      32.353  26.632  26.317  1.00  0.00     0.095 C 
ATOM      8  C   UNL A   1      33.141  25.439  25.723  1.00  0.00     0.097 C 
ATOM      9  C   UNL A   1      32.959  25.258  24.208  1.00  0.00     0.045 C 
ATOM     10  C   UNL A   1      31.753  25.894  23.553  1.00  0.00    -0.074 C 
ATOM     11  C   UNL A   1      30.943  26.740  25.747  1.00  0.00     0.045 C 
ATOM     12  C   UNL A   1      31.693  25.686  22.060  1.00  0.00     0.039 C 
ATOM     13  C   UNL A   1      30.821  26.567  24.256  1.00  0.00    -0.074 C 
ATOM     14  C   UNL A   1      29.597  27.191  23.633  1.00  0.00     0.039 C 
BRANCH   8  15
ATOM     15  C   UNL A   1      32.792  24.218  26.562  1.00  0.00     0.242 C 
ATOM     16  N   UNL A   1      33.805  23.310  26.806  1.00  0.00    -0.267 N 
ATOM     17  H   UNL A   1      33.681  22.670  27.542  1.00  0.00     0.191 HD
ATOM     18  O   UNL A   1      31.693  24.054  27.091  1.00  0.00    -0.273 OA
BRANCH  16  19
ATOM     19  N   UNL A   1      35.001  23.240  26.075  1.00  0.00    -0.263 N 
ATOM     20  C   UNL A   1      35.259  22.371  25.030  1.00  0.00     0.269 C 
ATOM     21  O   UNL A   1      36.368  22.352  24.501  1.00  0.00    -0.267 OA
ATOM     22  H   UNL A   1      35.718  23.864  26.328  1.00  0.00     0.191 HD
BRANCH  20  23
ATOM     23  C   UNL A   1      34.240  21.398  24.566  1.00  0.00     0.045 A 
ATOM     24  C   UNL A   1      33.357  19.155  24.359  1.00  0.00     0.119 A 
ATOM     25  C   UNL A   1      32.339  19.638  23.532  1.00  0.00     0.046 A 
ATOM     26  C   UNL A   1      34.267  20.046  24.927  1.00  0.00     0.060 A 
ATOM     27  C   UNL A   1      32.254  20.999  23.237  1.00  0.00     0.005 A 
ATOM     28  C   UNL A   1      33.211  21.876  23.743  1.00  0.00     0.014 A 
BRANCH  24  29
ATOM     29  O   UNL A   1      33.368  17.800  24.548  1.00  0.00    -0.497 OA
ATOM     30  C   UNL A   1      32.636  17.329  25.678  1.00  0.00     0.278 C 
ENDBRANCH  24  29
ENDBRANCH  20  23
ENDBRANCH  16  19
ENDBRANCH   8  15
ENDBRANCH   4   7
ENDBRANCH   2   3
ENDBRANCH   1   2
BRANCH   1  31
ATOM     31  C   UNL A   1      31.326  32.225  26.692  1.00  0.00     0.023 C 
BRANCH  31  32
ATOM     32  C   UNL A   1      32.650  32.956  26.886  1.00  0.00     0.116 C 
BRANCH  32  33
ATOM     33  N   UNL A   1      32.516  34.197  27.636  1.00  0.00    -0.352 N 
ATOM     34  C   UNL A   1      33.290  34.646  28.678  1.00  0.00     0.251 C 
ATOM     35  H   UNL A   1      31.778  34.788  27.362  1.00  0.00     0.163 HD
ATOM     36  O   UNL A   1      32.994  35.679  29.273  1.00  0.00    -0.269 OA
BRANCH  34  37
ATOM     37  C   UNL A   1      34.455  33.846  29.099  1.00  0.00     0.039 A 
ATOM     38  C   UNL A   1      35.736  34.300  28.776  1.00  0.00     0.014 A 
ATOM     39  C   UNL A   1      34.281  32.688  29.863  1.00  0.00     0.014 A 
ATOM     40  C   UNL A   1      36.849  33.628  29.282  1.00  0.00     0.010 A 
ATOM     41  C   UNL A   1      35.390  32.058  30.416  1.00  0.00     0.010 A 
ATOM     42  C   UNL A   1      36.684  32.526  30.136  1.00  0.00    -0.014 A 
BRANCH  42  43
ATOM     43  C   UNL A   1      37.849  31.868  30.778  1.00  0.00     0.031 A 
ATOM     44  C   UNL A   1      38.607  30.793  30.051  1.00  0.00     0.074 A 
ATOM     45  C   UNL A   1      38.155  32.168  32.056  1.00  0.00     0.049 A 
ATOM     46  N   UNL A   1      39.604  30.061  30.473  1.00  0.00    -0.248 NA
ATOM     47  C   UNL A   1      38.170  30.479  28.680  1.00  0.00     0.031 C 
ATOM     48  C   UNL A   1      37.434  33.129  32.897  1.00  0.00     0.029 A 
ATOM     49  N   UNL A   1      39.130  31.671  32.886  1.00  0.00    -0.354 N 
ATOM     50  C   UNL A   1      39.890  29.177  29.441  1.00  0.00     0.074 A 
ATOM     51  C   UNL A   1      38.944  29.445  28.379  1.00  0.00     0.031 C 
ATOM     52  C   UNL A   1      37.987  33.146  34.120  1.00  0.00     0.029 A 
ATOM     53  C   UNL A   1      39.083  32.184  34.161  1.00  0.00     0.049 A 
ATOM     54  H   UNL A   1      39.798  31.011  32.594  1.00  0.00     0.167 HD
ATOM     55  C   UNL A   1      40.871  28.247  29.372  1.00  0.00     0.034 A 
ATOM     56  C   UNL A   1      39.834  31.904  35.245  1.00  0.00     0.034 A 
ATOM     57  C   UNL A   1      41.843  28.022  30.407  1.00  0.00     0.049 A 
ATOM     58  C   UNL A   1      40.953  30.905  35.118  1.00  0.00     0.074 A 
ATOM     59  C   UNL A   1      42.941  27.181  30.387  1.00  0.00     0.029 A 
ATOM     60  N   UNL A   1      41.830  28.636  31.650  1.00  0.00    -0.354 N 
ATOM     61  N   UNL A   1      41.325  30.212  34.069  1.00  0.00    -0.248 NA
ATOM     62  C   UNL A   1      41.780  30.676  36.313  1.00  0.00     0.031 C 
ATOM     63  C   UNL A   1      43.584  27.274  31.625  1.00  0.00     0.029 A 
ATOM     64  C   UNL A   1      42.895  28.185  32.409  1.00  0.00     0.049 A 
ATOM     65  H   UNL A   1      41.163  29.294  31.948  1.00  0.00     0.167 HD
ATOM     66  C   UNL A   1      42.444  29.490  34.466  1.00  0.00     0.074 A 
ATOM     67  C   UNL A   1      42.706  29.850  35.845  1.00  0.00     0.031 C 
ATOM     68  C   UNL A   1      43.178  28.596  33.760  1.00  0.00     0.034 A 
BRANCH  55  69
ATOM     69  C   UNL A   1      40.987  27.440  28.105  1.00  0.00     0.023 A 
ATOM     70  C   UNL A   1      41.615  28.009  26.979  1.00  0.00     0.012 A 
ATOM     71  C   UNL A   1      40.548  26.104  28.052  1.00  0.00     0.148 A 
ATOM     72  C   UNL A   1      41.783  27.270  25.809  1.00  0.00     0.002 A 
ATOM     73  C   UNL A   1      40.755  25.359  26.896  1.00  0.00     0.091 A 
ATOM     74  F   UNL A   1      39.933  25.588  29.126  1.00  0.00    -0.205 F 
ATOM     75  C   UNL A   1      41.363  25.942  25.772  1.00  0.00     0.022 A 
BRANCH  73  76
ATOM     76  S   UNL A   1      40.319  23.620  26.770  1.00  0.00     0.127 S 
ATOM     77  O   UNL A   1      41.260  23.154  25.751  1.00  0.00    -0.237 OA
ATOM     78  O   UNL A   1      40.597  23.135  28.122  1.00  0.00    -0.237 OA
ATOM     79  O   UNL A   1      38.916  23.584  26.387  1.00  0.00    -0.744 OA
ENDBRANCH  73  76
ENDBRANCH  55  69
BRANCH  56  80
ATOM     80  C   UNL A   1      39.595  32.627  36.525  1.00  0.00     0.023 A 
ATOM     81  C   UNL A   1      40.334  33.793  36.807  1.00  0.00     0.012 A 
ATOM     82  C   UNL A   1      38.632  32.185  37.452  1.00  0.00     0.148 A 
ATOM     83  C   UNL A   1      40.142  34.486  38.002  1.00  0.00     0.002 A 
ATOM     84  C   UNL A   1      38.406  32.912  38.616  1.00  0.00     0.091 A 
ATOM     85  F   UNL A   1      37.950  31.065  37.176  1.00  0.00    -0.205 F 
ATOM     86  C   UNL A   1      39.172  34.053  38.901  1.00  0.00     0.022 A 
BRANCH  84  87
ATOM     87  S   UNL A   1      37.083  32.498  39.759  1.00  0.00     0.127 S 
ATOM     88  O   UNL A   1      37.537  31.217  40.291  1.00  0.00    -0.237 OA
ATOM     89  O   UNL A   1      37.135  33.613  40.706  1.00  0.00    -0.237 OA
ATOM     90  O   UNL A   1      35.872  32.462  38.950  1.00  0.00    -0.744 OA
ENDBRANCH  84  87
ENDBRANCH  56  80
BRANCH  68  91
ATOM     91  C   UNL A   1      44.353  27.957  34.449  1.00  0.00     0.023 A 
ATOM     92  C   UNL A   1      45.606  28.601  34.429  1.00  0.00     0.012 A 
ATOM     93  C   UNL A   1      44.199  26.765  35.183  1.00  0.00     0.148 A 
ATOM     94  C   UNL A   1      46.695  28.054  35.109  1.00  0.00     0.002 A 
ATOM     95  C   UNL A   1      45.275  26.250  35.895  1.00  0.00     0.091 A 
ATOM     96  F   UNL A   1      43.003  26.157  35.173  1.00  0.00    -0.205 F 
ATOM     97  C   UNL A   1      46.526  26.887  35.850  1.00  0.00     0.022 A 
BRANCH  95  98
ATOM     98  S   UNL A   1      45.126  24.806  36.953  1.00  0.00     0.127 S 
ATOM     99  O   UNL A   1      44.196  25.281  37.977  1.00  0.00    -0.237 OA
ATOM    100  O   UNL A   1      44.569  23.806  36.041  1.00  0.00    -0.237 OA
ATOM    101  O   UNL A   1      46.474  24.510  37.420  1.00  0.00    -0.744 OA
ENDBRANCH  95  98
ENDBRANCH  68  91
ENDBRANCH  42  43
ENDBRANCH  34  37
ENDBRANCH  32  33
ENDBRANCH  31  32
ENDBRANCH   1  31
TORSDOF 18
ENDMDL
