MODEL 1
REMARK VINA RESULT:     -12.9      0.000      0.000
REMARK SMILES CC(C)Cc1cc2c(cc1Cl)C=C(C(=O)NCCCCNC(=O)c1ccc(-c3c4nc(c(-c5cccc(S(=O)(=O)[O-])c5F)c5ccc([nH]5)c(-c5cccc(S(=O)(=O)[O-])c5F)c5nc(c(-c6cccc(S(=O)(=O)[O-])c6F)c6ccc3[nH]6)C=C5)C=C4)cc1)[C@H](C(F)(F)F)O2
REMARK SMILES IDX 19 1 18 2 17 3 16 4 14 5 15 6 13 8 5 9 6 10 10 11 7 12 9 13
REMARK SMILES IDX 11 14 8 15 92 16 12 17 87 18 4 19 2 20 1 21 3 22 88 23 89 24
REMARK SMILES IDX 90 25 91 26 20 27 21 28 22 29 23 31 24 32 25 33 86 34 26 35
REMARK SMILES IDX 85 36 27 37 28 38 29 39 79 40 30 41 84 42 78 43 80 44 31 45
REMARK SMILES IDX 83 46 77 47 76 48 32 50 64 51 44 52 63 53 45 54 48 55 62 56
REMARK SMILES IDX 81 57 46 58 47 59 61 61 82 62 49 63 33 64 34 65 42 66 35 67
REMARK SMILES IDX 37 68 43 69 36 70 38 71 39 72 40 73 41 74 65 75 66 76 74 77
REMARK SMILES IDX 67 78 69 79 75 80 68 81 70 82 71 83 72 84 73 85 50 86 51 87
REMARK SMILES IDX 59 88 52 89 54 90 60 91 53 92 55 93 56 94 57 95 58 96
REMARK H PARENT 16 7 21 30 80 49 48 60
REMARK Flexibility Score: inf
ROOT
ATOM      1  C   UNL A   1      36.698  22.222  23.995  1.00  0.00     0.023 C 
ENDROOT
BRANCH   1   2
ATOM      2  C   UNL A   1      35.301  22.792  23.740  1.00  0.00     0.023 C 
BRANCH   2   3
ATOM      3  C   UNL A   1      35.035  24.143  24.401  1.00  0.00     0.116 C 
BRANCH   3   4
ATOM      4  N   UNL A   1      34.000  24.050  25.412  1.00  0.00    -0.352 N 
ATOM      5  C   UNL A   1      32.816  24.658  25.661  1.00  0.00     0.251 C 
ATOM      6  O   UNL A   1      32.185  24.203  26.621  1.00  0.00    -0.270 OA
ATOM      7  H   UNL A   1      34.212  23.371  26.092  1.00  0.00     0.163 HD
BRANCH   5   8
ATOM      8  C   UNL A   1      32.243  25.794  24.881  1.00  0.00     0.067 C 
ATOM      9  C   UNL A   1      29.034  28.932  22.561  1.00  0.00    -0.025 A 
ATOM     10  C   UNL A   1      30.430  28.758  22.546  1.00  0.00     0.052 A 
ATOM     11  C   UNL A   1      28.263  28.064  23.352  1.00  0.00     0.045 A 
ATOM     12  C   UNL A   1      31.028  27.748  23.294  1.00  0.00     0.128 A 
ATOM     13  C   UNL A   1      28.868  27.031  24.079  1.00  0.00     0.032 A 
ATOM     14  Cl  UNL A   1      26.543  28.200  23.460  1.00  0.00    -0.084 Cl
ATOM     15  C   UNL A   1      30.252  26.865  24.042  1.00  0.00     0.019 A 
ATOM     16  O   UNL A   1      32.391  27.646  23.228  1.00  0.00    -0.475 OA
ATOM     17  C   UNL A   1      30.905  25.762  24.733  1.00  0.00     0.025 C 
ATOM     18  C   UNL A   1      33.015  26.980  24.368  1.00  0.00     0.314 C 
BRANCH   9  19
ATOM     19  C   UNL A   1      28.441  30.016  21.688  1.00  0.00     0.040 C 
BRANCH  19  20
ATOM     20  C   UNL A   1      28.614  31.431  22.279  1.00  0.00    -0.013 C 
ATOM     21  C   UNL A   1      28.029  32.516  21.372  1.00  0.00     0.008 C 
ATOM     22  C   UNL A   1      27.957  31.504  23.659  1.00  0.00     0.008 C 
ENDBRANCH  19  20
ENDBRANCH   9  19
BRANCH  18  23
ATOM     23  C   UNL A   1      33.360  28.008  25.461  1.00  0.00     0.429 C 
ATOM     24  F   UNL A   1      33.508  29.263  24.976  1.00  0.00    -0.167 F 
ATOM     25  F   UNL A   1      32.420  28.071  26.431  1.00  0.00    -0.167 F 
ATOM     26  F   UNL A   1      34.529  27.673  26.064  1.00  0.00    -0.167 F 
ENDBRANCH  18  23
ENDBRANCH   5   8
ENDBRANCH   3   4
ENDBRANCH   2   3
ENDBRANCH   1   2
BRANCH   1  27
ATOM     27  C   UNL A   1      36.975  21.812  25.436  1.00  0.00     0.116 C 
BRANCH  27  28
ATOM     28  N   UNL A   1      38.004  20.790  25.571  1.00  0.00    -0.352 N 
ATOM     29  C   UNL A   1      39.259  20.931  26.119  1.00  0.00     0.251 C 
ATOM     30  H   UNL A   1      37.775  19.894  25.233  1.00  0.00     0.163 HD
ATOM     31  O   UNL A   1      40.054  19.996  26.111  1.00  0.00    -0.269 OA
BRANCH  29  32
ATOM     32  C   UNL A   1      39.639  22.250  26.659  1.00  0.00     0.039 A 
ATOM     33  C   UNL A   1      39.077  23.409  26.121  1.00  0.00     0.014 A 
ATOM     34  C   UNL A   1      40.656  22.323  27.613  1.00  0.00     0.014 A 
ATOM     35  C   UNL A   1      39.653  24.640  26.411  1.00  0.00     0.010 A 
ATOM     36  C   UNL A   1      41.181  23.570  27.959  1.00  0.00     0.010 A 
ATOM     37  C   UNL A   1      40.722  24.731  27.318  1.00  0.00    -0.014 A 
BRANCH  37  38
ATOM     38  C   UNL A   1      41.353  26.051  27.567  1.00  0.00     0.031 A 
ATOM     39  C   UNL A   1      40.652  27.099  28.390  1.00  0.00     0.074 A 
ATOM     40  C   UNL A   1      42.589  26.283  27.088  1.00  0.00     0.049 A 
ATOM     41  N   UNL A   1      41.065  28.298  28.711  1.00  0.00    -0.248 NA
ATOM     42  C   UNL A   1      39.320  26.765  28.921  1.00  0.00     0.031 C 
ATOM     43  C   UNL A   1      43.363  25.346  26.271  1.00  0.00     0.029 A 
ATOM     44  N   UNL A   1      43.420  27.364  27.232  1.00  0.00    -0.354 N 
ATOM     45  C   UNL A   1      40.031  28.878  29.435  1.00  0.00     0.074 A 
ATOM     46  C   UNL A   1      38.969  27.898  29.517  1.00  0.00     0.031 C 
ATOM     47  C   UNL A   1      44.574  25.869  26.031  1.00  0.00     0.029 A 
ATOM     48  C   UNL A   1      44.645  27.198  26.631  1.00  0.00     0.049 A 
ATOM     49  H   UNL A   1      43.164  28.180  27.721  1.00  0.00     0.167 HD
ATOM     50  C   UNL A   1      39.977  30.109  29.995  1.00  0.00     0.034 A 
ATOM     51  C   UNL A   1      45.707  28.022  26.563  1.00  0.00     0.034 A 
ATOM     52  C   UNL A   1      41.058  31.057  29.971  1.00  0.00     0.049 A 
ATOM     53  C   UNL A   1      45.634  29.366  27.223  1.00  0.00     0.074 A 
ATOM     54  C   UNL A   1      41.105  32.318  30.541  1.00  0.00     0.029 A 
ATOM     55  N   UNL A   1      42.284  30.845  29.364  1.00  0.00    -0.354 N 
ATOM     56  N   UNL A   1      44.664  29.874  27.944  1.00  0.00    -0.248 NA
ATOM     57  C   UNL A   1      46.798  30.249  27.068  1.00  0.00     0.031 C 
ATOM     58  C   UNL A   1      42.366  32.866  30.283  1.00  0.00     0.029 A 
ATOM     59  C   UNL A   1      43.099  31.948  29.550  1.00  0.00     0.049 A 
ATOM     60  H   UNL A   1      42.539  30.031  28.872  1.00  0.00     0.167 HD
ATOM     61  C   UNL A   1      45.099  31.136  28.327  1.00  0.00     0.074 A 
ATOM     62  C   UNL A   1      46.432  31.304  27.786  1.00  0.00     0.031 C 
ATOM     63  C   UNL A   1      44.438  32.079  29.040  1.00  0.00     0.034 A 
BRANCH  50  64
ATOM     64  C   UNL A   1      38.729  30.496  30.735  1.00  0.00     0.023 A 
ATOM     65  C   UNL A   1      38.649  30.252  32.119  1.00  0.00     0.012 A 
ATOM     66  C   UNL A   1      37.685  31.187  30.089  1.00  0.00     0.148 A 
ATOM     67  C   UNL A   1      37.546  30.687  32.852  1.00  0.00     0.002 A 
ATOM     68  C   UNL A   1      36.599  31.638  30.830  1.00  0.00     0.091 A 
ATOM     69  F   UNL A   1      37.778  31.392  28.767  1.00  0.00    -0.205 F 
ATOM     70  C   UNL A   1      36.527  31.386  32.211  1.00  0.00     0.022 A 
BRANCH  68  71
ATOM     71  S   UNL A   1      35.258  32.592  30.111  1.00  0.00     0.127 S 
ATOM     72  O   UNL A   1      34.783  31.687  29.063  1.00  0.00    -0.237 OA
ATOM     73  O   UNL A   1      34.345  32.744  31.243  1.00  0.00    -0.237 OA
ATOM     74  O   UNL A   1      35.854  33.832  29.635  1.00  0.00    -0.744 OA
ENDBRANCH  68  71
ENDBRANCH  50  64
BRANCH  51  75
ATOM     75  C   UNL A   1      46.943  27.550  25.887  1.00  0.00     0.023 A 
ATOM     76  C   UNL A   1      47.817  26.691  26.578  1.00  0.00     0.012 A 
ATOM     77  C   UNL A   1      47.201  27.859  24.537  1.00  0.00     0.148 A 
ATOM     78  C   UNL A   1      48.926  26.142  25.935  1.00  0.00     0.002 A 
ATOM     79  C   UNL A   1      48.279  27.272  23.889  1.00  0.00     0.091 A 
ATOM     80  F   UNL A   1      46.362  28.693  23.906  1.00  0.00    -0.205 F 
ATOM     81  C   UNL A   1      49.149  26.420  24.588  1.00  0.00     0.022 A 
BRANCH  79  82
ATOM     82  S   UNL A   1      48.560  27.462  22.125  1.00  0.00     0.127 S 
ATOM     83  O   UNL A   1      49.803  28.227  22.102  1.00  0.00    -0.237 OA
ATOM     84  O   UNL A   1      48.682  26.072  21.686  1.00  0.00    -0.237 OA
ATOM     85  O   UNL A   1      47.382  28.150  21.613  1.00  0.00    -0.744 OA
ENDBRANCH  79  82
ENDBRANCH  51  75
BRANCH  63  86
ATOM     86  C   UNL A   1      45.133  33.390  29.271  1.00  0.00     0.023 A 
ATOM     87  C   UNL A   1      45.950  33.536  30.409  1.00  0.00     0.012 A 
ATOM     88  C   UNL A   1      45.064  34.428  28.324  1.00  0.00     0.148 A 
ATOM     89  C   UNL A   1      46.686  34.702  30.604  1.00  0.00     0.002 A 
ATOM     90  C   UNL A   1      45.821  35.578  28.511  1.00  0.00     0.091 A 
ATOM     91  F   UNL A   1      44.265  34.269  27.258  1.00  0.00    -0.205 F 
ATOM     92  C   UNL A   1      46.630  35.717  29.652  1.00  0.00     0.022 A 
BRANCH  90  93
ATOM     93  S   UNL A   1      45.865  36.911  27.307  1.00  0.00     0.127 S 
ATOM     94  O   UNL A   1      46.764  37.865  27.954  1.00  0.00    -0.237 OA
ATOM     95  O   UNL A   1      46.422  36.248  26.128  1.00  0.00    -0.237 OA
ATOM     96  O   UNL A   1      44.486  37.355  27.154  1.00  0.00    -0.744 OA
ENDBRANCH  90  93
ENDBRANCH  63  86
ENDBRANCH  37  38
ENDBRANCH  29  32
ENDBRANCH  27  28
ENDBRANCH   1  27
TORSDOF 17
ENDMDL
MODEL 2
REMARK VINA RESULT:     -12.9      5.546      8.863
REMARK SMILES CC(C)Cc1cc2c(cc1Cl)C=C(C(=O)NCCCCNC(=O)c1ccc(-c3c4nc(c(-c5cccc(S(=O)(=O)[O-])c5F)c5ccc([nH]5)c(-c5cccc(S(=O)(=O)[O-])c5F)c5nc(c(-c6cccc(S(=O)(=O)[O-])c6F)c6ccc3[nH]6)C=C5)C=C4)cc1)[C@H](C(F)(F)F)O2
REMARK SMILES IDX 19 1 18 2 17 3 16 4 14 5 15 6 13 8 5 9 6 10 10 11 7 12 9 13
REMARK SMILES IDX 11 14 8 15 92 16 12 17 87 18 4 19 2 20 1 21 3 22 88 23 89 24
REMARK SMILES IDX 90 25 91 26 20 27 21 28 22 29 23 31 24 32 25 33 86 34 26 35
REMARK SMILES IDX 85 36 27 37 28 38 29 39 79 40 30 41 84 42 78 43 80 44 31 45
REMARK SMILES IDX 83 46 77 47 76 48 32 50 64 51 44 52 63 53 45 54 48 55 62 56
REMARK SMILES IDX 81 57 46 58 47 59 61 61 82 62 49 63 33 64 34 65 42 66 35 67
REMARK SMILES IDX 37 68 43 69 36 70 38 71 39 72 40 73 41 74 65 75 66 76 74 77
REMARK SMILES IDX 67 78 69 79 75 80 68 81 70 82 71 83 72 84 73 85 50 86 51 87
REMARK SMILES IDX 59 88 52 89 54 90 60 91 53 92 55 93 56 94 57 95 58 96
REMARK H PARENT 16 7 21 30 80 49 48 60
REMARK Flexibility Score: inf
ROOT
ATOM      1  C   UNL A   1      31.503  31.974  26.825  1.00  0.00     0.023 C 
ENDROOT
BRANCH   1   2
ATOM      2  C   UNL A   1      31.915  30.507  26.695  1.00  0.00     0.023 C 
BRANCH   2   3
ATOM      3  C   UNL A   1      31.409  29.814  25.431  1.00  0.00     0.116 C 
BRANCH   3   4
ATOM      4  N   UNL A   1      32.457  29.684  24.436  1.00  0.00    -0.352 N 
ATOM      5  C   UNL A   1      33.002  28.678  23.713  1.00  0.00     0.251 C 
ATOM      6  O   UNL A   1      33.851  29.026  22.886  1.00  0.00    -0.270 OA
ATOM      7  H   UNL A   1      32.882  30.550  24.236  1.00  0.00     0.163 HD
BRANCH   5   8
ATOM      8  C   UNL A   1      32.656  27.232  23.840  1.00  0.00     0.067 C 
ATOM      9  C   UNL A   1      32.573  22.391  25.285  1.00  0.00    -0.025 A 
ATOM     10  C   UNL A   1      32.015  23.111  24.213  1.00  0.00     0.052 A 
ATOM     11  C   UNL A   1      33.377  23.083  26.207  1.00  0.00     0.045 A 
ATOM     12  C   UNL A   1      32.259  24.474  24.070  1.00  0.00     0.128 A 
ATOM     13  C   UNL A   1      33.643  24.447  26.040  1.00  0.00     0.032 A 
ATOM     14  Cl  UNL A   1      34.094  22.301  27.572  1.00  0.00    -0.084 Cl
ATOM     15  C   UNL A   1      33.093  25.143  24.964  1.00  0.00     0.019 A 
ATOM     16  O   UNL A   1      31.680  25.104  23.002  1.00  0.00    -0.475 OA
ATOM     17  C   UNL A   1      33.403  26.546  24.726  1.00  0.00     0.025 C 
ATOM     18  C   UNL A   1      31.503  26.545  23.158  1.00  0.00     0.314 C 
BRANCH   9  19
ATOM     19  C   UNL A   1      32.310  20.903  25.358  1.00  0.00     0.040 C 
BRANCH  19  20
ATOM     20  C   UNL A   1      33.152  20.089  24.353  1.00  0.00    -0.013 C 
ATOM     21  C   UNL A   1      34.607  19.938  24.800  1.00  0.00     0.008 C 
ATOM     22  C   UNL A   1      32.529  18.706  24.151  1.00  0.00     0.008 C 
ENDBRANCH  19  20
ENDBRANCH   9  19
BRANCH  18  23
ATOM     23  C   UNL A   1      30.139  26.847  23.803  1.00  0.00     0.429 C 
ATOM     24  F   UNL A   1      29.606  28.019  23.385  1.00  0.00    -0.167 F 
ATOM     25  F   UNL A   1      29.220  25.888  23.551  1.00  0.00    -0.167 F 
ATOM     26  F   UNL A   1      30.268  26.927  25.152  1.00  0.00    -0.167 F 
ENDBRANCH  18  23
ENDBRANCH   5   8
ENDBRANCH   3   4
ENDBRANCH   2   3
ENDBRANCH   1   2
BRANCH   1  27
ATOM     27  C   UNL A   1      32.651  32.975  26.774  1.00  0.00     0.116 C 
BRANCH  27  28
ATOM     28  N   UNL A   1      32.482  34.113  27.666  1.00  0.00    -0.352 N 
ATOM     29  C   UNL A   1      33.291  34.480  28.719  1.00  0.00     0.251 C 
ATOM     30  H   UNL A   1      31.701  34.688  27.497  1.00  0.00     0.163 HD
ATOM     31  O   UNL A   1      32.994  35.434  29.433  1.00  0.00    -0.269 OA
BRANCH  29  32
ATOM     32  C   UNL A   1      34.486  33.662  28.997  1.00  0.00     0.039 A 
ATOM     33  C   UNL A   1      34.342  32.388  29.548  1.00  0.00     0.014 A 
ATOM     34  C   UNL A   1      35.750  34.231  28.827  1.00  0.00     0.014 A 
ATOM     35  C   UNL A   1      35.454  31.752  30.087  1.00  0.00     0.010 A 
ATOM     36  C   UNL A   1      36.874  33.553  29.303  1.00  0.00     0.010 A 
ATOM     37  C   UNL A   1      36.728  32.337  29.988  1.00  0.00    -0.014 A 
BRANCH  37  38
ATOM     38  C   UNL A   1      37.888  31.662  30.621  1.00  0.00     0.031 A 
ATOM     39  C   UNL A   1      38.243  31.925  32.060  1.00  0.00     0.074 A 
ATOM     40  C   UNL A   1      38.592  30.767  29.904  1.00  0.00     0.049 A 
ATOM     41  N   UNL A   1      39.217  31.413  32.769  1.00  0.00    -0.248 NA
ATOM     42  C   UNL A   1      37.406  32.883  32.801  1.00  0.00     0.031 C 
ATOM     43  C   UNL A   1      38.345  30.436  28.499  1.00  0.00     0.029 A 
ATOM     44  N   UNL A   1      39.642  29.960  30.257  1.00  0.00    -0.354 N 
ATOM     45  C   UNL A   1      39.141  32.019  34.017  1.00  0.00     0.074 A 
ATOM     46  C   UNL A   1      38.020  32.933  33.977  1.00  0.00     0.031 C 
ATOM     47  C   UNL A   1      39.183  29.458  28.125  1.00  0.00     0.029 A 
ATOM     48  C   UNL A   1      40.059  29.129  29.244  1.00  0.00     0.049 A 
ATOM     49  H   UNL A   1      40.056  29.972  31.151  1.00  0.00     0.167 HD
ATOM     50  C   UNL A   1      39.924  31.819  35.103  1.00  0.00     0.034 A 
ATOM     51  C   UNL A   1      41.041  28.208  29.215  1.00  0.00     0.034 A 
ATOM     52  C   UNL A   1      40.995  30.862  35.164  1.00  0.00     0.049 A 
ATOM     53  C   UNL A   1      41.870  27.982  30.443  1.00  0.00     0.074 A 
ATOM     54  C   UNL A   1      41.822  30.569  36.234  1.00  0.00     0.029 A 
ATOM     55  N   UNL A   1      41.377  30.033  34.122  1.00  0.00    -0.354 N 
ATOM     56  N   UNL A   1      41.749  28.531  31.627  1.00  0.00    -0.248 NA
ATOM     57  C   UNL A   1      42.966  27.008  30.337  1.00  0.00     0.031 C 
ATOM     58  C   UNL A   1      42.701  29.554  35.840  1.00  0.00     0.029 A 
ATOM     59  C   UNL A   1      42.422  29.222  34.525  1.00  0.00     0.049 A 
ATOM     60  H   UNL A   1      40.965  30.023  33.228  1.00  0.00     0.167 HD
ATOM     61  C   UNL A   1      42.752  27.972  32.408  1.00  0.00     0.074 A 
ATOM     62  C   UNL A   1      43.453  27.018  31.573  1.00  0.00     0.031 C 
ATOM     63  C   UNL A   1      43.078  28.248  33.693  1.00  0.00     0.034 A 
BRANCH  50  64
ATOM     64  C   UNL A   1      39.626  32.610  36.345  1.00  0.00     0.023 A 
ATOM     65  C   UNL A   1      40.260  33.852  36.534  1.00  0.00     0.012 A 
ATOM     66  C   UNL A   1      38.654  32.176  37.268  1.00  0.00     0.148 A 
ATOM     67  C   UNL A   1      39.934  34.654  37.627  1.00  0.00     0.002 A 
ATOM     68  C   UNL A   1      38.316  32.992  38.342  1.00  0.00     0.091 A 
ATOM     69  F   UNL A   1      38.078  30.982  37.072  1.00  0.00    -0.205 F 
ATOM     70  C   UNL A   1      38.957  34.229  38.524  1.00  0.00     0.022 A 
BRANCH  68  71
ATOM     71  S   UNL A   1      37.037  32.560  39.527  1.00  0.00     0.127 S 
ATOM     72  O   UNL A   1      35.831  32.660  38.705  1.00  0.00    -0.237 OA
ATOM     73  O   UNL A   1      37.409  31.196  39.900  1.00  0.00    -0.237 OA
ATOM     74  O   UNL A   1      37.137  33.536  40.603  1.00  0.00    -0.744 OA
ENDBRANCH  68  71
ENDBRANCH  50  64
BRANCH  51  75
ATOM     75  C   UNL A   1      41.234  27.400  27.982  1.00  0.00     0.023 A 
ATOM     76  C   UNL A   1      41.916  27.969  26.891  1.00  0.00     0.012 A 
ATOM     77  C   UNL A   1      40.846  26.048  27.927  1.00  0.00     0.148 A 
ATOM     78  C   UNL A   1      42.212  27.202  25.763  1.00  0.00     0.002 A 
ATOM     79  C   UNL A   1      41.186  25.277  26.822  1.00  0.00     0.091 A 
ATOM     80  F   UNL A   1      40.183  25.535  28.973  1.00  0.00    -0.205 F 
ATOM     81  C   UNL A   1      41.861  25.855  25.735  1.00  0.00     0.022 A 
BRANCH  79  82
ATOM     82  S   UNL A   1      40.897  23.505  26.762  1.00  0.00     0.127 S 
ATOM     83  O   UNL A   1      41.348  23.084  28.085  1.00  0.00    -0.237 OA
ATOM     84  O   UNL A   1      39.450  23.441  26.552  1.00  0.00    -0.237 OA
ATOM     85  O   UNL A   1      41.686  23.018  25.638  1.00  0.00    -0.744 OA
ENDBRANCH  79  82
ENDBRANCH  51  75
BRANCH  63  86
ATOM     86  C   UNL A   1      44.254  27.524  34.283  1.00  0.00     0.023 A 
ATOM     87  C   UNL A   1      45.526  28.124  34.217  1.00  0.00     0.012 A 
ATOM     88  C   UNL A   1      44.087  26.316  34.986  1.00  0.00     0.148 A 
ATOM     89  C   UNL A   1      46.620  27.527  34.838  1.00  0.00     0.002 A 
ATOM     90  C   UNL A   1      45.178  25.740  35.625  1.00  0.00     0.091 A 
ATOM     91  F   UNL A   1      42.868  25.758  35.018  1.00  0.00    -0.205 F 
ATOM     92  C   UNL A   1      46.445  26.343  35.550  1.00  0.00     0.022 A 
BRANCH  90  93
ATOM     93  S   UNL A   1      45.035  24.251  36.620  1.00  0.00     0.127 S 
ATOM     94  O   UNL A   1      44.329  24.749  37.800  1.00  0.00    -0.237 OA
ATOM     95  O   UNL A   1      44.243  23.374  35.758  1.00  0.00    -0.237 OA
ATOM     96  O   UNL A   1      46.399  23.796  36.855  1.00  0.00    -0.744 OA
ENDBRANCH  90  93
ENDBRANCH  63  86
ENDBRANCH  37  38
ENDBRANCH  29  32
ENDBRANCH  27  28
ENDBRANCH   1  27
TORSDOF 17
ENDMDL
MODEL 3
REMARK VINA RESULT:     -12.6      2.075      7.829
REMARK SMILES CC(C)Cc1cc2c(cc1Cl)C=C(C(=O)NCCCCNC(=O)c1ccc(-c3c4nc(c(-c5cccc(S(=O)(=O)[O-])c5F)c5ccc([nH]5)c(-c5cccc(S(=O)(=O)[O-])c5F)c5nc(c(-c6cccc(S(=O)(=O)[O-])c6F)c6ccc3[nH]6)C=C5)C=C4)cc1)[C@H](C(F)(F)F)O2
REMARK SMILES IDX 19 1 18 2 17 3 16 4 14 5 15 6 13 8 5 9 6 10 10 11 7 12 9 13
REMARK SMILES IDX 11 14 8 15 92 16 12 17 87 18 4 19 2 20 1 21 3 22 88 23 89 24
REMARK SMILES IDX 90 25 91 26 20 27 21 28 22 29 23 31 24 32 25 33 86 34 26 35
REMARK SMILES IDX 85 36 27 37 28 38 29 39 79 40 30 41 84 42 78 43 80 44 31 45
REMARK SMILES IDX 83 46 77 47 76 48 32 50 64 51 44 52 63 53 45 54 48 55 62 56
REMARK SMILES IDX 81 57 46 58 47 59 61 61 82 62 49 63 33 64 34 65 42 66 35 67
REMARK SMILES IDX 37 68 43 69 36 70 38 71 39 72 40 73 41 74 65 75 66 76 74 77
REMARK SMILES IDX 67 78 69 79 75 80 68 81 70 82 71 83 72 84 73 85 50 86 51 87
REMARK SMILES IDX 59 88 52 89 54 90 60 91 53 92 55 93 56 94 57 95 58 96
REMARK H PARENT 16 7 21 30 80 49 48 60
REMARK Flexibility Score: inf
ROOT
ATOM      1  C   UNL A   1      38.097  20.909  24.908  1.00  0.00     0.023 C 
ENDROOT
BRANCH   1   2
ATOM      2  C   UNL A   1      37.285  22.202  24.821  1.00  0.00     0.023 C 
BRANCH   2   3
ATOM      3  C   UNL A   1      35.773  22.000  24.738  1.00  0.00     0.116 C 
BRANCH   3   4
ATOM      4  N   UNL A   1      35.209  21.645  26.027  1.00  0.00    -0.352 N 
ATOM      5  C   UNL A   1      34.213  22.103  26.820  1.00  0.00     0.251 C 
ATOM      6  O   UNL A   1      34.003  21.436  27.838  1.00  0.00    -0.270 OA
ATOM      7  H   UNL A   1      35.670  20.873  26.428  1.00  0.00     0.163 HD
BRANCH   5   8
ATOM      8  C   UNL A   1      33.381  23.314  26.555  1.00  0.00     0.067 C 
ATOM      9  C   UNL A   1      31.814  27.853  24.984  1.00  0.00    -0.025 A 
ATOM     10  C   UNL A   1      31.317  26.895  25.886  1.00  0.00     0.052 A 
ATOM     11  C   UNL A   1      33.036  27.593  24.340  1.00  0.00     0.045 A 
ATOM     12  C   UNL A   1      32.023  25.721  26.135  1.00  0.00     0.128 A 
ATOM     13  C   UNL A   1      33.755  26.425  24.618  1.00  0.00     0.032 A 
ATOM     14  Cl  UNL A   1      33.727  28.691  23.199  1.00  0.00    -0.084 Cl
ATOM     15  C   UNL A   1      33.254  25.491  25.526  1.00  0.00     0.019 A 
ATOM     16  O   UNL A   1      31.473  24.838  27.024  1.00  0.00    -0.475 OA
ATOM     17  C   UNL A   1      34.009  24.299  25.885  1.00  0.00     0.025 C 
ATOM     18  C   UNL A   1      31.916  23.455  26.874  1.00  0.00     0.314 C 
BRANCH   9  19
ATOM     19  C   UNL A   1      31.024  29.129  24.793  1.00  0.00     0.040 C 
BRANCH  19  20
ATOM     20  C   UNL A   1      30.317  29.205  23.423  1.00  0.00    -0.013 C 
ATOM     21  C   UNL A   1      29.487  27.954  23.126  1.00  0.00     0.008 C 
ATOM     22  C   UNL A   1      29.420  30.443  23.368  1.00  0.00     0.008 C 
ENDBRANCH  19  20
ENDBRANCH   9  19
BRANCH  18  23
ATOM     23  C   UNL A   1      30.999  22.706  25.891  1.00  0.00     0.429 C 
ATOM     24  F   UNL A   1      29.781  22.430  26.412  1.00  0.00    -0.167 F 
ATOM     25  F   UNL A   1      30.788  23.396  24.747  1.00  0.00    -0.167 F 
ATOM     26  F   UNL A   1      31.560  21.520  25.539  1.00  0.00    -0.167 F 
ENDBRANCH  18  23
ENDBRANCH   5   8
ENDBRANCH   3   4
ENDBRANCH   2   3
ENDBRANCH   1   2
BRANCH   1  27
ATOM     27  C   UNL A   1      39.123  20.864  26.033  1.00  0.00     0.116 C 
BRANCH  27  28
ATOM     28  N   UNL A   1      40.015  19.715  25.973  1.00  0.00    -0.352 N 
ATOM     29  C   UNL A   1      41.382  19.706  26.133  1.00  0.00     0.251 C 
ATOM     30  H   UNL A   1      39.592  18.843  25.800  1.00  0.00     0.163 HD
ATOM     31  O   UNL A   1      42.023  18.668  25.994  1.00  0.00    -0.269 OA
BRANCH  29  32
ATOM     32  C   UNL A   1      42.059  20.986  26.417  1.00  0.00     0.039 A 
ATOM     33  C   UNL A   1      42.415  21.308  27.728  1.00  0.00     0.014 A 
ATOM     34  C   UNL A   1      42.213  21.914  25.385  1.00  0.00     0.014 A 
ATOM     35  C   UNL A   1      42.764  22.616  28.035  1.00  0.00     0.010 A 
ATOM     36  C   UNL A   1      42.638  23.209  25.688  1.00  0.00     0.010 A 
ATOM     37  C   UNL A   1      42.860  23.585  27.022  1.00  0.00    -0.014 A 
BRANCH  37  38
ATOM     38  C   UNL A   1      43.181  24.987  27.385  1.00  0.00     0.031 A 
ATOM     39  C   UNL A   1      44.536  25.572  27.087  1.00  0.00     0.074 A 
ATOM     40  C   UNL A   1      42.223  25.752  27.942  1.00  0.00     0.049 A 
ATOM     41  N   UNL A   1      44.978  26.780  27.329  1.00  0.00    -0.248 NA
ATOM     42  C   UNL A   1      45.525  24.695  26.438  1.00  0.00     0.031 C 
ATOM     43  C   UNL A   1      40.876  25.293  28.283  1.00  0.00     0.029 A 
ATOM     44  N   UNL A   1      42.225  27.076  28.299  1.00  0.00    -0.354 N 
ATOM     45  C   UNL A   1      46.302  26.794  26.910  1.00  0.00     0.074 A 
ATOM     46  C   UNL A   1      46.596  25.477  26.388  1.00  0.00     0.031 C 
ATOM     47  C   UNL A   1      40.164  26.329  28.751  1.00  0.00     0.029 A 
ATOM     48  C   UNL A   1      41.019  27.511  28.792  1.00  0.00     0.049 A 
ATOM     49  H   UNL A   1      43.015  27.657  28.209  1.00  0.00     0.167 HD
ATOM     50  C   UNL A   1      47.188  27.817  26.941  1.00  0.00     0.034 A 
ATOM     51  C   UNL A   1      40.639  28.725  29.232  1.00  0.00     0.034 A 
ATOM     52  C   UNL A   1      46.875  29.145  27.397  1.00  0.00     0.049 A 
ATOM     53  C   UNL A   1      41.630  29.851  29.223  1.00  0.00     0.074 A 
ATOM     54  C   UNL A   1      47.702  30.255  27.435  1.00  0.00     0.029 A 
ATOM     55  N   UNL A   1      45.640  29.548  27.875  1.00  0.00    -0.354 N 
ATOM     56  N   UNL A   1      42.862  29.854  28.777  1.00  0.00    -0.248 NA
ATOM     57  C   UNL A   1      41.181  31.139  29.771  1.00  0.00     0.031 C 
ATOM     58  C   UNL A   1      46.961  31.333  27.930  1.00  0.00     0.029 A 
ATOM     59  C   UNL A   1      45.678  30.891  28.205  1.00  0.00     0.049 A 
ATOM     60  H   UNL A   1      44.852  28.965  27.968  1.00  0.00     0.167 HD
ATOM     61  C   UNL A   1      43.338  31.141  28.990  1.00  0.00     0.074 A 
ATOM     62  C   UNL A   1      42.252  31.899  29.577  1.00  0.00     0.031 C 
ATOM     63  C   UNL A   1      44.574  31.639  28.747  1.00  0.00     0.034 A 
BRANCH  50  64
ATOM     64  C   UNL A   1      48.574  27.570  26.419  1.00  0.00     0.023 A 
ATOM     65  C   UNL A   1      49.562  27.090  27.301  1.00  0.00     0.012 A 
ATOM     66  C   UNL A   1      48.873  27.714  25.051  1.00  0.00     0.148 A 
ATOM     67  C   UNL A   1      50.831  26.758  26.828  1.00  0.00     0.002 A 
ATOM     68  C   UNL A   1      50.134  27.359  24.582  1.00  0.00     0.091 A 
ATOM     69  F   UNL A   1      47.920  28.189  24.236  1.00  0.00    -0.205 F 
ATOM     70  C   UNL A   1      51.113  26.884  25.470  1.00  0.00     0.022 A 
BRANCH  68  71
ATOM     71  S   UNL A   1      50.584  27.436  22.845  1.00  0.00     0.127 S 
ATOM     72  O   UNL A   1      50.605  28.881  22.611  1.00  0.00    -0.237 OA
ATOM     73  O   UNL A   1      51.900  26.799  22.839  1.00  0.00    -0.237 OA
ATOM     74  O   UNL A   1      49.548  26.707  22.127  1.00  0.00    -0.744 OA
ENDBRANCH  68  71
ENDBRANCH  50  64
BRANCH  51  75
ATOM     75  C   UNL A   1      39.230  28.929  29.660  1.00  0.00     0.023 A 
ATOM     76  C   UNL A   1      38.876  28.668  30.996  1.00  0.00     0.012 A 
ATOM     77  C   UNL A   1      38.273  29.479  28.786  1.00  0.00     0.148 A 
ATOM     78  C   UNL A   1      37.591  28.955  31.457  1.00  0.00     0.002 A 
ATOM     79  C   UNL A   1      37.011  29.807  29.262  1.00  0.00     0.091 A 
ATOM     80  F   UNL A   1      38.632  29.703  27.513  1.00  0.00    -0.205 F 
ATOM     81  C   UNL A   1      36.664  29.537  30.596  1.00  0.00     0.022 A 
BRANCH  79  82
ATOM     82  S   UNL A   1      35.805  30.686  28.262  1.00  0.00     0.127 S 
ATOM     83  O   UNL A   1      35.336  29.633  27.366  1.00  0.00    -0.237 OA
ATOM     84  O   UNL A   1      34.834  31.117  29.269  1.00  0.00    -0.237 OA
ATOM     85  O   UNL A   1      36.538  31.776  27.633  1.00  0.00    -0.744 OA
ENDBRANCH  79  82
ENDBRANCH  51  75
BRANCH  63  86
ATOM     86  C   UNL A   1      44.835  33.068  29.124  1.00  0.00     0.023 A 
ATOM     87  C   UNL A   1      45.437  33.346  30.366  1.00  0.00     0.012 A 
ATOM     88  C   UNL A   1      44.585  34.117  28.219  1.00  0.00     0.148 A 
ATOM     89  C   UNL A   1      45.782  34.651  30.707  1.00  0.00     0.002 A 
ATOM     90  C   UNL A   1      44.956  35.414  28.555  1.00  0.00     0.091 A 
ATOM     91  F   UNL A   1      43.995  33.827  27.050  1.00  0.00    -0.205 F 
ATOM     92  C   UNL A   1      45.552  35.682  29.799  1.00  0.00     0.022 A 
BRANCH  90  93
ATOM     93  S   UNL A   1      44.760  36.795  27.424  1.00  0.00     0.127 S 
ATOM     94  O   UNL A   1      45.875  36.585  26.502  1.00  0.00    -0.237 OA
ATOM     95  O   UNL A   1      43.437  36.545  26.851  1.00  0.00    -0.237 OA
ATOM     96  O   UNL A   1      44.844  37.997  28.243  1.00  0.00    -0.744 OA
ENDBRANCH  90  93
ENDBRANCH  63  86
ENDBRANCH  37  38
ENDBRANCH  29  32
ENDBRANCH  27  28
ENDBRANCH   1  27
TORSDOF 17
ENDMDL
