MODEL 1
REMARK VINA RESULT:      -9.8      0.000      0.000
REMARK SMILES CC(C)[C@@H](NC(N)=O)C(=O)N[C@H](C(=O)NCCCCNC(=O)c1ccc(-c2c3nc(c(-c4cccc(S(=O)(=O)[O-])c4F)c4ccc([nH]4)c(-c4cccc(S(=O)(=O)[O-])c4F)c4nc(c(-c5cccc(S(=O)(=O)[O-])c5F)c5ccc2[nH]5)C=C4)C=C3)cc1)[C@@H](C)O
REMARK SMILES IDX 17 1 16 2 15 3 13 4 14 5 12 7 11 8 9 9 10 10 4 12 2 13 1 14
REMARK SMILES IDX 3 15 5 16 6 17 7 19 8 20 86 23 87 24 88 25 18 27 19 28 20 29
REMARK SMILES IDX 21 30 22 32 23 33 24 34 85 35 25 36 84 37 26 38 27 39 28 40
REMARK SMILES IDX 78 41 29 42 83 43 77 44 79 45 30 46 82 47 76 48 75 49 31 51
REMARK SMILES IDX 63 52 43 53 62 54 44 55 47 56 61 57 80 58 45 59 46 60 60 62
REMARK SMILES IDX 81 63 48 64 32 65 33 66 41 67 34 68 36 69 42 70 35 71 37 72
REMARK SMILES IDX 38 73 39 74 40 75 64 76 65 77 73 78 66 79 68 80 74 81 67 82
REMARK SMILES IDX 69 83 70 84 71 85 72 86 49 87 50 88 58 89 51 90 53 91 59 92
REMARK SMILES IDX 52 93 54 94 55 95 56 96 57 97
REMARK H PARENT 15 6 11 11 5 18 7 21 7 22 88 26 20 31 79 50 47 61
REMARK Flexibility Score: inf
ROOT
ATOM      1  C   UNL A   1      39.652  23.217  26.504  1.00  0.00     0.023 C 
ENDROOT
BRANCH   1   2
ATOM      2  C   UNL A   1      38.124  23.270  26.194  1.00  0.00     0.116 C 
BRANCH   2   3
ATOM      3  N   UNL A   1      37.729  23.505  24.799  1.00  0.00    -0.354 N 
ATOM      4  C   UNL A   1      36.551  23.224  24.130  1.00  0.00     0.245 C 
ATOM      5  O   UNL A   1      36.601  23.177  22.896  1.00  0.00    -0.273 OA
ATOM      6  H   UNL A   1      38.420  23.937  24.246  1.00  0.00     0.163 HD
BRANCH   4   7
ATOM      7  C   UNL A   1      35.207  23.095  24.897  1.00  0.00     0.200 C 
BRANCH   7   8
ATOM      8  N   UNL A   1      34.179  23.795  24.127  1.00  0.00    -0.340 N 
ATOM      9  C   UNL A   1      33.582  24.943  24.540  1.00  0.00     0.243 C 
ATOM     10  O   UNL A   1      33.122  25.048  25.672  1.00  0.00    -0.273 OA
ATOM     11  H   UNL A   1      33.905  23.413  23.261  1.00  0.00     0.164 HD
BRANCH   9  12
ATOM     12  C   UNL A   1      33.332  25.997  23.450  1.00  0.00     0.175 C 
BRANCH  12  13
ATOM     13  C   UNL A   1      32.009  25.936  22.607  1.00  0.00     0.015 C 
ATOM     14  C   UNL A   1      32.407  25.691  21.140  1.00  0.00     0.010 C 
ATOM     15  C   UNL A   1      30.870  24.955  22.913  1.00  0.00     0.010 C 
ENDBRANCH  12  13
BRANCH  12  16
ATOM     16  N   UNL A   1      33.398  27.341  24.053  1.00  0.00    -0.326 N 
ATOM     17  C   UNL A   1      33.736  28.482  23.391  1.00  0.00     0.312 C 
ATOM     18  H   UNL A   1      33.181  27.421  25.010  1.00  0.00     0.166 HD
ATOM     19  N   UNL A   1      33.432  29.591  24.108  1.00  0.00    -0.352 N 
ATOM     20  O   UNL A   1      34.317  28.553  22.333  1.00  0.00    -0.249 OA
ATOM     21  H   UNL A   1      32.958  29.507  24.967  1.00  0.00     0.161 HD
ATOM     22  H   UNL A   1      33.684  30.480  23.769  1.00  0.00     0.161 HD
ENDBRANCH  12  16
ENDBRANCH   9  12
ENDBRANCH   7   8
BRANCH   7  23
ATOM     23  C   UNL A   1      34.715  21.616  25.049  1.00  0.00     0.143 C 
ATOM     24  C   UNL A   1      35.804  20.532  24.973  1.00  0.00     0.041 C 
BRANCH  23  25
ATOM     25  O   UNL A   1      33.907  21.412  26.208  1.00  0.00    -0.391 OA
ATOM     26  H   UNL A   1      34.287  21.899  26.957  1.00  0.00     0.211 HD
ENDBRANCH  23  25
ENDBRANCH   7  23
ENDBRANCH   4   7
ENDBRANCH   2   3
ENDBRANCH   1   2
BRANCH   1  27
ATOM     27  C   UNL A   1      40.336  22.041  27.249  1.00  0.00     0.023 C 
BRANCH  27  28
ATOM     28  C   UNL A   1      41.869  21.958  27.367  1.00  0.00     0.116 C 
BRANCH  28  29
ATOM     29  N   UNL A   1      42.544  21.997  26.086  1.00  0.00    -0.352 N 
ATOM     30  C   UNL A   1      43.105  23.017  25.359  1.00  0.00     0.251 C 
ATOM     31  H   UNL A   1      42.614  21.117  25.649  1.00  0.00     0.163 HD
ATOM     32  O   UNL A   1      43.477  22.757  24.213  1.00  0.00    -0.269 OA
BRANCH  30  33
ATOM     33  C   UNL A   1      43.293  24.408  25.865  1.00  0.00     0.039 A 
ATOM     34  C   UNL A   1      43.805  24.554  27.164  1.00  0.00     0.014 A 
ATOM     35  C   UNL A   1      42.842  25.549  25.195  1.00  0.00     0.014 A 
ATOM     36  C   UNL A   1      43.868  25.812  27.783  1.00  0.00     0.010 A 
ATOM     37  C   UNL A   1      42.943  26.818  25.803  1.00  0.00     0.010 A 
ATOM     38  C   UNL A   1      43.440  26.966  27.110  1.00  0.00    -0.014 A 
BRANCH  38  39
ATOM     39  C   UNL A   1      43.504  28.304  27.780  1.00  0.00     0.031 A 
ATOM     40  C   UNL A   1      44.798  29.080  27.856  1.00  0.00     0.074 A 
ATOM     41  C   UNL A   1      42.400  28.827  28.355  1.00  0.00     0.049 A 
ATOM     42  N   UNL A   1      45.035  30.247  28.406  1.00  0.00    -0.248 NA
ATOM     43  C   UNL A   1      45.984  28.459  27.248  1.00  0.00     0.031 C 
ATOM     44  C   UNL A   1      41.090  28.177  28.408  1.00  0.00     0.029 A 
ATOM     45  N   UNL A   1      42.205  30.015  29.021  1.00  0.00    -0.354 N 
ATOM     46  C   UNL A   1      46.396  30.483  28.245  1.00  0.00     0.074 A 
ATOM     47  C   UNL A   1      46.939  29.326  27.564  1.00  0.00     0.031 C 
ATOM     48  C   UNL A   1      40.231  28.969  29.070  1.00  0.00     0.029 A 
ATOM     49  C   UNL A   1      40.927  30.174  29.511  1.00  0.00     0.049 A 
ATOM     50  H   UNL A   1      42.913  30.689  29.137  1.00  0.00     0.167 HD
ATOM     51  C   UNL A   1      47.130  31.567  28.606  1.00  0.00     0.034 A 
ATOM     52  C   UNL A   1      40.375  31.169  30.235  1.00  0.00     0.034 A 
ATOM     53  C   UNL A   1      46.590  32.744  29.238  1.00  0.00     0.049 A 
ATOM     54  C   UNL A   1      41.198  32.381  30.586  1.00  0.00     0.074 A 
ATOM     55  C   UNL A   1      47.242  33.923  29.563  1.00  0.00     0.029 A 
ATOM     56  N   UNL A   1      45.274  32.896  29.644  1.00  0.00    -0.354 N 
ATOM     57  N   UNL A   1      42.447  32.643  30.291  1.00  0.00    -0.248 NA
ATOM     58  C   UNL A   1      40.523  33.451  31.337  1.00  0.00     0.031 C 
ATOM     59  C   UNL A   1      46.325  34.779  30.181  1.00  0.00     0.029 A 
ATOM     60  C   UNL A   1      45.095  34.143  30.223  1.00  0.00     0.049 A 
ATOM     61  H   UNL A   1      44.569  32.217  29.538  1.00  0.00     0.167 HD
ATOM     62  C   UNL A   1      42.698  33.918  30.787  1.00  0.00     0.074 A 
ATOM     63  C   UNL A   1      41.464  34.386  31.383  1.00  0.00     0.031 C 
ATOM     64  C   UNL A   1      43.852  34.629  30.763  1.00  0.00     0.034 A 
BRANCH  51  65
ATOM     65  C   UNL A   1      48.603  31.563  28.275  1.00  0.00     0.023 A 
ATOM     66  C   UNL A   1      49.481  30.765  29.037  1.00  0.00     0.012 A 
ATOM     67  C   UNL A   1      49.108  32.286  27.175  1.00  0.00     0.148 A 
ATOM     68  C   UNL A   1      50.842  30.716  28.735  1.00  0.00     0.002 A 
ATOM     69  C   UNL A   1      50.459  32.199  26.854  1.00  0.00     0.091 A 
ATOM     70  F   UNL A   1      48.262  33.048  26.468  1.00  0.00    -0.205 F 
ATOM     71  C   UNL A   1      51.329  31.425  27.640  1.00  0.00     0.022 A 
BRANCH  69  72
ATOM     72  S   UNL A   1      51.169  33.011  25.416  1.00  0.00     0.127 S 
ATOM     73  O   UNL A   1      50.130  33.984  25.082  1.00  0.00    -0.237 OA
ATOM     74  O   UNL A   1      52.395  33.594  25.964  1.00  0.00    -0.237 OA
ATOM     75  O   UNL A   1      51.386  31.963  24.430  1.00  0.00    -0.744 OA
ENDBRANCH  69  72
ENDBRANCH  51  65
BRANCH  52  76
ATOM     76  C   UNL A   1      38.935  31.093  30.622  1.00  0.00     0.023 A 
ATOM     77  C   UNL A   1      38.562  30.344  31.756  1.00  0.00     0.012 A 
ATOM     78  C   UNL A   1      37.942  31.773  29.893  1.00  0.00     0.148 A 
ATOM     79  C   UNL A   1      37.224  30.254  32.141  1.00  0.00     0.002 A 
ATOM     80  C   UNL A   1      36.617  31.725  30.314  1.00  0.00     0.091 A 
ATOM     81  F   UNL A   1      38.312  32.464  28.805  1.00  0.00    -0.205 F 
ATOM     82  C   UNL A   1      36.254  30.953  31.428  1.00  0.00     0.022 A 
BRANCH  80  83
ATOM     83  S   UNL A   1      35.325  32.703  29.536  1.00  0.00     0.127 S 
ATOM     84  O   UNL A   1      36.009  33.972  29.305  1.00  0.00    -0.237 OA
ATOM     85  O   UNL A   1      35.041  31.926  28.329  1.00  0.00    -0.237 OA
ATOM     86  O   UNL A   1      34.230  32.738  30.496  1.00  0.00    -0.744 OA
ENDBRANCH  80  83
ENDBRANCH  52  76
BRANCH  64  87
ATOM     87  C   UNL A   1      43.842  36.009  31.371  1.00  0.00     0.023 A 
ATOM     88  C   UNL A   1      43.982  36.160  32.765  1.00  0.00     0.012 A 
ATOM     89  C   UNL A   1      43.772  37.157  30.557  1.00  0.00     0.148 A 
ATOM     90  C   UNL A   1      44.022  37.430  33.342  1.00  0.00     0.002 A 
ATOM     91  C   UNL A   1      43.859  38.420  31.134  1.00  0.00     0.091 A 
ATOM     92  F   UNL A   1      43.618  36.994  29.235  1.00  0.00    -0.205 F 
ATOM     93  C   UNL A   1      43.972  38.559  32.526  1.00  0.00     0.022 A 
BRANCH  91  94
ATOM     94  S   UNL A   1      43.896  39.925  30.153  1.00  0.00     0.127 S 
ATOM     95  O   UNL A   1      42.587  39.891  29.502  1.00  0.00    -0.237 OA
ATOM     96  O   UNL A   1      44.041  40.960  31.176  1.00  0.00    -0.237 OA
ATOM     97  O   UNL A   1      45.042  39.794  29.263  1.00  0.00    -0.744 OA
ENDBRANCH  91  94
ENDBRANCH  64  87
ENDBRANCH  38  39
ENDBRANCH  30  33
ENDBRANCH  28  29
ENDBRANCH  27  28
ENDBRANCH   1  27
TORSDOF 20
ENDMDL
MODEL 2
REMARK VINA RESULT:      -9.8      4.125      7.427
REMARK SMILES CC(C)[C@@H](NC(N)=O)C(=O)N[C@H](C(=O)NCCCCNC(=O)c1ccc(-c2c3nc(c(-c4cccc(S(=O)(=O)[O-])c4F)c4ccc([nH]4)c(-c4cccc(S(=O)(=O)[O-])c4F)c4nc(c(-c5cccc(S(=O)(=O)[O-])c5F)c5ccc2[nH]5)C=C4)C=C3)cc1)[C@@H](C)O
REMARK SMILES IDX 17 1 16 2 15 3 13 4 14 5 12 7 11 8 9 9 10 10 4 12 2 13 1 14
REMARK SMILES IDX 3 15 5 16 6 17 7 19 8 20 86 23 87 24 88 25 18 27 19 28 20 29
REMARK SMILES IDX 21 30 22 32 23 33 24 34 85 35 25 36 84 37 26 38 27 39 28 40
REMARK SMILES IDX 78 41 29 42 83 43 77 44 79 45 30 46 82 47 76 48 75 49 31 51
REMARK SMILES IDX 63 52 43 53 62 54 44 55 47 56 61 57 80 58 45 59 46 60 60 62
REMARK SMILES IDX 81 63 48 64 32 65 33 66 41 67 34 68 36 69 42 70 35 71 37 72
REMARK SMILES IDX 38 73 39 74 40 75 64 76 65 77 73 78 66 79 68 80 74 81 67 82
REMARK SMILES IDX 69 83 70 84 71 85 72 86 49 87 50 88 58 89 51 90 53 91 59 92
REMARK SMILES IDX 52 93 54 94 55 95 56 96 57 97
REMARK H PARENT 15 6 11 11 5 18 7 21 7 22 88 26 20 31 79 50 47 61
REMARK Flexibility Score: inf
ROOT
ATOM      1  C   UNL A   1      42.682  23.747  25.918  1.00  0.00     0.023 C 
ENDROOT
BRANCH   1   2
ATOM      2  C   UNL A   1      44.183  24.074  25.645  1.00  0.00     0.116 C 
BRANCH   2   3
ATOM      3  N   UNL A   1      44.967  24.613  26.763  1.00  0.00    -0.354 N 
ATOM      4  C   UNL A   1      46.049  25.476  26.780  1.00  0.00     0.245 C 
ATOM      5  O   UNL A   1      46.750  25.480  27.798  1.00  0.00    -0.273 OA
ATOM      6  H   UNL A   1      44.673  24.309  27.653  1.00  0.00     0.163 HD
BRANCH   4   7
ATOM      7  C   UNL A   1      46.291  26.478  25.619  1.00  0.00     0.200 C 
BRANCH   7   8
ATOM      8  N   UNL A   1      46.631  27.774  26.205  1.00  0.00    -0.340 N 
ATOM      9  C   UNL A   1      46.357  28.964  25.609  1.00  0.00     0.243 C 
ATOM     10  O   UNL A   1      46.647  29.167  24.435  1.00  0.00    -0.273 OA
ATOM     11  H   UNL A   1      47.084  27.785  27.079  1.00  0.00     0.164 HD
BRANCH   9  12
ATOM     12  C   UNL A   1      45.873  30.084  26.543  1.00  0.00     0.175 C 
BRANCH  12  13
ATOM     13  C   UNL A   1      44.617  29.839  27.453  1.00  0.00     0.015 C 
ATOM     14  C   UNL A   1      44.428  31.093  28.326  1.00  0.00     0.010 C 
ATOM     15  C   UNL A   1      43.232  29.495  26.890  1.00  0.00     0.010 C 
ENDBRANCH  12  13
BRANCH  12  16
ATOM     16  N   UNL A   1      46.979  30.485  27.432  1.00  0.00    -0.326 N 
ATOM     17  C   UNL A   1      47.836  31.517  27.200  1.00  0.00     0.312 C 
ATOM     18  H   UNL A   1      47.108  29.967  28.258  1.00  0.00     0.166 HD
ATOM     19  N   UNL A   1      48.552  31.837  28.305  1.00  0.00    -0.352 N 
ATOM     20  O   UNL A   1      48.037  32.059  26.137  1.00  0.00    -0.249 OA
ATOM     21  H   UNL A   1      48.369  31.381  29.158  1.00  0.00     0.161 HD
ATOM     22  H   UNL A   1      49.255  32.524  28.254  1.00  0.00     0.161 HD
ENDBRANCH  12  16
ENDBRANCH   9  12
ENDBRANCH   7   8
BRANCH   7  23
ATOM     23  C   UNL A   1      47.490  26.082  24.693  1.00  0.00     0.143 C 
ATOM     24  C   UNL A   1      48.893  26.236  25.306  1.00  0.00     0.041 C 
BRANCH  23  25
ATOM     25  O   UNL A   1      47.351  24.783  24.121  1.00  0.00    -0.391 OA
ATOM     26  H   UNL A   1      46.433  24.483  24.219  1.00  0.00     0.211 HD
ENDBRANCH  23  25
ENDBRANCH   7  23
ENDBRANCH   4   7
ENDBRANCH   2   3
ENDBRANCH   1   2
BRANCH   1  27
ATOM     27  C   UNL A   1      42.088  22.316  25.839  1.00  0.00     0.023 C 
BRANCH  27  28
ATOM     28  C   UNL A   1      40.812  21.941  26.616  1.00  0.00     0.116 C 
BRANCH  28  29
ATOM     29  N   UNL A   1      39.606  22.494  26.035  1.00  0.00    -0.352 N 
ATOM     30  C   UNL A   1      38.940  23.679  26.225  1.00  0.00     0.251 C 
ATOM     31  H   UNL A   1      39.179  21.904  25.372  1.00  0.00     0.163 HD
ATOM     32  O   UNL A   1      37.838  23.801  25.687  1.00  0.00    -0.269 OA
BRANCH  30  33
ATOM     33  C   UNL A   1      39.462  24.820  27.033  1.00  0.00     0.039 A 
ATOM     34  C   UNL A   1      39.129  24.845  28.397  1.00  0.00     0.014 A 
ATOM     35  C   UNL A   1      40.109  25.931  26.486  1.00  0.00     0.014 A 
ATOM     36  C   UNL A   1      39.438  25.954  29.200  1.00  0.00     0.010 A 
ATOM     37  C   UNL A   1      40.456  27.028  27.303  1.00  0.00     0.010 A 
ATOM     38  C   UNL A   1      40.110  27.063  28.665  1.00  0.00    -0.014 A 
BRANCH  38  39
ATOM     39  C   UNL A   1      40.431  28.245  29.527  1.00  0.00     0.031 A 
ATOM     40  C   UNL A   1      41.794  28.406  30.159  1.00  0.00     0.074 A 
ATOM     41  C   UNL A   1      39.487  29.178  29.775  1.00  0.00     0.049 A 
ATOM     42  N   UNL A   1      42.238  29.361  30.940  1.00  0.00    -0.248 NA
ATOM     43  C   UNL A   1      42.781  27.350  29.892  1.00  0.00     0.031 C 
ATOM     44  C   UNL A   1      38.111  29.137  29.278  1.00  0.00     0.029 A 
ATOM     45  N   UNL A   1      39.533  30.333  30.522  1.00  0.00    -0.354 N 
ATOM     46  C   UNL A   1      43.538  29.006  31.287  1.00  0.00     0.074 A 
ATOM     47  C   UNL A   1      43.803  27.734  30.647  1.00  0.00     0.031 C 
ATOM     48  C   UNL A   1      37.445  30.210  29.734  1.00  0.00     0.029 A 
ATOM     49  C   UNL A   1      38.334  31.009  30.574  1.00  0.00     0.049 A 
ATOM     50  H   UNL A   1      40.347  30.647  30.978  1.00  0.00     0.167 HD
ATOM     51  C   UNL A   1      44.441  29.680  32.045  1.00  0.00     0.034 A 
ATOM     52  C   UNL A   1      37.981  32.138  31.223  1.00  0.00     0.034 A 
ATOM     53  C   UNL A   1      44.204  30.969  32.643  1.00  0.00     0.049 A 
ATOM     54  C   UNL A   1      39.013  32.890  32.023  1.00  0.00     0.074 A 
ATOM     55  C   UNL A   1      45.088  31.763  33.356  1.00  0.00     0.029 A 
ATOM     56  N   UNL A   1      43.001  31.655  32.603  1.00  0.00    -0.354 N 
ATOM     57  N   UNL A   1      40.278  32.606  32.212  1.00  0.00    -0.248 NA
ATOM     58  C   UNL A   1      38.576  34.138  32.668  1.00  0.00     0.031 C 
ATOM     59  C   UNL A   1      44.414  32.919  33.762  1.00  0.00     0.029 A 
ATOM     60  C   UNL A   1      43.116  32.858  33.283  1.00  0.00     0.049 A 
ATOM     61  H   UNL A   1      42.184  31.336  32.156  1.00  0.00     0.167 HD
ATOM     62  C   UNL A   1      40.797  33.654  32.965  1.00  0.00     0.074 A 
ATOM     63  C   UNL A   1      39.714  34.591  33.180  1.00  0.00     0.031 C 
ATOM     64  C   UNL A   1      42.053  33.816  33.447  1.00  0.00     0.034 A 
BRANCH  51  65
ATOM     65  C   UNL A   1      45.805  29.061  32.232  1.00  0.00     0.023 A 
ATOM     66  C   UNL A   1      45.997  28.102  33.248  1.00  0.00     0.012 A 
ATOM     67  C   UNL A   1      46.874  29.369  31.365  1.00  0.00     0.148 A 
ATOM     68  C   UNL A   1      47.238  27.490  33.425  1.00  0.00     0.002 A 
ATOM     69  C   UNL A   1      48.096  28.724  31.521  1.00  0.00     0.091 A 
ATOM     70  F   UNL A   1      46.679  30.291  30.412  1.00  0.00    -0.205 F 
ATOM     71  C   UNL A   1      48.284  27.794  32.557  1.00  0.00     0.022 A 
BRANCH  69  72
ATOM     72  S   UNL A   1      49.481  28.987  30.406  1.00  0.00     0.127 S 
ATOM     73  O   UNL A   1      49.831  30.377  30.691  1.00  0.00    -0.237 OA
ATOM     74  O   UNL A   1      50.455  28.004  30.885  1.00  0.00    -0.237 OA
ATOM     75  O   UNL A   1      48.973  28.730  29.067  1.00  0.00    -0.744 OA
ENDBRANCH  69  72
ENDBRANCH  51  65
BRANCH  52  76
ATOM     76  C   UNL A   1      36.593  32.669  31.086  1.00  0.00     0.023 A 
ATOM     77  C   UNL A   1      35.722  32.621  32.192  1.00  0.00     0.012 A 
ATOM     78  C   UNL A   1      36.141  33.241  29.881  1.00  0.00     0.148 A 
ATOM     79  C   UNL A   1      34.418  33.109  32.093  1.00  0.00     0.002 A 
ATOM     80  C   UNL A   1      34.860  33.776  29.806  1.00  0.00     0.091 A 
ATOM     81  F   UNL A   1      36.978  33.260  28.833  1.00  0.00    -0.205 F 
ATOM     82  C   UNL A   1      33.992  33.697  30.905  1.00  0.00     0.022 A 
BRANCH  80  83
ATOM     83  S   UNL A   1      34.276  34.671  28.361  1.00  0.00     0.127 S 
ATOM     84  O   UNL A   1      32.829  34.510  28.474  1.00  0.00    -0.237 OA
ATOM     85  O   UNL A   1      34.768  36.024  28.622  1.00  0.00    -0.237 OA
ATOM     86  O   UNL A   1      34.900  34.019  27.218  1.00  0.00    -0.744 OA
ENDBRANCH  80  83
ENDBRANCH  52  76
BRANCH  64  87
ATOM     87  C   UNL A   1      42.351  35.068  34.233  1.00  0.00     0.023 A 
ATOM     88  C   UNL A   1      42.884  36.195  33.578  1.00  0.00     0.012 A 
ATOM     89  C   UNL A   1      42.033  35.153  35.604  1.00  0.00     0.148 A 
ATOM     90  C   UNL A   1      43.124  37.378  34.279  1.00  0.00     0.002 A 
ATOM     91  C   UNL A   1      42.231  36.348  36.286  1.00  0.00     0.091 A 
ATOM     92  F   UNL A   1      41.546  34.064  36.216  1.00  0.00    -0.205 F 
ATOM     93  C   UNL A   1      42.787  37.458  35.629  1.00  0.00     0.022 A 
BRANCH  91  94
ATOM     94  S   UNL A   1      41.741  36.571  38.001  1.00  0.00     0.127 S 
ATOM     95  O   UNL A   1      42.655  37.625  38.438  1.00  0.00    -0.237 OA
ATOM     96  O   UNL A   1      40.345  36.990  37.873  1.00  0.00    -0.237 OA
ATOM     97  O   UNL A   1      41.925  35.276  38.640  1.00  0.00    -0.744 OA
ENDBRANCH  91  94
ENDBRANCH  64  87
ENDBRANCH  38  39
ENDBRANCH  30  33
ENDBRANCH  28  29
ENDBRANCH  27  28
ENDBRANCH   1  27
TORSDOF 20
ENDMDL
MODEL 3
REMARK VINA RESULT:      -9.8      2.118      2.599
REMARK SMILES CC(C)[C@@H](NC(N)=O)C(=O)N[C@H](C(=O)NCCCCNC(=O)c1ccc(-c2c3nc(c(-c4cccc(S(=O)(=O)[O-])c4F)c4ccc([nH]4)c(-c4cccc(S(=O)(=O)[O-])c4F)c4nc(c(-c5cccc(S(=O)(=O)[O-])c5F)c5ccc2[nH]5)C=C4)C=C3)cc1)[C@@H](C)O
REMARK SMILES IDX 17 1 16 2 15 3 13 4 14 5 12 7 11 8 9 9 10 10 4 12 2 13 1 14
REMARK SMILES IDX 3 15 5 16 6 17 7 19 8 20 86 23 87 24 88 25 18 27 19 28 20 29
REMARK SMILES IDX 21 30 22 32 23 33 24 34 85 35 25 36 84 37 26 38 27 39 28 40
REMARK SMILES IDX 78 41 29 42 83 43 77 44 79 45 30 46 82 47 76 48 75 49 31 51
REMARK SMILES IDX 63 52 43 53 62 54 44 55 47 56 61 57 80 58 45 59 46 60 60 62
REMARK SMILES IDX 81 63 48 64 32 65 33 66 41 67 34 68 36 69 42 70 35 71 37 72
REMARK SMILES IDX 38 73 39 74 40 75 64 76 65 77 73 78 66 79 68 80 74 81 67 82
REMARK SMILES IDX 69 83 70 84 71 85 72 86 49 87 50 88 58 89 51 90 53 91 59 92
REMARK SMILES IDX 52 93 54 94 55 95 56 96 57 97
REMARK H PARENT 15 6 11 11 5 18 7 21 7 22 88 26 20 31 79 50 47 61
REMARK Flexibility Score: inf
ROOT
ATOM      1  C   UNL A   1      37.105  23.223  25.882  1.00  0.00     0.023 C 
ENDROOT
BRANCH   1   2
ATOM      2  C   UNL A   1      36.385  22.196  24.955  1.00  0.00     0.116 C 
BRANCH   2   3
ATOM      3  N   UNL A   1      35.485  22.734  23.928  1.00  0.00    -0.354 N 
ATOM      4  C   UNL A   1      34.110  22.895  23.920  1.00  0.00     0.245 C 
ATOM      5  O   UNL A   1      33.563  23.019  22.818  1.00  0.00    -0.273 OA
ATOM      6  H   UNL A   1      35.935  23.032  23.104  1.00  0.00     0.163 HD
BRANCH   4   7
ATOM      7  C   UNL A   1      33.314  23.036  25.246  1.00  0.00     0.200 C 
BRANCH   7   8
ATOM      8  N   UNL A   1      32.220  23.979  25.017  1.00  0.00    -0.340 N 
ATOM      9  C   UNL A   1      31.748  24.828  25.967  1.00  0.00     0.243 C 
ATOM     10  O   UNL A   1      31.467  24.429  27.092  1.00  0.00    -0.273 OA
ATOM     11  H   UNL A   1      31.802  24.000  24.126  1.00  0.00     0.164 HD
BRANCH   9  12
ATOM     12  C   UNL A   1      31.393  26.243  25.484  1.00  0.00     0.175 C 
BRANCH  12  13
ATOM     13  C   UNL A   1      32.210  27.470  26.026  1.00  0.00     0.015 C 
ATOM     14  C   UNL A   1      31.523  27.945  27.320  1.00  0.00     0.010 C 
ATOM     15  C   UNL A   1      33.710  27.402  26.336  1.00  0.00     0.010 C 
ENDBRANCH  12  13
BRANCH  12  16
ATOM     16  N   UNL A   1      31.475  26.286  24.012  1.00  0.00    -0.326 N 
ATOM     17  C   UNL A   1      30.774  27.136  23.213  1.00  0.00     0.312 C 
ATOM     18  H   UNL A   1      32.085  25.651  23.572  1.00  0.00     0.166 HD
ATOM     19  N   UNL A   1      31.257  27.154  21.948  1.00  0.00    -0.352 N 
ATOM     20  O   UNL A   1      29.780  27.754  23.519  1.00  0.00    -0.249 OA
ATOM     21  H   UNL A   1      32.068  26.642  21.723  1.00  0.00     0.161 HD
ATOM     22  H   UNL A   1      30.798  27.679  21.252  1.00  0.00     0.161 HD
ENDBRANCH  12  16
ENDBRANCH   9  12
ENDBRANCH   7   8
BRANCH   7  23
ATOM     23  C   UNL A   1      32.653  21.699  25.722  1.00  0.00     0.143 C 
ATOM     24  C   UNL A   1      33.037  20.437  24.929  1.00  0.00     0.041 C 
BRANCH  23  25
ATOM     25  O   UNL A   1      32.813  21.461  27.120  1.00  0.00    -0.391 OA
ATOM     26  H   UNL A   1      33.715  21.145  27.293  1.00  0.00     0.211 HD
ENDBRANCH  23  25
ENDBRANCH   7  23
ENDBRANCH   4   7
ENDBRANCH   2   3
ENDBRANCH   1   2
BRANCH   1  27
ATOM     27  C   UNL A   1      38.637  23.231  26.129  1.00  0.00     0.023 C 
BRANCH  27  28
ATOM     28  C   UNL A   1      39.380  21.951  26.555  1.00  0.00     0.116 C 
BRANCH  28  29
ATOM     29  N   UNL A   1      40.699  21.834  25.968  1.00  0.00    -0.352 N 
ATOM     30  C   UNL A   1      41.755  22.705  25.870  1.00  0.00     0.251 C 
ATOM     31  H   UNL A   1      40.873  20.955  25.558  1.00  0.00     0.163 HD
ATOM     32  O   UNL A   1      42.708  22.362  25.168  1.00  0.00    -0.269 OA
BRANCH  30  33
ATOM     33  C   UNL A   1      41.823  24.029  26.557  1.00  0.00     0.039 A 
ATOM     34  C   UNL A   1      41.762  25.175  25.748  1.00  0.00     0.014 A 
ATOM     35  C   UNL A   1      42.107  24.188  27.916  1.00  0.00     0.014 A 
ATOM     36  C   UNL A   1      41.976  26.454  26.283  1.00  0.00     0.010 A 
ATOM     37  C   UNL A   1      42.283  25.477  28.461  1.00  0.00     0.010 A 
ATOM     38  C   UNL A   1      42.238  26.626  27.650  1.00  0.00    -0.014 A 
BRANCH  38  39
ATOM     39  C   UNL A   1      42.472  27.994  28.213  1.00  0.00     0.031 A 
ATOM     40  C   UNL A   1      43.859  28.591  28.267  1.00  0.00     0.074 A 
ATOM     41  C   UNL A   1      41.440  28.708  28.710  1.00  0.00     0.049 A 
ATOM     42  N   UNL A   1      44.244  29.756  28.730  1.00  0.00    -0.248 NA
ATOM     43  C   UNL A   1      44.961  27.766  27.748  1.00  0.00     0.031 C 
ATOM     44  C   UNL A   1      40.052  28.248  28.774  1.00  0.00     0.029 A 
ATOM     45  N   UNL A   1      41.398  29.963  29.273  1.00  0.00    -0.354 N 
ATOM     46  C   UNL A   1      45.628  29.791  28.593  1.00  0.00     0.074 A 
ATOM     47  C   UNL A   1      46.019  28.518  28.024  1.00  0.00     0.031 C 
ATOM     48  C   UNL A   1      39.298  29.201  29.344  1.00  0.00     0.029 A 
ATOM     49  C   UNL A   1      40.145  30.334  29.709  1.00  0.00     0.049 A 
ATOM     50  H   UNL A   1      42.189  30.541  29.357  1.00  0.00     0.167 HD
ATOM     51  C   UNL A   1      46.497  30.792  28.889  1.00  0.00     0.034 A 
ATOM     52  C   UNL A   1      39.720  31.451  30.334  1.00  0.00     0.034 A 
ATOM     53  C   UNL A   1      46.112  32.080  29.408  1.00  0.00     0.049 A 
ATOM     54  C   UNL A   1      40.695  32.565  30.613  1.00  0.00     0.074 A 
ATOM     55  C   UNL A   1      46.913  33.182  29.659  1.00  0.00     0.029 A 
ATOM     56  N   UNL A   1      44.822  32.442  29.760  1.00  0.00    -0.354 N 
ATOM     57  N   UNL A   1      41.974  32.630  30.337  1.00  0.00    -0.248 NA
ATOM     58  C   UNL A   1      40.159  33.776  31.255  1.00  0.00     0.031 C 
ATOM     59  C   UNL A   1      46.111  34.203  30.178  1.00  0.00     0.029 A 
ATOM     60  C   UNL A   1      44.805  33.746  30.232  1.00  0.00     0.049 A 
ATOM     61  H   UNL A   1      44.031  31.859  29.686  1.00  0.00     0.167 HD
ATOM     62  C   UNL A   1      42.389  33.896  30.738  1.00  0.00     0.074 A 
ATOM     63  C   UNL A   1      41.219  34.574  31.256  1.00  0.00     0.031 C 
ATOM     64  C   UNL A   1      43.629  34.439  30.693  1.00  0.00     0.034 A 
BRANCH  51  65
ATOM     65  C   UNL A   1      47.961  30.560  28.606  1.00  0.00     0.023 A 
ATOM     66  C   UNL A   1      48.500  30.967  27.368  1.00  0.00     0.012 A 
ATOM     67  C   UNL A   1      48.817  30.010  29.582  1.00  0.00     0.148 A 
ATOM     68  C   UNL A   1      49.856  30.795  27.090  1.00  0.00     0.002 A 
ATOM     69  C   UNL A   1      50.176  29.880  29.314  1.00  0.00     0.091 A 
ATOM     70  F   UNL A   1      48.288  29.618  30.750  1.00  0.00    -0.205 F 
ATOM     71  C   UNL A   1      50.695  30.260  28.065  1.00  0.00     0.022 A 
BRANCH  69  72
ATOM     72  S   UNL A   1      51.353  29.277  30.531  1.00  0.00     0.127 S 
ATOM     73  O   UNL A   1      51.513  27.883  30.122  1.00  0.00    -0.237 OA
ATOM     74  O   UNL A   1      52.520  30.123  30.279  1.00  0.00    -0.237 OA
ATOM     75  O   UNL A   1      50.727  29.481  31.829  1.00  0.00    -0.744 OA
ENDBRANCH  69  72
ENDBRANCH  51  65
BRANCH  52  76
ATOM     76  C   UNL A   1      38.276  31.603  30.681  1.00  0.00     0.023 A 
ATOM     77  C   UNL A   1      37.815  31.158  31.936  1.00  0.00     0.012 A 
ATOM     78  C   UNL A   1      37.367  32.206  29.791  1.00  0.00     0.148 A 
ATOM     79  C   UNL A   1      36.471  31.286  32.287  1.00  0.00     0.002 A 
ATOM     80  C   UNL A   1      36.040  32.381  30.169  1.00  0.00     0.091 A 
ATOM     81  F   UNL A   1      37.819  32.605  28.593  1.00  0.00    -0.205 F 
ATOM     82  C   UNL A   1      35.587  31.908  31.409  1.00  0.00     0.022 A 
BRANCH  80  83
ATOM     83  S   UNL A   1      34.865  33.291  29.158  1.00  0.00     0.127 S 
ATOM     84  O   UNL A   1      33.749  33.468  30.083  1.00  0.00    -0.237 OA
ATOM     85  O   UNL A   1      35.611  34.512  28.850  1.00  0.00    -0.237 OA
ATOM     86  O   UNL A   1      34.603  32.443  28.003  1.00  0.00    -0.744 OA
ENDBRANCH  80  83
ENDBRANCH  52  76
BRANCH  64  87
ATOM     87  C   UNL A   1      43.798  35.853  31.189  1.00  0.00     0.023 A 
ATOM     88  C   UNL A   1      44.093  36.088  32.547  1.00  0.00     0.012 A 
ATOM     89  C   UNL A   1      43.740  36.943  30.297  1.00  0.00     0.148 A 
ATOM     90  C   UNL A   1      44.299  37.386  33.015  1.00  0.00     0.002 A 
ATOM     91  C   UNL A   1      43.992  38.230  30.762  1.00  0.00     0.091 A 
ATOM     92  F   UNL A   1      43.438  36.703  29.013  1.00  0.00    -0.205 F 
ATOM     93  C   UNL A   1      44.259  38.455  32.121  1.00  0.00     0.022 A 
BRANCH  91  94
ATOM     94  S   UNL A   1      44.054  39.654  29.667  1.00  0.00     0.127 S 
ATOM     95  O   UNL A   1      45.151  39.293  28.770  1.00  0.00    -0.237 OA
ATOM     96  O   UNL A   1      42.729  39.628  29.048  1.00  0.00    -0.237 OA
ATOM     97  O   UNL A   1      44.297  40.806  30.523  1.00  0.00    -0.744 OA
ENDBRANCH  91  94
ENDBRANCH  64  87
ENDBRANCH  38  39
ENDBRANCH  30  33
ENDBRANCH  28  29
ENDBRANCH  27  28
ENDBRANCH   1  27
TORSDOF 20
ENDMDL
