MODEL 1
REMARK VINA RESULT:     -12.5      0.000      0.000
REMARK SMILES C[C@@H](C(=O)NCCCCNC(=O)c1ccc(-c2c3nc(c(-c4cccc(S(=O)(=O)[O-])c4F)c4ccc([nH]4)c(-c4cccc(S(=O)(=O)[O-])c4F)c4nc(c(-c5cccc(S(=O)(=O)[O-])c5F)c5ccc2[nH]5)C=C4)C=C3)cc1)N1C(=O)/C(=C\c2ccc(OCc3ccccc3Cl)cc2)SC1=S
REMARK SMILES IDX 6 1 5 2 3 3 4 4 2 6 1 7 76 8 77 9 97 10 78 11 79 12 96 13
REMARK SMILES IDX 98 14 80 15 81 16 82 17 95 18 83 19 94 20 84 21 85 22 86 23
REMARK SMILES IDX 87 24 88 25 92 26 89 27 91 28 93 29 90 30 7 31 8 32 9 33
REMARK SMILES IDX 10 34 11 35 12 37 13 38 14 39 75 40 15 41 74 42 16 43 17 44
REMARK SMILES IDX 18 45 68 46 19 47 73 48 67 49 69 50 20 51 72 52 66 53 65 54
REMARK SMILES IDX 21 56 53 57 33 58 52 59 34 60 37 61 51 62 70 63 35 64 36 65
REMARK SMILES IDX 50 67 71 68 38 69 22 70 23 71 31 72 24 73 26 74 32 75 25 76
REMARK SMILES IDX 27 77 28 78 29 79 30 80 54 81 55 82 63 83 56 84 58 85 64 86
REMARK SMILES IDX 57 87 59 88 60 89 61 90 62 91 39 92 40 93 48 94 41 95 43 96
REMARK SMILES IDX 49 97 42 98 44 99 45 100 46 101 47 102
REMARK H PARENT 5 5 10 36 69 55 37 66
REMARK Flexibility Score: inf
ROOT
ATOM      1  C   UNL A   1      32.320  29.991  26.803  1.00  0.00     0.116 C 
ENDROOT
BRANCH   1   2
ATOM      2  N   UNL A   1      31.802  28.679  27.142  1.00  0.00    -0.354 N 
ATOM      3  C   UNL A   1      31.473  27.628  26.333  1.00  0.00     0.242 C 
ATOM      4  O   UNL A   1      30.985  26.626  26.864  1.00  0.00    -0.273 OA
ATOM      5  H   UNL A   1      31.666  28.521  28.105  1.00  0.00     0.163 HD
BRANCH   3   6
ATOM      6  C   UNL A   1      31.747  27.692  24.814  1.00  0.00     0.178 C 
ATOM      7  C   UNL A   1      31.025  28.841  24.110  1.00  0.00     0.042 C 
BRANCH   6   8
ATOM      8  N   UNL A   1      31.497  26.343  24.240  1.00  0.00    -0.281 N 
ATOM      9  C   UNL A   1      32.580  25.463  24.226  1.00  0.00     0.266 C 
ATOM     10  C   UNL A   1      30.283  25.800  23.870  1.00  0.00     0.149 C 
ATOM     11  O   UNL A   1      33.719  25.744  24.569  1.00  0.00    -0.268 OA
ATOM     12  C   UNL A   1      32.164  24.122  23.711  1.00  0.00     0.081 C 
ATOM     13  S   UNL A   1      30.534  24.203  23.166  1.00  0.00    -0.054 SA
ATOM     14  S   UNL A   1      28.739  26.424  23.961  1.00  0.00    -0.052 S 
ATOM     15  C   UNL A   1      32.854  22.971  23.682  1.00  0.00     0.029 C 
BRANCH  15  16
ATOM     16  C   UNL A   1      34.175  22.756  24.266  1.00  0.00    -0.024 A 
ATOM     17  C   UNL A   1      35.330  22.959  23.511  1.00  0.00     0.012 A 
ATOM     18  C   UNL A   1      34.282  22.340  25.599  1.00  0.00     0.012 A 
ATOM     19  C   UNL A   1      36.581  22.849  24.121  1.00  0.00     0.047 A 
ATOM     20  C   UNL A   1      35.535  22.216  26.202  1.00  0.00     0.047 A 
ATOM     21  C   UNL A   1      36.682  22.546  25.482  1.00  0.00     0.119 A 
BRANCH  21  22
ATOM     22  O   UNL A   1      37.928  22.731  26.008  1.00  0.00    -0.489 OA
BRANCH  22  23
ATOM     23  C   UNL A   1      38.927  21.719  25.807  1.00  0.00     0.267 C 
BRANCH  23  24
ATOM     24  C   UNL A   1      40.225  21.835  26.603  1.00  0.00     0.008 A 
ATOM     25  C   UNL A   1      40.571  22.997  27.319  1.00  0.00     0.009 A 
ATOM     26  C   UNL A   1      41.080  20.724  26.742  1.00  0.00     0.047 A 
ATOM     27  C   UNL A   1      41.684  23.044  28.164  1.00  0.00     0.001 A 
ATOM     28  C   UNL A   1      42.214  20.781  27.566  1.00  0.00     0.021 A 
ATOM     29  Cl  UNL A   1      40.781  19.228  25.926  1.00  0.00    -0.084 Cl
ATOM     30  C   UNL A   1      42.507  21.935  28.288  1.00  0.00     0.002 A 
ENDBRANCH  23  24
ENDBRANCH  22  23
ENDBRANCH  21  22
ENDBRANCH  15  16
ENDBRANCH   6   8
ENDBRANCH   3   6
ENDBRANCH   1   2
BRANCH   1  31
ATOM     31  C   UNL A   1      31.219  31.051  26.863  1.00  0.00     0.023 C 
BRANCH  31  32
ATOM     32  C   UNL A   1      31.680  32.463  26.487  1.00  0.00     0.023 C 
BRANCH  32  33
ATOM     33  C   UNL A   1      32.754  33.056  27.393  1.00  0.00     0.116 C 
BRANCH  33  34
ATOM     34  N   UNL A   1      32.477  34.432  27.779  1.00  0.00    -0.352 N 
ATOM     35  C   UNL A   1      33.059  35.187  28.768  1.00  0.00     0.251 C 
ATOM     36  H   UNL A   1      31.774  34.885  27.259  1.00  0.00     0.163 HD
ATOM     37  O   UNL A   1      32.601  36.293  29.041  1.00  0.00    -0.269 OA
BRANCH  35  38
ATOM     38  C   UNL A   1      34.216  34.652  29.521  1.00  0.00     0.039 A 
ATOM     39  C   UNL A   1      34.000  34.109  30.789  1.00  0.00     0.014 A 
ATOM     40  C   UNL A   1      35.503  34.673  28.977  1.00  0.00     0.014 A 
ATOM     41  C   UNL A   1      35.067  33.535  31.487  1.00  0.00     0.010 A 
ATOM     42  C   UNL A   1      36.546  34.029  29.638  1.00  0.00     0.010 A 
ATOM     43  C   UNL A   1      36.342  33.458  30.902  1.00  0.00    -0.014 A 
BRANCH  43  44
ATOM     44  C   UNL A   1      37.464  32.774  31.600  1.00  0.00     0.031 A 
ATOM     45  C   UNL A   1      38.166  31.609  30.956  1.00  0.00     0.074 A 
ATOM     46  C   UNL A   1      37.809  33.165  32.843  1.00  0.00     0.049 A 
ATOM     47  N   UNL A   1      39.146  30.879  31.422  1.00  0.00    -0.248 NA
ATOM     48  C   UNL A   1      37.691  31.191  29.627  1.00  0.00     0.031 C 
ATOM     49  C   UNL A   1      37.152  34.226  33.611  1.00  0.00     0.029 A 
ATOM     50  N   UNL A   1      38.785  32.700  33.690  1.00  0.00    -0.354 N 
ATOM     51  C   UNL A   1      39.392  29.908  30.457  1.00  0.00     0.074 A 
ATOM     52  C   UNL A   1      38.424  30.110  29.402  1.00  0.00     0.031 C 
ATOM     53  C   UNL A   1      37.749  34.337  34.808  1.00  0.00     0.029 A 
ATOM     54  C   UNL A   1      38.807  33.338  34.909  1.00  0.00     0.049 A 
ATOM     55  H   UNL A   1      39.410  31.980  33.449  1.00  0.00     0.167 HD
ATOM     56  C   UNL A   1      40.355  28.956  30.434  1.00  0.00     0.034 A 
ATOM     57  C   UNL A   1      39.585  33.136  35.990  1.00  0.00     0.034 A 
ATOM     58  C   UNL A   1      41.332  28.771  31.473  1.00  0.00     0.049 A 
ATOM     59  C   UNL A   1      40.662  32.085  35.928  1.00  0.00     0.074 A 
ATOM     60  C   UNL A   1      42.388  27.877  31.513  1.00  0.00     0.029 A 
ATOM     61  N   UNL A   1      41.371  29.487  32.660  1.00  0.00    -0.354 N 
ATOM     62  N   UNL A   1      40.973  31.278  34.943  1.00  0.00    -0.248 NA
ATOM     63  C   UNL A   1      41.519  31.943  37.114  1.00  0.00     0.031 C 
ATOM     64  C   UNL A   1      43.048  28.033  32.736  1.00  0.00     0.029 A 
ATOM     65  C   UNL A   1      42.427  29.051  33.442  1.00  0.00     0.049 A 
ATOM     66  H   UNL A   1      40.739  30.200  32.909  1.00  0.00     0.167 HD
ATOM     67  C   UNL A   1      42.084  30.563  35.373  1.00  0.00     0.074 A 
ATOM     68  C   UNL A   1      42.408  31.052  36.698  1.00  0.00     0.031 C 
ATOM     69  C   UNL A   1      42.770  29.581  34.736  1.00  0.00     0.034 A 
BRANCH  56  70
ATOM     70  C   UNL A   1      40.437  28.075  29.213  1.00  0.00     0.023 A 
ATOM     71  C   UNL A   1      39.539  26.994  29.075  1.00  0.00     0.012 A 
ATOM     72  C   UNL A   1      41.353  28.345  28.176  1.00  0.00     0.148 A 
ATOM     73  C   UNL A   1      39.577  26.175  27.948  1.00  0.00     0.002 A 
ATOM     74  C   UNL A   1      41.351  27.553  27.034  1.00  0.00     0.091 A 
ATOM     75  F   UNL A   1      42.209  29.364  28.331  1.00  0.00    -0.205 F 
ATOM     76  C   UNL A   1      40.475  26.461  26.924  1.00  0.00     0.022 A 
BRANCH  74  77
ATOM     77  S   UNL A   1      42.411  27.883  25.621  1.00  0.00     0.127 S 
ATOM     78  O   UNL A   1      42.138  26.726  24.772  1.00  0.00    -0.237 OA
ATOM     79  O   UNL A   1      41.870  29.147  25.122  1.00  0.00    -0.237 OA
ATOM     80  O   UNL A   1      43.767  27.965  26.145  1.00  0.00    -0.744 OA
ENDBRANCH  74  77
ENDBRANCH  56  70
BRANCH  57  81
ATOM     81  C   UNL A   1      39.414  33.978  37.209  1.00  0.00     0.023 A 
ATOM     82  C   UNL A   1      39.892  35.303  37.215  1.00  0.00     0.012 A 
ATOM     83  C   UNL A   1      38.781  33.472  38.361  1.00  0.00     0.148 A 
ATOM     84  C   UNL A   1      39.784  36.093  38.360  1.00  0.00     0.002 A 
ATOM     85  C   UNL A   1      38.624  34.284  39.477  1.00  0.00     0.091 A 
ATOM     86  F   UNL A   1      38.342  32.206  38.340  1.00  0.00    -0.205 F 
ATOM     87  C   UNL A   1      39.143  35.588  39.487  1.00  0.00     0.022 A 
BRANCH  85  88
ATOM     88  S   UNL A   1      37.694  33.760  40.922  1.00  0.00     0.127 S 
ATOM     89  O   UNL A   1      36.489  33.203  40.316  1.00  0.00    -0.237 OA
ATOM     90  O   UNL A   1      38.596  32.774  41.520  1.00  0.00    -0.237 OA
ATOM     91  O   UNL A   1      37.505  34.962  41.724  1.00  0.00    -0.744 OA
ENDBRANCH  85  88
ENDBRANCH  57  81
BRANCH  69  92
ATOM     92  C   UNL A   1      43.970  28.999  35.439  1.00  0.00     0.023 A 
ATOM     93  C   UNL A   1      45.242  29.582  35.268  1.00  0.00     0.012 A 
ATOM     94  C   UNL A   1      43.824  27.904  36.313  1.00  0.00     0.148 A 
ATOM     95  C   UNL A   1      46.355  29.057  35.922  1.00  0.00     0.002 A 
ATOM     96  C   UNL A   1      44.928  27.422  37.005  1.00  0.00     0.091 A 
ATOM     97  F   UNL A   1      42.609  27.352  36.450  1.00  0.00    -0.205 F 
ATOM     98  C   UNL A   1      46.197  27.986  36.799  1.00  0.00     0.022 A 
BRANCH  96  99
ATOM     99  S   UNL A   1      44.802  26.111  38.227  1.00  0.00     0.127 S 
ATOM    100  O   UNL A   1      44.308  24.998  37.419  1.00  0.00    -0.237 OA
ATOM    101  O   UNL A   1      46.189  25.972  38.674  1.00  0.00    -0.237 OA
ATOM    102  O   UNL A   1      43.885  26.599  39.247  1.00  0.00    -0.744 OA
ENDBRANCH  96  99
ENDBRANCH  69  92
ENDBRANCH  43  44
ENDBRANCH  35  38
ENDBRANCH  33  34
ENDBRANCH  32  33
ENDBRANCH  31  32
ENDBRANCH   1  31
TORSDOF 19
ENDMDL
MODEL 2
REMARK VINA RESULT:     -11.9      1.636      2.439
REMARK SMILES C[C@@H](C(=O)NCCCCNC(=O)c1ccc(-c2c3nc(c(-c4cccc(S(=O)(=O)[O-])c4F)c4ccc([nH]4)c(-c4cccc(S(=O)(=O)[O-])c4F)c4nc(c(-c5cccc(S(=O)(=O)[O-])c5F)c5ccc2[nH]5)C=C4)C=C3)cc1)N1C(=O)/C(=C\c2ccc(OCc3ccccc3Cl)cc2)SC1=S
REMARK SMILES IDX 6 1 5 2 3 3 4 4 2 6 1 7 76 8 77 9 97 10 78 11 79 12 96 13
REMARK SMILES IDX 98 14 80 15 81 16 82 17 95 18 83 19 94 20 84 21 85 22 86 23
REMARK SMILES IDX 87 24 88 25 92 26 89 27 91 28 93 29 90 30 7 31 8 32 9 33
REMARK SMILES IDX 10 34 11 35 12 37 13 38 14 39 75 40 15 41 74 42 16 43 17 44
REMARK SMILES IDX 18 45 68 46 19 47 73 48 67 49 69 50 20 51 72 52 66 53 65 54
REMARK SMILES IDX 21 56 53 57 33 58 52 59 34 60 37 61 51 62 70 63 35 64 36 65
REMARK SMILES IDX 50 67 71 68 38 69 22 70 23 71 31 72 24 73 26 74 32 75 25 76
REMARK SMILES IDX 27 77 28 78 29 79 30 80 54 81 55 82 63 83 56 84 58 85 64 86
REMARK SMILES IDX 57 87 59 88 60 89 61 90 62 91 39 92 40 93 48 94 41 95 43 96
REMARK SMILES IDX 49 97 42 98 44 99 45 100 46 101 47 102
REMARK H PARENT 5 5 10 36 69 55 37 66
REMARK Flexibility Score: inf
ROOT
ATOM      1  C   UNL A   1      32.357  30.658  26.936  1.00  0.00     0.116 C 
ENDROOT
BRANCH   1   2
ATOM      2  N   UNL A   1      31.877  29.372  27.405  1.00  0.00    -0.354 N 
ATOM      3  C   UNL A   1      32.040  28.125  26.871  1.00  0.00     0.242 C 
ATOM      4  O   UNL A   1      31.472  27.182  27.430  1.00  0.00    -0.273 OA
ATOM      5  H   UNL A   1      31.351  29.402  28.237  1.00  0.00     0.163 HD
BRANCH   3   6
ATOM      6  C   UNL A   1      32.941  27.914  25.634  1.00  0.00     0.178 C 
ATOM      7  C   UNL A   1      33.767  29.146  25.261  1.00  0.00     0.042 C 
BRANCH   6   8
ATOM      8  N   UNL A   1      32.102  27.360  24.538  1.00  0.00    -0.281 N 
ATOM      9  C   UNL A   1      32.187  25.984  24.325  1.00  0.00     0.266 C 
ATOM     10  C   UNL A   1      31.127  28.016  23.814  1.00  0.00     0.149 C 
ATOM     11  O   UNL A   1      32.949  25.228  24.908  1.00  0.00    -0.268 OA
ATOM     12  C   UNL A   1      31.227  25.554  23.262  1.00  0.00     0.081 C 
ATOM     13  S   UNL A   1      30.483  26.944  22.571  1.00  0.00    -0.054 SA
ATOM     14  S   UNL A   1      30.551  29.578  23.929  1.00  0.00    -0.052 S 
ATOM     15  C   UNL A   1      30.890  24.315  22.871  1.00  0.00     0.029 C 
BRANCH  15  16
ATOM     16  C   UNL A   1      31.335  23.074  23.499  1.00  0.00    -0.024 A 
ATOM     17  C   UNL A   1      32.130  22.165  22.801  1.00  0.00     0.012 A 
ATOM     18  C   UNL A   1      30.958  22.793  24.818  1.00  0.00     0.012 A 
ATOM     19  C   UNL A   1      32.630  21.038  23.456  1.00  0.00     0.047 A 
ATOM     20  C   UNL A   1      31.446  21.658  25.467  1.00  0.00     0.047 A 
ATOM     21  C   UNL A   1      32.345  20.821  24.807  1.00  0.00     0.119 A 
BRANCH  21  22
ATOM     22  O   UNL A   1      33.102  19.845  25.390  1.00  0.00    -0.489 OA
BRANCH  22  23
ATOM     23  C   UNL A   1      34.160  20.224  26.283  1.00  0.00     0.267 C 
BRANCH  23  24
ATOM     24  C   UNL A   1      35.176  21.251  25.786  1.00  0.00     0.008 A 
ATOM     25  C   UNL A   1      36.120  20.955  24.784  1.00  0.00     0.009 A 
ATOM     26  C   UNL A   1      35.126  22.583  26.239  1.00  0.00     0.047 A 
ATOM     27  C   UNL A   1      36.945  21.938  24.230  1.00  0.00     0.001 A 
ATOM     28  C   UNL A   1      35.975  23.564  25.705  1.00  0.00     0.021 A 
ATOM     29  Cl  UNL A   1      34.015  23.096  27.463  1.00  0.00    -0.084 Cl
ATOM     30  C   UNL A   1      36.873  23.244  24.690  1.00  0.00     0.002 A 
ENDBRANCH  23  24
ENDBRANCH  22  23
ENDBRANCH  21  22
ENDBRANCH  15  16
ENDBRANCH   6   8
ENDBRANCH   3   6
ENDBRANCH   1   2
BRANCH   1  31
ATOM     31  C   UNL A   1      31.193  31.572  26.546  1.00  0.00     0.023 C 
BRANCH  31  32
ATOM     32  C   UNL A   1      31.540  33.064  26.532  1.00  0.00     0.023 C 
BRANCH  32  33
ATOM     33  C   UNL A   1      32.765  33.453  27.355  1.00  0.00     0.116 C 
BRANCH  33  34
ATOM     34  N   UNL A   1      32.631  34.752  27.995  1.00  0.00    -0.352 N 
ATOM     35  C   UNL A   1      33.284  35.244  29.100  1.00  0.00     0.251 C 
ATOM     36  H   UNL A   1      31.981  35.366  27.580  1.00  0.00     0.163 HD
ATOM     37  O   UNL A   1      32.943  36.320  29.582  1.00  0.00    -0.269 OA
BRANCH  35  38
ATOM     38  C   UNL A   1      34.375  34.461  29.721  1.00  0.00     0.039 A 
ATOM     39  C   UNL A   1      35.671  34.595  29.216  1.00  0.00     0.014 A 
ATOM     40  C   UNL A   1      34.129  33.609  30.802  1.00  0.00     0.014 A 
ATOM     41  C   UNL A   1      36.727  33.919  29.833  1.00  0.00     0.010 A 
ATOM     42  C   UNL A   1      35.193  33.003  31.464  1.00  0.00     0.010 A 
ATOM     43  C   UNL A   1      36.503  33.145  30.984  1.00  0.00    -0.014 A 
BRANCH  43  44
ATOM     44  C   UNL A   1      37.632  32.491  31.698  1.00  0.00     0.031 A 
ATOM     45  C   UNL A   1      38.363  31.333  31.074  1.00  0.00     0.074 A 
ATOM     46  C   UNL A   1      37.960  32.903  32.940  1.00  0.00     0.049 A 
ATOM     47  N   UNL A   1      39.353  30.628  31.556  1.00  0.00    -0.248 NA
ATOM     48  C   UNL A   1      37.907  30.891  29.746  1.00  0.00     0.031 C 
ATOM     49  C   UNL A   1      37.276  33.959  33.690  1.00  0.00     0.029 A 
ATOM     50  N   UNL A   1      38.938  32.468  33.800  1.00  0.00    -0.354 N 
ATOM     51  C   UNL A   1      39.626  29.651  30.604  1.00  0.00     0.074 A 
ATOM     52  C   UNL A   1      38.662  29.822  29.539  1.00  0.00     0.031 C 
ATOM     53  C   UNL A   1      37.861  34.096  34.891  1.00  0.00     0.029 A 
ATOM     54  C   UNL A   1      38.938  33.120  35.011  1.00  0.00     0.049 A 
ATOM     55  H   UNL A   1      39.579  31.757  33.571  1.00  0.00     0.167 HD
ATOM     56  C   UNL A   1      40.608  28.719  30.599  1.00  0.00     0.034 A 
ATOM     57  C   UNL A   1      39.712  32.945  36.100  1.00  0.00     0.034 A 
ATOM     58  C   UNL A   1      41.580  28.565  31.647  1.00  0.00     0.049 A 
ATOM     59  C   UNL A   1      40.809  31.916  36.059  1.00  0.00     0.074 A 
ATOM     60  C   UNL A   1      42.653  27.693  31.706  1.00  0.00     0.029 A 
ATOM     61  N   UNL A   1      41.595  29.295  32.826  1.00  0.00    -0.354 N 
ATOM     62  N   UNL A   1      41.144  31.103  35.086  1.00  0.00    -0.248 NA
ATOM     63  C   UNL A   1      41.660  31.804  37.252  1.00  0.00     0.031 C 
ATOM     64  C   UNL A   1      43.300  27.876  32.932  1.00  0.00     0.029 A 
ATOM     65  C   UNL A   1      42.654  28.889  33.621  1.00  0.00     0.049 A 
ATOM     66  H   UNL A   1      40.948  29.998  33.063  1.00  0.00     0.167 HD
ATOM     67  C   UNL A   1      42.266  30.416  35.533  1.00  0.00     0.074 A 
ATOM     68  C   UNL A   1      42.569  30.926  36.854  1.00  0.00     0.031 C 
ATOM     69  C   UNL A   1      42.976  29.441  34.912  1.00  0.00     0.034 A 
BRANCH  56  70
ATOM     70  C   UNL A   1      40.717  27.825  29.388  1.00  0.00     0.023 A 
ATOM     71  C   UNL A   1      39.904  26.676  29.299  1.00  0.00     0.012 A 
ATOM     72  C   UNL A   1      41.572  28.149  28.316  1.00  0.00     0.148 A 
ATOM     73  C   UNL A   1      39.967  25.843  28.183  1.00  0.00     0.002 A 
ATOM     74  C   UNL A   1      41.594  27.339  27.186  1.00  0.00     0.091 A 
ATOM     75  F   UNL A   1      42.350  29.234  28.425  1.00  0.00    -0.205 F 
ATOM     76  C   UNL A   1      40.803  26.180  27.123  1.00  0.00     0.022 A 
BRANCH  74  77
ATOM     77  S   UNL A   1      42.575  27.727  25.732  1.00  0.00     0.127 S 
ATOM     78  O   UNL A   1      42.013  29.015  25.333  1.00  0.00    -0.237 OA
ATOM     79  O   UNL A   1      43.928  27.796  26.284  1.00  0.00    -0.237 OA
ATOM     80  O   UNL A   1      42.355  26.634  24.794  1.00  0.00    -0.744 OA
ENDBRANCH  74  77
ENDBRANCH  56  70
BRANCH  57  81
ATOM     81  C   UNL A   1      39.514  33.798  37.309  1.00  0.00     0.023 A 
ATOM     82  C   UNL A   1      40.052  35.098  37.340  1.00  0.00     0.012 A 
ATOM     83  C   UNL A   1      38.797  33.325  38.424  1.00  0.00     0.148 A 
ATOM     84  C   UNL A   1      39.919  35.896  38.478  1.00  0.00     0.002 A 
ATOM     85  C   UNL A   1      38.617  34.146  39.531  1.00  0.00     0.091 A 
ATOM     86  F   UNL A   1      38.301  32.080  38.380  1.00  0.00    -0.205 F 
ATOM     87  C   UNL A   1      39.196  35.424  39.568  1.00  0.00     0.022 A 
BRANCH  85  88
ATOM     88  S   UNL A   1      37.588  33.670  40.923  1.00  0.00     0.127 S 
ATOM     89  O   UNL A   1      38.438  32.698  41.604  1.00  0.00    -0.237 OA
ATOM     90  O   UNL A   1      37.422  34.943  41.625  1.00  0.00    -0.237 OA
ATOM     91  O   UNL A   1      36.361  33.142  40.341  1.00  0.00    -0.744 OA
ENDBRANCH  85  88
ENDBRANCH  57  81
BRANCH  69  92
ATOM     92  C   UNL A   1      44.182  28.891  35.630  1.00  0.00     0.023 A 
ATOM     93  C   UNL A   1      45.452  29.467  35.425  1.00  0.00     0.012 A 
ATOM     94  C   UNL A   1      44.043  27.834  36.552  1.00  0.00     0.148 A 
ATOM     95  C   UNL A   1      46.570  28.972  36.094  1.00  0.00     0.002 A 
ATOM     96  C   UNL A   1      45.153  27.383  37.256  1.00  0.00     0.091 A 
ATOM     97  F   UNL A   1      42.831  27.287  36.721  1.00  0.00    -0.205 F 
ATOM     98  C   UNL A   1      46.420  27.940  37.017  1.00  0.00     0.022 A 
BRANCH  96  99
ATOM     99  S   UNL A   1      45.038  26.126  38.534  1.00  0.00     0.127 S 
ATOM    100  O   UNL A   1      46.400  26.117  39.066  1.00  0.00    -0.237 OA
ATOM    101  O   UNL A   1      44.034  26.693  39.435  1.00  0.00    -0.237 OA
ATOM    102  O   UNL A   1      44.623  24.904  37.859  1.00  0.00    -0.744 OA
ENDBRANCH  96  99
ENDBRANCH  69  92
ENDBRANCH  43  44
ENDBRANCH  35  38
ENDBRANCH  33  34
ENDBRANCH  32  33
ENDBRANCH  31  32
ENDBRANCH   1  31
TORSDOF 19
ENDMDL
MODEL 3
REMARK VINA RESULT:     -11.4      2.061      7.744
REMARK SMILES C[C@@H](C(=O)NCCCCNC(=O)c1ccc(-c2c3nc(c(-c4cccc(S(=O)(=O)[O-])c4F)c4ccc([nH]4)c(-c4cccc(S(=O)(=O)[O-])c4F)c4nc(c(-c5cccc(S(=O)(=O)[O-])c5F)c5ccc2[nH]5)C=C4)C=C3)cc1)N1C(=O)/C(=C\c2ccc(OCc3ccccc3Cl)cc2)SC1=S
REMARK SMILES IDX 6 1 5 2 3 3 4 4 2 6 1 7 76 8 77 9 97 10 78 11 79 12 96 13
REMARK SMILES IDX 98 14 80 15 81 16 82 17 95 18 83 19 94 20 84 21 85 22 86 23
REMARK SMILES IDX 87 24 88 25 92 26 89 27 91 28 93 29 90 30 7 31 8 32 9 33
REMARK SMILES IDX 10 34 11 35 12 37 13 38 14 39 75 40 15 41 74 42 16 43 17 44
REMARK SMILES IDX 18 45 68 46 19 47 73 48 67 49 69 50 20 51 72 52 66 53 65 54
REMARK SMILES IDX 21 56 53 57 33 58 52 59 34 60 37 61 51 62 70 63 35 64 36 65
REMARK SMILES IDX 50 67 71 68 38 69 22 70 23 71 31 72 24 73 26 74 32 75 25 76
REMARK SMILES IDX 27 77 28 78 29 79 30 80 54 81 55 82 63 83 56 84 58 85 64 86
REMARK SMILES IDX 57 87 59 88 60 89 61 90 62 91 39 92 40 93 48 94 41 95 43 96
REMARK SMILES IDX 49 97 42 98 44 99 45 100 46 101 47 102
REMARK H PARENT 5 5 10 36 69 55 37 66
REMARK Flexibility Score: inf
ROOT
ATOM      1  C   UNL A   1      32.404  30.701  27.046  1.00  0.00     0.116 C 
ENDROOT
BRANCH   1   2
ATOM      2  N   UNL A   1      31.902  29.420  27.504  1.00  0.00    -0.354 N 
ATOM      3  C   UNL A   1      32.047  28.173  26.963  1.00  0.00     0.242 C 
ATOM      4  O   UNL A   1      31.462  27.237  27.513  1.00  0.00    -0.273 OA
ATOM      5  H   UNL A   1      31.374  29.452  28.335  1.00  0.00     0.163 HD
BRANCH   3   6
ATOM      6  C   UNL A   1      32.949  27.957  25.727  1.00  0.00     0.178 C 
ATOM      7  C   UNL A   1      33.801  29.176  25.370  1.00  0.00     0.042 C 
BRANCH   6   8
ATOM      8  N   UNL A   1      32.104  27.432  24.621  1.00  0.00    -0.281 N 
ATOM      9  C   UNL A   1      32.181  26.060  24.378  1.00  0.00     0.266 C 
ATOM     10  C   UNL A   1      31.130  28.109  23.915  1.00  0.00     0.149 C 
ATOM     11  O   UNL A   1      32.941  25.287  24.943  1.00  0.00    -0.268 OA
ATOM     12  C   UNL A   1      31.215  25.658  23.309  1.00  0.00     0.081 C 
ATOM     13  S   UNL A   1      30.478  27.067  22.651  1.00  0.00    -0.054 SA
ATOM     14  S   UNL A   1      30.564  29.671  24.065  1.00  0.00    -0.052 S 
ATOM     15  C   UNL A   1      30.871  24.430  22.892  1.00  0.00     0.029 C 
BRANCH  15  16
ATOM     16  C   UNL A   1      31.311  23.174  23.493  1.00  0.00    -0.024 A 
ATOM     17  C   UNL A   1      32.073  22.262  22.761  1.00  0.00     0.012 A 
ATOM     18  C   UNL A   1      30.963  22.881  24.817  1.00  0.00     0.012 A 
ATOM     19  C   UNL A   1      32.569  21.118  23.389  1.00  0.00     0.047 A 
ATOM     20  C   UNL A   1      31.448  21.728  25.437  1.00  0.00     0.047 A 
ATOM     21  C   UNL A   1      32.316  20.886  24.743  1.00  0.00     0.119 A 
BRANCH  21  22
ATOM     22  O   UNL A   1      33.071  19.890  25.293  1.00  0.00    -0.489 OA
BRANCH  22  23
ATOM     23  C   UNL A   1      34.129  20.237  26.199  1.00  0.00     0.267 C 
BRANCH  23  24
ATOM     24  C   UNL A   1      35.141  21.286  25.742  1.00  0.00     0.008 A 
ATOM     25  C   UNL A   1      36.068  21.041  24.711  1.00  0.00     0.009 A 
ATOM     26  C   UNL A   1      35.104  22.592  26.267  1.00  0.00     0.047 A 
ATOM     27  C   UNL A   1      36.888  22.049  24.197  1.00  0.00     0.001 A 
ATOM     28  C   UNL A   1      35.949  23.597  25.772  1.00  0.00     0.021 A 
ATOM     29  Cl  UNL A   1      34.015  23.042  27.534  1.00  0.00    -0.084 Cl
ATOM     30  C   UNL A   1      36.830  23.328  24.727  1.00  0.00     0.002 A 
ENDBRANCH  23  24
ENDBRANCH  22  23
ENDBRANCH  21  22
ENDBRANCH  15  16
ENDBRANCH   6   8
ENDBRANCH   3   6
ENDBRANCH   1   2
BRANCH   1  31
ATOM     31  C   UNL A   1      31.270  31.719  26.905  1.00  0.00     0.023 C 
BRANCH  31  32
ATOM     32  C   UNL A   1      31.740  33.156  26.656  1.00  0.00     0.023 C 
BRANCH  32  33
ATOM     33  C   UNL A   1      33.036  33.545  27.359  1.00  0.00     0.116 C 
BRANCH  33  34
ATOM     34  N   UNL A   1      32.881  34.687  28.247  1.00  0.00    -0.352 N 
ATOM     35  C   UNL A   1      33.556  34.977  29.409  1.00  0.00     0.251 C 
ATOM     36  H   UNL A   1      32.198  35.344  27.980  1.00  0.00     0.163 HD
ATOM     37  O   UNL A   1      33.196  35.923  30.104  1.00  0.00    -0.269 OA
BRANCH  35  38
ATOM     38  C   UNL A   1      34.694  34.131  29.833  1.00  0.00     0.039 A 
ATOM     39  C   UNL A   1      35.980  34.471  29.405  1.00  0.00     0.014 A 
ATOM     40  C   UNL A   1      34.500  33.019  30.656  1.00  0.00     0.014 A 
ATOM     41  C   UNL A   1      37.076  33.728  29.851  1.00  0.00     0.010 A 
ATOM     42  C   UNL A   1      35.599  32.331  31.163  1.00  0.00     0.010 A 
ATOM     43  C   UNL A   1      36.898  32.673  30.763  1.00  0.00    -0.014 A 
BRANCH  43  44
ATOM     44  C   UNL A   1      38.066  31.930  31.310  1.00  0.00     0.031 A 
ATOM     45  C   UNL A   1      38.571  32.217  32.699  1.00  0.00     0.074 A 
ATOM     46  C   UNL A   1      38.711  31.039  30.530  1.00  0.00     0.049 A 
ATOM     47  N   UNL A   1      39.584  31.686  33.332  1.00  0.00    -0.248 NA
ATOM     48  C   UNL A   1      37.862  33.252  33.469  1.00  0.00     0.031 C 
ATOM     49  C   UNL A   1      38.373  30.731  29.138  1.00  0.00     0.029 A 
ATOM     50  N   UNL A   1      39.799  30.243  30.790  1.00  0.00    -0.354 N 
ATOM     51  C   UNL A   1      39.647  32.333  34.562  1.00  0.00     0.074 A 
ATOM     52  C   UNL A   1      38.601  33.331  34.566  1.00  0.00     0.031 C 
ATOM     53  C   UNL A   1      39.228  29.807  28.671  1.00  0.00     0.029 A 
ATOM     54  C   UNL A   1      40.194  29.480  29.714  1.00  0.00     0.049 A 
ATOM     55  H   UNL A   1      40.254  30.220  31.662  1.00  0.00     0.167 HD
ATOM     56  C   UNL A   1      40.477  32.095  35.606  1.00  0.00     0.034 A 
ATOM     57  C   UNL A   1      41.223  28.622  29.580  1.00  0.00     0.034 A 
ATOM     58  C   UNL A   1      41.501  31.086  35.610  1.00  0.00     0.049 A 
ATOM     59  C   UNL A   1      42.116  28.362  30.764  1.00  0.00     0.074 A 
ATOM     60  C   UNL A   1      42.351  30.726  36.640  1.00  0.00     0.029 A 
ATOM     61  N   UNL A   1      41.822  30.280  34.528  1.00  0.00    -0.354 N 
ATOM     62  N   UNL A   1      42.063  28.877  31.968  1.00  0.00    -0.248 NA
ATOM     63  C   UNL A   1      43.190  27.374  30.581  1.00  0.00     0.031 C 
ATOM     64  C   UNL A   1      43.204  29.721  36.174  1.00  0.00     0.029 A 
ATOM     65  C   UNL A   1      42.861  29.429  34.864  1.00  0.00     0.049 A 
ATOM     66  H   UNL A   1      41.377  30.310  33.651  1.00  0.00     0.167 HD
ATOM     67  C   UNL A   1      43.065  28.248  32.696  1.00  0.00     0.074 A 
ATOM     68  C   UNL A   1      43.693  27.295  31.805  1.00  0.00     0.031 C 
ATOM     69  C   UNL A   1      43.443  28.448  33.984  1.00  0.00     0.034 A 
BRANCH  56  70
ATOM     70  C   UNL A   1      40.270  32.907  36.860  1.00  0.00     0.023 A 
ATOM     71  C   UNL A   1      41.027  34.082  37.059  1.00  0.00     0.012 A 
ATOM     72  C   UNL A   1      39.294  32.549  37.810  1.00  0.00     0.148 A 
ATOM     73  C   UNL A   1      40.843  34.864  38.198  1.00  0.00     0.002 A 
ATOM     74  C   UNL A   1      39.083  33.360  38.920  1.00  0.00     0.091 A 
ATOM     75  F   UNL A   1      38.596  31.421  37.615  1.00  0.00    -0.205 F 
ATOM     76  C   UNL A   1      39.865  34.509  39.122  1.00  0.00     0.022 A 
BRANCH  74  77
ATOM     77  S   UNL A   1      37.793  33.038  40.128  1.00  0.00     0.127 S 
ATOM     78  O   UNL A   1      37.881  34.225  40.975  1.00  0.00    -0.237 OA
ATOM     79  O   UNL A   1      36.596  32.973  39.289  1.00  0.00    -0.237 OA
ATOM     80  O   UNL A   1      38.151  31.784  40.775  1.00  0.00    -0.744 OA
ENDBRANCH  74  77
ENDBRANCH  56  70
BRANCH  57  81
ATOM     81  C   UNL A   1      41.439  27.901  28.292  1.00  0.00     0.023 A 
ATOM     82  C   UNL A   1      41.987  28.588  27.192  1.00  0.00     0.012 A 
ATOM     83  C   UNL A   1      41.103  26.540  28.154  1.00  0.00     0.148 A 
ATOM     84  C   UNL A   1      42.155  27.945  25.964  1.00  0.00     0.002 A 
ATOM     85  C   UNL A   1      41.328  25.892  26.946  1.00  0.00     0.091 A 
ATOM     86  F   UNL A   1      40.573  25.907  29.208  1.00  0.00    -0.205 F 
ATOM     87  C   UNL A   1      41.833  26.597  25.843  1.00  0.00     0.022 A 
BRANCH  85  88
ATOM     88  S   UNL A   1      41.068  24.126  26.741  1.00  0.00     0.127 S 
ATOM     89  O   UNL A   1      39.627  24.060  26.516  1.00  0.00    -0.237 OA
ATOM     90  O   UNL A   1      41.890  23.834  25.566  1.00  0.00    -0.237 OA
ATOM     91  O   UNL A   1      41.547  23.515  27.974  1.00  0.00    -0.744 OA
ENDBRANCH  85  88
ENDBRANCH  57  81
BRANCH  69  92
ATOM     92  C   UNL A   1      44.556  27.588  34.526  1.00  0.00     0.023 A 
ATOM     93  C   UNL A   1      45.889  28.041  34.475  1.00  0.00     0.012 A 
ATOM     94  C   UNL A   1      44.269  26.352  35.138  1.00  0.00     0.148 A 
ATOM     95  C   UNL A   1      46.924  27.258  34.984  1.00  0.00     0.002 A 
ATOM     96  C   UNL A   1      45.299  25.602  35.693  1.00  0.00     0.091 A 
ATOM     97  F   UNL A   1      42.997  25.929  35.162  1.00  0.00    -0.205 F 
ATOM     98  C   UNL A   1      46.629  26.045  35.603  1.00  0.00     0.022 A 
BRANCH  96  99
ATOM     99  S   UNL A   1      45.003  24.077  36.595  1.00  0.00     0.127 S 
ATOM    100  O   UNL A   1      44.412  24.575  37.835  1.00  0.00    -0.237 OA
ATOM    101  O   UNL A   1      44.070  23.373  35.713  1.00  0.00    -0.237 OA
ATOM    102  O   UNL A   1      46.302  23.434  36.735  1.00  0.00    -0.744 OA
ENDBRANCH  96  99
ENDBRANCH  69  92
ENDBRANCH  43  44
ENDBRANCH  35  38
ENDBRANCH  33  34
ENDBRANCH  32  33
ENDBRANCH  31  32
ENDBRANCH   1  31
TORSDOF 19
ENDMDL
