MODEL 1
REMARK VINA RESULT:     -10.8      0.000      0.000
REMARK SMILES C=CC[NH2+]CC(=O)N1CC[C@@H](CC(=O)NCCCCNC(=O)c2ccc(-c3c4nc(c(-c5cccc(S(=O)(=O)[O-])c5F)c5ccc([nH]5)c(-c5cccc(S(=O)(=O)[O-])c5F)c5nc(c(-c6cccc(S(=O)(=O)[O-])c6F)c6ccc3[nH]6)C=C5)C=C4)cc2)C1
REMARK SMILES IDX 16 1 15 2 13 3 14 4 12 6 11 7 8 8 9 9 86 10 10 11 6 12 7 13
REMARK SMILES IDX 5 14 4 15 3 18 2 19 1 20 17 21 18 22 19 23 20 24 21 25 22 27
REMARK SMILES IDX 23 28 24 29 85 30 25 31 84 32 26 33 27 34 28 35 78 36 29 37
REMARK SMILES IDX 83 38 77 39 79 40 30 41 82 42 76 43 75 44 31 46 63 47 43 48
REMARK SMILES IDX 62 49 44 50 47 51 61 52 80 53 45 54 46 55 60 57 81 58 48 59
REMARK SMILES IDX 32 60 33 61 41 62 34 63 36 64 42 65 35 66 37 67 38 68 39 69
REMARK SMILES IDX 40 70 64 71 65 72 73 73 66 74 68 75 74 76 67 77 69 78 70 79
REMARK SMILES IDX 71 80 72 81 49 82 50 83 58 84 51 85 53 86 59 87 52 88 54 89
REMARK SMILES IDX 55 90 56 91 57 92
REMARK H PARENT 15 5 4 16 4 17 20 26 79 45 47 56
REMARK Flexibility Score: inf
ROOT
ATOM      1  C   UNL A   1      31.326  26.607  24.332  1.00  0.00     0.116 C 
ENDROOT
BRANCH   1   2
ATOM      2  N   UNL A   1      32.043  26.615  23.067  1.00  0.00    -0.356 N 
ATOM      3  C   UNL A   1      33.186  25.957  22.716  1.00  0.00     0.220 C 
ATOM      4  O   UNL A   1      33.717  26.203  21.633  1.00  0.00    -0.275 OA
ATOM      5  H   UNL A   1      31.646  27.175  22.362  1.00  0.00     0.163 HD
BRANCH   3   6
ATOM      6  C   UNL A   1      33.778  24.922  23.651  1.00  0.00     0.105 C 
BRANCH   6   7
ATOM      7  C   UNL A   1      34.199  23.613  22.962  1.00  0.00     0.019 C 
ATOM      8  N   UNL A   1      33.714  21.731  24.346  1.00  0.00    -0.338 N 
ATOM      9  C   UNL A   1      32.502  22.039  23.614  1.00  0.00     0.120 C 
ATOM     10  C   UNL A   1      34.825  22.552  23.872  1.00  0.00     0.123 C 
ATOM     11  C   UNL A   1      32.969  22.864  22.421  1.00  0.00     0.027 C 
BRANCH   8  12
ATOM     12  C   UNL A   1      33.909  20.792  25.343  1.00  0.00     0.277 C 
ATOM     13  O   UNL A   1      34.747  20.978  26.231  1.00  0.00    -0.268 OA
BRANCH  12  14
ATOM     14  C   UNL A   1      33.115  19.478  25.320  1.00  0.00     0.362 C 
BRANCH  14  15
ATOM     15  N   UNL A   1      33.419  18.589  24.186  1.00  0.00    -0.335 N 
ATOM     16  H   UNL A   1      32.655  17.922  24.085  1.00  0.00     0.347 HD
ATOM     17  H   UNL A   1      33.526  19.179  23.361  1.00  0.00     0.347 HD
BRANCH  15  18
ATOM     18  C   UNL A   1      34.654  17.854  24.353  1.00  0.00     0.289 C 
BRANCH  18  19
ATOM     19  C   UNL A   1      34.416  16.438  24.765  1.00  0.00     0.025 C 
ATOM     20  C   UNL A   1      33.204  15.866  24.768  1.00  0.00     0.010 C 
ENDBRANCH  18  19
ENDBRANCH  15  18
ENDBRANCH  14  15
ENDBRANCH  12  14
ENDBRANCH   8  12
ENDBRANCH   6   7
ENDBRANCH   3   6
ENDBRANCH   1   2
BRANCH   1  21
ATOM     21  C   UNL A   1      32.119  27.331  25.413  1.00  0.00     0.023 C 
BRANCH  21  22
ATOM     22  C   UNL A   1      31.675  28.755  25.704  1.00  0.00     0.023 C 
BRANCH  22  23
ATOM     23  C   UNL A   1      32.799  29.775  25.680  1.00  0.00     0.116 C 
BRANCH  23  24
ATOM     24  N   UNL A   1      32.448  31.064  26.268  1.00  0.00    -0.352 N 
ATOM     25  C   UNL A   1      33.155  31.805  27.187  1.00  0.00     0.251 C 
ATOM     26  H   UNL A   1      31.595  31.454  25.968  1.00  0.00     0.163 HD
ATOM     27  O   UNL A   1      32.690  32.849  27.636  1.00  0.00    -0.269 OA
BRANCH  25  28
ATOM     28  C   UNL A   1      34.464  31.308  27.662  1.00  0.00     0.039 A 
ATOM     29  C   UNL A   1      35.482  32.225  27.933  1.00  0.00     0.014 A 
ATOM     30  C   UNL A   1      34.651  29.949  27.919  1.00  0.00     0.014 A 
ATOM     31  C   UNL A   1      36.654  31.786  28.552  1.00  0.00     0.010 A 
ATOM     32  C   UNL A   1      35.769  29.536  28.634  1.00  0.00     0.010 A 
ATOM     33  C   UNL A   1      36.786  30.446  28.955  1.00  0.00    -0.014 A 
BRANCH  33  34
ATOM     34  C   UNL A   1      37.963  29.976  29.732  1.00  0.00     0.031 A 
ATOM     35  C   UNL A   1      38.182  30.464  31.141  1.00  0.00     0.074 A 
ATOM     36  C   UNL A   1      38.896  29.209  29.131  1.00  0.00     0.049 A 
ATOM     37  N   UNL A   1      39.187  30.232  31.945  1.00  0.00    -0.248 NA
ATOM     38  C   UNL A   1      37.164  31.366  31.708  1.00  0.00     0.031 C 
ATOM     39  C   UNL A   1      38.866  28.771  27.732  1.00  0.00     0.029 A 
ATOM     40  N   UNL A   1      40.072  28.687  29.612  1.00  0.00    -0.354 N 
ATOM     41  C   UNL A   1      38.953  31.000  33.078  1.00  0.00     0.074 A 
ATOM     42  C   UNL A   1      37.727  31.731  32.850  1.00  0.00     0.031 C 
ATOM     43  C   UNL A   1      39.964  28.042  27.473  1.00  0.00     0.029 A 
ATOM     44  C   UNL A   1      40.788  27.977  28.675  1.00  0.00     0.049 A 
ATOM     45  H   UNL A   1      40.374  28.808  30.541  1.00  0.00     0.167 HD
ATOM     46  C   UNL A   1      39.672  31.064  34.223  1.00  0.00     0.034 A 
ATOM     47  C   UNL A   1      41.974  27.345  28.774  1.00  0.00     0.034 A 
ATOM     48  C   UNL A   1      40.832  30.260  34.486  1.00  0.00     0.049 A 
ATOM     49  C   UNL A   1      42.685  27.335  30.100  1.00  0.00     0.074 A 
ATOM     50  C   UNL A   1      41.542  30.137  35.667  1.00  0.00     0.029 A 
ATOM     51  N   UNL A   1      41.449  29.436  33.560  1.00  0.00    -0.354 N 
ATOM     52  N   UNL A   1      42.334  27.902  31.228  1.00  0.00    -0.248 NA
ATOM     53  C   UNL A   1      43.934  26.562  30.181  1.00  0.00     0.031 C 
ATOM     54  C   UNL A   1      42.596  29.245  35.451  1.00  0.00     0.029 A 
ATOM     55  C   UNL A   1      42.535  28.805  34.139  1.00  0.00     0.049 A 
ATOM     56  H   UNL A   1      41.158  29.318  32.627  1.00  0.00     0.167 HD
ATOM     57  C   UNL A   1      43.299  27.531  32.158  1.00  0.00     0.074 A 
ATOM     58  C   UNL A   1      44.232  26.664  31.469  1.00  0.00     0.031 C 
ATOM     59  C   UNL A   1      43.416  27.894  33.458  1.00  0.00     0.034 A 
BRANCH  46  60
ATOM     60  C   UNL A   1      39.181  31.971  35.319  1.00  0.00     0.023 A 
ATOM     61  C   UNL A   1      38.247  31.485  36.255  1.00  0.00     0.012 A 
ATOM     62  C   UNL A   1      39.708  33.268  35.475  1.00  0.00     0.148 A 
ATOM     63  C   UNL A   1      37.824  32.281  37.318  1.00  0.00     0.002 A 
ATOM     64  C   UNL A   1      39.314  34.042  36.561  1.00  0.00     0.091 A 
ATOM     65  F   UNL A   1      40.580  33.719  34.563  1.00  0.00    -0.205 F 
ATOM     66  C   UNL A   1      38.367  33.553  37.477  1.00  0.00     0.022 A 
BRANCH  64  67
ATOM     67  S   UNL A   1      40.006  35.664  36.903  1.00  0.00     0.127 S 
ATOM     68  O   UNL A   1      39.575  36.421  35.728  1.00  0.00    -0.237 OA
ATOM     69  O   UNL A   1      39.327  36.030  38.147  1.00  0.00    -0.237 OA
ATOM     70  O   UNL A   1      41.444  35.472  37.025  1.00  0.00    -0.744 OA
ENDBRANCH  64  67
ENDBRANCH  46  60
BRANCH  47  71
ATOM     71  C   UNL A   1      42.527  26.597  27.609  1.00  0.00     0.023 A 
ATOM     72  C   UNL A   1      43.383  27.262  26.708  1.00  0.00     0.012 A 
ATOM     73  C   UNL A   1      42.220  25.242  27.386  1.00  0.00     0.148 A 
ATOM     74  C   UNL A   1      43.890  26.604  25.587  1.00  0.00     0.002 A 
ATOM     75  C   UNL A   1      42.771  24.576  26.296  1.00  0.00     0.091 A 
ATOM     76  F   UNL A   1      41.391  24.627  28.241  1.00  0.00    -0.205 F 
ATOM     77  C   UNL A   1      43.592  25.259  25.385  1.00  0.00     0.022 A 
BRANCH  75  78
ATOM     78  S   UNL A   1      42.534  22.813  26.046  1.00  0.00     0.127 S 
ATOM     79  O   UNL A   1      41.084  22.685  26.157  1.00  0.00    -0.237 OA
ATOM     80  O   UNL A   1      43.068  22.615  24.698  1.00  0.00    -0.237 OA
ATOM     81  O   UNL A   1      43.318  22.174  27.095  1.00  0.00    -0.744 OA
ENDBRANCH  75  78
ENDBRANCH  47  71
BRANCH  59  82
ATOM     82  C   UNL A   1      44.576  27.338  34.237  1.00  0.00     0.023 A 
ATOM     83  C   UNL A   1      45.785  28.059  34.292  1.00  0.00     0.012 A 
ATOM     84  C   UNL A   1      44.446  26.146  34.977  1.00  0.00     0.148 A 
ATOM     85  C   UNL A   1      46.857  27.588  35.047  1.00  0.00     0.002 A 
ATOM     86  C   UNL A   1      45.503  25.707  35.765  1.00  0.00     0.091 A 
ATOM     87  F   UNL A   1      43.294  25.463  34.896  1.00  0.00    -0.205 F 
ATOM     88  C   UNL A   1      46.712  26.420  35.793  1.00  0.00     0.022 A 
BRANCH  86  89
ATOM     89  S   UNL A   1      45.364  24.267  36.830  1.00  0.00     0.127 S 
ATOM     90  O   UNL A   1      44.750  23.290  35.934  1.00  0.00    -0.237 OA
ATOM     91  O   UNL A   1      46.762  23.990  37.168  1.00  0.00    -0.237 OA
ATOM     92  O   UNL A   1      44.547  24.688  37.960  1.00  0.00    -0.744 OA
ENDBRANCH  86  89
ENDBRANCH  59  82
ENDBRANCH  33  34
ENDBRANCH  25  28
ENDBRANCH  23  24
ENDBRANCH  22  23
ENDBRANCH  21  22
ENDBRANCH   1  21
TORSDOF 20
ENDMDL
MODEL 2
REMARK VINA RESULT:     -10.7      2.564      3.542
REMARK SMILES C=CC[NH2+]CC(=O)N1CC[C@@H](CC(=O)NCCCCNC(=O)c2ccc(-c3c4nc(c(-c5cccc(S(=O)(=O)[O-])c5F)c5ccc([nH]5)c(-c5cccc(S(=O)(=O)[O-])c5F)c5nc(c(-c6cccc(S(=O)(=O)[O-])c6F)c6ccc3[nH]6)C=C5)C=C4)cc2)C1
REMARK SMILES IDX 16 1 15 2 13 3 14 4 12 6 11 7 8 8 9 9 86 10 10 11 6 12 7 13
REMARK SMILES IDX 5 14 4 15 3 18 2 19 1 20 17 21 18 22 19 23 20 24 21 25 22 27
REMARK SMILES IDX 23 28 24 29 85 30 25 31 84 32 26 33 27 34 28 35 78 36 29 37
REMARK SMILES IDX 83 38 77 39 79 40 30 41 82 42 76 43 75 44 31 46 63 47 43 48
REMARK SMILES IDX 62 49 44 50 47 51 61 52 80 53 45 54 46 55 60 57 81 58 48 59
REMARK SMILES IDX 32 60 33 61 41 62 34 63 36 64 42 65 35 66 37 67 38 68 39 69
REMARK SMILES IDX 40 70 64 71 65 72 73 73 66 74 68 75 74 76 67 77 69 78 70 79
REMARK SMILES IDX 71 80 72 81 49 82 50 83 58 84 51 85 53 86 59 87 52 88 54 89
REMARK SMILES IDX 55 90 56 91 57 92
REMARK H PARENT 15 5 4 16 4 17 20 26 79 45 47 56
REMARK Flexibility Score: inf
ROOT
ATOM      1  C   UNL A   1      33.084  28.894  23.384  1.00  0.00     0.116 C 
ENDROOT
BRANCH   1   2
ATOM      2  N   UNL A   1      31.990  29.257  22.498  1.00  0.00    -0.356 N 
ATOM      3  C   UNL A   1      30.669  28.925  22.572  1.00  0.00     0.220 C 
ATOM      4  O   UNL A   1      29.918  29.218  21.642  1.00  0.00    -0.275 OA
ATOM      5  H   UNL A   1      32.239  29.826  21.734  1.00  0.00     0.163 HD
BRANCH   3   6
ATOM      6  C   UNL A   1      30.139  28.216  23.802  1.00  0.00     0.105 C 
BRANCH   6   7
ATOM      7  C   UNL A   1      29.900  26.708  23.611  1.00  0.00     0.019 C 
ATOM      8  N   UNL A   1      31.891  25.469  24.050  1.00  0.00    -0.338 N 
ATOM      9  C   UNL A   1      31.238  25.683  25.325  1.00  0.00     0.120 C 
ATOM     10  C   UNL A   1      31.043  25.929  22.954  1.00  0.00     0.123 C 
ATOM     11  C   UNL A   1      29.790  25.999  24.972  1.00  0.00     0.027 C 
BRANCH   8  12
ATOM     12  C   UNL A   1      33.122  24.893  23.792  1.00  0.00     0.277 C 
ATOM     13  O   UNL A   1      34.089  25.587  23.466  1.00  0.00    -0.268 OA
BRANCH  12  14
ATOM     14  C   UNL A   1      33.278  23.367  23.860  1.00  0.00     0.362 C 
BRANCH  14  15
ATOM     15  N   UNL A   1      34.644  22.894  24.140  1.00  0.00    -0.335 N 
ATOM     16  H   UNL A   1      34.749  21.958  23.751  1.00  0.00     0.347 HD
ATOM     17  H   UNL A   1      35.288  23.562  23.714  1.00  0.00     0.347 HD
BRANCH  15  18
ATOM     18  C   UNL A   1      34.952  22.843  25.553  1.00  0.00     0.289 C 
BRANCH  18  19
ATOM     19  C   UNL A   1      36.069  23.763  25.921  1.00  0.00     0.025 C 
ATOM     20  C   UNL A   1      37.309  23.653  25.423  1.00  0.00     0.010 C 
ENDBRANCH  18  19
ENDBRANCH  15  18
ENDBRANCH  14  15
ENDBRANCH  12  14
ENDBRANCH   8  12
ENDBRANCH   6   7
ENDBRANCH   3   6
ENDBRANCH   1   2
BRANCH   1  21
ATOM     21  C   UNL A   1      32.814  29.365  24.807  1.00  0.00     0.023 C 
BRANCH  21  22
ATOM     22  C   UNL A   1      33.463  28.536  25.903  1.00  0.00     0.023 C 
BRANCH  22  23
ATOM     23  C   UNL A   1      33.176  29.030  27.310  1.00  0.00     0.116 C 
BRANCH  23  24
ATOM     24  N   UNL A   1      33.384  30.462  27.494  1.00  0.00    -0.352 N 
ATOM     25  C   UNL A   1      34.511  31.111  27.947  1.00  0.00     0.251 C 
ATOM     26  H   UNL A   1      32.620  31.040  27.265  1.00  0.00     0.163 HD
ATOM     27  O   UNL A   1      34.506  32.329  28.108  1.00  0.00    -0.269 OA
BRANCH  25  28
ATOM     28  C   UNL A   1      35.715  30.321  28.277  1.00  0.00     0.039 A 
ATOM     29  C   UNL A   1      36.821  30.378  27.427  1.00  0.00     0.014 A 
ATOM     30  C   UNL A   1      35.778  29.595  29.468  1.00  0.00     0.014 A 
ATOM     31  C   UNL A   1      38.022  29.784  27.821  1.00  0.00     0.010 A 
ATOM     32  C   UNL A   1      37.001  29.104  29.906  1.00  0.00     0.010 A 
ATOM     33  C   UNL A   1      38.137  29.187  29.088  1.00  0.00    -0.014 A 
BRANCH  33  34
ATOM     34  C   UNL A   1      39.434  28.663  29.590  1.00  0.00     0.031 A 
ATOM     35  C   UNL A   1      40.157  29.377  30.703  1.00  0.00     0.074 A 
ATOM     36  C   UNL A   1      40.020  27.621  28.966  1.00  0.00     0.049 A 
ATOM     37  N   UNL A   1      41.332  29.121  31.219  1.00  0.00    -0.248 NA
ATOM     38  C   UNL A   1      39.498  30.560  31.286  1.00  0.00     0.031 C 
ATOM     39  C   UNL A   1      39.485  26.920  27.795  1.00  0.00     0.029 A 
ATOM     40  N   UNL A   1      41.214  26.987  29.209  1.00  0.00    -0.354 N 
ATOM     41  C   UNL A   1      41.574  30.137  32.135  1.00  0.00     0.074 A 
ATOM     42  C   UNL A   1      40.441  31.033  32.087  1.00  0.00     0.031 C 
ATOM     43  C   UNL A   1      40.340  25.951  27.429  1.00  0.00     0.029 A 
ATOM     44  C   UNL A   1      41.494  25.972  28.321  1.00  0.00     0.049 A 
ATOM     45  H   UNL A   1      41.814  27.234  29.949  1.00  0.00     0.167 HD
ATOM     46  C   UNL A   1      42.627  30.291  32.972  1.00  0.00     0.034 A 
ATOM     47  C   UNL A   1      42.561  25.152  28.237  1.00  0.00     0.034 A 
ATOM     48  C   UNL A   1      43.701  29.345  33.090  1.00  0.00     0.049 A 
ATOM     49  C   UNL A   1      43.655  25.275  29.261  1.00  0.00     0.074 A 
ATOM     50  C   UNL A   1      44.735  29.330  34.009  1.00  0.00     0.029 A 
ATOM     51  N   UNL A   1      43.878  28.244  32.270  1.00  0.00    -0.354 N 
ATOM     52  N   UNL A   1      43.762  26.119  30.258  1.00  0.00    -0.248 NA
ATOM     53  C   UNL A   1      44.758  24.304  29.178  1.00  0.00     0.031 C 
ATOM     54  C   UNL A   1      45.542  28.222  33.739  1.00  0.00     0.029 A 
ATOM     55  C   UNL A   1      45.005  27.543  32.658  1.00  0.00     0.049 A 
ATOM     56  H   UNL A   1      43.287  27.996  31.521  1.00  0.00     0.167 HD
ATOM     57  C   UNL A   1      44.922  25.764  30.937  1.00  0.00     0.074 A 
ATOM     58  C   UNL A   1      45.467  24.608  30.257  1.00  0.00     0.031 C 
ATOM     59  C   UNL A   1      45.498  26.356  32.011  1.00  0.00     0.034 A 
BRANCH  46  60
ATOM     60  C   UNL A   1      42.634  31.483  33.891  1.00  0.00     0.023 A 
ATOM     61  C   UNL A   1      43.080  32.729  33.406  1.00  0.00     0.012 A 
ATOM     62  C   UNL A   1      42.119  31.391  35.198  1.00  0.00     0.148 A 
ATOM     63  C   UNL A   1      43.036  33.863  34.215  1.00  0.00     0.002 A 
ATOM     64  C   UNL A   1      42.039  32.534  35.986  1.00  0.00     0.091 A 
ATOM     65  F   UNL A   1      41.718  30.193  35.646  1.00  0.00    -0.205 F 
ATOM     66  C   UNL A   1      42.504  33.768  35.499  1.00  0.00     0.022 A 
BRANCH  64  67
ATOM     67  S   UNL A   1      41.303  32.539  37.624  1.00  0.00     0.127 S 
ATOM     68  O   UNL A   1      39.927  32.143  37.329  1.00  0.00    -0.237 OA
ATOM     69  O   UNL A   1      42.095  31.522  38.318  1.00  0.00    -0.237 OA
ATOM     70  O   UNL A   1      41.464  33.892  38.136  1.00  0.00    -0.744 OA
ENDBRANCH  64  67
ENDBRANCH  46  60
BRANCH  47  71
ATOM     71  C   UNL A   1      42.609  24.087  27.195  1.00  0.00     0.023 A 
ATOM     72  C   UNL A   1      43.283  24.340  25.983  1.00  0.00     0.012 A 
ATOM     73  C   UNL A   1      42.004  22.832  27.391  1.00  0.00     0.148 A 
ATOM     74  C   UNL A   1      43.317  23.380  24.971  1.00  0.00     0.002 A 
ATOM     75  C   UNL A   1      42.087  21.860  26.400  1.00  0.00     0.091 A 
ATOM     76  F   UNL A   1      41.351  22.612  28.541  1.00  0.00    -0.205 F 
ATOM     77  C   UNL A   1      42.727  22.137  25.182  1.00  0.00     0.022 A 
BRANCH  75  78
ATOM     78  S   UNL A   1      41.462  20.194  26.654  1.00  0.00     0.127 S 
ATOM     79  O   UNL A   1      40.034  20.433  26.841  1.00  0.00    -0.237 OA
ATOM     80  O   UNL A   1      41.816  19.533  25.397  1.00  0.00    -0.237 OA
ATOM     81  O   UNL A   1      42.187  19.693  27.814  1.00  0.00    -0.744 OA
ENDBRANCH  75  78
ENDBRANCH  47  71
BRANCH  59  82
ATOM     82  C   UNL A   1      46.770  25.754  32.542  1.00  0.00     0.023 A 
ATOM     83  C   UNL A   1      48.011  26.210  32.056  1.00  0.00     0.012 A 
ATOM     84  C   UNL A   1      46.740  24.796  33.575  1.00  0.00     0.148 A 
ATOM     85  C   UNL A   1      49.202  25.703  32.568  1.00  0.00     0.002 A 
ATOM     86  C   UNL A   1      47.934  24.329  34.113  1.00  0.00     0.091 A 
ATOM     87  F   UNL A   1      45.550  24.359  34.010  1.00  0.00    -0.205 F 
ATOM     88  C   UNL A   1      49.165  24.772  33.604  1.00  0.00     0.022 A 
BRANCH  86  89
ATOM     89  S   UNL A   1      47.971  23.204  35.513  1.00  0.00     0.127 S 
ATOM     90  O   UNL A   1      47.515  21.955  34.907  1.00  0.00    -0.237 OA
ATOM     91  O   UNL A   1      49.386  23.217  35.890  1.00  0.00    -0.237 OA
ATOM     92  O   UNL A   1      47.080  23.782  36.510  1.00  0.00    -0.744 OA
ENDBRANCH  86  89
ENDBRANCH  59  82
ENDBRANCH  33  34
ENDBRANCH  25  28
ENDBRANCH  23  24
ENDBRANCH  22  23
ENDBRANCH  21  22
ENDBRANCH   1  21
TORSDOF 20
ENDMDL
MODEL 3
REMARK VINA RESULT:     -10.7      5.194     10.729
REMARK SMILES C=CC[NH2+]CC(=O)N1CC[C@@H](CC(=O)NCCCCNC(=O)c2ccc(-c3c4nc(c(-c5cccc(S(=O)(=O)[O-])c5F)c5ccc([nH]5)c(-c5cccc(S(=O)(=O)[O-])c5F)c5nc(c(-c6cccc(S(=O)(=O)[O-])c6F)c6ccc3[nH]6)C=C5)C=C4)cc2)C1
REMARK SMILES IDX 16 1 15 2 13 3 14 4 12 6 11 7 8 8 9 9 86 10 10 11 6 12 7 13
REMARK SMILES IDX 5 14 4 15 3 18 2 19 1 20 17 21 18 22 19 23 20 24 21 25 22 27
REMARK SMILES IDX 23 28 24 29 85 30 25 31 84 32 26 33 27 34 28 35 78 36 29 37
REMARK SMILES IDX 83 38 77 39 79 40 30 41 82 42 76 43 75 44 31 46 63 47 43 48
REMARK SMILES IDX 62 49 44 50 47 51 61 52 80 53 45 54 46 55 60 57 81 58 48 59
REMARK SMILES IDX 32 60 33 61 41 62 34 63 36 64 42 65 35 66 37 67 38 68 39 69
REMARK SMILES IDX 40 70 64 71 65 72 73 73 66 74 68 75 74 76 67 77 69 78 70 79
REMARK SMILES IDX 71 80 72 81 49 82 50 83 58 84 51 85 53 86 59 87 52 88 54 89
REMARK SMILES IDX 55 90 56 91 57 92
REMARK H PARENT 15 5 4 16 4 17 20 26 79 45 47 56
REMARK Flexibility Score: inf
ROOT
ATOM      1  C   UNL A   1      34.117  23.137  26.772  1.00  0.00     0.116 C 
ENDROOT
BRANCH   1   2
ATOM      2  N   UNL A   1      33.277  22.377  25.861  1.00  0.00    -0.356 N 
ATOM      3  C   UNL A   1      32.501  22.817  24.829  1.00  0.00     0.220 C 
ATOM      4  O   UNL A   1      31.749  22.027  24.257  1.00  0.00    -0.275 OA
ATOM      5  H   UNL A   1      33.267  21.404  26.010  1.00  0.00     0.163 HD
BRANCH   3   6
ATOM      6  C   UNL A   1      32.585  24.264  24.386  1.00  0.00     0.105 C 
BRANCH   6   7
ATOM      7  C   UNL A   1      31.979  24.539  22.999  1.00  0.00     0.019 C 
ATOM      8  N   UNL A   1      31.184  26.783  22.849  1.00  0.00    -0.338 N 
ATOM      9  C   UNL A   1      32.598  26.815  22.533  1.00  0.00     0.120 C 
ATOM     10  C   UNL A   1      30.717  25.406  22.983  1.00  0.00     0.123 C 
ATOM     11  C   UNL A   1      32.941  25.382  22.144  1.00  0.00     0.027 C 
BRANCH   8  12
ATOM     12  C   UNL A   1      30.304  27.841  22.993  1.00  0.00     0.277 C 
ATOM     13  O   UNL A   1      29.096  27.642  23.148  1.00  0.00    -0.268 OA
BRANCH  12  14
ATOM     14  C   UNL A   1      30.825  29.283  22.906  1.00  0.00     0.362 C 
BRANCH  14  15
ATOM     15  N   UNL A   1      30.514  29.981  21.647  1.00  0.00    -0.335 N 
ATOM     16  H   UNL A   1      31.250  30.663  21.465  1.00  0.00     0.347 HD
ATOM     17  H   UNL A   1      30.457  29.272  20.916  1.00  0.00     0.347 HD
BRANCH  15  18
ATOM     18  C   UNL A   1      29.243  30.672  21.676  1.00  0.00     0.289 C 
BRANCH  18  19
ATOM     19  C   UNL A   1      28.864  31.097  23.057  1.00  0.00     0.025 C 
ATOM     20  C   UNL A   1      27.650  31.569  23.375  1.00  0.00     0.010 C 
ENDBRANCH  18  19
ENDBRANCH  15  18
ENDBRANCH  14  15
ENDBRANCH  12  14
ENDBRANCH   8  12
ENDBRANCH   6   7
ENDBRANCH   3   6
ENDBRANCH   1   2
BRANCH   1  21
ATOM     21  C   UNL A   1      35.579  23.065  26.354  1.00  0.00     0.023 C 
BRANCH  21  22
ATOM     22  C   UNL A   1      35.973  21.828  25.564  1.00  0.00     0.023 C 
BRANCH  22  23
ATOM     23  C   UNL A   1      37.341  21.914  24.911  1.00  0.00     0.116 C 
BRANCH  23  24
ATOM     24  N   UNL A   1      38.270  20.871  25.332  1.00  0.00    -0.352 N 
ATOM     25  C   UNL A   1      39.398  20.994  26.111  1.00  0.00     0.251 C 
ATOM     26  H   UNL A   1      38.063  19.960  25.018  1.00  0.00     0.163 HD
ATOM     27  O   UNL A   1      40.117  20.021  26.324  1.00  0.00    -0.269 OA
BRANCH  25  28
ATOM     28  C   UNL A   1      39.760  22.320  26.652  1.00  0.00     0.039 A 
ATOM     29  C   UNL A   1      40.756  22.409  27.627  1.00  0.00     0.014 A 
ATOM     30  C   UNL A   1      39.175  23.478  26.135  1.00  0.00     0.014 A 
ATOM     31  C   UNL A   1      41.230  23.664  28.012  1.00  0.00     0.010 A 
ATOM     32  C   UNL A   1      39.726  24.716  26.437  1.00  0.00     0.010 A 
ATOM     33  C   UNL A   1      40.756  24.827  27.381  1.00  0.00    -0.014 A 
BRANCH  33  34
ATOM     34  C   UNL A   1      41.333  26.166  27.673  1.00  0.00     0.031 A 
ATOM     35  C   UNL A   1      42.731  26.501  27.219  1.00  0.00     0.074 A 
ATOM     36  C   UNL A   1      40.650  27.032  28.449  1.00  0.00     0.049 A 
ATOM     37  N   UNL A   1      43.434  27.580  27.448  1.00  0.00    -0.248 NA
ATOM     38  C   UNL A   1      43.453  25.475  26.445  1.00  0.00     0.031 C 
ATOM     39  C   UNL A   1      39.341  26.780  29.058  1.00  0.00     0.029 A 
ATOM     40  N   UNL A   1      40.978  28.292  28.887  1.00  0.00    -0.354 N 
ATOM     41  C   UNL A   1      44.688  27.339  26.902  1.00  0.00     0.074 A 
ATOM     42  C   UNL A   1      44.665  26.001  26.356  1.00  0.00     0.031 C 
ATOM     43  C   UNL A   1      38.974  27.852  29.780  1.00  0.00     0.029 A 
ATOM     44  C   UNL A   1      40.027  28.859  29.707  1.00  0.00     0.049 A 
ATOM     45  H   UNL A   1      41.814  28.748  28.638  1.00  0.00     0.167 HD
ATOM     46  C   UNL A   1      45.754  28.171  26.826  1.00  0.00     0.034 A 
ATOM     47  C   UNL A   1      40.008  30.054  30.328  1.00  0.00     0.034 A 
ATOM     48  C   UNL A   1      45.740  29.534  27.278  1.00  0.00     0.049 A 
ATOM     49  C   UNL A   1      41.158  31.002  30.120  1.00  0.00     0.074 A 
ATOM     50  C   UNL A   1      46.713  30.504  27.112  1.00  0.00     0.029 A 
ATOM     51  N   UNL A   1      44.701  30.124  27.978  1.00  0.00    -0.354 N 
ATOM     52  N   UNL A   1      42.252  30.830  29.420  1.00  0.00    -0.248 NA
ATOM     53  C   UNL A   1      41.053  32.327  30.751  1.00  0.00     0.031 C 
ATOM     54  C   UNL A   1      46.264  31.679  27.719  1.00  0.00     0.029 A 
ATOM     55  C   UNL A   1      45.008  31.443  28.255  1.00  0.00     0.049 A 
ATOM     56  H   UNL A   1      43.866  29.671  28.239  1.00  0.00     0.167 HD
ATOM     57  C   UNL A   1      42.950  32.030  29.500  1.00  0.00     0.074 A 
ATOM     58  C   UNL A   1      42.140  32.932  30.291  1.00  0.00     0.031 C 
ATOM     59  C   UNL A   1      44.162  32.348  28.987  1.00  0.00     0.034 A 
BRANCH  46  60
ATOM     60  C   UNL A   1      47.002  27.664  26.156  1.00  0.00     0.023 A 
ATOM     61  C   UNL A   1      47.915  26.881  26.891  1.00  0.00     0.012 A 
ATOM     62  C   UNL A   1      47.228  27.885  24.783  1.00  0.00     0.148 A 
ATOM     63  C   UNL A   1      49.045  26.344  26.279  1.00  0.00     0.002 A 
ATOM     64  C   UNL A   1      48.336  27.312  24.169  1.00  0.00     0.091 A 
ATOM     65  F   UNL A   1      46.358  28.649  24.107  1.00  0.00    -0.205 F 
ATOM     66  C   UNL A   1      49.248  26.549  24.917  1.00  0.00     0.022 A 
BRANCH  64  67
ATOM     67  S   UNL A   1      48.652  27.450  22.407  1.00  0.00     0.127 S 
ATOM     68  O   UNL A   1      49.956  28.111  22.392  1.00  0.00    -0.237 OA
ATOM     69  O   UNL A   1      48.675  26.048  21.989  1.00  0.00    -0.237 OA
ATOM     70  O   UNL A   1      47.553  28.232  21.859  1.00  0.00    -0.744 OA
ENDBRANCH  64  67
ENDBRANCH  46  60
BRANCH  47  71
ATOM     71  C   UNL A   1      38.825  30.461  31.140  1.00  0.00     0.023 A 
ATOM     72  C   UNL A   1      38.784  30.132  32.509  1.00  0.00     0.012 A 
ATOM     73  C   UNL A   1      37.749  31.169  30.574  1.00  0.00     0.148 A 
ATOM     74  C   UNL A   1      37.676  30.464  33.291  1.00  0.00     0.002 A 
ATOM     75  C   UNL A   1      36.671  31.544  31.370  1.00  0.00     0.091 A 
ATOM     76  F   UNL A   1      37.792  31.460  29.266  1.00  0.00    -0.205 F 
ATOM     77  C   UNL A   1      36.624  31.177  32.724  1.00  0.00     0.022 A 
BRANCH  75  78
ATOM     78  S   UNL A   1      35.341  32.575  30.738  1.00  0.00     0.127 S 
ATOM     79  O   UNL A   1      36.041  33.822  30.444  1.00  0.00    -0.237 OA
ATOM     80  O   UNL A   1      34.898  31.826  29.562  1.00  0.00    -0.237 OA
ATOM     81  O   UNL A   1      34.361  32.626  31.815  1.00  0.00    -0.744 OA
ENDBRANCH  75  78
ENDBRANCH  47  71
BRANCH  59  82
ATOM     82  C   UNL A   1      44.683  33.737  29.236  1.00  0.00     0.023 A 
ATOM     83  C   UNL A   1      45.390  34.012  30.423  1.00  0.00     0.012 A 
ATOM     84  C   UNL A   1      44.543  34.747  28.263  1.00  0.00     0.148 A 
ATOM     85  C   UNL A   1      45.924  35.278  30.652  1.00  0.00     0.002 A 
ATOM     86  C   UNL A   1      45.119  35.993  28.479  1.00  0.00     0.091 A 
ATOM     87  F   UNL A   1      43.850  34.472  27.148  1.00  0.00    -0.205 F 
ATOM     88  C   UNL A   1      45.800  36.264  29.676  1.00  0.00     0.022 A 
BRANCH  86  89
ATOM     89  S   UNL A   1      45.088  37.286  27.231  1.00  0.00     0.127 S 
ATOM     90  O   UNL A   1      45.713  38.401  27.939  1.00  0.00    -0.237 OA
ATOM     91  O   UNL A   1      45.904  36.709  26.161  1.00  0.00    -0.237 OA
ATOM     92  O   UNL A   1      43.685  37.467  26.883  1.00  0.00    -0.744 OA
ENDBRANCH  86  89
ENDBRANCH  59  82
ENDBRANCH  33  34
ENDBRANCH  25  28
ENDBRANCH  23  24
ENDBRANCH  22  23
ENDBRANCH  21  22
ENDBRANCH   1  21
TORSDOF 20
ENDMDL
