MODEL 1
REMARK VINA RESULT:     -11.4      0.000      0.000
REMARK SMILES CC[C@H]1CCCC[C@@H]1C1(C(=O)NCCCCNC(=O)c2ccc(-c3c4nc(c(-c5cccc(S(=O)(=O)[O-])c5F)c5ccc([nH]5)c(-c5cccc(S(=O)(=O)[O-])c5F)c5nc(c(-c6cccc(S(=O)(=O)[O-])c6F)c6ccc3[nH]6)C=C5)C=C4)cc2)CC1
REMARK SMILES IDX 15 1 14 2 13 3 12 4 10 5 11 6 9 8 83 9 84 10 8 11 3 12 4 13
REMARK SMILES IDX 5 14 7 15 6 16 2 17 1 18 16 19 17 20 18 21 19 23 20 24 21 25
REMARK SMILES IDX 82 26 22 27 81 28 23 29 24 30 25 31 75 32 26 33 80 34 74 35
REMARK SMILES IDX 76 36 27 37 79 38 73 39 72 40 28 42 60 43 40 44 59 45 41 46
REMARK SMILES IDX 44 47 58 48 77 49 42 50 43 51 57 53 78 54 45 55 29 56 30 57
REMARK SMILES IDX 38 58 31 59 33 60 39 61 32 62 34 63 35 64 36 65 37 66 61 67
REMARK SMILES IDX 62 68 70 69 63 70 65 71 71 72 64 73 66 74 67 75 68 76 69 77
REMARK SMILES IDX 46 78 47 79 55 80 48 81 50 82 56 83 49 84 51 85 52 86 53 87
REMARK SMILES IDX 54 88
REMARK H PARENT 12 7 17 22 76 41 44 52
REMARK Flexibility Score: inf
ROOT
ATOM      1  C   UNL A   1      31.524  29.419  25.085  1.00  0.00     0.023 C 
ENDROOT
BRANCH   1   2
ATOM      2  C   UNL A   1      31.892  28.844  23.712  1.00  0.00     0.023 C 
BRANCH   2   3
ATOM      3  C   UNL A   1      33.355  28.440  23.548  1.00  0.00     0.116 C 
BRANCH   3   4
ATOM      4  N   UNL A   1      33.569  27.530  22.449  1.00  0.00    -0.356 N 
ATOM      5  C   UNL A   1      33.426  26.186  22.272  1.00  0.00     0.226 C 
ATOM      6  O   UNL A   1      33.441  25.801  21.103  1.00  0.00    -0.274 OA
ATOM      7  H   UNL A   1      33.894  27.985  21.639  1.00  0.00     0.163 HD
BRANCH   5   8
ATOM      8  C   UNL A   1      33.241  25.151  23.383  1.00  0.00     0.052 C 
ATOM      9  C   UNL A   1      34.405  25.111  24.383  1.00  0.00     0.018 C 
ATOM     10  C   UNL A   1      34.102  23.909  23.549  1.00  0.00     0.018 C 
BRANCH   8  11
ATOM     11  C   UNL A   1      31.746  25.051  23.859  1.00  0.00     0.008 C 
ATOM     12  C   UNL A   1      31.359  25.576  25.266  1.00  0.00    -0.007 C 
ATOM     13  C   UNL A   1      31.604  24.543  26.384  1.00  0.00     0.004 C 
ATOM     14  C   UNL A   1      31.069  23.148  26.062  1.00  0.00     0.000 C 
ATOM     15  C   UNL A   1      31.176  23.649  23.586  1.00  0.00     0.005 C 
ATOM     16  C   UNL A   1      31.488  22.643  24.687  1.00  0.00     0.000 C 
BRANCH  12  17
ATOM     17  C   UNL A   1      29.868  26.027  25.350  1.00  0.00     0.000 C 
ATOM     18  C   UNL A   1      29.209  26.366  24.019  1.00  0.00     0.004 C 
ENDBRANCH  12  17
ENDBRANCH   8  11
ENDBRANCH   5   8
ENDBRANCH   3   4
ENDBRANCH   2   3
ENDBRANCH   1   2
BRANCH   1  19
ATOM     19  C   UNL A   1      32.677  29.986  25.907  1.00  0.00     0.116 C 
BRANCH  19  20
ATOM     20  N   UNL A   1      32.439  31.341  26.379  1.00  0.00    -0.352 N 
ATOM     21  C   UNL A   1      33.189  32.093  27.250  1.00  0.00     0.251 C 
ATOM     22  H   UNL A   1      31.631  31.779  26.026  1.00  0.00     0.163 HD
ATOM     23  O   UNL A   1      32.797  33.200  27.603  1.00  0.00    -0.269 OA
BRANCH  21  24
ATOM     24  C   UNL A   1      34.447  31.538  27.791  1.00  0.00     0.039 A 
ATOM     25  C   UNL A   1      35.535  32.397  27.962  1.00  0.00     0.014 A 
ATOM     26  C   UNL A   1      34.538  30.195  28.166  1.00  0.00     0.014 A 
ATOM     27  C   UNL A   1      36.698  31.922  28.571  1.00  0.00     0.010 A 
ATOM     28  C   UNL A   1      35.672  29.743  28.837  1.00  0.00     0.010 A 
ATOM     29  C   UNL A   1      36.762  30.601  29.047  1.00  0.00    -0.014 A 
BRANCH  29  30
ATOM     30  C   UNL A   1      37.955  30.114  29.785  1.00  0.00     0.031 A 
ATOM     31  C   UNL A   1      38.227  30.587  31.187  1.00  0.00     0.074 A 
ATOM     32  C   UNL A   1      38.835  29.303  29.164  1.00  0.00     0.049 A 
ATOM     33  N   UNL A   1      39.226  30.289  31.977  1.00  0.00    -0.248 NA
ATOM     34  C   UNL A   1      37.265  31.535  31.772  1.00  0.00     0.031 C 
ATOM     35  C   UNL A   1      38.726  28.842  27.777  1.00  0.00     0.029 A 
ATOM     36  N   UNL A   1      40.006  28.741  29.607  1.00  0.00    -0.354 N 
ATOM     37  C   UNL A   1      39.033  31.035  33.132  1.00  0.00     0.074 A 
ATOM     38  C   UNL A   1      37.840  31.827  32.929  1.00  0.00     0.031 C 
ATOM     39  C   UNL A   1      39.781  28.065  27.488  1.00  0.00     0.029 A 
ATOM     40  C   UNL A   1      40.656  27.992  28.654  1.00  0.00     0.049 A 
ATOM     41  H   UNL A   1      40.349  28.862  30.523  1.00  0.00     0.167 HD
ATOM     42  C   UNL A   1      39.765  31.040  34.271  1.00  0.00     0.034 A 
ATOM     43  C   UNL A   1      41.827  27.328  28.709  1.00  0.00     0.034 A 
ATOM     44  C   UNL A   1      40.928  30.221  34.482  1.00  0.00     0.049 A 
ATOM     45  C   UNL A   1      42.603  27.322  29.999  1.00  0.00     0.074 A 
ATOM     46  C   UNL A   1      41.683  30.081  35.634  1.00  0.00     0.029 A 
ATOM     47  N   UNL A   1      41.514  29.414  33.520  1.00  0.00    -0.354 N 
ATOM     48  N   UNL A   1      42.310  27.898  31.139  1.00  0.00    -0.248 NA
ATOM     49  C   UNL A   1      43.851  26.545  30.022  1.00  0.00     0.031 C 
ATOM     50  C   UNL A   1      42.743  29.212  35.358  1.00  0.00     0.029 A 
ATOM     51  C   UNL A   1      42.630  28.785  34.045  1.00  0.00     0.049 A 
ATOM     52  H   UNL A   1      41.185  29.305  32.599  1.00  0.00     0.167 HD
ATOM     53  C   UNL A   1      43.317  27.526  32.024  1.00  0.00     0.074 A 
ATOM     54  C   UNL A   1      44.216  26.658  31.292  1.00  0.00     0.031 C 
ATOM     55  C   UNL A   1      43.486  27.882  33.321  1.00  0.00     0.034 A 
BRANCH  42  56
ATOM     56  C   UNL A   1      39.300  31.921  35.401  1.00  0.00     0.023 A 
ATOM     57  C   UNL A   1      38.408  31.405  36.365  1.00  0.00     0.012 A 
ATOM     58  C   UNL A   1      39.788  33.234  35.547  1.00  0.00     0.148 A 
ATOM     59  C   UNL A   1      37.981  32.191  37.433  1.00  0.00     0.002 A 
ATOM     60  C   UNL A   1      39.395  33.997  36.641  1.00  0.00     0.091 A 
ATOM     61  F   UNL A   1      40.620  33.715  34.612  1.00  0.00    -0.205 F 
ATOM     62  C   UNL A   1      38.483  33.482  37.577  1.00  0.00     0.022 A 
BRANCH  60  63
ATOM     63  S   UNL A   1      40.046  35.640  36.961  1.00  0.00     0.127 S 
ATOM     64  O   UNL A   1      39.556  36.382  35.801  1.00  0.00    -0.237 OA
ATOM     65  O   UNL A   1      39.395  35.987  38.225  1.00  0.00    -0.237 OA
ATOM     66  O   UNL A   1      41.492  35.492  37.042  1.00  0.00    -0.744 OA
ENDBRANCH  60  63
ENDBRANCH  42  56
BRANCH  43  67
ATOM     67  C   UNL A   1      42.306  26.561  27.523  1.00  0.00     0.023 A 
ATOM     68  C   UNL A   1      43.061  27.219  26.533  1.00  0.00     0.012 A 
ATOM     69  C   UNL A   1      42.041  25.185  27.384  1.00  0.00     0.148 A 
ATOM     70  C   UNL A   1      43.516  26.528  25.409  1.00  0.00     0.002 A 
ATOM     71  C   UNL A   1      42.545  24.491  26.291  1.00  0.00     0.091 A 
ATOM     72  F   UNL A   1      41.312  24.580  28.331  1.00  0.00    -0.205 F 
ATOM     73  C   UNL A   1      43.267  25.164  25.293  1.00  0.00     0.022 A 
BRANCH  71  74
ATOM     74  S   UNL A   1      42.387  22.709  26.125  1.00  0.00     0.127 S 
ATOM     75  O   UNL A   1      43.004  22.474  24.822  1.00  0.00    -0.237 OA
ATOM     76  O   UNL A   1      43.163  22.229  27.269  1.00  0.00    -0.237 OA
ATOM     77  O   UNL A   1      40.960  22.431  26.211  1.00  0.00    -0.744 OA
ENDBRANCH  71  74
ENDBRANCH  43  67
BRANCH  55  78
ATOM     78  C   UNL A   1      44.670  27.310  34.057  1.00  0.00     0.023 A 
ATOM     79  C   UNL A   1      45.889  28.016  34.083  1.00  0.00     0.012 A 
ATOM     80  C   UNL A   1      44.544  26.118  34.798  1.00  0.00     0.148 A 
ATOM     81  C   UNL A   1      46.973  27.531  34.812  1.00  0.00     0.002 A 
ATOM     82  C   UNL A   1      45.612  25.667  35.564  1.00  0.00     0.091 A 
ATOM     83  F   UNL A   1      43.381  25.454  34.747  1.00  0.00    -0.205 F 
ATOM     84  C   UNL A   1      46.831  26.365  35.562  1.00  0.00     0.022 A 
BRANCH  82  85
ATOM     85  S   UNL A   1      45.493  24.232  36.638  1.00  0.00     0.127 S 
ATOM     86  O   UNL A   1      46.852  24.143  37.169  1.00  0.00    -0.237 OA
ATOM     87  O   UNL A   1      44.486  24.657  37.610  1.00  0.00    -0.237 OA
ATOM     88  O   UNL A   1      45.084  23.123  35.786  1.00  0.00    -0.744 OA
ENDBRANCH  82  85
ENDBRANCH  55  78
ENDBRANCH  29  30
ENDBRANCH  21  24
ENDBRANCH  19  20
ENDBRANCH   1  19
TORSDOF 16
ENDMDL
MODEL 2
REMARK VINA RESULT:     -11.3      5.051     10.237
REMARK SMILES CC[C@H]1CCCC[C@@H]1C1(C(=O)NCCCCNC(=O)c2ccc(-c3c4nc(c(-c5cccc(S(=O)(=O)[O-])c5F)c5ccc([nH]5)c(-c5cccc(S(=O)(=O)[O-])c5F)c5nc(c(-c6cccc(S(=O)(=O)[O-])c6F)c6ccc3[nH]6)C=C5)C=C4)cc2)CC1
REMARK SMILES IDX 15 1 14 2 13 3 12 4 10 5 11 6 9 8 83 9 84 10 8 11 3 12 4 13
REMARK SMILES IDX 5 14 7 15 6 16 2 17 1 18 16 19 17 20 18 21 19 23 20 24 21 25
REMARK SMILES IDX 82 26 22 27 81 28 23 29 24 30 25 31 75 32 26 33 80 34 74 35
REMARK SMILES IDX 76 36 27 37 79 38 73 39 72 40 28 42 60 43 40 44 59 45 41 46
REMARK SMILES IDX 44 47 58 48 77 49 42 50 43 51 57 53 78 54 45 55 29 56 30 57
REMARK SMILES IDX 38 58 31 59 33 60 39 61 32 62 34 63 35 64 36 65 37 66 61 67
REMARK SMILES IDX 62 68 70 69 63 70 65 71 71 72 64 73 66 74 67 75 68 76 69 77
REMARK SMILES IDX 46 78 47 79 55 80 48 81 50 82 56 83 49 84 51 85 52 86 53 87
REMARK SMILES IDX 54 88
REMARK H PARENT 12 7 17 22 76 41 44 52
REMARK Flexibility Score: inf
ROOT
ATOM      1  C   UNL A   1      35.835  20.898  25.134  1.00  0.00     0.023 C 
ENDROOT
BRANCH   1   2
ATOM      2  C   UNL A   1      34.937  21.568  26.179  1.00  0.00     0.023 C 
BRANCH   2   3
ATOM      3  C   UNL A   1      33.536  20.975  26.307  1.00  0.00     0.116 C 
BRANCH   3   4
ATOM      4  N   UNL A   1      32.633  21.817  27.055  1.00  0.00    -0.356 N 
ATOM      5  C   UNL A   1      31.948  22.966  26.790  1.00  0.00     0.226 C 
ATOM      6  O   UNL A   1      31.052  23.244  27.586  1.00  0.00    -0.274 OA
ATOM      7  H   UNL A   1      32.474  21.485  27.968  1.00  0.00     0.163 HD
BRANCH   5   8
ATOM      8  C   UNL A   1      32.195  23.903  25.607  1.00  0.00     0.052 C 
ATOM      9  C   UNL A   1      33.492  24.715  25.727  1.00  0.00     0.018 C 
ATOM     10  C   UNL A   1      32.175  25.420  25.696  1.00  0.00     0.018 C 
BRANCH   8  11
ATOM     11  C   UNL A   1      31.752  23.263  24.240  1.00  0.00     0.008 C 
ATOM     12  C   UNL A   1      32.808  22.550  23.356  1.00  0.00    -0.007 C 
ATOM     13  C   UNL A   1      33.591  23.521  22.450  1.00  0.00     0.004 C 
ATOM     14  C   UNL A   1      32.704  24.513  21.697  1.00  0.00     0.000 C 
ATOM     15  C   UNL A   1      30.884  24.242  23.432  1.00  0.00     0.005 C 
ATOM     16  C   UNL A   1      31.697  25.222  22.594  1.00  0.00     0.000 C 
BRANCH  12  17
ATOM     17  C   UNL A   1      32.185  21.446  22.447  1.00  0.00     0.000 C 
ATOM     18  C   UNL A   1      32.199  20.035  23.023  1.00  0.00     0.004 C 
ENDBRANCH  12  17
ENDBRANCH   8  11
ENDBRANCH   5   8
ENDBRANCH   3   4
ENDBRANCH   2   3
ENDBRANCH   1   2
BRANCH   1  19
ATOM     19  C   UNL A   1      37.278  21.389  25.074  1.00  0.00     0.116 C 
BRANCH  19  20
ATOM     20  N   UNL A   1      38.251  20.374  25.445  1.00  0.00    -0.352 N 
ATOM     21  C   UNL A   1      39.451  20.528  26.096  1.00  0.00     0.251 C 
ATOM     22  H   UNL A   1      38.018  19.450  25.196  1.00  0.00     0.163 HD
ATOM     23  O   UNL A   1      40.190  19.563  26.261  1.00  0.00    -0.269 OA
BRANCH  21  24
ATOM     24  C   UNL A   1      39.861  21.871  26.554  1.00  0.00     0.039 A 
ATOM     25  C   UNL A   1      40.865  21.968  27.519  1.00  0.00     0.014 A 
ATOM     26  C   UNL A   1      39.291  23.023  26.006  1.00  0.00     0.014 A 
ATOM     27  C   UNL A   1      41.346  23.226  27.889  1.00  0.00     0.010 A 
ATOM     28  C   UNL A   1      39.821  24.272  26.323  1.00  0.00     0.010 A 
ATOM     29  C   UNL A   1      40.853  24.386  27.267  1.00  0.00    -0.014 A 
BRANCH  29  30
ATOM     30  C   UNL A   1      41.425  25.720  27.579  1.00  0.00     0.031 A 
ATOM     31  C   UNL A   1      42.834  26.057  27.173  1.00  0.00     0.074 A 
ATOM     32  C   UNL A   1      40.700  26.602  28.296  1.00  0.00     0.049 A 
ATOM     33  N   UNL A   1      43.508  27.159  27.378  1.00  0.00    -0.248 NA
ATOM     34  C   UNL A   1      43.593  25.014  26.463  1.00  0.00     0.031 C 
ATOM     35  C   UNL A   1      39.354  26.361  28.821  1.00  0.00     0.029 A 
ATOM     36  N   UNL A   1      41.001  27.869  28.729  1.00  0.00    -0.354 N 
ATOM     37  C   UNL A   1      44.776  26.931  26.857  1.00  0.00     0.074 A 
ATOM     38  C   UNL A   1      44.789  25.574  26.356  1.00  0.00     0.031 C 
ATOM     39  C   UNL A   1      38.945  27.445  29.497  1.00  0.00     0.029 A 
ATOM     40  C   UNL A   1      40.005  28.448  29.480  1.00  0.00     0.049 A 
ATOM     41  H   UNL A   1      41.851  28.323  28.521  1.00  0.00     0.167 HD
ATOM     42  C   UNL A   1      45.825  27.783  26.775  1.00  0.00     0.034 A 
ATOM     43  C   UNL A   1      39.953  29.648  30.093  1.00  0.00     0.034 A 
ATOM     44  C   UNL A   1      45.794  29.143  27.240  1.00  0.00     0.049 A 
ATOM     45  C   UNL A   1      41.120  30.588  29.957  1.00  0.00     0.074 A 
ATOM     46  C   UNL A   1      46.770  30.116  27.116  1.00  0.00     0.029 A 
ATOM     47  N   UNL A   1      44.738  29.721  27.927  1.00  0.00    -0.354 N 
ATOM     48  N   UNL A   1      42.246  30.416  29.308  1.00  0.00    -0.248 NA
ATOM     49  C   UNL A   1      40.996  31.902  30.605  1.00  0.00     0.031 C 
ATOM     50  C   UNL A   1      46.316  31.273  27.756  1.00  0.00     0.029 A 
ATOM     51  C   UNL A   1      45.044  31.032  28.249  1.00  0.00     0.049 A 
ATOM     52  H   UNL A   1      43.895  29.266  28.153  1.00  0.00     0.167 HD
ATOM     53  C   UNL A   1      42.948  31.609  29.439  1.00  0.00     0.074 A 
ATOM     54  C   UNL A   1      42.111  32.503  30.213  1.00  0.00     0.031 C 
ATOM     55  C   UNL A   1      44.180  31.929  28.973  1.00  0.00     0.034 A 
BRANCH  42  56
ATOM     56  C   UNL A   1      47.083  27.286  26.111  1.00  0.00     0.023 A 
ATOM     57  C   UNL A   1      47.302  27.557  24.744  1.00  0.00     0.012 A 
ATOM     58  C   UNL A   1      48.073  26.608  26.847  1.00  0.00     0.148 A 
ATOM     59  C   UNL A   1      48.469  27.129  24.113  1.00  0.00     0.002 A 
ATOM     60  C   UNL A   1      49.255  26.226  26.223  1.00  0.00     0.091 A 
ATOM     61  F   UNL A   1      47.840  26.341  28.141  1.00  0.00    -0.205 F 
ATOM     62  C   UNL A   1      49.449  26.474  24.854  1.00  0.00     0.022 A 
BRANCH  60  63
ATOM     63  S   UNL A   1      50.612  25.449  27.106  1.00  0.00     0.127 S 
ATOM     64  O   UNL A   1      51.570  25.212  26.026  1.00  0.00    -0.237 OA
ATOM     65  O   UNL A   1      51.006  26.498  28.048  1.00  0.00    -0.237 OA
ATOM     66  O   UNL A   1      50.059  24.253  27.723  1.00  0.00    -0.744 OA
ENDBRANCH  60  63
ENDBRANCH  42  56
BRANCH  43  67
ATOM     67  C   UNL A   1      38.726  30.051  30.838  1.00  0.00     0.023 A 
ATOM     68  C   UNL A   1      38.585  29.682  32.191  1.00  0.00     0.012 A 
ATOM     69  C   UNL A   1      37.715  30.817  30.227  1.00  0.00     0.148 A 
ATOM     70  C   UNL A   1      37.445  30.041  32.910  1.00  0.00     0.002 A 
ATOM     71  C   UNL A   1      36.608  31.218  30.965  1.00  0.00     0.091 A 
ATOM     72  F   UNL A   1      37.862  31.148  28.937  1.00  0.00    -0.205 F 
ATOM     73  C   UNL A   1      36.462  30.816  32.302  1.00  0.00     0.022 A 
BRANCH  71  74
ATOM     74  S   UNL A   1      35.359  32.326  30.304  1.00  0.00     0.127 S 
ATOM     75  O   UNL A   1      34.424  32.425  31.422  1.00  0.00    -0.237 OA
ATOM     76  O   UNL A   1      36.137  33.538  30.043  1.00  0.00    -0.237 OA
ATOM     77  O   UNL A   1      34.848  31.673  29.106  1.00  0.00    -0.744 OA
ENDBRANCH  71  74
ENDBRANCH  43  67
BRANCH  55  78
ATOM     78  C   UNL A   1      44.697  33.317  29.249  1.00  0.00     0.023 A 
ATOM     79  C   UNL A   1      45.387  33.583  30.449  1.00  0.00     0.012 A 
ATOM     80  C   UNL A   1      44.578  34.331  28.279  1.00  0.00     0.148 A 
ATOM     81  C   UNL A   1      45.926  34.846  30.690  1.00  0.00     0.002 A 
ATOM     82  C   UNL A   1      45.161  35.572  28.503  1.00  0.00     0.091 A 
ATOM     83  F   UNL A   1      43.904  34.060  27.151  1.00  0.00    -0.205 F 
ATOM     84  C   UNL A   1      45.825  35.835  29.713  1.00  0.00     0.022 A 
BRANCH  82  85
ATOM     85  S   UNL A   1      45.170  36.874  27.266  1.00  0.00     0.127 S 
ATOM     86  O   UNL A   1      45.939  36.256  26.188  1.00  0.00    -0.237 OA
ATOM     87  O   UNL A   1      43.744  37.039  26.982  1.00  0.00    -0.237 OA
ATOM     88  O   UNL A   1      45.799  38.026  27.898  1.00  0.00    -0.744 OA
ENDBRANCH  82  85
ENDBRANCH  55  78
ENDBRANCH  29  30
ENDBRANCH  21  24
ENDBRANCH  19  20
ENDBRANCH   1  19
TORSDOF 16
ENDMDL
MODEL 3
REMARK VINA RESULT:     -11.3      1.271      2.051
REMARK SMILES CC[C@H]1CCCC[C@@H]1C1(C(=O)NCCCCNC(=O)c2ccc(-c3c4nc(c(-c5cccc(S(=O)(=O)[O-])c5F)c5ccc([nH]5)c(-c5cccc(S(=O)(=O)[O-])c5F)c5nc(c(-c6cccc(S(=O)(=O)[O-])c6F)c6ccc3[nH]6)C=C5)C=C4)cc2)CC1
REMARK SMILES IDX 15 1 14 2 13 3 12 4 10 5 11 6 9 8 83 9 84 10 8 11 3 12 4 13
REMARK SMILES IDX 5 14 7 15 6 16 2 17 1 18 16 19 17 20 18 21 19 23 20 24 21 25
REMARK SMILES IDX 82 26 22 27 81 28 23 29 24 30 25 31 75 32 26 33 80 34 74 35
REMARK SMILES IDX 76 36 27 37 79 38 73 39 72 40 28 42 60 43 40 44 59 45 41 46
REMARK SMILES IDX 44 47 58 48 77 49 42 50 43 51 57 53 78 54 45 55 29 56 30 57
REMARK SMILES IDX 38 58 31 59 33 60 39 61 32 62 34 63 35 64 36 65 37 66 61 67
REMARK SMILES IDX 62 68 70 69 63 70 65 71 71 72 64 73 66 74 67 75 68 76 69 77
REMARK SMILES IDX 46 78 47 79 55 80 48 81 50 82 56 83 49 84 51 85 52 86 53 87
REMARK SMILES IDX 54 88
REMARK H PARENT 12 7 17 22 76 41 44 52
REMARK Flexibility Score: inf
ROOT
ATOM      1  C   UNL A   1      31.580  29.016  25.816  1.00  0.00     0.023 C 
ENDROOT
BRANCH   1   2
ATOM      2  C   UNL A   1      31.888  27.554  25.470  1.00  0.00     0.023 C 
BRANCH   2   3
ATOM      3  C   UNL A   1      32.137  26.642  26.669  1.00  0.00     0.116 C 
BRANCH   3   4
ATOM      4  N   UNL A   1      31.142  25.606  26.805  1.00  0.00    -0.356 N 
ATOM      5  C   UNL A   1      31.153  24.245  26.724  1.00  0.00     0.226 C 
ATOM      6  O   UNL A   1      30.159  23.679  27.176  1.00  0.00    -0.274 OA
ATOM      7  H   UNL A   1      30.247  25.965  27.003  1.00  0.00     0.163 HD
BRANCH   5   8
ATOM      8  C   UNL A   1      32.282  23.393  26.140  1.00  0.00     0.052 C 
ATOM      9  C   UNL A   1      33.097  22.644  27.204  1.00  0.00     0.018 C 
ATOM     10  C   UNL A   1      33.761  23.673  26.348  1.00  0.00     0.018 C 
BRANCH   8  11
ATOM     11  C   UNL A   1      31.868  22.704  24.789  1.00  0.00     0.008 C 
ATOM     12  C   UNL A   1      32.920  21.881  24.001  1.00  0.00    -0.007 C 
ATOM     13  C   UNL A   1      33.807  22.752  23.088  1.00  0.00     0.004 C 
ATOM     14  C   UNL A   1      33.022  23.751  22.237  1.00  0.00     0.000 C 
ATOM     15  C   UNL A   1      31.104  23.687  23.884  1.00  0.00     0.005 C 
ATOM     16  C   UNL A   1      32.018  24.568  23.040  1.00  0.00     0.000 C 
BRANCH  12  17
ATOM     17  C   UNL A   1      32.275  20.767  23.120  1.00  0.00     0.000 C 
ATOM     18  C   UNL A   1      32.438  19.343  23.638  1.00  0.00     0.004 C 
ENDBRANCH  12  17
ENDBRANCH   8  11
ENDBRANCH   5   8
ENDBRANCH   3   4
ENDBRANCH   2   3
ENDBRANCH   1   2
BRANCH   1  19
ATOM     19  C   UNL A   1      32.741  29.997  25.685  1.00  0.00     0.116 C 
BRANCH  19  20
ATOM     20  N   UNL A   1      32.448  31.315  26.225  1.00  0.00    -0.352 N 
ATOM     21  C   UNL A   1      33.150  32.039  27.157  1.00  0.00     0.251 C 
ATOM     22  H   UNL A   1      31.636  31.748  25.874  1.00  0.00     0.163 HD
ATOM     23  O   UNL A   1      32.714  33.112  27.560  1.00  0.00    -0.269 OA
BRANCH  21  24
ATOM     24  C   UNL A   1      34.409  31.492  27.703  1.00  0.00     0.039 A 
ATOM     25  C   UNL A   1      35.478  32.365  27.915  1.00  0.00     0.014 A 
ATOM     26  C   UNL A   1      34.520  30.141  28.042  1.00  0.00     0.014 A 
ATOM     27  C   UNL A   1      36.640  31.894  28.530  1.00  0.00     0.010 A 
ATOM     28  C   UNL A   1      35.651  29.691  28.719  1.00  0.00     0.010 A 
ATOM     29  C   UNL A   1      36.722  30.562  28.969  1.00  0.00    -0.014 A 
BRANCH  29  30
ATOM     30  C   UNL A   1      37.912  30.076  29.713  1.00  0.00     0.031 A 
ATOM     31  C   UNL A   1      38.176  30.546  31.117  1.00  0.00     0.074 A 
ATOM     32  C   UNL A   1      38.797  29.268  29.095  1.00  0.00     0.049 A 
ATOM     33  N   UNL A   1      39.171  30.249  31.911  1.00  0.00    -0.248 NA
ATOM     34  C   UNL A   1      37.209  31.492  31.699  1.00  0.00     0.031 C 
ATOM     35  C   UNL A   1      38.696  28.809  27.707  1.00  0.00     0.029 A 
ATOM     36  N   UNL A   1      39.967  28.708  29.543  1.00  0.00    -0.354 N 
ATOM     37  C   UNL A   1      38.971  30.993  33.067  1.00  0.00     0.074 A 
ATOM     38  C   UNL A   1      37.777  31.783  32.859  1.00  0.00     0.031 C 
ATOM     39  C   UNL A   1      39.754  28.035  27.422  1.00  0.00     0.029 A 
ATOM     40  C   UNL A   1      40.623  27.962  28.592  1.00  0.00     0.049 A 
ATOM     41  H   UNL A   1      40.305  28.827  30.461  1.00  0.00     0.167 HD
ATOM     42  C   UNL A   1      39.697  30.997  34.210  1.00  0.00     0.034 A 
ATOM     43  C   UNL A   1      41.796  27.300  28.652  1.00  0.00     0.034 A 
ATOM     44  C   UNL A   1      40.861  30.181  34.426  1.00  0.00     0.049 A 
ATOM     45  C   UNL A   1      42.565  27.293  29.946  1.00  0.00     0.074 A 
ATOM     46  C   UNL A   1      41.610  30.040  35.581  1.00  0.00     0.029 A 
ATOM     47  N   UNL A   1      41.453  29.376  33.465  1.00  0.00    -0.354 N 
ATOM     48  N   UNL A   1      42.265  27.866  31.086  1.00  0.00    -0.248 NA
ATOM     49  C   UNL A   1      43.815  26.519  29.974  1.00  0.00     0.031 C 
ATOM     50  C   UNL A   1      42.673  29.174  35.309  1.00  0.00     0.029 A 
ATOM     51  C   UNL A   1      42.567  28.749  33.994  1.00  0.00     0.049 A 
ATOM     52  H   UNL A   1      41.129  29.269  32.542  1.00  0.00     0.167 HD
ATOM     53  C   UNL A   1      43.267  27.495  31.975  1.00  0.00     0.074 A 
ATOM     54  C   UNL A   1      44.173  26.630  31.246  1.00  0.00     0.031 C 
ATOM     55  C   UNL A   1      43.430  27.849  33.273  1.00  0.00     0.034 A 
BRANCH  42  56
ATOM     56  C   UNL A   1      39.224  31.875  35.339  1.00  0.00     0.023 A 
ATOM     57  C   UNL A   1      38.320  31.359  36.291  1.00  0.00     0.012 A 
ATOM     58  C   UNL A   1      39.716  33.185  35.496  1.00  0.00     0.148 A 
ATOM     59  C   UNL A   1      37.886  32.142  37.359  1.00  0.00     0.002 A 
ATOM     60  C   UNL A   1      39.315  33.945  36.589  1.00  0.00     0.091 A 
ATOM     61  F   UNL A   1      40.559  33.667  34.571  1.00  0.00    -0.205 F 
ATOM     62  C   UNL A   1      38.391  33.430  37.514  1.00  0.00     0.022 A 
BRANCH  60  63
ATOM     63  S   UNL A   1      39.970  35.584  36.924  1.00  0.00     0.127 S 
ATOM     64  O   UNL A   1      39.304  35.916  38.182  1.00  0.00    -0.237 OA
ATOM     65  O   UNL A   1      41.405  35.323  37.045  1.00  0.00    -0.237 OA
ATOM     66  O   UNL A   1      39.595  36.407  35.783  1.00  0.00    -0.744 OA
ENDBRANCH  60  63
ENDBRANCH  42  56
BRANCH  43  67
ATOM     67  C   UNL A   1      42.282  26.537  27.467  1.00  0.00     0.023 A 
ATOM     68  C   UNL A   1      43.053  27.194  26.489  1.00  0.00     0.012 A 
ATOM     69  C   UNL A   1      42.009  25.163  27.317  1.00  0.00     0.148 A 
ATOM     70  C   UNL A   1      43.516  26.506  25.367  1.00  0.00     0.002 A 
ATOM     71  C   UNL A   1      42.520  24.471  26.225  1.00  0.00     0.091 A 
ATOM     72  F   UNL A   1      41.265  24.558  28.253  1.00  0.00    -0.205 F 
ATOM     73  C   UNL A   1      43.258  25.145  25.240  1.00  0.00     0.022 A 
BRANCH  71  74
ATOM     74  S   UNL A   1      42.351  22.692  26.048  1.00  0.00     0.127 S 
ATOM     75  O   UNL A   1      43.014  22.455  24.769  1.00  0.00    -0.237 OA
ATOM     76  O   UNL A   1      43.078  22.201  27.219  1.00  0.00    -0.237 OA
ATOM     77  O   UNL A   1      40.919  22.428  26.078  1.00  0.00    -0.744 OA
ENDBRANCH  71  74
ENDBRANCH  43  67
BRANCH  55  78
ATOM     78  C   UNL A   1      44.611  27.279  34.014  1.00  0.00     0.023 A 
ATOM     79  C   UNL A   1      45.790  28.038  34.147  1.00  0.00     0.012 A 
ATOM     80  C   UNL A   1      44.517  26.028  34.655  1.00  0.00     0.148 A 
ATOM     81  C   UNL A   1      46.868  27.549  34.884  1.00  0.00     0.002 A 
ATOM     82  C   UNL A   1      45.575  25.568  35.430  1.00  0.00     0.091 A 
ATOM     83  F   UNL A   1      43.391  25.314  34.503  1.00  0.00    -0.205 F 
ATOM     84  C   UNL A   1      46.756  26.323  35.536  1.00  0.00     0.022 A 
BRANCH  82  85
ATOM     85  S   UNL A   1      45.487  24.050  36.386  1.00  0.00     0.127 S 
ATOM     86  O   UNL A   1      46.786  23.444  36.103  1.00  0.00    -0.237 OA
ATOM     87  O   UNL A   1      45.331  24.553  37.751  1.00  0.00    -0.237 OA
ATOM     88  O   UNL A   1      44.335  23.319  35.875  1.00  0.00    -0.744 OA
ENDBRANCH  82  85
ENDBRANCH  55  78
ENDBRANCH  29  30
ENDBRANCH  21  24
ENDBRANCH  19  20
ENDBRANCH   1  19
TORSDOF 16
ENDMDL
