MODEL 1
REMARK VINA RESULT:     -13.0      0.000      0.000
REMARK SMILES Cc1cccc2c1N=CN1C2=[NH+]NC(=O)[C@@H]1CC(=O)NCCCCNC(=O)c1ccc(-c2c3nc(c(-c4cccc(S(=O)(=O)[O-])c4F)c4ccc([nH]4)c(-c4cccc(S(=O)(=O)[O-])c4F)c4nc(c(-c5cccc(S(=O)(=O)[O-])c5F)c5ccc2[nH]5)C=C4)C=C3)cc1
REMARK SMILES IDX 23 1 22 2 21 3 20 4 18 5 19 6 17 8 16 9 1 10 2 11 3 12 7 13
REMARK SMILES IDX 4 14 6 15 8 16 5 17 11 18 9 19 10 20 12 21 13 22 14 24 15 26
REMARK SMILES IDX 24 27 25 28 26 29 27 31 28 32 29 33 90 34 30 35 89 36 31 37
REMARK SMILES IDX 32 38 33 39 83 40 34 41 88 42 82 43 84 44 35 45 87 46 81 47
REMARK SMILES IDX 80 48 36 50 68 51 48 52 67 53 49 54 52 55 66 56 85 57 50 58
REMARK SMILES IDX 51 59 65 61 86 62 53 63 37 64 38 65 46 66 39 67 41 68 47 69
REMARK SMILES IDX 40 70 42 71 43 72 44 73 45 74 69 75 70 76 78 77 71 78 73 79
REMARK SMILES IDX 79 80 72 81 74 82 75 83 76 84 77 85 54 86 55 87 63 88 56 89
REMARK SMILES IDX 58 90 64 91 57 92 59 93 60 94 61 95 62 96
REMARK H PARENT 20 7 12 23 13 25 25 30 84 49 52 60
REMARK Flexibility Score: inf
ROOT
ATOM      1  C   UNL A   1      31.421  29.914  25.689  1.00  0.00     0.023 C 
ENDROOT
BRANCH   1   2
ATOM      2  C   UNL A   1      31.856  28.999  24.563  1.00  0.00     0.023 C 
BRANCH   2   3
ATOM      3  C   UNL A   1      31.180  27.644  24.484  1.00  0.00     0.116 C 
BRANCH   3   4
ATOM      4  N   UNL A   1      32.085  26.669  23.919  1.00  0.00    -0.356 N 
ATOM      5  C   UNL A   1      32.912  25.790  24.549  1.00  0.00     0.224 C 
ATOM      6  O   UNL A   1      33.609  25.054  23.852  1.00  0.00    -0.275 OA
ATOM      7  H   UNL A   1      32.106  26.635  22.935  1.00  0.00     0.163 HD
BRANCH   5   8
ATOM      8  C   UNL A   1      32.885  25.643  26.061  1.00  0.00     0.160 C 
BRANCH   8   9
ATOM      9  C   UNL A   1      32.238  24.388  26.682  1.00  0.00     0.284 C 
ATOM     10  C   UNL A   1      36.871  20.307  24.973  1.00  0.00     0.047 C 
ATOM     11  C   UNL A   1      35.386  20.078  25.069  1.00  0.00    -0.024 A 
ATOM     12  C   UNL A   1      34.814  18.989  24.389  1.00  0.00     0.006 A 
ATOM     13  C   UNL A   1      34.557  20.997  25.738  1.00  0.00     0.085 A 
ATOM     14  C   UNL A   1      33.432  18.800  24.375  1.00  0.00     0.001 A 
ATOM     15  C   UNL A   1      33.159  20.830  25.647  1.00  0.00     0.092 A 
ATOM     16  N   UNL A   1      35.144  22.109  26.394  1.00  0.00    -0.215 NA
ATOM     17  C   UNL A   1      32.599  19.724  24.997  1.00  0.00     0.019 A 
ATOM     18  C   UNL A   1      32.305  22.003  26.032  1.00  0.00     0.309 C 
ATOM     19  C   UNL A   1      34.346  23.078  26.706  1.00  0.00     0.317 C 
ATOM     20  N   UNL A   1      32.994  23.136  26.456  1.00  0.00    -0.203 N 
ATOM     21  N   UNL A   1      31.022  21.909  25.854  1.00  0.00    -0.169 N 
ATOM     22  N   UNL A   1      30.277  23.025  26.034  1.00  0.00    -0.193 N 
ATOM     23  H   UNL A   1      30.606  21.055  25.594  1.00  0.00     0.340 HD
ATOM     24  C   UNL A   1      30.753  24.268  26.357  1.00  0.00     0.300 C 
ATOM     25  H   UNL A   1      29.304  22.935  25.924  1.00  0.00     0.216 HD
ATOM     26  O   UNL A   1      29.978  25.215  26.473  1.00  0.00    -0.267 OA
ENDBRANCH   8   9
ENDBRANCH   5   8
ENDBRANCH   3   4
ENDBRANCH   2   3
ENDBRANCH   1   2
BRANCH   1  27
ATOM     27  C   UNL A   1      32.568  30.414  26.546  1.00  0.00     0.116 C 
BRANCH  27  28
ATOM     28  N   UNL A   1      32.505  31.848  26.826  1.00  0.00    -0.352 N 
ATOM     29  C   UNL A   1      33.421  32.621  27.497  1.00  0.00     0.251 C 
ATOM     30  H   UNL A   1      31.706  32.318  26.492  1.00  0.00     0.163 HD
ATOM     31  O   UNL A   1      33.210  33.804  27.743  1.00  0.00    -0.269 OA
BRANCH  29  32
ATOM     32  C   UNL A   1      34.659  31.967  27.950  1.00  0.00     0.039 A 
ATOM     33  C   UNL A   1      35.824  32.726  28.074  1.00  0.00     0.014 A 
ATOM     34  C   UNL A   1      34.602  30.644  28.396  1.00  0.00     0.014 A 
ATOM     35  C   UNL A   1      36.927  32.173  28.720  1.00  0.00     0.010 A 
ATOM     36  C   UNL A   1      35.667  30.131  29.117  1.00  0.00     0.010 A 
ATOM     37  C   UNL A   1      36.839  30.886  29.273  1.00  0.00    -0.014 A 
BRANCH  37  38
ATOM     38  C   UNL A   1      37.980  30.257  29.972  1.00  0.00     0.031 A 
ATOM     39  C   UNL A   1      38.253  30.659  31.393  1.00  0.00     0.074 A 
ATOM     40  C   UNL A   1      38.817  29.437  29.309  1.00  0.00     0.049 A 
ATOM     41  N   UNL A   1      39.279  30.373  32.146  1.00  0.00    -0.248 NA
ATOM     42  C   UNL A   1      37.259  31.538  32.037  1.00  0.00     0.031 C 
ATOM     43  C   UNL A   1      38.685  29.040  27.905  1.00  0.00     0.029 A 
ATOM     44  N   UNL A   1      39.967  28.816  29.723  1.00  0.00    -0.354 N 
ATOM     45  C   UNL A   1      39.084  31.081  33.324  1.00  0.00     0.074 A 
ATOM     46  C   UNL A   1      37.857  31.831  33.182  1.00  0.00     0.031 C 
ATOM     47  C   UNL A   1      39.715  28.241  27.576  1.00  0.00     0.029 A 
ATOM     48  C   UNL A   1      40.589  28.089  28.735  1.00  0.00     0.049 A 
ATOM     49  H   UNL A   1      40.315  28.884  30.641  1.00  0.00     0.167 HD
ATOM     50  C   UNL A   1      39.842  31.078  34.441  1.00  0.00     0.034 A 
ATOM     51  C   UNL A   1      41.737  27.383  28.768  1.00  0.00     0.034 A 
ATOM     52  C   UNL A   1      41.006  30.257  34.608  1.00  0.00     0.049 A 
ATOM     53  C   UNL A   1      42.513  27.319  30.055  1.00  0.00     0.074 A 
ATOM     54  C   UNL A   1      41.787  30.097  35.736  1.00  0.00     0.029 A 
ATOM     55  N   UNL A   1      41.538  29.441  33.622  1.00  0.00    -0.354 N 
ATOM     56  N   UNL A   1      42.252  27.903  31.200  1.00  0.00    -0.248 NA
ATOM     57  C   UNL A   1      43.721  26.481  30.069  1.00  0.00     0.031 C 
ATOM     58  C   UNL A   1      42.791  29.172  35.434  1.00  0.00     0.029 A 
ATOM     59  C   UNL A   1      42.633  28.763  34.119  1.00  0.00     0.049 A 
ATOM     60  H   UNL A   1      41.188  29.359  32.706  1.00  0.00     0.167 HD
ATOM     61  C   UNL A   1      43.245  27.487  32.076  1.00  0.00     0.074 A 
ATOM     62  C   UNL A   1      44.108  26.589  31.335  1.00  0.00     0.031 C 
ATOM     63  C   UNL A   1      43.437  27.830  33.373  1.00  0.00     0.034 A 
BRANCH  50  64
ATOM     64  C   UNL A   1      39.389  31.923  35.595  1.00  0.00     0.023 A 
ATOM     65  C   UNL A   1      39.751  33.285  35.631  1.00  0.00     0.012 A 
ATOM     66  C   UNL A   1      38.567  31.393  36.606  1.00  0.00     0.148 A 
ATOM     67  C   UNL A   1      39.315  34.105  36.669  1.00  0.00     0.002 A 
ATOM     68  C   UNL A   1      38.109  32.225  37.621  1.00  0.00     0.091 A 
ATOM     69  F   UNL A   1      38.253  30.090  36.556  1.00  0.00    -0.205 F 
ATOM     70  C   UNL A   1      38.487  33.578  37.657  1.00  0.00     0.022 A 
BRANCH  68  71
ATOM     71  S   UNL A   1      37.002  31.663  38.919  1.00  0.00     0.127 S 
ATOM     72  O   UNL A   1      37.866  31.738  40.096  1.00  0.00    -0.237 OA
ATOM     73  O   UNL A   1      35.944  32.671  38.872  1.00  0.00    -0.237 OA
ATOM     74  O   UNL A   1      36.590  30.318  38.545  1.00  0.00    -0.744 OA
ENDBRANCH  68  71
ENDBRANCH  50  64
BRANCH  51  75
ATOM     75  C   UNL A   1      42.163  26.614  27.567  1.00  0.00     0.023 A 
ATOM     76  C   UNL A   1      42.923  27.263  26.576  1.00  0.00     0.012 A 
ATOM     77  C   UNL A   1      41.883  25.241  27.431  1.00  0.00     0.148 A 
ATOM     78  C   UNL A   1      43.389  26.564  25.463  1.00  0.00     0.002 A 
ATOM     79  C   UNL A   1      42.378  24.541  26.337  1.00  0.00     0.091 A 
ATOM     80  F   UNL A   1      41.155  24.646  28.387  1.00  0.00    -0.205 F 
ATOM     81  C   UNL A   1      43.124  25.202  25.347  1.00  0.00     0.022 A 
BRANCH  79  82
ATOM     82  S   UNL A   1      42.179  22.765  26.145  1.00  0.00     0.127 S 
ATOM     83  O   UNL A   1      42.829  22.529  24.858  1.00  0.00    -0.237 OA
ATOM     84  O   UNL A   1      42.908  22.256  27.307  1.00  0.00    -0.237 OA
ATOM     85  O   UNL A   1      40.743  22.523  26.177  1.00  0.00    -0.744 OA
ENDBRANCH  79  82
ENDBRANCH  51  75
BRANCH  63  86
ATOM     86  C   UNL A   1      44.608  27.231  34.098  1.00  0.00     0.023 A 
ATOM     87  C   UNL A   1      45.830  27.927  34.116  1.00  0.00     0.012 A 
ATOM     88  C   UNL A   1      44.446  26.073  34.883  1.00  0.00     0.148 A 
ATOM     89  C   UNL A   1      46.883  27.477  34.910  1.00  0.00     0.002 A 
ATOM     90  C   UNL A   1      45.489  25.650  35.697  1.00  0.00     0.091 A 
ATOM     91  F   UNL A   1      43.272  25.429  34.837  1.00  0.00    -0.205 F 
ATOM     92  C   UNL A   1      46.708  26.350  35.710  1.00  0.00     0.022 A 
BRANCH  90  93
ATOM     93  S   UNL A   1      45.329  24.262  36.825  1.00  0.00     0.127 S 
ATOM     94  O   UNL A   1      46.679  24.172  37.379  1.00  0.00    -0.237 OA
ATOM     95  O   UNL A   1      44.314  24.741  37.764  1.00  0.00    -0.237 OA
ATOM     96  O   UNL A   1      44.914  23.127  36.012  1.00  0.00    -0.744 OA
ENDBRANCH  90  93
ENDBRANCH  63  86
ENDBRANCH  37  38
ENDBRANCH  29  32
ENDBRANCH  27  28
ENDBRANCH   1  27
TORSDOF 15
ENDMDL
MODEL 2
REMARK VINA RESULT:     -13.0      5.069     10.311
REMARK SMILES Cc1cccc2c1N=CN1C2=[NH+]NC(=O)[C@@H]1CC(=O)NCCCCNC(=O)c1ccc(-c2c3nc(c(-c4cccc(S(=O)(=O)[O-])c4F)c4ccc([nH]4)c(-c4cccc(S(=O)(=O)[O-])c4F)c4nc(c(-c5cccc(S(=O)(=O)[O-])c5F)c5ccc2[nH]5)C=C4)C=C3)cc1
REMARK SMILES IDX 23 1 22 2 21 3 20 4 18 5 19 6 17 8 16 9 1 10 2 11 3 12 7 13
REMARK SMILES IDX 4 14 6 15 8 16 5 17 11 18 9 19 10 20 12 21 13 22 14 24 15 26
REMARK SMILES IDX 24 27 25 28 26 29 27 31 28 32 29 33 90 34 30 35 89 36 31 37
REMARK SMILES IDX 32 38 33 39 83 40 34 41 88 42 82 43 84 44 35 45 87 46 81 47
REMARK SMILES IDX 80 48 36 50 68 51 48 52 67 53 49 54 52 55 66 56 85 57 50 58
REMARK SMILES IDX 51 59 65 61 86 62 53 63 37 64 38 65 46 66 39 67 41 68 47 69
REMARK SMILES IDX 40 70 42 71 43 72 44 73 45 74 69 75 70 76 78 77 71 78 73 79
REMARK SMILES IDX 79 80 72 81 74 82 75 83 76 84 77 85 54 86 55 87 63 88 56 89
REMARK SMILES IDX 58 90 64 91 57 92 59 93 60 94 61 95 62 96
REMARK H PARENT 20 7 12 23 13 25 25 30 84 49 52 60
REMARK Flexibility Score: inf
ROOT
ATOM      1  C   UNL A   1      36.097  21.041  25.529  1.00  0.00     0.023 C 
ENDROOT
BRANCH   1   2
ATOM      2  C   UNL A   1      35.511  22.013  26.531  1.00  0.00     0.023 C 
BRANCH   2   3
ATOM      3  C   UNL A   1      34.265  21.564  27.270  1.00  0.00     0.116 C 
BRANCH   3   4
ATOM      4  N   UNL A   1      33.554  20.576  26.491  1.00  0.00    -0.356 N 
ATOM      5  C   UNL A   1      32.620  20.753  25.516  1.00  0.00     0.224 C 
ATOM      6  O   UNL A   1      32.136  19.750  24.994  1.00  0.00    -0.275 OA
ATOM      7  H   UNL A   1      33.777  19.639  26.695  1.00  0.00     0.163 HD
BRANCH   5   8
ATOM      8  C   UNL A   1      32.276  22.143  25.010  1.00  0.00     0.160 C 
BRANCH   8   9
ATOM      9  C   UNL A   1      33.141  22.773  23.899  1.00  0.00     0.284 C 
ATOM     10  C   UNL A   1      33.736  28.521  26.664  1.00  0.00     0.047 C 
ATOM     11  C   UNL A   1      33.626  28.172  25.203  1.00  0.00    -0.024 A 
ATOM     12  C   UNL A   1      33.244  29.167  24.286  1.00  0.00     0.006 A 
ATOM     13  C   UNL A   1      33.796  26.846  24.765  1.00  0.00     0.085 A 
ATOM     14  C   UNL A   1      33.039  28.860  22.941  1.00  0.00     0.001 A 
ATOM     15  C   UNL A   1      33.508  26.543  23.417  1.00  0.00     0.092 A 
ATOM     16  N   UNL A   1      34.151  25.846  25.705  1.00  0.00    -0.215 NA
ATOM     17  C   UNL A   1      33.162  27.545  22.503  1.00  0.00     0.019 A 
ATOM     18  C   UNL A   1      33.327  25.094  23.067  1.00  0.00     0.309 C 
ATOM     19  C   UNL A   1      33.977  24.620  25.331  1.00  0.00     0.317 C 
ATOM     20  N   UNL A   1      33.478  24.197  24.120  1.00  0.00    -0.203 N 
ATOM     21  N   UNL A   1      32.956  24.801  21.858  1.00  0.00    -0.169 N 
ATOM     22  N   UNL A   1      32.623  23.514  21.596  1.00  0.00    -0.193 N 
ATOM     23  H   UNL A   1      32.916  25.489  21.156  1.00  0.00     0.340 HD
ATOM     24  C   UNL A   1      32.606  22.486  22.500  1.00  0.00     0.300 C 
ATOM     25  H   UNL A   1      32.372  23.298  20.669  1.00  0.00     0.216 HD
ATOM     26  O   UNL A   1      32.262  21.360  22.148  1.00  0.00    -0.267 OA
ENDBRANCH   8   9
ENDBRANCH   5   8
ENDBRANCH   3   4
ENDBRANCH   2   3
ENDBRANCH   1   2
BRANCH   1  27
ATOM     27  C   UNL A   1      37.527  21.358  25.137  1.00  0.00     0.116 C 
BRANCH  27  28
ATOM     28  N   UNL A   1      38.483  20.321  25.523  1.00  0.00    -0.352 N 
ATOM     29  C   UNL A   1      39.656  20.468  26.223  1.00  0.00     0.251 C 
ATOM     30  H   UNL A   1      38.257  19.403  25.248  1.00  0.00     0.163 HD
ATOM     31  O   UNL A   1      40.418  19.525  26.410  1.00  0.00    -0.269 OA
BRANCH  29  32
ATOM     32  C   UNL A   1      39.992  21.815  26.711  1.00  0.00     0.039 A 
ATOM     33  C   UNL A   1      40.961  21.957  27.705  1.00  0.00     0.014 A 
ATOM     34  C   UNL A   1      39.450  22.926  26.059  1.00  0.00     0.014 A 
ATOM     35  C   UNL A   1      41.447  23.229  28.000  1.00  0.00     0.010 A 
ATOM     36  C   UNL A   1      40.000  24.175  26.290  1.00  0.00     0.010 A 
ATOM     37  C   UNL A   1      40.992  24.337  27.269  1.00  0.00    -0.014 A 
BRANCH  37  38
ATOM     38  C   UNL A   1      41.480  25.706  27.540  1.00  0.00     0.031 A 
ATOM     39  C   UNL A   1      42.885  26.053  27.140  1.00  0.00     0.074 A 
ATOM     40  C   UNL A   1      40.721  26.575  28.233  1.00  0.00     0.049 A 
ATOM     41  N   UNL A   1      43.581  27.120  27.421  1.00  0.00    -0.248 NA
ATOM     42  C   UNL A   1      43.622  25.041  26.359  1.00  0.00     0.031 C 
ATOM     43  C   UNL A   1      39.369  26.313  28.733  1.00  0.00     0.029 A 
ATOM     44  N   UNL A   1      40.994  27.847  28.667  1.00  0.00    -0.354 N 
ATOM     45  C   UNL A   1      44.848  26.884  26.904  1.00  0.00     0.074 A 
ATOM     46  C   UNL A   1      44.837  25.565  26.315  1.00  0.00     0.031 C 
ATOM     47  C   UNL A   1      38.932  27.393  29.405  1.00  0.00     0.029 A 
ATOM     48  C   UNL A   1      39.979  28.411  29.402  1.00  0.00     0.049 A 
ATOM     49  H   UNL A   1      41.839  28.312  28.469  1.00  0.00     0.167 HD
ATOM     50  C   UNL A   1      45.916  27.710  26.889  1.00  0.00     0.034 A 
ATOM     51  C   UNL A   1      39.908  29.614  30.005  1.00  0.00     0.034 A 
ATOM     52  C   UNL A   1      45.887  29.053  27.391  1.00  0.00     0.049 A 
ATOM     53  C   UNL A   1      41.077  30.553  29.891  1.00  0.00     0.074 A 
ATOM     54  C   UNL A   1      46.879  30.012  27.331  1.00  0.00     0.029 A 
ATOM     55  N   UNL A   1      44.798  29.631  28.024  1.00  0.00    -0.354 N 
ATOM     56  N   UNL A   1      42.230  30.359  29.296  1.00  0.00    -0.248 NA
ATOM     57  C   UNL A   1      40.932  31.883  30.501  1.00  0.00     0.031 C 
ATOM     58  C   UNL A   1      46.386  31.178  27.922  1.00  0.00     0.029 A 
ATOM     59  C   UNL A   1      45.088  30.940  28.350  1.00  0.00     0.049 A 
ATOM     60  H   UNL A   1      43.947  29.175  28.213  1.00  0.00     0.167 HD
ATOM     61  C   UNL A   1      42.938  31.545  29.438  1.00  0.00     0.074 A 
ATOM     62  C   UNL A   1      42.080  32.459  30.165  1.00  0.00     0.031 C 
ATOM     63  C   UNL A   1      44.191  31.845  29.021  1.00  0.00     0.034 A 
BRANCH  50  64
ATOM     64  C   UNL A   1      47.172  27.214  26.237  1.00  0.00     0.023 A 
ATOM     65  C   UNL A   1      47.390  27.490  24.872  1.00  0.00     0.012 A 
ATOM     66  C   UNL A   1      48.155  26.532  26.976  1.00  0.00     0.148 A 
ATOM     67  C   UNL A   1      48.564  27.078  24.245  1.00  0.00     0.002 A 
ATOM     68  C   UNL A   1      49.338  26.151  26.353  1.00  0.00     0.091 A 
ATOM     69  F   UNL A   1      47.914  26.268  28.268  1.00  0.00    -0.205 F 
ATOM     70  C   UNL A   1      49.540  26.417  24.987  1.00  0.00     0.022 A 
BRANCH  68  71
ATOM     71  S   UNL A   1      50.681  25.336  27.222  1.00  0.00     0.127 S 
ATOM     72  O   UNL A   1      51.102  26.378  28.157  1.00  0.00    -0.237 OA
ATOM     73  O   UNL A   1      49.998  24.200  27.839  1.00  0.00    -0.237 OA
ATOM     74  O   UNL A   1      51.666  24.987  26.208  1.00  0.00    -0.744 OA
ENDBRANCH  68  71
ENDBRANCH  50  64
BRANCH  51  75
ATOM     75  C   UNL A   1      38.650  30.022  30.688  1.00  0.00     0.023 A 
ATOM     76  C   UNL A   1      38.458  29.662  32.035  1.00  0.00     0.012 A 
ATOM     77  C   UNL A   1      37.682  30.815  30.043  1.00  0.00     0.148 A 
ATOM     78  C   UNL A   1      37.319  30.072  32.727  1.00  0.00     0.002 A 
ATOM     79  C   UNL A   1      36.565  31.250  30.747  1.00  0.00     0.091 A 
ATOM     80  F   UNL A   1      37.886  31.143  28.759  1.00  0.00    -0.205 F 
ATOM     81  C   UNL A   1      36.377  30.872  32.087  1.00  0.00     0.022 A 
BRANCH  79  82
ATOM     82  S   UNL A   1      35.344  32.366  30.045  1.00  0.00     0.127 S 
ATOM     83  O   UNL A   1      34.844  31.588  28.913  1.00  0.00    -0.237 OA
ATOM     84  O   UNL A   1      34.403  32.516  31.155  1.00  0.00    -0.237 OA
ATOM     85  O   UNL A   1      36.071  33.580  29.699  1.00  0.00    -0.744 OA
ENDBRANCH  79  82
ENDBRANCH  51  75
BRANCH  63  86
ATOM     86  C   UNL A   1      44.725  33.218  29.313  1.00  0.00     0.023 A 
ATOM     87  C   UNL A   1      45.415  33.442  30.518  1.00  0.00     0.012 A 
ATOM     88  C   UNL A   1      44.680  34.226  28.331  1.00  0.00     0.148 A 
ATOM     89  C   UNL A   1      46.057  34.658  30.745  1.00  0.00     0.002 A 
ATOM     90  C   UNL A   1      45.352  35.422  28.550  1.00  0.00     0.091 A 
ATOM     91  F   UNL A   1      44.008  33.984  27.197  1.00  0.00    -0.205 F 
ATOM     92  C   UNL A   1      46.037  35.640  29.757  1.00  0.00     0.022 A 
BRANCH  90  93
ATOM     93  S   UNL A   1      45.456  36.711  27.304  1.00  0.00     0.127 S 
ATOM     94  O   UNL A   1      44.048  37.061  27.120  1.00  0.00    -0.237 OA
ATOM     95  O   UNL A   1      46.257  37.732  27.980  1.00  0.00    -0.237 OA
ATOM     96  O   UNL A   1      46.101  36.103  26.148  1.00  0.00    -0.744 OA
ENDBRANCH  90  93
ENDBRANCH  63  86
ENDBRANCH  37  38
ENDBRANCH  29  32
ENDBRANCH  27  28
ENDBRANCH   1  27
TORSDOF 15
ENDMDL
MODEL 3
REMARK VINA RESULT:     -12.9      1.454      7.639
REMARK SMILES Cc1cccc2c1N=CN1C2=[NH+]NC(=O)[C@@H]1CC(=O)NCCCCNC(=O)c1ccc(-c2c3nc(c(-c4cccc(S(=O)(=O)[O-])c4F)c4ccc([nH]4)c(-c4cccc(S(=O)(=O)[O-])c4F)c4nc(c(-c5cccc(S(=O)(=O)[O-])c5F)c5ccc2[nH]5)C=C4)C=C3)cc1
REMARK SMILES IDX 23 1 22 2 21 3 20 4 18 5 19 6 17 8 16 9 1 10 2 11 3 12 7 13
REMARK SMILES IDX 4 14 6 15 8 16 5 17 11 18 9 19 10 20 12 21 13 22 14 24 15 26
REMARK SMILES IDX 24 27 25 28 26 29 27 31 28 32 29 33 90 34 30 35 89 36 31 37
REMARK SMILES IDX 32 38 33 39 83 40 34 41 88 42 82 43 84 44 35 45 87 46 81 47
REMARK SMILES IDX 80 48 36 50 68 51 48 52 67 53 49 54 52 55 66 56 85 57 50 58
REMARK SMILES IDX 51 59 65 61 86 62 53 63 37 64 38 65 46 66 39 67 41 68 47 69
REMARK SMILES IDX 40 70 42 71 43 72 44 73 45 74 69 75 70 76 78 77 71 78 73 79
REMARK SMILES IDX 79 80 72 81 74 82 75 83 76 84 77 85 54 86 55 87 63 88 56 89
REMARK SMILES IDX 58 90 64 91 57 92 59 93 60 94 61 95 62 96
REMARK H PARENT 20 7 12 23 13 25 25 30 84 49 52 60
REMARK Flexibility Score: inf
ROOT
ATOM      1  C   UNL A   1      33.254  28.950  23.727  1.00  0.00     0.023 C 
ENDROOT
BRANCH   1   2
ATOM      2  C   UNL A   1      31.777  28.915  23.393  1.00  0.00     0.023 C 
BRANCH   2   3
ATOM      3  C   UNL A   1      30.999  27.701  23.863  1.00  0.00     0.116 C 
BRANCH   3   4
ATOM      4  N   UNL A   1      31.605  26.493  23.350  1.00  0.00    -0.356 N 
ATOM      5  C   UNL A   1      32.357  25.561  23.998  1.00  0.00     0.224 C 
ATOM      6  O   UNL A   1      32.781  24.609  23.344  1.00  0.00    -0.275 OA
ATOM      7  H   UNL A   1      31.451  26.319  22.393  1.00  0.00     0.163 HD
BRANCH   5   8
ATOM      8  C   UNL A   1      32.564  25.635  25.501  1.00  0.00     0.160 C 
BRANCH   8   9
ATOM      9  C   UNL A   1      32.119  24.448  26.379  1.00  0.00     0.284 C 
ATOM     10  C   UNL A   1      36.860  20.499  24.658  1.00  0.00     0.047 C 
ATOM     11  C   UNL A   1      35.427  20.180  24.989  1.00  0.00    -0.024 A 
ATOM     12  C   UNL A   1      34.877  18.960  24.559  1.00  0.00     0.006 A 
ATOM     13  C   UNL A   1      34.606  21.130  25.626  1.00  0.00     0.085 A 
ATOM     14  C   UNL A   1      33.528  18.671  24.762  1.00  0.00     0.001 A 
ATOM     15  C   UNL A   1      33.229  20.849  25.753  1.00  0.00     0.092 A 
ATOM     16  N   UNL A   1      35.164  22.369  26.028  1.00  0.00    -0.215 NA
ATOM     17  C   UNL A   1      32.697  19.618  25.352  1.00  0.00     0.019 A 
ATOM     18  C   UNL A   1      32.325  22.002  26.078  1.00  0.00     0.309 C 
ATOM     19  C   UNL A   1      34.325  23.314  26.302  1.00  0.00     0.317 C 
ATOM     20  N   UNL A   1      32.953  23.234  26.235  1.00  0.00    -0.203 N 
ATOM     21  N   UNL A   1      31.044  21.788  26.092  1.00  0.00    -0.169 N 
ATOM     22  N   UNL A   1      30.227  22.862  26.211  1.00  0.00    -0.193 N 
ATOM     23  H   UNL A   1      30.679  20.877  26.019  1.00  0.00     0.340 HD
ATOM     24  C   UNL A   1      30.623  24.171  26.282  1.00  0.00     0.300 C 
ATOM     25  H   UNL A   1      29.260  22.685  26.250  1.00  0.00     0.216 HD
ATOM     26  O   UNL A   1      29.783  25.066  26.365  1.00  0.00    -0.267 OA
ENDBRANCH   8   9
ENDBRANCH   5   8
ENDBRANCH   3   4
ENDBRANCH   2   3
ENDBRANCH   1   2
BRANCH   1  27
ATOM     27  C   UNL A   1      33.540  29.127  25.206  1.00  0.00     0.116 C 
BRANCH  27  28
ATOM     28  N   UNL A   1      32.841  30.265  25.803  1.00  0.00    -0.352 N 
ATOM     29  C   UNL A   1      33.250  31.055  26.850  1.00  0.00     0.251 C 
ATOM     30  H   UNL A   1      31.970  30.493  25.405  1.00  0.00     0.163 HD
ATOM     31  O   UNL A   1      32.530  31.931  27.317  1.00  0.00    -0.269 OA
BRANCH  29  32
ATOM     32  C   UNL A   1      34.578  30.788  27.425  1.00  0.00     0.039 A 
ATOM     33  C   UNL A   1      35.466  31.848  27.610  1.00  0.00     0.014 A 
ATOM     34  C   UNL A   1      34.859  29.509  27.915  1.00  0.00     0.014 A 
ATOM     35  C   UNL A   1      36.620  31.642  28.363  1.00  0.00     0.010 A 
ATOM     36  C   UNL A   1      35.959  29.332  28.737  1.00  0.00     0.010 A 
ATOM     37  C   UNL A   1      36.852  30.392  28.957  1.00  0.00    -0.014 A 
BRANCH  37  38
ATOM     38  C   UNL A   1      38.059  30.124  29.768  1.00  0.00     0.031 A 
ATOM     39  C   UNL A   1      39.084  29.171  29.224  1.00  0.00     0.074 A 
ATOM     40  C   UNL A   1      38.172  30.631  31.010  1.00  0.00     0.049 A 
ATOM     41  N   UNL A   1      40.127  28.659  29.816  1.00  0.00    -0.248 NA
ATOM     42  C   UNL A   1      38.881  28.696  27.842  1.00  0.00     0.031 C 
ATOM     43  C   UNL A   1      37.197  31.508  31.663  1.00  0.00     0.029 A 
ATOM     44  N   UNL A   1      39.145  30.451  31.959  1.00  0.00    -0.354 N 
ATOM     45  C   UNL A   1      40.668  27.762  28.905  1.00  0.00     0.074 A 
ATOM     46  C   UNL A   1      39.828  27.777  27.729  1.00  0.00     0.031 C 
ATOM     47  C   UNL A   1      37.624  31.790  32.906  1.00  0.00     0.029 A 
ATOM     48  C   UNL A   1      38.887  31.097  33.145  1.00  0.00     0.049 A 
ATOM     49  H   UNL A   1      39.953  29.911  31.805  1.00  0.00     0.167 HD
ATOM     50  C   UNL A   1      41.788  27.017  29.024  1.00  0.00     0.034 A 
ATOM     51  C   UNL A   1      39.593  31.122  34.292  1.00  0.00     0.034 A 
ATOM     52  C   UNL A   1      42.667  27.081  30.155  1.00  0.00     0.049 A 
ATOM     53  C   UNL A   1      40.887  30.360  34.364  1.00  0.00     0.074 A 
ATOM     54  C   UNL A   1      43.883  26.450  30.332  1.00  0.00     0.029 A 
ATOM     55  N   UNL A   1      42.431  27.841  31.290  1.00  0.00    -0.354 N 
ATOM     56  N   UNL A   1      41.447  29.605  33.449  1.00  0.00    -0.248 NA
ATOM     57  C   UNL A   1      41.663  30.470  35.608  1.00  0.00     0.031 C 
ATOM     58  C   UNL A   1      44.390  26.836  31.576  1.00  0.00     0.029 A 
ATOM     59  C   UNL A   1      43.485  27.705  32.170  1.00  0.00     0.049 A 
ATOM     60  H   UNL A   1      41.631  28.392  31.445  1.00  0.00     0.167 HD
ATOM     61  C   UNL A   1      42.648  29.171  33.992  1.00  0.00     0.074 A 
ATOM     62  C   UNL A   1      42.744  29.756  35.315  1.00  0.00     0.031 C 
ATOM     63  C   UNL A   1      43.579  28.348  33.455  1.00  0.00     0.034 A 
BRANCH  50  64
ATOM     64  C   UNL A   1      42.168  26.139  27.868  1.00  0.00     0.023 A 
ATOM     65  C   UNL A   1      43.018  26.653  26.868  1.00  0.00     0.012 A 
ATOM     66  C   UNL A   1      41.738  24.802  27.798  1.00  0.00     0.148 A 
ATOM     67  C   UNL A   1      43.421  25.852  25.802  1.00  0.00     0.002 A 
ATOM     68  C   UNL A   1      42.169  23.999  26.749  1.00  0.00     0.091 A 
ATOM     69  F   UNL A   1      40.916  24.345  28.754  1.00  0.00    -0.205 F 
ATOM     70  C   UNL A   1      43.004  24.524  25.748  1.00  0.00     0.022 A 
BRANCH  68  71
ATOM     71  S   UNL A   1      41.732  22.264  26.604  1.00  0.00     0.127 S 
ATOM     72  O   UNL A   1      42.435  21.884  25.378  1.00  0.00    -0.237 OA
ATOM     73  O   UNL A   1      42.298  21.705  27.831  1.00  0.00    -0.237 OA
ATOM     74  O   UNL A   1      40.279  22.218  26.517  1.00  0.00    -0.744 OA
ENDBRANCH  68  71
ENDBRANCH  50  64
BRANCH  51  75
ATOM     75  C   UNL A   1      39.128  31.969  35.425  1.00  0.00     0.023 A 
ATOM     76  C   UNL A   1      38.208  31.431  36.345  1.00  0.00     0.012 A 
ATOM     77  C   UNL A   1      39.637  33.264  35.636  1.00  0.00     0.148 A 
ATOM     78  C   UNL A   1      37.790  32.173  37.450  1.00  0.00     0.002 A 
ATOM     79  C   UNL A   1      39.244  33.985  36.758  1.00  0.00     0.091 A 
ATOM     80  F   UNL A   1      40.510  33.754  34.745  1.00  0.00    -0.205 F 
ATOM     81  C   UNL A   1      38.313  33.445  37.661  1.00  0.00     0.022 A 
BRANCH  79  82
ATOM     82  S   UNL A   1      39.934  35.591  37.175  1.00  0.00     0.127 S 
ATOM     83  O   UNL A   1      39.222  35.912  38.410  1.00  0.00    -0.237 OA
ATOM     84  O   UNL A   1      41.352  35.271  37.346  1.00  0.00    -0.237 OA
ATOM     85  O   UNL A   1      39.641  36.455  36.039  1.00  0.00    -0.744 OA
ENDBRANCH  79  82
ENDBRANCH  51  75
BRANCH  63  86
ATOM     86  C   UNL A   1      44.800  28.031  34.270  1.00  0.00     0.023 A 
ATOM     87  C   UNL A   1      45.898  28.910  34.228  1.00  0.00     0.012 A 
ATOM     88  C   UNL A   1      44.790  26.963  35.187  1.00  0.00     0.148 A 
ATOM     89  C   UNL A   1      46.977  28.729  35.091  1.00  0.00     0.002 A 
ATOM     90  C   UNL A   1      45.854  26.809  36.068  1.00  0.00     0.091 A 
ATOM     91  F   UNL A   1      43.733  26.139  35.197  1.00  0.00    -0.205 F 
ATOM     92  C   UNL A   1      46.948  27.690  36.019  1.00  0.00     0.022 A 
BRANCH  90  93
ATOM     93  S   UNL A   1      45.868  25.556  37.354  1.00  0.00     0.127 S 
ATOM     94  O   UNL A   1      45.681  24.332  36.577  1.00  0.00    -0.237 OA
ATOM     95  O   UNL A   1      47.203  25.717  37.930  1.00  0.00    -0.237 OA
ATOM     96  O   UNL A   1      44.775  25.892  38.256  1.00  0.00    -0.744 OA
ENDBRANCH  90  93
ENDBRANCH  63  86
ENDBRANCH  37  38
ENDBRANCH  29  32
ENDBRANCH  27  28
ENDBRANCH   1  27
TORSDOF 15
ENDMDL
