MODEL 1
REMARK VINA RESULT:     -12.2      0.000      0.000
REMARK SMILES C[C@H](NS(=O)(=O)c1ccc(-c2cc(-c3ccccc3)c3cc([N+](=O)[O-])ccc3n2)cc1)C(=O)NCCCCNC(=O)c1ccc(-c2c3nc(c(-c4cccc(S(=O)(=O)[O-])c4F)c4ccc([nH]4)c(-c4cccc(S(=O)(=O)[O-])c4F)c4nc(c(-c5cccc(S(=O)(=O)[O-])c5F)c5ccc2[nH]5)C=C4)C=C3)cc1
REMARK SMILES IDX 35 1 34 2 32 3 33 4 2 6 1 7 3 8 4 10 5 11 6 12 7 13 8 14
REMARK SMILES IDX 31 15 9 16 30 17 10 18 11 19 12 20 29 21 13 22 28 23 20 24
REMARK SMILES IDX 27 25 21 26 26 27 22 28 14 29 15 30 19 31 16 32 18 33 17 34
REMARK SMILES IDX 23 35 24 36 25 37 36 38 37 39 38 40 39 41 40 42 41 44 42 45
REMARK SMILES IDX 43 46 104 47 44 48 103 49 45 50 46 51 47 52 97 53 48 54
REMARK SMILES IDX 102 55 96 56 98 57 49 58 101 59 95 60 94 61 50 63 82 64
REMARK SMILES IDX 62 65 81 66 63 67 66 68 80 69 99 70 64 71 65 72 79 74 100 75
REMARK SMILES IDX 67 76 51 77 52 78 60 79 53 80 55 81 61 82 54 83 56 84 57 85
REMARK SMILES IDX 58 86 59 87 83 88 84 89 92 90 85 91 87 92 93 93 86 94 88 95
REMARK SMILES IDX 89 96 90 97 91 98 68 99 69 100 77 101 70 102 72 103 78 104
REMARK SMILES IDX 71 105 73 106 74 107 75 108 76 109
REMARK H PARENT 34 5 3 9 39 43 98 62 66 73
REMARK Flexibility Score: inf
ROOT
ATOM      1  C   UNL A   1      39.453  21.360  26.080  1.00  0.00     0.116 C 
ENDROOT
BRANCH   1   2
ATOM      2  N   UNL A   1      39.241  22.765  26.374  1.00  0.00    -0.355 N 
ATOM      3  C   UNL A   1      38.122  23.531  26.208  1.00  0.00     0.237 C 
ATOM      4  O   UNL A   1      38.163  24.708  26.570  1.00  0.00    -0.273 OA
ATOM      5  H   UNL A   1      40.019  23.237  26.749  1.00  0.00     0.163 HD
BRANCH   3   6
ATOM      6  C   UNL A   1      36.838  22.940  25.609  1.00  0.00     0.155 C 
ATOM      7  C   UNL A   1      36.731  23.331  24.139  1.00  0.00     0.036 C 
BRANCH   6   8
ATOM      8  N   UNL A   1      35.664  23.285  26.421  1.00  0.00    -0.199 NA
ATOM      9  H   UNL A   1      35.268  24.122  25.993  1.00  0.00     0.142 HD
BRANCH   8  10
ATOM     10  S   UNL A   1      34.372  22.258  26.684  1.00  0.00     0.241 S 
ATOM     11  O   UNL A   1      34.817  20.943  26.292  1.00  0.00    -0.207 OA
ATOM     12  O   UNL A   1      33.883  22.523  28.023  1.00  0.00    -0.207 OA
BRANCH  10  13
ATOM     13  C   UNL A   1      33.085  22.732  25.542  1.00  0.00     0.082 A 
ATOM     14  C   UNL A   1      33.015  22.164  24.270  1.00  0.00     0.022 A 
ATOM     15  C   UNL A   1      32.168  23.720  25.912  1.00  0.00     0.022 A 
ATOM     16  C   UNL A   1      32.171  22.740  23.303  1.00  0.00     0.012 A 
ATOM     17  C   UNL A   1      31.297  24.260  24.955  1.00  0.00     0.012 A 
ATOM     18  C   UNL A   1      31.422  23.902  23.591  1.00  0.00     0.000 A 
BRANCH  18  19
ATOM     19  C   UNL A   1      31.416  25.020  22.552  1.00  0.00     0.072 A 
ATOM     20  C   UNL A   1      30.342  25.900  22.413  1.00  0.00     0.038 A 
ATOM     21  N   UNL A   1      32.645  25.590  22.635  1.00  0.00    -0.248 NA
ATOM     22  C   UNL A   1      30.496  27.172  22.974  1.00  0.00    -0.007 A 
ATOM     23  C   UNL A   1      32.728  26.578  23.525  1.00  0.00     0.072 A 
ATOM     24  C   UNL A   1      31.580  27.293  23.858  1.00  0.00     0.015 A 
ATOM     25  C   UNL A   1      33.880  26.797  24.261  1.00  0.00     0.036 A 
ATOM     26  C   UNL A   1      31.504  27.994  25.079  1.00  0.00     0.096 A 
ATOM     27  C   UNL A   1      33.821  27.486  25.477  1.00  0.00     0.088 A 
ATOM     28  C   UNL A   1      32.603  27.997  25.927  1.00  0.00     0.270 A 
BRANCH  22  29
ATOM     29  C   UNL A   1      29.705  28.391  22.690  1.00  0.00    -0.018 A 
ATOM     30  C   UNL A   1      28.352  28.409  23.126  1.00  0.00     0.009 A 
ATOM     31  C   UNL A   1      30.164  29.511  21.997  1.00  0.00     0.009 A 
ATOM     32  C   UNL A   1      27.465  29.424  22.786  1.00  0.00     0.001 A 
ATOM     33  C   UNL A   1      29.277  30.554  21.678  1.00  0.00     0.001 A 
ATOM     34  C   UNL A   1      27.930  30.497  22.047  1.00  0.00     0.000 A 
ENDBRANCH  22  29
BRANCH  28  35
ATOM     35  N   UNL A   1      32.444  28.435  27.317  1.00  0.00     0.062 N 
ATOM     36  O   UNL A   1      33.107  29.414  27.693  1.00  0.00    -0.258 OA
ATOM     37  O   UNL A   1      31.626  27.828  28.020  1.00  0.00    -0.258 OA
ENDBRANCH  28  35
ENDBRANCH  18  19
ENDBRANCH  10  13
ENDBRANCH   8  10
ENDBRANCH   6   8
ENDBRANCH   3   6
ENDBRANCH   1   2
BRANCH   1  38
ATOM     38  C   UNL A   1      40.930  20.996  26.044  1.00  0.00     0.023 C 
BRANCH  38  39
ATOM     39  C   UNL A   1      41.223  19.502  25.952  1.00  0.00     0.023 C 
BRANCH  39  40
ATOM     40  C   UNL A   1      42.619  19.084  26.401  1.00  0.00     0.116 C 
BRANCH  40  41
ATOM     41  N   UNL A   1      43.558  18.951  25.295  1.00  0.00    -0.352 N 
ATOM     42  C   UNL A   1      44.287  19.925  24.655  1.00  0.00     0.251 C 
ATOM     43  H   UNL A   1      43.688  18.036  24.958  1.00  0.00     0.163 HD
ATOM     44  O   UNL A   1      44.925  19.653  23.642  1.00  0.00    -0.269 OA
BRANCH  42  45
ATOM     45  C   UNL A   1      44.274  21.307  25.180  1.00  0.00     0.039 A 
ATOM     46  C   UNL A   1      44.833  21.560  26.434  1.00  0.00     0.014 A 
ATOM     47  C   UNL A   1      43.745  22.350  24.417  1.00  0.00     0.014 A 
ATOM     48  C   UNL A   1      44.927  22.877  26.891  1.00  0.00     0.010 A 
ATOM     49  C   UNL A   1      43.919  23.665  24.836  1.00  0.00     0.010 A 
ATOM     50  C   UNL A   1      44.509  23.943  26.078  1.00  0.00    -0.014 A 
BRANCH  50  51
ATOM     51  C   UNL A   1      44.691  25.355  26.503  1.00  0.00     0.031 A 
ATOM     52  C   UNL A   1      46.048  26.001  26.423  1.00  0.00     0.074 A 
ATOM     53  C   UNL A   1      43.654  26.028  27.040  1.00  0.00     0.049 A 
ATOM     54  N   UNL A   1      46.411  27.202  26.792  1.00  0.00    -0.248 NA
ATOM     55  C   UNL A   1      47.148  25.184  25.883  1.00  0.00     0.031 C 
ATOM     56  C   UNL A   1      42.308  25.488  27.245  1.00  0.00     0.029 A 
ATOM     57  N   UNL A   1      43.576  27.306  27.538  1.00  0.00    -0.354 N 
ATOM     58  C   UNL A   1      47.781  27.272  26.568  1.00  0.00     0.074 A 
ATOM     59  C   UNL A   1      48.192  25.981  26.062  1.00  0.00     0.031 C 
ATOM     60  C   UNL A   1      41.536  26.429  27.812  1.00  0.00     0.029 A 
ATOM     61  C   UNL A   1      42.337  27.626  28.046  1.00  0.00     0.049 A 
ATOM     62  H   UNL A   1      44.333  27.934  27.529  1.00  0.00     0.167 HD
ATOM     63  C   UNL A   1      48.618  28.322  26.741  1.00  0.00     0.034 A 
ATOM     64  C   UNL A   1      41.900  28.752  28.643  1.00  0.00     0.034 A 
ATOM     65  C   UNL A   1      48.199  29.615  27.207  1.00  0.00     0.049 A 
ATOM     66  C   UNL A   1      42.845  29.912  28.798  1.00  0.00     0.074 A 
ATOM     67  C   UNL A   1      48.950  30.771  27.326  1.00  0.00     0.029 A 
ATOM     68  N   UNL A   1      46.920  29.924  27.646  1.00  0.00    -0.354 N 
ATOM     69  N   UNL A   1      44.099  30.010  28.428  1.00  0.00    -0.248 NA
ATOM     70  C   UNL A   1      42.305  31.131  29.419  1.00  0.00     0.031 C 
ATOM     71  C   UNL A   1      48.137  31.767  27.874  1.00  0.00     0.029 A 
ATOM     72  C   UNL A   1      46.867  31.245  28.054  1.00  0.00     0.049 A 
ATOM     73  H   UNL A   1      46.163  29.295  27.664  1.00  0.00     0.167 HD
ATOM     74  C   UNL A   1      44.485  31.311  28.734  1.00  0.00     0.074 A 
ATOM     75  C   UNL A   1      43.327  31.968  29.301  1.00  0.00     0.031 C 
ATOM     76  C   UNL A   1      45.694  31.904  28.570  1.00  0.00     0.034 A 
BRANCH  63  77
ATOM     77  C   UNL A   1      50.071  28.129  26.390  1.00  0.00     0.023 A 
ATOM     78  C   UNL A   1      51.005  27.839  27.406  1.00  0.00     0.012 A 
ATOM     79  C   UNL A   1      50.500  28.172  25.050  1.00  0.00     0.148 A 
ATOM     80  C   UNL A   1      52.348  27.632  27.099  1.00  0.00     0.002 A 
ATOM     81  C   UNL A   1      51.832  27.913  24.745  1.00  0.00     0.091 A 
ATOM     82  F   UNL A   1      49.603  28.468  24.100  1.00  0.00    -0.205 F 
ATOM     83  C   UNL A   1      52.759  27.657  25.769  1.00  0.00     0.022 A 
BRANCH  81  84
ATOM     84  S   UNL A   1      52.444  27.840  23.059  1.00  0.00     0.127 S 
ATOM     85  O   UNL A   1      51.723  26.681  22.534  1.00  0.00    -0.237 OA
ATOM     86  O   UNL A   1      52.008  29.126  22.518  1.00  0.00    -0.237 OA
ATOM     87  O   UNL A   1      53.888  27.679  23.160  1.00  0.00    -0.744 OA
ENDBRANCH  81  84
ENDBRANCH  63  77
BRANCH  64  88
ATOM     88  C   UNL A   1      40.481  28.860  29.090  1.00  0.00     0.023 A 
ATOM     89  C   UNL A   1      39.468  29.071  28.135  1.00  0.00     0.012 A 
ATOM     90  C   UNL A   1      40.130  28.746  30.449  1.00  0.00     0.148 A 
ATOM     91  C   UNL A   1      38.136  29.206  28.527  1.00  0.00     0.002 A 
ATOM     92  C   UNL A   1      38.795  28.823  30.828  1.00  0.00     0.091 A 
ATOM     93  F   UNL A   1      41.109  28.554  31.344  1.00  0.00    -0.205 F 
ATOM     94  C   UNL A   1      37.798  29.073  29.871  1.00  0.00     0.022 A 
BRANCH  92  95
ATOM     95  S   UNL A   1      38.253  28.538  32.516  1.00  0.00     0.127 S 
ATOM     96  O   UNL A   1      36.974  29.242  32.543  1.00  0.00    -0.237 OA
ATOM     97  O   UNL A   1      38.155  27.079  32.557  1.00  0.00    -0.237 OA
ATOM     98  O   UNL A   1      39.299  29.093  33.365  1.00  0.00    -0.744 OA
ENDBRANCH  92  95
ENDBRANCH  64  88
BRANCH  76  99
ATOM     99  C   UNL A   1      45.823  33.352  28.961  1.00  0.00     0.023 A 
ATOM    100  C   UNL A   1      46.323  33.702  30.232  1.00  0.00     0.012 A 
ATOM    101  C   UNL A   1      45.515  34.371  28.037  1.00  0.00     0.148 A 
ATOM    102  C   UNL A   1      46.480  35.041  30.588  1.00  0.00     0.002 A 
ATOM    103  C   UNL A   1      45.725  35.701  28.379  1.00  0.00     0.091 A 
ATOM    104  F   UNL A   1      45.024  34.019  26.839  1.00  0.00    -0.205 F 
ATOM    105  C   UNL A   1      46.193  36.038  29.659  1.00  0.00     0.022 A 
BRANCH 103 106
ATOM    106  S   UNL A   1      45.482  37.046  27.214  1.00  0.00     0.127 S 
ATOM    107  O   UNL A   1      44.064  36.903  26.887  1.00  0.00    -0.237 OA
ATOM    108  O   UNL A   1      45.806  38.219  28.025  1.00  0.00    -0.237 OA
ATOM    109  O   UNL A   1      46.403  36.797  26.112  1.00  0.00    -0.744 OA
ENDBRANCH 103 106
ENDBRANCH  76  99
ENDBRANCH  50  51
ENDBRANCH  42  45
ENDBRANCH  40  41
ENDBRANCH  39  40
ENDBRANCH  38  39
ENDBRANCH   1  38
TORSDOF 20
ENDMDL
MODEL 2
REMARK VINA RESULT:     -11.5      1.433      7.156
REMARK SMILES C[C@H](NS(=O)(=O)c1ccc(-c2cc(-c3ccccc3)c3cc([N+](=O)[O-])ccc3n2)cc1)C(=O)NCCCCNC(=O)c1ccc(-c2c3nc(c(-c4cccc(S(=O)(=O)[O-])c4F)c4ccc([nH]4)c(-c4cccc(S(=O)(=O)[O-])c4F)c4nc(c(-c5cccc(S(=O)(=O)[O-])c5F)c5ccc2[nH]5)C=C4)C=C3)cc1
REMARK SMILES IDX 35 1 34 2 32 3 33 4 2 6 1 7 3 8 4 10 5 11 6 12 7 13 8 14
REMARK SMILES IDX 31 15 9 16 30 17 10 18 11 19 12 20 29 21 13 22 28 23 20 24
REMARK SMILES IDX 27 25 21 26 26 27 22 28 14 29 15 30 19 31 16 32 18 33 17 34
REMARK SMILES IDX 23 35 24 36 25 37 36 38 37 39 38 40 39 41 40 42 41 44 42 45
REMARK SMILES IDX 43 46 104 47 44 48 103 49 45 50 46 51 47 52 97 53 48 54
REMARK SMILES IDX 102 55 96 56 98 57 49 58 101 59 95 60 94 61 50 63 82 64
REMARK SMILES IDX 62 65 81 66 63 67 66 68 80 69 99 70 64 71 65 72 79 74 100 75
REMARK SMILES IDX 67 76 51 77 52 78 60 79 53 80 55 81 61 82 54 83 56 84 57 85
REMARK SMILES IDX 58 86 59 87 83 88 84 89 92 90 85 91 87 92 93 93 86 94 88 95
REMARK SMILES IDX 89 96 90 97 91 98 68 99 69 100 77 101 70 102 72 103 78 104
REMARK SMILES IDX 71 105 73 106 74 107 75 108 76 109
REMARK H PARENT 34 5 3 9 39 43 98 62 66 73
REMARK Flexibility Score: inf
ROOT
ATOM      1  C   UNL A   1      38.925  21.279  25.848  1.00  0.00     0.116 C 
ENDROOT
BRANCH   1   2
ATOM      2  N   UNL A   1      38.501  22.622  26.195  1.00  0.00    -0.355 N 
ATOM      3  C   UNL A   1      37.374  23.302  25.828  1.00  0.00     0.237 C 
ATOM      4  O   UNL A   1      37.204  24.435  26.283  1.00  0.00    -0.273 OA
ATOM      5  H   UNL A   1      39.116  23.118  26.782  1.00  0.00     0.163 HD
BRANCH   3   6
ATOM      6  C   UNL A   1      36.333  22.668  24.895  1.00  0.00     0.155 C 
ATOM      7  C   UNL A   1      36.918  22.534  23.492  1.00  0.00     0.036 C 
BRANCH   6   8
ATOM      8  N   UNL A   1      35.054  23.385  24.959  1.00  0.00    -0.199 NA
ATOM      9  H   UNL A   1      34.696  23.398  24.003  1.00  0.00     0.142 HD
BRANCH   8  10
ATOM     10  S   UNL A   1      33.766  22.920  25.916  1.00  0.00     0.241 S 
ATOM     11  O   UNL A   1      33.549  21.519  25.646  1.00  0.00    -0.207 OA
ATOM     12  O   UNL A   1      34.038  23.397  27.258  1.00  0.00    -0.207 OA
BRANCH  10  13
ATOM     13  C   UNL A   1      32.328  23.792  25.320  1.00  0.00     0.082 A 
ATOM     14  C   UNL A   1      31.528  23.248  24.314  1.00  0.00     0.022 A 
ATOM     15  C   UNL A   1      32.029  25.057  25.834  1.00  0.00     0.022 A 
ATOM     16  C   UNL A   1      30.572  24.059  23.678  1.00  0.00     0.012 A 
ATOM     17  C   UNL A   1      31.043  25.846  25.225  1.00  0.00     0.012 A 
ATOM     18  C   UNL A   1      30.434  25.423  24.019  1.00  0.00     0.000 A 
BRANCH  18  19
ATOM     19  C   UNL A   1      30.320  26.432  22.880  1.00  0.00     0.072 A 
ATOM     20  C   UNL A   1      29.453  27.525  22.938  1.00  0.00     0.038 A 
ATOM     21  N   UNL A   1      31.599  26.707  22.517  1.00  0.00    -0.248 NA
ATOM     22  C   UNL A   1      30.024  28.764  23.243  1.00  0.00    -0.007 A 
ATOM     23  C   UNL A   1      32.152  27.712  23.195  1.00  0.00     0.072 A 
ATOM     24  C   UNL A   1      31.334  28.695  23.745  1.00  0.00     0.015 A 
ATOM     25  C   UNL A   1      33.497  27.712  23.522  1.00  0.00     0.036 A 
ATOM     26  C   UNL A   1      31.788  29.483  24.822  1.00  0.00     0.096 A 
ATOM     27  C   UNL A   1      33.964  28.484  24.592  1.00  0.00     0.088 A 
ATOM     28  C   UNL A   1      33.078  29.294  25.301  1.00  0.00     0.270 A 
BRANCH  22  29
ATOM     29  C   UNL A   1      29.441  30.108  23.033  1.00  0.00    -0.018 A 
ATOM     30  C   UNL A   1      28.961  30.417  21.731  1.00  0.00     0.009 A 
ATOM     31  C   UNL A   1      29.355  31.114  23.996  1.00  0.00     0.009 A 
ATOM     32  C   UNL A   1      28.536  31.690  21.367  1.00  0.00     0.001 A 
ATOM     33  C   UNL A   1      28.897  32.394  23.639  1.00  0.00     0.001 A 
ATOM     34  C   UNL A   1      28.516  32.686  22.325  1.00  0.00     0.000 A 
ENDBRANCH  22  29
BRANCH  28  35
ATOM     35  N   UNL A   1      33.456  29.858  26.601  1.00  0.00     0.062 N 
ATOM     36  O   UNL A   1      34.656  29.821  26.917  1.00  0.00    -0.258 OA
ATOM     37  O   UNL A   1      32.564  30.374  27.286  1.00  0.00    -0.258 OA
ENDBRANCH  28  35
ENDBRANCH  18  19
ENDBRANCH  10  13
ENDBRANCH   8  10
ENDBRANCH   6   8
ENDBRANCH   3   6
ENDBRANCH   1   2
BRANCH   1  38
ATOM     38  C   UNL A   1      40.399  21.045  26.147  1.00  0.00     0.023 C 
BRANCH  38  39
ATOM     39  C   UNL A   1      40.844  19.587  26.092  1.00  0.00     0.023 C 
BRANCH  39  40
ATOM     40  C   UNL A   1      42.291  19.333  26.497  1.00  0.00     0.116 C 
BRANCH  40  41
ATOM     41  N   UNL A   1      43.180  19.147  25.357  1.00  0.00    -0.352 N 
ATOM     42  C   UNL A   1      43.970  20.071  24.714  1.00  0.00     0.251 C 
ATOM     43  H   UNL A   1      43.219  18.233  24.996  1.00  0.00     0.163 HD
ATOM     44  O   UNL A   1      44.549  19.770  23.675  1.00  0.00    -0.269 OA
BRANCH  42  45
ATOM     45  C   UNL A   1      44.092  21.435  25.269  1.00  0.00     0.039 A 
ATOM     46  C   UNL A   1      44.743  21.614  26.491  1.00  0.00     0.014 A 
ATOM     47  C   UNL A   1      43.597  22.535  24.564  1.00  0.00     0.014 A 
ATOM     48  C   UNL A   1      44.964  22.907  26.970  1.00  0.00     0.010 A 
ATOM     49  C   UNL A   1      43.896  23.822  24.999  1.00  0.00     0.010 A 
ATOM     50  C   UNL A   1      44.579  24.023  26.208  1.00  0.00    -0.014 A 
BRANCH  50  51
ATOM     51  C   UNL A   1      44.892  25.406  26.652  1.00  0.00     0.031 A 
ATOM     52  C   UNL A   1      43.803  26.294  27.188  1.00  0.00     0.074 A 
ATOM     53  C   UNL A   1      46.141  25.890  26.492  1.00  0.00     0.049 A 
ATOM     54  N   UNL A   1      43.874  27.541  27.576  1.00  0.00    -0.248 NA
ATOM     55  C   UNL A   1      42.450  25.717  27.276  1.00  0.00     0.031 C 
ATOM     56  C   UNL A   1      47.267  25.154  25.911  1.00  0.00     0.029 A 
ATOM     57  N   UNL A   1      46.666  27.125  26.779  1.00  0.00    -0.354 N 
ATOM     58  C   UNL A   1      42.577  27.909  27.915  1.00  0.00     0.074 A 
ATOM     59  C   UNL A   1      41.732  26.765  27.655  1.00  0.00     0.031 C 
ATOM     60  C   UNL A   1      48.351  25.947  25.897  1.00  0.00     0.029 A 
ATOM     61  C   UNL A   1      47.992  27.256  26.431  1.00  0.00     0.049 A 
ATOM     62  H   UNL A   1      46.145  27.848  27.196  1.00  0.00     0.167 HD
ATOM     63  C   UNL A   1      42.132  29.083  28.422  1.00  0.00     0.034 A 
ATOM     64  C   UNL A   1      48.820  28.315  26.522  1.00  0.00     0.034 A 
ATOM     65  C   UNL A   1      42.981  30.205  28.715  1.00  0.00     0.049 A 
ATOM     66  C   UNL A   1      48.306  29.599  27.114  1.00  0.00     0.074 A 
ATOM     67  C   UNL A   1      42.643  31.404  29.318  1.00  0.00     0.029 A 
ATOM     68  N   UNL A   1      44.333  30.277  28.415  1.00  0.00    -0.354 N 
ATOM     69  N   UNL A   1      47.111  29.872  27.579  1.00  0.00    -0.248 NA
ATOM     70  C   UNL A   1      49.262  30.709  27.228  1.00  0.00     0.031 C 
ATOM     71  C   UNL A   1      43.781  32.215  29.346  1.00  0.00     0.029 A 
ATOM     72  C   UNL A   1      44.839  31.505  28.803  1.00  0.00     0.049 A 
ATOM     73  H   UNL A   1      44.855  29.558  27.989  1.00  0.00     0.167 HD
ATOM     74  C   UNL A   1      47.183  31.169  28.077  1.00  0.00     0.074 A 
ATOM     75  C   UNL A   1      48.544  31.618  27.873  1.00  0.00     0.031 C 
ATOM     76  C   UNL A   1      46.208  31.923  28.641  1.00  0.00     0.034 A 
BRANCH  63  77
ATOM     77  C   UNL A   1      40.661  29.205  28.727  1.00  0.00     0.023 A 
ATOM     78  C   UNL A   1      39.740  29.396  27.676  1.00  0.00     0.012 A 
ATOM     79  C   UNL A   1      40.185  29.068  30.045  1.00  0.00     0.148 A 
ATOM     80  C   UNL A   1      38.374  29.485  27.935  1.00  0.00     0.002 A 
ATOM     81  C   UNL A   1      38.817  29.107  30.290  1.00  0.00     0.091 A 
ATOM     82  F   UNL A   1      41.076  28.907  31.033  1.00  0.00    -0.205 F 
ATOM     83  C   UNL A   1      37.912  29.329  29.239  1.00  0.00     0.022 A 
BRANCH  81  84
ATOM     84  S   UNL A   1      38.116  28.833  31.920  1.00  0.00     0.127 S 
ATOM     85  O   UNL A   1      36.690  29.039  31.666  1.00  0.00    -0.237 OA
ATOM     86  O   UNL A   1      38.493  27.446  32.187  1.00  0.00    -0.237 OA
ATOM     87  O   UNL A   1      38.738  29.815  32.797  1.00  0.00    -0.744 OA
ENDBRANCH  81  84
ENDBRANCH  63  77
BRANCH  64  88
ATOM     88  C   UNL A   1      50.243  28.191  26.093  1.00  0.00     0.023 A 
ATOM     89  C   UNL A   1      50.585  28.434  24.748  1.00  0.00     0.012 A 
ATOM     90  C   UNL A   1      51.257  27.845  27.007  1.00  0.00     0.148 A 
ATOM     91  C   UNL A   1      51.903  28.296  24.311  1.00  0.00     0.002 A 
ATOM     92  C   UNL A   1      52.577  27.766  26.579  1.00  0.00     0.091 A 
ATOM     93  F   UNL A   1      50.911  27.610  28.279  1.00  0.00    -0.205 F 
ATOM     94  C   UNL A   1      52.900  27.971  25.228  1.00  0.00     0.022 A 
BRANCH  92  95
ATOM     95  S   UNL A   1      53.942  27.480  27.709  1.00  0.00     0.127 S 
ATOM     96  O   UNL A   1      53.799  26.056  27.999  1.00  0.00    -0.237 OA
ATOM     97  O   UNL A   1      55.097  27.827  26.881  1.00  0.00    -0.237 OA
ATOM     98  O   UNL A   1      53.718  28.380  28.834  1.00  0.00    -0.744 OA
ENDBRANCH  92  95
ENDBRANCH  64  88
BRANCH  76  99
ATOM     99  C   UNL A   1      46.579  33.299  29.128  1.00  0.00     0.023 A 
ATOM    100  C   UNL A   1      47.063  33.479  30.439  1.00  0.00     0.012 A 
ATOM    101  C   UNL A   1      46.515  34.405  28.258  1.00  0.00     0.148 A 
ATOM    102  C   UNL A   1      47.444  34.744  30.886  1.00  0.00     0.002 A 
ATOM    103  C   UNL A   1      46.947  35.652  28.692  1.00  0.00     0.091 A 
ATOM    104  F   UNL A   1      46.035  34.217  27.019  1.00  0.00    -0.205 F 
ATOM    105  C   UNL A   1      47.397  35.826  30.010  1.00  0.00     0.022 A 
BRANCH 103 106
ATOM    106  S   UNL A   1      47.021  37.080  27.605  1.00  0.00     0.127 S 
ATOM    107  O   UNL A   1      47.403  38.142  28.535  1.00  0.00    -0.237 OA
ATOM    108  O   UNL A   1      48.064  36.693  26.657  1.00  0.00    -0.237 OA
ATOM    109  O   UNL A   1      45.691  37.212  27.023  1.00  0.00    -0.744 OA
ENDBRANCH 103 106
ENDBRANCH  76  99
ENDBRANCH  50  51
ENDBRANCH  42  45
ENDBRANCH  40  41
ENDBRANCH  39  40
ENDBRANCH  38  39
ENDBRANCH   1  38
TORSDOF 20
ENDMDL
MODEL 3
REMARK VINA RESULT:     -11.4      1.479      2.466
REMARK SMILES C[C@H](NS(=O)(=O)c1ccc(-c2cc(-c3ccccc3)c3cc([N+](=O)[O-])ccc3n2)cc1)C(=O)NCCCCNC(=O)c1ccc(-c2c3nc(c(-c4cccc(S(=O)(=O)[O-])c4F)c4ccc([nH]4)c(-c4cccc(S(=O)(=O)[O-])c4F)c4nc(c(-c5cccc(S(=O)(=O)[O-])c5F)c5ccc2[nH]5)C=C4)C=C3)cc1
REMARK SMILES IDX 35 1 34 2 32 3 33 4 2 6 1 7 3 8 4 10 5 11 6 12 7 13 8 14
REMARK SMILES IDX 31 15 9 16 30 17 10 18 11 19 12 20 29 21 13 22 28 23 20 24
REMARK SMILES IDX 27 25 21 26 26 27 22 28 14 29 15 30 19 31 16 32 18 33 17 34
REMARK SMILES IDX 23 35 24 36 25 37 36 38 37 39 38 40 39 41 40 42 41 44 42 45
REMARK SMILES IDX 43 46 104 47 44 48 103 49 45 50 46 51 47 52 97 53 48 54
REMARK SMILES IDX 102 55 96 56 98 57 49 58 101 59 95 60 94 61 50 63 82 64
REMARK SMILES IDX 62 65 81 66 63 67 66 68 80 69 99 70 64 71 65 72 79 74 100 75
REMARK SMILES IDX 67 76 51 77 52 78 60 79 53 80 55 81 61 82 54 83 56 84 57 85
REMARK SMILES IDX 58 86 59 87 83 88 84 89 92 90 85 91 87 92 93 93 86 94 88 95
REMARK SMILES IDX 89 96 90 97 91 98 68 99 69 100 77 101 70 102 72 103 78 104
REMARK SMILES IDX 71 105 73 106 74 107 75 108 76 109
REMARK H PARENT 34 5 3 9 39 43 98 62 66 73
REMARK Flexibility Score: inf
ROOT
ATOM      1  C   UNL A   1      39.656  21.517  25.784  1.00  0.00     0.116 C 
ENDROOT
BRANCH   1   2
ATOM      2  N   UNL A   1      39.091  22.801  26.157  1.00  0.00    -0.355 N 
ATOM      3  C   UNL A   1      37.837  23.297  25.938  1.00  0.00     0.237 C 
ATOM      4  O   UNL A   1      37.566  24.413  26.387  1.00  0.00    -0.273 OA
ATOM      5  H   UNL A   1      39.702  23.404  26.639  1.00  0.00     0.163 HD
BRANCH   3   6
ATOM      6  C   UNL A   1      36.783  22.482  25.177  1.00  0.00     0.155 C 
ATOM      7  C   UNL A   1      37.011  22.627  23.675  1.00  0.00     0.036 C 
BRANCH   6   8
ATOM      8  N   UNL A   1      35.425  22.817  25.625  1.00  0.00    -0.199 NA
ATOM      9  H   UNL A   1      35.059  23.471  24.933  1.00  0.00     0.142 HD
BRANCH   8  10
ATOM     10  S   UNL A   1      34.214  21.692  25.868  1.00  0.00     0.241 S 
ATOM     11  O   UNL A   1      34.267  20.794  24.740  1.00  0.00    -0.207 OA
ATOM     12  O   UNL A   1      34.350  21.206  27.227  1.00  0.00    -0.207 OA
BRANCH  10  13
ATOM     13  C   UNL A   1      32.660  22.564  25.765  1.00  0.00     0.082 A 
ATOM     14  C   UNL A   1      32.343  23.326  24.640  1.00  0.00     0.022 A 
ATOM     15  C   UNL A   1      31.775  22.520  26.846  1.00  0.00     0.022 A 
ATOM     16  C   UNL A   1      31.251  24.211  24.693  1.00  0.00     0.012 A 
ATOM     17  C   UNL A   1      30.662  23.372  26.873  1.00  0.00     0.012 A 
ATOM     18  C   UNL A   1      30.494  24.363  25.876  1.00  0.00     0.000 A 
BRANCH  18  19
ATOM     19  C   UNL A   1      30.151  25.781  26.323  1.00  0.00     0.072 A 
ATOM     20  C   UNL A   1      31.069  26.593  26.991  1.00  0.00     0.038 A 
ATOM     21  N   UNL A   1      29.518  26.345  25.264  1.00  0.00    -0.248 NA
ATOM     22  C   UNL A   1      31.705  27.578  26.230  1.00  0.00    -0.007 A 
ATOM     23  C   UNL A   1      30.336  26.943  24.397  1.00  0.00     0.072 A 
ATOM     24  C   UNL A   1      31.564  27.424  24.841  1.00  0.00     0.015 A 
ATOM     25  C   UNL A   1      30.080  26.938  23.037  1.00  0.00     0.036 A 
ATOM     26  C   UNL A   1      32.624  27.627  23.933  1.00  0.00     0.096 A 
ATOM     27  C   UNL A   1      31.120  27.132  22.122  1.00  0.00     0.088 A 
ATOM     28  C   UNL A   1      32.413  27.378  22.583  1.00  0.00     0.270 A 
BRANCH  22  29
ATOM     29  C   UNL A   1      32.431  28.773  26.717  1.00  0.00    -0.018 A 
ATOM     30  C   UNL A   1      31.773  30.029  26.603  1.00  0.00     0.009 A 
ATOM     31  C   UNL A   1      33.722  28.778  27.245  1.00  0.00     0.009 A 
ATOM     32  C   UNL A   1      32.405  31.237  26.878  1.00  0.00     0.001 A 
ATOM     33  C   UNL A   1      34.352  29.996  27.553  1.00  0.00     0.001 A 
ATOM     34  C   UNL A   1      33.706  31.219  27.345  1.00  0.00     0.000 A 
ENDBRANCH  22  29
BRANCH  28  35
ATOM     35  N   UNL A   1      33.563  27.268  21.680  1.00  0.00     0.062 N 
ATOM     36  O   UNL A   1      34.401  28.183  21.700  1.00  0.00    -0.258 OA
ATOM     37  O   UNL A   1      33.651  26.249  20.983  1.00  0.00    -0.258 OA
ENDBRANCH  28  35
ENDBRANCH  18  19
ENDBRANCH  10  13
ENDBRANCH   8  10
ENDBRANCH   6   8
ENDBRANCH   3   6
ENDBRANCH   1   2
BRANCH   1  38
ATOM     38  C   UNL A   1      40.624  20.988  26.833  1.00  0.00     0.023 C 
BRANCH  38  39
ATOM     39  C   UNL A   1      41.184  19.598  26.548  1.00  0.00     0.023 C 
BRANCH  39  40
ATOM     40  C   UNL A   1      42.691  19.455  26.728  1.00  0.00     0.116 C 
BRANCH  40  41
ATOM     41  N   UNL A   1      43.368  18.987  25.526  1.00  0.00    -0.352 N 
ATOM     42  C   UNL A   1      44.137  19.695  24.632  1.00  0.00     0.251 C 
ATOM     43  H   UNL A   1      43.259  18.030  25.324  1.00  0.00     0.163 HD
ATOM     44  O   UNL A   1      44.514  19.167  23.590  1.00  0.00    -0.269 OA
BRANCH  42  45
ATOM     45  C   UNL A   1      44.480  21.102  24.924  1.00  0.00     0.039 A 
ATOM     46  C   UNL A   1      43.784  22.119  24.268  1.00  0.00     0.014 A 
ATOM     47  C   UNL A   1      45.460  21.411  25.870  1.00  0.00     0.014 A 
ATOM     48  C   UNL A   1      44.022  23.451  24.617  1.00  0.00     0.010 A 
ATOM     49  C   UNL A   1      45.631  22.731  26.277  1.00  0.00     0.010 A 
ATOM     50  C   UNL A   1      44.916  23.765  25.653  1.00  0.00    -0.014 A 
BRANCH  50  51
ATOM     51  C   UNL A   1      45.110  25.167  26.108  1.00  0.00     0.031 A 
ATOM     52  C   UNL A   1      46.488  25.769  26.139  1.00  0.00     0.074 A 
ATOM     53  C   UNL A   1      44.056  25.867  26.573  1.00  0.00     0.049 A 
ATOM     54  N   UNL A   1      46.859  26.955  26.549  1.00  0.00    -0.248 NA
ATOM     55  C   UNL A   1      47.600  24.923  25.674  1.00  0.00     0.031 C 
ATOM     56  C   UNL A   1      42.682  25.368  26.668  1.00  0.00     0.029 A 
ATOM     57  N   UNL A   1      43.980  27.142  27.078  1.00  0.00    -0.354 N 
ATOM     58  C   UNL A   1      48.244  26.982  26.430  1.00  0.00     0.074 A 
ATOM     59  C   UNL A   1      48.652  25.684  25.941  1.00  0.00     0.031 C 
ATOM     60  C   UNL A   1      41.899  26.328  27.186  1.00  0.00     0.029 A 
ATOM     61  C   UNL A   1      42.717  27.496  27.495  1.00  0.00     0.049 A 
ATOM     62  H   UNL A   1      44.755  27.745  27.135  1.00  0.00     0.167 HD
ATOM     63  C   UNL A   1      49.097  28.003  26.678  1.00  0.00     0.034 A 
ATOM     64  C   UNL A   1      42.271  28.630  28.071  1.00  0.00     0.034 A 
ATOM     65  C   UNL A   1      48.684  29.305  27.127  1.00  0.00     0.049 A 
ATOM     66  C   UNL A   1      43.237  29.758  28.311  1.00  0.00     0.074 A 
ATOM     67  C   UNL A   1      49.461  30.434  27.317  1.00  0.00     0.029 A 
ATOM     68  N   UNL A   1      47.387  29.650  27.472  1.00  0.00    -0.354 N 
ATOM     69  N   UNL A   1      44.518  29.819  28.038  1.00  0.00    -0.248 NA
ATOM     70  C   UNL A   1      42.690  30.987  28.904  1.00  0.00     0.031 C 
ATOM     71  C   UNL A   1      48.639  31.451  27.813  1.00  0.00     0.029 A 
ATOM     72  C   UNL A   1      47.343  30.969  27.890  1.00  0.00     0.049 A 
ATOM     73  H   UNL A   1      46.610  29.046  27.424  1.00  0.00     0.167 HD
ATOM     74  C   UNL A   1      44.920  31.104  28.389  1.00  0.00     0.074 A 
ATOM     75  C   UNL A   1      43.743  31.792  28.874  1.00  0.00     0.031 C 
ATOM     76  C   UNL A   1      46.156  31.659  28.324  1.00  0.00     0.034 A 
BRANCH  63  77
ATOM     77  C   UNL A   1      50.566  27.767  26.436  1.00  0.00     0.023 A 
ATOM     78  C   UNL A   1      51.402  27.393  27.509  1.00  0.00     0.012 A 
ATOM     79  C   UNL A   1      51.106  27.854  25.138  1.00  0.00     0.148 A 
ATOM     80  C   UNL A   1      52.757  27.145  27.301  1.00  0.00     0.002 A 
ATOM     81  C   UNL A   1      52.448  27.556  24.930  1.00  0.00     0.091 A 
ATOM     82  F   UNL A   1      50.301  28.230  24.135  1.00  0.00    -0.205 F 
ATOM     83  C   UNL A   1      53.277  27.215  26.011  1.00  0.00     0.022 A 
BRANCH  81  84
ATOM     84  S   UNL A   1      53.193  27.535  23.297  1.00  0.00     0.127 S 
ATOM     85  O   UNL A   1      52.535  28.673  22.658  1.00  0.00    -0.237 OA
ATOM     86  O   UNL A   1      54.608  27.741  23.603  1.00  0.00    -0.237 OA
ATOM     87  O   UNL A   1      52.877  26.233  22.725  1.00  0.00    -0.744 OA
ENDBRANCH  81  84
ENDBRANCH  63  77
BRANCH  64  88
ATOM     88  C   UNL A   1      40.826  28.779  28.410  1.00  0.00     0.023 A 
ATOM     89  C   UNL A   1      39.893  29.011  27.381  1.00  0.00     0.012 A 
ATOM     90  C   UNL A   1      40.372  28.683  29.740  1.00  0.00     0.148 A 
ATOM     91  C   UNL A   1      38.539  29.184  27.672  1.00  0.00     0.002 A 
ATOM     92  C   UNL A   1      39.015  28.799  30.017  1.00  0.00     0.091 A 
ATOM     93  F   UNL A   1      41.276  28.470  30.705  1.00  0.00    -0.205 F 
ATOM     94  C   UNL A   1      38.099  29.069  28.988  1.00  0.00     0.022 A 
BRANCH  92  95
ATOM     95  S   UNL A   1      38.341  28.538  31.661  1.00  0.00     0.127 S 
ATOM     96  O   UNL A   1      36.951  28.950  31.484  1.00  0.00    -0.237 OA
ATOM     97  O   UNL A   1      38.540  27.101  31.843  1.00  0.00    -0.237 OA
ATOM     98  O   UNL A   1      39.139  29.372  32.551  1.00  0.00    -0.744 OA
ENDBRANCH  92  95
ENDBRANCH  64  88
BRANCH  76  99
ATOM     99  C   UNL A   1      46.300  33.099  28.741  1.00  0.00     0.023 A 
ATOM    100  C   UNL A   1      46.765  33.420  30.031  1.00  0.00     0.012 A 
ATOM    101  C   UNL A   1      46.041  34.137  27.823  1.00  0.00     0.148 A 
ATOM    102  C   UNL A   1      46.936  34.750  30.413  1.00  0.00     0.002 A 
ATOM    103  C   UNL A   1      46.266  35.457  28.191  1.00  0.00     0.091 A 
ATOM    104  F   UNL A   1      45.582  33.812  26.605  1.00  0.00    -0.205 F 
ATOM    105  C   UNL A   1      46.698  35.767  29.490  1.00  0.00     0.022 A 
BRANCH 103 106
ATOM    106  S   UNL A   1      46.085  36.824  27.040  1.00  0.00     0.127 S 
ATOM    107  O   UNL A   1      47.224  36.613  26.148  1.00  0.00    -0.237 OA
ATOM    108  O   UNL A   1      44.780  36.552  26.440  1.00  0.00    -0.237 OA
ATOM    109  O   UNL A   1      46.141  38.038  27.844  1.00  0.00    -0.744 OA
ENDBRANCH 103 106
ENDBRANCH  76  99
ENDBRANCH  50  51
ENDBRANCH  42  45
ENDBRANCH  40  41
ENDBRANCH  39  40
ENDBRANCH  38  39
ENDBRANCH   1  38
TORSDOF 20
ENDMDL
