MODEL 1
REMARK VINA RESULT:      -9.9      0.000      0.000
REMARK SMILES CCOC(=O)[C@@]1(C)C/C(=N/c2cccc(C(=O)NCCCCNC(=O)c3ccc(-c4c5nc(c(-c6cccc(S(=O)(=O)[O-])c6F)c6ccc([nH]6)c(-c6cccc(S(=O)(=O)[O-])c6F)c6nc(c(-c7cccc(S(=O)(=O)[O-])c7F)c7ccc4[nH]7)C=C6)C=C5)cc3)c2)C(=O)N1c1ccccc1
REMARK SMILES IDX 20 1 19 2 18 3 16 4 17 5 15 7 11 8 12 9 89 10 13 11 14 12
REMARK SMILES IDX 10 13 6 14 7 15 8 16 92 17 9 18 90 19 91 20 4 21 5 22 3 23
REMARK SMILES IDX 2 24 1 25 93 26 94 27 98 28 95 29 97 30 96 31 21 32 22 33
REMARK SMILES IDX 23 34 24 35 25 37 26 38 27 39 88 40 28 41 87 42 29 43 30 44
REMARK SMILES IDX 31 45 81 46 32 47 86 48 80 49 82 50 33 51 85 52 79 53 78 54
REMARK SMILES IDX 34 56 66 57 46 58 65 59 47 60 50 61 64 62 83 63 48 64 49 65
REMARK SMILES IDX 63 67 84 68 51 69 35 70 36 71 44 72 37 73 39 74 45 75 38 76
REMARK SMILES IDX 40 77 41 78 42 79 43 80 67 81 68 82 76 83 69 84 71 85 77 86
REMARK SMILES IDX 70 87 72 88 73 89 74 90 75 91 52 92 53 93 61 94 54 95 56 96
REMARK SMILES IDX 62 97 55 98 57 99 58 100 59 101 60 102
REMARK H PARENT 18 6 23 36 82 55 50 66
REMARK Flexibility Score: inf
ROOT
ATOM      1  C   UNL A   1      51.506  25.961  34.359  1.00  0.00     0.023 C 
ENDROOT
BRANCH   1   2
ATOM      2  C   UNL A   1      52.211  24.905  33.512  1.00  0.00     0.116 C 
BRANCH   2   3
ATOM      3  N   UNL A   1      53.539  24.549  33.970  1.00  0.00    -0.352 N 
ATOM      4  C   UNL A   1      54.054  23.331  34.350  1.00  0.00     0.251 C 
ATOM      5  O   UNL A   1      55.223  23.280  34.729  1.00  0.00    -0.269 OA
ATOM      6  H   UNL A   1      54.174  25.298  34.017  1.00  0.00     0.163 HD
BRANCH   4   7
ATOM      7  C   UNL A   1      53.238  22.086  34.371  1.00  0.00     0.041 A 
ATOM      8  C   UNL A   1      51.523  20.638  35.323  1.00  0.00     0.064 A 
ATOM      9  C   UNL A   1      51.826  19.668  34.368  1.00  0.00     0.028 A 
ATOM     10  C   UNL A   1      52.223  21.852  35.301  1.00  0.00     0.042 A 
ATOM     11  C   UNL A   1      52.797  19.909  33.395  1.00  0.00     0.003 A 
ATOM     12  C   UNL A   1      53.503  21.113  33.399  1.00  0.00     0.014 A 
BRANCH   8  13
ATOM     13  N   UNL A   1      50.684  20.304  36.395  1.00  0.00    -0.248 NA
ATOM     14  C   UNL A   1      47.593  21.574  37.247  1.00  0.00     0.148 C 
ATOM     15  C   UNL A   1      48.232  22.901  37.718  1.00  0.00     0.048 C 
ATOM     16  C   UNL A   1      48.565  20.410  37.558  1.00  0.00     0.103 C 
ATOM     17  N   UNL A   1      47.454  21.563  35.771  1.00  0.00    -0.290 N 
ATOM     18  C   UNL A   1      49.401  20.462  36.332  1.00  0.00     0.109 C 
ATOM     19  C   UNL A   1      48.526  20.889  35.181  1.00  0.00     0.273 C 
ATOM     20  O   UNL A   1      48.803  20.643  34.031  1.00  0.00    -0.267 OA
BRANCH  14  21
ATOM     21  C   UNL A   1      46.303  21.192  38.002  1.00  0.00     0.332 C 
ATOM     22  O   UNL A   1      45.997  20.049  38.319  1.00  0.00    -0.249 OA
BRANCH  21  23
ATOM     23  O   UNL A   1      45.615  22.307  38.382  1.00  0.00    -0.464 OA
BRANCH  23  24
ATOM     24  C   UNL A   1      45.571  22.589  39.789  1.00  0.00     0.229 C 
ATOM     25  C   UNL A   1      45.457  24.083  40.004  1.00  0.00     0.049 C 
ENDBRANCH  23  24
ENDBRANCH  21  23
ENDBRANCH  14  21
BRANCH  17  26
ATOM     26  C   UNL A   1      46.411  22.216  35.044  1.00  0.00     0.045 A 
ATOM     27  C   UNL A   1      46.642  23.433  34.383  1.00  0.00     0.026 A 
ATOM     28  C   UNL A   1      45.115  21.684  34.965  1.00  0.00     0.026 A 
ATOM     29  C   UNL A   1      45.625  24.094  33.684  1.00  0.00     0.002 A 
ATOM     30  C   UNL A   1      44.091  22.350  34.277  1.00  0.00     0.002 A 
ATOM     31  C   UNL A   1      44.346  23.555  33.636  1.00  0.00     0.000 A 
ENDBRANCH  17  26
ENDBRANCH   8  13
ENDBRANCH   4   7
ENDBRANCH   2   3
ENDBRANCH   1   2
BRANCH   1  32
ATOM     32  C   UNL A   1      50.722  25.462  35.575  1.00  0.00     0.023 C 
BRANCH  32  33
ATOM     33  C   UNL A   1      49.225  25.762  35.604  1.00  0.00     0.116 C 
BRANCH  33  34
ATOM     34  N   UNL A   1      48.752  26.261  36.888  1.00  0.00    -0.352 N 
ATOM     35  C   UNL A   1      47.584  26.897  37.233  1.00  0.00     0.251 C 
ATOM     36  H   UNL A   1      49.376  26.118  37.636  1.00  0.00     0.163 HD
ATOM     37  O   UNL A   1      47.440  27.296  38.387  1.00  0.00    -0.269 OA
BRANCH  35  38
ATOM     38  C   UNL A   1      46.525  27.152  36.228  1.00  0.00     0.039 A 
ATOM     39  C   UNL A   1      45.310  26.471  36.357  1.00  0.00     0.014 A 
ATOM     40  C   UNL A   1      46.711  28.043  35.168  1.00  0.00     0.014 A 
ATOM     41  C   UNL A   1      44.250  26.762  35.494  1.00  0.00     0.010 A 
ATOM     42  C   UNL A   1      45.636  28.375  34.341  1.00  0.00     0.010 A 
ATOM     43  C   UNL A   1      44.388  27.758  34.514  1.00  0.00    -0.014 A 
BRANCH  43  44
ATOM     44  C   UNL A   1      43.221  28.225  33.721  1.00  0.00     0.031 A 
ATOM     45  C   UNL A   1      43.010  27.765  32.307  1.00  0.00     0.074 A 
ATOM     46  C   UNL A   1      42.384  29.135  34.261  1.00  0.00     0.049 A 
ATOM     47  N   UNL A   1      42.103  28.151  31.447  1.00  0.00    -0.248 NA
ATOM     48  C   UNL A   1      43.939  26.750  31.792  1.00  0.00     0.031 C 
ATOM     49  C   UNL A   1      42.498  29.693  35.610  1.00  0.00     0.029 A 
ATOM     50  N   UNL A   1      41.282  29.761  33.736  1.00  0.00    -0.354 N 
ATOM     51  C   UNL A   1      42.377  27.462  30.274  1.00  0.00     0.074 A 
ATOM     52  C   UNL A   1      43.529  26.623  30.536  1.00  0.00     0.031 C 
ATOM     53  C   UNL A   1      41.491  30.556  35.816  1.00  0.00     0.029 A 
ATOM     54  C   UNL A   1      40.683  30.642  34.604  1.00  0.00     0.049 A 
ATOM     55  H   UNL A   1      40.951  29.594  32.823  1.00  0.00     0.167 HD
ATOM     56  C   UNL A   1      41.719  27.505  29.092  1.00  0.00     0.034 A 
ATOM     57  C   UNL A   1      39.605  31.435  34.445  1.00  0.00     0.034 A 
ATOM     58  C   UNL A   1      40.534  28.279  28.841  1.00  0.00     0.049 A 
ATOM     59  C   UNL A   1      38.880  31.445  33.131  1.00  0.00     0.074 A 
ATOM     60  C   UNL A   1      39.768  28.335  27.689  1.00  0.00     0.029 A 
ATOM     61  N   UNL A   1      39.937  29.128  29.759  1.00  0.00    -0.354 N 
ATOM     62  N   UNL A   1      39.104  30.719  32.064  1.00  0.00    -0.248 NA
ATOM     63  C   UNL A   1      37.754  32.382  33.001  1.00  0.00     0.031 C 
ATOM     64  C   UNL A   1      38.692  29.201  27.919  1.00  0.00     0.029 A 
ATOM     65  C   UNL A   1      38.808  29.706  29.204  1.00  0.00     0.049 A 
ATOM     66  H   UNL A   1      40.267  29.295  30.672  1.00  0.00     0.167 HD
ATOM     67  C   UNL A   1      38.139  31.099  31.140  1.00  0.00     0.074 A 
ATOM     68  C   UNL A   1      37.320  32.111  31.776  1.00  0.00     0.031 C 
ATOM     69  C   UNL A   1      37.967  30.666  29.869  1.00  0.00     0.034 A 
BRANCH  56  70
ATOM     70  C   UNL A   1      42.231  26.621  27.994  1.00  0.00     0.023 A 
ATOM     71  C   UNL A   1      43.189  27.135  27.100  1.00  0.00     0.012 A 
ATOM     72  C   UNL A   1      41.794  25.292  27.853  1.00  0.00     0.148 A 
ATOM     73  C   UNL A   1      43.701  26.339  26.076  1.00  0.00     0.002 A 
ATOM     74  C   UNL A   1      42.312  24.504  26.830  1.00  0.00     0.091 A 
ATOM     75  F   UNL A   1      40.870  24.816  28.701  1.00  0.00    -0.205 F 
ATOM     76  C   UNL A   1      43.265  25.021  25.940  1.00  0.00     0.022 A 
BRANCH  74  77
ATOM     77  S   UNL A   1      41.740  22.814  26.640  1.00  0.00     0.127 S 
ATOM     78  O   UNL A   1      40.299  22.980  26.477  1.00  0.00    -0.237 OA
ATOM     79  O   UNL A   1      42.430  22.358  25.431  1.00  0.00    -0.237 OA
ATOM     80  O   UNL A   1      42.190  22.166  27.867  1.00  0.00    -0.744 OA
ENDBRANCH  74  77
ENDBRANCH  56  70
BRANCH  57  81
ATOM     81  C   UNL A   1      39.103  32.223  35.600  1.00  0.00     0.023 A 
ATOM     82  C   UNL A   1      38.190  31.620  36.485  1.00  0.00     0.012 A 
ATOM     83  C   UNL A   1      39.563  33.522  35.870  1.00  0.00     0.148 A 
ATOM     84  C   UNL A   1      37.741  32.301  37.618  1.00  0.00     0.002 A 
ATOM     85  C   UNL A   1      39.138  34.182  37.019  1.00  0.00     0.091 A 
ATOM     86  F   UNL A   1      40.429  34.092  35.018  1.00  0.00    -0.205 F 
ATOM     87  C   UNL A   1      38.222  33.580  37.892  1.00  0.00     0.022 A 
BRANCH  85  88
ATOM     88  S   UNL A   1      39.843  35.781  37.430  1.00  0.00     0.127 S 
ATOM     89  O   UNL A   1      39.115  36.147  38.641  1.00  0.00    -0.237 OA
ATOM     90  O   UNL A   1      41.260  35.480  37.639  1.00  0.00    -0.237 OA
ATOM     91  O   UNL A   1      39.575  36.577  36.237  1.00  0.00    -0.744 OA
ENDBRANCH  85  88
ENDBRANCH  57  81
BRANCH  69  92
ATOM     92  C   UNL A   1      36.853  31.283  29.076  1.00  0.00     0.023 A 
ATOM     93  C   UNL A   1      36.912  32.657  28.777  1.00  0.00     0.012 A 
ATOM     94  C   UNL A   1      35.788  30.511  28.581  1.00  0.00     0.148 A 
ATOM     95  C   UNL A   1      35.921  33.255  27.998  1.00  0.00     0.002 A 
ATOM     96  C   UNL A   1      34.809  31.113  27.795  1.00  0.00     0.091 A 
ATOM     97  F   UNL A   1      35.735  29.204  28.881  1.00  0.00    -0.205 F 
ATOM     98  C   UNL A   1      34.871  32.483  27.502  1.00  0.00     0.022 A 
BRANCH  96  99
ATOM     99  S   UNL A   1      33.471  30.119  27.131  1.00  0.00     0.127 S 
ATOM    100  O   UNL A   1      32.344  31.049  27.147  1.00  0.00    -0.237 OA
ATOM    101  O   UNL A   1      33.942  29.769  25.790  1.00  0.00    -0.237 OA
ATOM    102  O   UNL A   1      33.394  28.989  28.050  1.00  0.00    -0.744 OA
ENDBRANCH  96  99
ENDBRANCH  69  92
ENDBRANCH  43  44
ENDBRANCH  35  38
ENDBRANCH  33  34
ENDBRANCH  32  33
ENDBRANCH   1  32
TORSDOF 19
ENDMDL
MODEL 2
REMARK VINA RESULT:      -9.9      7.291     14.384
REMARK SMILES CCOC(=O)[C@@]1(C)C/C(=N/c2cccc(C(=O)NCCCCNC(=O)c3ccc(-c4c5nc(c(-c6cccc(S(=O)(=O)[O-])c6F)c6ccc([nH]6)c(-c6cccc(S(=O)(=O)[O-])c6F)c6nc(c(-c7cccc(S(=O)(=O)[O-])c7F)c7ccc4[nH]7)C=C6)C=C5)cc3)c2)C(=O)N1c1ccccc1
REMARK SMILES IDX 20 1 19 2 18 3 16 4 17 5 15 7 11 8 12 9 89 10 13 11 14 12
REMARK SMILES IDX 10 13 6 14 7 15 8 16 92 17 9 18 90 19 91 20 4 21 5 22 3 23
REMARK SMILES IDX 2 24 1 25 93 26 94 27 98 28 95 29 97 30 96 31 21 32 22 33
REMARK SMILES IDX 23 34 24 35 25 37 26 38 27 39 88 40 28 41 87 42 29 43 30 44
REMARK SMILES IDX 31 45 81 46 32 47 86 48 80 49 82 50 33 51 85 52 79 53 78 54
REMARK SMILES IDX 34 56 66 57 46 58 65 59 47 60 50 61 64 62 83 63 48 64 49 65
REMARK SMILES IDX 63 67 84 68 51 69 35 70 36 71 44 72 37 73 39 74 45 75 38 76
REMARK SMILES IDX 40 77 41 78 42 79 43 80 67 81 68 82 76 83 69 84 71 85 77 86
REMARK SMILES IDX 70 87 72 88 73 89 74 90 75 91 52 92 53 93 61 94 54 95 56 96
REMARK SMILES IDX 62 97 55 98 57 99 58 100 59 101 60 102
REMARK H PARENT 18 6 23 36 82 55 50 66
REMARK Flexibility Score: inf
ROOT
ATOM      1  C   UNL A   1      35.212  33.158  30.297  1.00  0.00     0.023 C 
ENDROOT
BRANCH   1   2
ATOM      2  C   UNL A   1      35.334  32.917  28.795  1.00  0.00     0.116 C 
BRANCH   2   3
ATOM      3  N   UNL A   1      35.871  31.621  28.430  1.00  0.00    -0.352 N 
ATOM      4  C   UNL A   1      35.309  30.594  27.708  1.00  0.00     0.251 C 
ATOM      5  O   UNL A   1      35.963  29.564  27.545  1.00  0.00    -0.269 OA
ATOM      6  H   UNL A   1      36.785  31.449  28.751  1.00  0.00     0.163 HD
BRANCH   4   7
ATOM      7  C   UNL A   1      33.926  30.659  27.163  1.00  0.00     0.041 A 
ATOM      8  C   UNL A   1      32.131  29.869  25.715  1.00  0.00     0.064 A 
ATOM      9  C   UNL A   1      31.334  30.932  26.139  1.00  0.00     0.028 A 
ATOM     10  C   UNL A   1      33.418  29.732  26.251  1.00  0.00     0.042 A 
ATOM     11  C   UNL A   1      31.804  31.835  27.094  1.00  0.00     0.003 A 
ATOM     12  C   UNL A   1      33.098  31.700  27.601  1.00  0.00     0.014 A 
BRANCH   8  13
ATOM     13  N   UNL A   1      31.711  29.092  24.626  1.00  0.00    -0.248 NA
ATOM     14  C   UNL A   1      32.343  25.776  23.918  1.00  0.00     0.148 C 
ATOM     15  C   UNL A   1      33.811  26.100  23.557  1.00  0.00     0.048 C 
ATOM     16  C   UNL A   1      31.448  26.968  23.497  1.00  0.00     0.103 C 
ATOM     17  N   UNL A   1      32.181  25.685  25.388  1.00  0.00    -0.290 N 
ATOM     18  C   UNL A   1      31.580  27.808  24.715  1.00  0.00     0.109 C 
ATOM     19  C   UNL A   1      31.711  26.894  25.907  1.00  0.00     0.273 C 
ATOM     20  O   UNL A   1      31.437  27.250  27.029  1.00  0.00    -0.267 OA
BRANCH  14  21
ATOM     21  C   UNL A   1      31.753  24.578  23.145  1.00  0.00     0.332 C 
ATOM     22  O   UNL A   1      30.558  24.325  23.067  1.00  0.00    -0.249 OA
BRANCH  21  23
ATOM     23  O   UNL A   1      32.727  23.918  22.457  1.00  0.00    -0.464 OA
BRANCH  23  24
ATOM     24  C   UNL A   1      32.600  22.490  22.370  1.00  0.00     0.229 C 
ATOM     25  C   UNL A   1      32.968  21.866  23.700  1.00  0.00     0.049 C 
ENDBRANCH  23  24
ENDBRANCH  21  23
ENDBRANCH  14  21
BRANCH  17  26
ATOM     26  C   UNL A   1      32.530  24.547  26.179  1.00  0.00     0.045 A 
ATOM     27  C   UNL A   1      33.873  24.202  26.398  1.00  0.00     0.026 A 
ATOM     28  C   UNL A   1      31.556  23.720  26.761  1.00  0.00     0.026 A 
ATOM     29  C   UNL A   1      34.229  23.078  27.154  1.00  0.00     0.002 A 
ATOM     30  C   UNL A   1      31.909  22.588  27.507  1.00  0.00     0.002 A 
ATOM     31  C   UNL A   1      33.246  22.267  27.705  1.00  0.00     0.000 A 
ENDBRANCH  17  26
ENDBRANCH   8  13
ENDBRANCH   4   7
ENDBRANCH   2   3
ENDBRANCH   1   2
BRANCH   1  32
ATOM     32  C   UNL A   1      36.515  33.377  31.070  1.00  0.00     0.023 C 
BRANCH  32  33
ATOM     33  C   UNL A   1      36.515  32.995  32.548  1.00  0.00     0.116 C 
BRANCH  33  34
ATOM     34  N   UNL A   1      36.382  31.565  32.785  1.00  0.00    -0.352 N 
ATOM     35  C   UNL A   1      37.224  30.520  32.490  1.00  0.00     0.251 C 
ATOM     36  H   UNL A   1      35.545  31.302  33.233  1.00  0.00     0.163 HD
ATOM     37  O   UNL A   1      36.855  29.371  32.727  1.00  0.00    -0.269 OA
BRANCH  35  38
ATOM     38  C   UNL A   1      38.540  30.755  31.851  1.00  0.00     0.039 A 
ATOM     39  C   UNL A   1      38.640  30.607  30.463  1.00  0.00     0.014 A 
ATOM     40  C   UNL A   1      39.669  31.114  32.593  1.00  0.00     0.014 A 
ATOM     41  C   UNL A   1      39.835  30.923  29.810  1.00  0.00     0.010 A 
ATOM     42  C   UNL A   1      40.844  31.484  31.936  1.00  0.00     0.010 A 
ATOM     43  C   UNL A   1      40.929  31.417  30.537  1.00  0.00    -0.014 A 
BRANCH  43  44
ATOM     44  C   UNL A   1      42.134  31.948  29.848  1.00  0.00     0.031 A 
ATOM     45  C   UNL A   1      43.267  31.041  29.460  1.00  0.00     0.074 A 
ATOM     46  C   UNL A   1      42.238  33.275  29.639  1.00  0.00     0.049 A 
ATOM     47  N   UNL A   1      44.428  31.355  28.944  1.00  0.00    -0.248 NA
ATOM     48  C   UNL A   1      43.075  29.601  29.687  1.00  0.00     0.031 C 
ATOM     49  C   UNL A   1      41.227  34.271  30.002  1.00  0.00     0.029 A 
ATOM     50  N   UNL A   1      43.249  34.019  29.083  1.00  0.00    -0.354 N 
ATOM     51  C   UNL A   1      45.124  30.160  28.826  1.00  0.00     0.074 A 
ATOM     52  C   UNL A   1      44.251  29.112  29.312  1.00  0.00     0.031 C 
ATOM     53  C   UNL A   1      41.656  35.488  29.635  1.00  0.00     0.029 A 
ATOM     54  C   UNL A   1      42.986  35.367  29.046  1.00  0.00     0.049 A 
ATOM     55  H   UNL A   1      44.085  33.623  28.743  1.00  0.00     0.167 HD
ATOM     56  C   UNL A   1      46.369  29.950  28.337  1.00  0.00     0.034 A 
ATOM     57  C   UNL A   1      43.729  36.395  28.592  1.00  0.00     0.034 A 
ATOM     58  C   UNL A   1      47.218  30.972  27.787  1.00  0.00     0.049 A 
ATOM     59  C   UNL A   1      45.097  36.130  28.034  1.00  0.00     0.074 A 
ATOM     60  C   UNL A   1      48.471  30.836  27.214  1.00  0.00     0.029 A 
ATOM     61  N   UNL A   1      46.897  32.318  27.732  1.00  0.00    -0.354 N 
ATOM     62  N   UNL A   1      45.700  34.982  27.851  1.00  0.00    -0.248 NA
ATOM     63  C   UNL A   1      45.884  37.301  27.619  1.00  0.00     0.031 C 
ATOM     64  C   UNL A   1      48.899  32.100  26.791  1.00  0.00     0.029 A 
ATOM     65  C   UNL A   1      47.923  33.024  27.129  1.00  0.00     0.049 A 
ATOM     66  H   UNL A   1      46.062  32.715  28.072  1.00  0.00     0.167 HD
ATOM     67  C   UNL A   1      46.931  35.289  27.285  1.00  0.00     0.074 A 
ATOM     68  C   UNL A   1      46.984  36.730  27.144  1.00  0.00     0.031 C 
ATOM     69  C   UNL A   1      47.938  34.451  26.940  1.00  0.00     0.034 A 
BRANCH  56  70
ATOM     70  C   UNL A   1      46.859  28.533  28.307  1.00  0.00     0.023 A 
ATOM     71  C   UNL A   1      47.631  28.058  29.384  1.00  0.00     0.012 A 
ATOM     72  C   UNL A   1      46.547  27.667  27.244  1.00  0.00     0.148 A 
ATOM     73  C   UNL A   1      48.092  26.742  29.399  1.00  0.00     0.002 A 
ATOM     74  C   UNL A   1      47.008  26.355  27.268  1.00  0.00     0.091 A 
ATOM     75  F   UNL A   1      45.822  28.133  26.215  1.00  0.00    -0.205 F 
ATOM     76  C   UNL A   1      47.779  25.888  28.343  1.00  0.00     0.022 A 
BRANCH  74  77
ATOM     77  S   UNL A   1      46.624  25.256  25.903  1.00  0.00     0.127 S 
ATOM     78  O   UNL A   1      45.176  25.105  26.012  1.00  0.00    -0.237 OA
ATOM     79  O   UNL A   1      47.060  26.013  24.727  1.00  0.00    -0.237 OA
ATOM     80  O   UNL A   1      47.428  24.073  26.186  1.00  0.00    -0.744 OA
ENDBRANCH  74  77
ENDBRANCH  56  70
BRANCH  57  81
ATOM     81  C   UNL A   1      43.151  37.763  28.576  1.00  0.00     0.023 A 
ATOM     82  C   UNL A   1      42.300  38.125  27.515  1.00  0.00     0.012 A 
ATOM     83  C   UNL A   1      43.373  38.677  29.619  1.00  0.00     0.148 A 
ATOM     84  C   UNL A   1      41.683  39.377  27.493  1.00  0.00     0.002 A 
ATOM     85  C   UNL A   1      42.728  39.911  29.608  1.00  0.00     0.091 A 
ATOM     86  F   UNL A   1      44.190  38.326  30.624  1.00  0.00    -0.205 F 
ATOM     87  C   UNL A   1      41.890  40.269  28.545  1.00  0.00     0.022 A 
BRANCH  85  88
ATOM     88  S   UNL A   1      42.905  41.011  31.015  1.00  0.00     0.127 S 
ATOM     89  O   UNL A   1      44.270  41.505  30.862  1.00  0.00    -0.237 OA
ATOM     90  O   UNL A   1      41.864  42.015  30.788  1.00  0.00    -0.237 OA
ATOM     91  O   UNL A   1      42.648  40.135  32.154  1.00  0.00    -0.744 OA
ENDBRANCH  85  88
ENDBRANCH  57  81
BRANCH  69  92
ATOM     92  C   UNL A   1      49.184  35.067  26.377  1.00  0.00     0.023 A 
ATOM     93  C   UNL A   1      49.245  35.337  24.997  1.00  0.00     0.012 A 
ATOM     94  C   UNL A   1      50.262  35.433  27.203  1.00  0.00     0.148 A 
ATOM     95  C   UNL A   1      50.366  35.957  24.446  1.00  0.00     0.002 A 
ATOM     96  C   UNL A   1      51.372  36.063  26.647  1.00  0.00     0.091 A 
ATOM     97  F   UNL A   1      50.198  35.162  28.516  1.00  0.00    -0.205 F 
ATOM     98  C   UNL A   1      51.429  36.325  25.271  1.00  0.00     0.022 A 
BRANCH  96  99
ATOM     99  S   UNL A   1      52.730  36.563  27.707  1.00  0.00     0.127 S 
ATOM    100  O   UNL A   1      52.098  37.529  28.601  1.00  0.00    -0.237 OA
ATOM    101  O   UNL A   1      53.130  35.314  28.357  1.00  0.00    -0.237 OA
ATOM    102  O   UNL A   1      53.717  37.092  26.772  1.00  0.00    -0.744 OA
ENDBRANCH  96  99
ENDBRANCH  69  92
ENDBRANCH  43  44
ENDBRANCH  35  38
ENDBRANCH  33  34
ENDBRANCH  32  33
ENDBRANCH   1  32
TORSDOF 19
ENDMDL
MODEL 3
REMARK VINA RESULT:      -9.3      4.019     13.407
REMARK SMILES CCOC(=O)[C@@]1(C)C/C(=N/c2cccc(C(=O)NCCCCNC(=O)c3ccc(-c4c5nc(c(-c6cccc(S(=O)(=O)[O-])c6F)c6ccc([nH]6)c(-c6cccc(S(=O)(=O)[O-])c6F)c6nc(c(-c7cccc(S(=O)(=O)[O-])c7F)c7ccc4[nH]7)C=C6)C=C5)cc3)c2)C(=O)N1c1ccccc1
REMARK SMILES IDX 20 1 19 2 18 3 16 4 17 5 15 7 11 8 12 9 89 10 13 11 14 12
REMARK SMILES IDX 10 13 6 14 7 15 8 16 92 17 9 18 90 19 91 20 4 21 5 22 3 23
REMARK SMILES IDX 2 24 1 25 93 26 94 27 98 28 95 29 97 30 96 31 21 32 22 33
REMARK SMILES IDX 23 34 24 35 25 37 26 38 27 39 88 40 28 41 87 42 29 43 30 44
REMARK SMILES IDX 31 45 81 46 32 47 86 48 80 49 82 50 33 51 85 52 79 53 78 54
REMARK SMILES IDX 34 56 66 57 46 58 65 59 47 60 50 61 64 62 83 63 48 64 49 65
REMARK SMILES IDX 63 67 84 68 51 69 35 70 36 71 44 72 37 73 39 74 45 75 38 76
REMARK SMILES IDX 40 77 41 78 42 79 43 80 67 81 68 82 76 83 69 84 71 85 77 86
REMARK SMILES IDX 70 87 72 88 73 89 74 90 75 91 52 92 53 93 61 94 54 95 56 96
REMARK SMILES IDX 62 97 55 98 57 99 58 100 59 101 60 102
REMARK H PARENT 18 6 23 36 82 55 50 66
REMARK Flexibility Score: inf
ROOT
ATOM      1  C   UNL A   1      38.179  31.545  29.052  1.00  0.00     0.023 C 
ENDROOT
BRANCH   1   2
ATOM      2  C   UNL A   1      37.139  32.647  28.872  1.00  0.00     0.116 C 
BRANCH   2   3
ATOM      3  N   UNL A   1      35.817  32.179  28.507  1.00  0.00    -0.352 N 
ATOM      4  C   UNL A   1      34.584  32.491  29.033  1.00  0.00     0.251 C 
ATOM      5  O   UNL A   1      33.589  31.940  28.565  1.00  0.00    -0.269 OA
ATOM      6  H   UNL A   1      35.798  31.535  27.764  1.00  0.00     0.163 HD
BRANCH   4   7
ATOM      7  C   UNL A   1      34.414  33.426  30.179  1.00  0.00     0.041 A 
ATOM      8  C   UNL A   1      34.682  34.052  32.520  1.00  0.00     0.064 A 
ATOM      9  C   UNL A   1      33.957  35.219  32.281  1.00  0.00     0.028 A 
ATOM     10  C   UNL A   1      34.922  33.173  31.455  1.00  0.00     0.042 A 
ATOM     11  C   UNL A   1      33.493  35.516  30.998  1.00  0.00     0.003 A 
ATOM     12  C   UNL A   1      33.718  34.620  29.952  1.00  0.00     0.014 A 
BRANCH   8  13
ATOM     13  N   UNL A   1      34.974  33.687  33.842  1.00  0.00    -0.248 NA
ATOM     14  C   UNL A   1      37.976  32.737  35.250  1.00  0.00     0.148 C 
ATOM     15  C   UNL A   1      37.920  31.372  34.525  1.00  0.00     0.048 C 
ATOM     16  C   UNL A   1      36.535  33.170  35.617  1.00  0.00     0.103 C 
ATOM     17  N   UNL A   1      38.461  33.792  34.328  1.00  0.00    -0.290 N 
ATOM     18  C   UNL A   1      36.155  33.840  34.346  1.00  0.00     0.109 C 
ATOM     19  C   UNL A   1      37.388  34.488  33.768  1.00  0.00     0.273 C 
ATOM     20  O   UNL A   1      37.328  35.411  32.989  1.00  0.00    -0.267 OA
BRANCH  14  21
ATOM     21  C   UNL A   1      38.710  32.702  36.606  1.00  0.00     0.332 C 
ATOM     22  O   UNL A   1      39.448  31.795  36.972  1.00  0.00    -0.249 OA
BRANCH  21  23
ATOM     23  O   UNL A   1      38.531  33.871  37.285  1.00  0.00    -0.464 OA
BRANCH  23  24
ATOM     24  C   UNL A   1      38.302  33.766  38.698  1.00  0.00     0.229 C 
ATOM     25  C   UNL A   1      37.406  32.579  38.982  1.00  0.00     0.049 C 
ENDBRANCH  23  24
ENDBRANCH  21  23
ENDBRANCH  14  21
BRANCH  17  26
ATOM     26  C   UNL A   1      39.833  34.016  33.994  1.00  0.00     0.045 A 
ATOM     27  C   UNL A   1      40.523  33.141  33.142  1.00  0.00     0.026 A 
ATOM     28  C   UNL A   1      40.552  35.108  34.506  1.00  0.00     0.026 A 
ATOM     29  C   UNL A   1      41.872  33.338  32.823  1.00  0.00     0.002 A 
ATOM     30  C   UNL A   1      41.906  35.300  34.199  1.00  0.00     0.002 A 
ATOM     31  C   UNL A   1      42.566  34.416  33.356  1.00  0.00     0.000 A 
ENDBRANCH  17  26
ENDBRANCH   8  13
ENDBRANCH   4   7
ENDBRANCH   2   3
ENDBRANCH   1   2
BRANCH   1  32
ATOM     32  C   UNL A   1      37.997  30.278  28.213  1.00  0.00     0.023 C 
BRANCH  32  33
ATOM     33  C   UNL A   1      37.558  29.015  28.951  1.00  0.00     0.116 C 
BRANCH  33  34
ATOM     34  N   UNL A   1      36.890  29.279  30.218  1.00  0.00    -0.352 N 
ATOM     35  C   UNL A   1      37.374  29.306  31.504  1.00  0.00     0.251 C 
ATOM     36  H   UNL A   1      35.927  29.471  30.139  1.00  0.00     0.163 HD
ATOM     37  O   UNL A   1      36.588  29.484  32.433  1.00  0.00    -0.269 OA
BRANCH  35  38
ATOM     38  C   UNL A   1      38.810  29.075  31.786  1.00  0.00     0.039 A 
ATOM     39  C   UNL A   1      39.185  27.859  32.366  1.00  0.00     0.014 A 
ATOM     40  C   UNL A   1      39.784  30.033  31.492  1.00  0.00     0.014 A 
ATOM     41  C   UNL A   1      40.538  27.559  32.550  1.00  0.00     0.010 A 
ATOM     42  C   UNL A   1      41.137  29.711  31.623  1.00  0.00     0.010 A 
ATOM     43  C   UNL A   1      41.526  28.462  32.128  1.00  0.00    -0.014 A 
BRANCH  43  44
ATOM     44  C   UNL A   1      42.964  28.084  32.126  1.00  0.00     0.031 A 
ATOM     45  C   UNL A   1      43.597  27.451  30.920  1.00  0.00     0.074 A 
ATOM     46  C   UNL A   1      43.685  28.245  33.254  1.00  0.00     0.049 A 
ATOM     47  N   UNL A   1      44.807  26.973  30.787  1.00  0.00    -0.248 NA
ATOM     48  C   UNL A   1      42.764  27.334  29.715  1.00  0.00     0.031 C 
ATOM     49  C   UNL A   1      43.180  28.811  34.507  1.00  0.00     0.029 A 
ATOM     50  N   UNL A   1      44.992  27.934  33.534  1.00  0.00    -0.354 N 
ATOM     51  C   UNL A   1      44.870  26.457  29.500  1.00  0.00     0.074 A 
ATOM     52  C   UNL A   1      43.578  26.692  28.887  1.00  0.00     0.031 C 
ATOM     53  C   UNL A   1      44.173  28.833  35.411  1.00  0.00     0.029 A 
ATOM     54  C   UNL A   1      45.371  28.249  34.817  1.00  0.00     0.049 A 
ATOM     55  H   UNL A   1      45.601  27.524  32.877  1.00  0.00     0.167 HD
ATOM     56  C   UNL A   1      45.912  25.861  28.875  1.00  0.00     0.034 A 
ATOM     57  C   UNL A   1      46.549  28.086  35.449  1.00  0.00     0.034 A 
ATOM     58  C   UNL A   1      47.220  25.685  29.448  1.00  0.00     0.049 A 
ATOM     59  C   UNL A   1      47.696  27.443  34.725  1.00  0.00     0.074 A 
ATOM     60  C   UNL A   1      48.352  25.145  28.862  1.00  0.00     0.029 A 
ATOM     61  N   UNL A   1      47.573  26.054  30.736  1.00  0.00    -0.354 N 
ATOM     62  N   UNL A   1      47.759  27.042  33.479  1.00  0.00    -0.248 NA
ATOM     63  C   UNL A   1      48.932  27.231  35.493  1.00  0.00     0.031 C 
ATOM     64  C   UNL A   1      49.399  25.209  29.791  1.00  0.00     0.029 A 
ATOM     65  C   UNL A   1      48.906  25.762  30.962  1.00  0.00     0.049 A 
ATOM     66  H   UNL A   1      46.965  26.464  31.393  1.00  0.00     0.167 HD
ATOM     67  C   UNL A   1      49.044  26.546  33.308  1.00  0.00     0.074 A 
ATOM     68  C   UNL A   1      49.732  26.706  34.573  1.00  0.00     0.031 C 
ATOM     69  C   UNL A   1      49.595  25.981  32.206  1.00  0.00     0.034 A 
BRANCH  56  70
ATOM     70  C   UNL A   1      45.697  25.421  27.458  1.00  0.00     0.023 A 
ATOM     71  C   UNL A   1      45.817  26.371  26.427  1.00  0.00     0.012 A 
ATOM     72  C   UNL A   1      45.401  24.085  27.137  1.00  0.00     0.148 A 
ATOM     73  C   UNL A   1      45.640  25.997  25.095  1.00  0.00     0.002 A 
ATOM     74  C   UNL A   1      45.228  23.719  25.806  1.00  0.00     0.091 A 
ATOM     75  F   UNL A   1      45.274  23.188  28.128  1.00  0.00    -0.205 F 
ATOM     76  C   UNL A   1      45.348  24.670  24.782  1.00  0.00     0.022 A 
BRANCH  74  77
ATOM     77  S   UNL A   1      44.833  22.017  25.399  1.00  0.00     0.127 S 
ATOM     78  O   UNL A   1      43.671  21.749  26.241  1.00  0.00    -0.237 OA
ATOM     79  O   UNL A   1      44.535  22.073  23.966  1.00  0.00    -0.237 OA
ATOM     80  O   UNL A   1      46.059  21.299  25.728  1.00  0.00    -0.744 OA
ENDBRANCH  74  77
ENDBRANCH  56  70
BRANCH  57  81
ATOM     81  C   UNL A   1      46.719  28.619  36.826  1.00  0.00     0.023 A 
ATOM     82  C   UNL A   1      47.146  29.950  36.987  1.00  0.00     0.012 A 
ATOM     83  C   UNL A   1      46.401  27.858  37.962  1.00  0.00     0.148 A 
ATOM     84  C   UNL A   1      47.258  30.512  38.260  1.00  0.00     0.002 A 
ATOM     85  C   UNL A   1      46.481  28.435  39.226  1.00  0.00     0.091 A 
ATOM     86  F   UNL A   1      45.999  26.588  37.799  1.00  0.00    -0.205 F 
ATOM     87  C   UNL A   1      46.916  29.758  39.381  1.00  0.00     0.022 A 
BRANCH  85  88
ATOM     88  S   UNL A   1      45.934  27.502  40.659  1.00  0.00     0.127 S 
ATOM     89  O   UNL A   1      46.141  28.447  41.751  1.00  0.00    -0.237 OA
ATOM     90  O   UNL A   1      44.530  27.217  40.357  1.00  0.00    -0.237 OA
ATOM     91  O   UNL A   1      46.797  26.325  40.636  1.00  0.00    -0.744 OA
ENDBRANCH  85  88
ENDBRANCH  57  81
BRANCH  69  92
ATOM     92  C   UNL A   1      51.009  25.494  32.316  1.00  0.00     0.023 A 
ATOM     93  C   UNL A   1      52.059  26.424  32.200  1.00  0.00     0.012 A 
ATOM     94  C   UNL A   1      51.304  24.147  32.590  1.00  0.00     0.148 A 
ATOM     95  C   UNL A   1      53.385  26.017  32.349  1.00  0.00     0.002 A 
ATOM     96  C   UNL A   1      52.629  23.751  32.749  1.00  0.00     0.091 A 
ATOM     97  F   UNL A   1      50.296  23.266  32.689  1.00  0.00    -0.205 F 
ATOM     98  C   UNL A   1      53.671  24.681  32.629  1.00  0.00     0.022 A 
BRANCH  96  99
ATOM     99  S   UNL A   1      53.002  22.039  33.137  1.00  0.00     0.127 S 
ATOM    100  O   UNL A   1      54.462  22.023  33.140  1.00  0.00    -0.237 OA
ATOM    101  O   UNL A   1      52.396  21.850  34.456  1.00  0.00    -0.237 OA
ATOM    102  O   UNL A   1      52.346  21.295  32.067  1.00  0.00    -0.744 OA
ENDBRANCH  96  99
ENDBRANCH  69  92
ENDBRANCH  43  44
ENDBRANCH  35  38
ENDBRANCH  33  34
ENDBRANCH  32  33
ENDBRANCH   1  32
TORSDOF 19
ENDMDL
