MODEL 1
REMARK VINA RESULT:     -12.4      0.000      0.000
REMARK SMILES CC1(C)CCC[C@H]1NC(=O)N[C@@H]1COC[C@@]1(C)C(=O)NCCCCNC(=O)c1ccc(-c2c3nc(c(-c4cccc(S(=O)(=O)[O-])c4F)c4ccc([nH]4)c(-c4cccc(S(=O)(=O)[O-])c4F)c4nc(c(-c5cccc(S(=O)(=O)[O-])c5F)c5ccc2[nH]5)C=C4)C=C3)cc1
REMARK SMILES IDX 23 1 22 2 21 3 20 4 18 5 19 6 16 8 12 9 13 10 14 11 15 12
REMARK SMILES IDX 17 13 11 14 8 15 9 16 10 18 7 20 1 21 2 22 3 23 4 24 5 25
REMARK SMILES IDX 6 26 24 27 25 28 26 29 27 31 28 32 29 33 90 34 30 35 89 36
REMARK SMILES IDX 31 37 32 38 33 39 83 40 34 41 88 42 82 43 84 44 35 45 87 46
REMARK SMILES IDX 81 47 80 48 36 50 68 51 48 52 67 53 49 54 52 55 66 56 85 57
REMARK SMILES IDX 50 58 51 59 65 61 86 62 53 63 37 64 38 65 46 66 39 67 41 68
REMARK SMILES IDX 47 69 40 70 42 71 43 72 44 73 45 74 69 75 70 76 78 77 71 78
REMARK SMILES IDX 73 79 79 80 72 81 74 82 75 83 76 84 77 85 54 86 55 87 63 88
REMARK SMILES IDX 56 89 58 90 64 91 57 92 59 93 60 94 61 95 62 96
REMARK H PARENT 20 7 8 17 11 19 25 30 84 49 52 60
REMARK Flexibility Score: inf
ROOT
ATOM      1  C   UNL A   1      31.712  29.890  26.442  1.00  0.00     0.023 C 
ENDROOT
BRANCH   1   2
ATOM      2  C   UNL A   1      31.659  28.499  27.064  1.00  0.00     0.023 C 
BRANCH   2   3
ATOM      3  C   UNL A   1      31.538  27.303  26.114  1.00  0.00     0.116 C 
BRANCH   3   4
ATOM      4  N   UNL A   1      31.329  27.599  24.706  1.00  0.00    -0.355 N 
ATOM      5  C   UNL A   1      31.431  26.806  23.595  1.00  0.00     0.230 C 
ATOM      6  O   UNL A   1      30.874  27.214  22.573  1.00  0.00    -0.274 OA
ATOM      7  H   UNL A   1      31.070  28.531  24.520  1.00  0.00     0.163 HD
BRANCH   5   8
ATOM      8  C   UNL A   1      32.273  25.523  23.582  1.00  0.00     0.092 C 
ATOM      9  C   UNL A   1      31.586  24.257  24.128  1.00  0.00     0.127 C 
ATOM     10  C   UNL A   1      31.870  23.138  23.127  1.00  0.00     0.186 C 
ATOM     11  O   UNL A   1      32.763  23.673  22.149  1.00  0.00    -0.378 OA
ATOM     12  C   UNL A   1      32.527  25.091  22.120  1.00  0.00     0.179 C 
ATOM     13  C   UNL A   1      33.616  25.871  24.175  1.00  0.00     0.026 C 
BRANCH   9  14
ATOM     14  N   UNL A   1      31.746  23.837  25.529  1.00  0.00    -0.332 N 
ATOM     15  N   UNL A   1      33.753  22.663  26.076  1.00  0.00    -0.335 N 
ATOM     16  C   UNL A   1      32.581  23.221  26.358  1.00  0.00     0.315 C 
ATOM     17  H   UNL A   1      34.267  22.482  26.896  1.00  0.00     0.165 HD
ATOM     18  O   UNL A   1      32.228  23.188  27.543  1.00  0.00    -0.249 OA
ATOM     19  H   UNL A   1      30.947  24.111  26.034  1.00  0.00     0.165 HD
BRANCH  15  20
ATOM     20  C   UNL A   1      34.493  22.245  24.885  1.00  0.00     0.089 C 
ATOM     21  C   UNL A   1      36.357  23.955  25.700  1.00  0.00     0.013 C 
ATOM     22  C   UNL A   1      36.005  22.692  24.893  1.00  0.00    -0.015 C 
ATOM     23  C   UNL A   1      36.542  22.869  23.449  1.00  0.00     0.013 C 
ATOM     24  C   UNL A   1      36.705  21.486  25.540  1.00  0.00     0.008 C 
ATOM     25  C   UNL A   1      36.007  20.289  24.929  1.00  0.00     0.003 C 
ATOM     26  C   UNL A   1      34.539  20.696  24.859  1.00  0.00     0.025 C 
ENDBRANCH  15  20
ENDBRANCH   9  14
ENDBRANCH   5   8
ENDBRANCH   3   4
ENDBRANCH   2   3
ENDBRANCH   1   2
BRANCH   1  27
ATOM     27  C   UNL A   1      33.032  30.615  26.598  1.00  0.00     0.116 C 
BRANCH  27  28
ATOM     28  N   UNL A   1      32.908  32.009  26.993  1.00  0.00    -0.352 N 
ATOM     29  C   UNL A   1      33.792  32.745  27.758  1.00  0.00     0.251 C 
ATOM     30  H   UNL A   1      32.104  32.482  26.679  1.00  0.00     0.163 HD
ATOM     31  O   UNL A   1      33.532  33.887  28.089  1.00  0.00    -0.269 OA
BRANCH  29  32
ATOM     32  C   UNL A   1      35.038  32.087  28.215  1.00  0.00     0.039 A 
ATOM     33  C   UNL A   1      36.228  32.817  28.206  1.00  0.00     0.014 A 
ATOM     34  C   UNL A   1      35.008  30.788  28.724  1.00  0.00     0.014 A 
ATOM     35  C   UNL A   1      37.376  32.259  28.770  1.00  0.00     0.010 A 
ATOM     36  C   UNL A   1      36.118  30.283  29.385  1.00  0.00     0.010 A 
ATOM     37  C   UNL A   1      37.321  31.001  29.393  1.00  0.00    -0.014 A 
BRANCH  37  38
ATOM     38  C   UNL A   1      38.518  30.404  30.033  1.00  0.00     0.031 A 
ATOM     39  C   UNL A   1      38.916  30.833  31.421  1.00  0.00     0.074 A 
ATOM     40  C   UNL A   1      39.286  29.538  29.342  1.00  0.00     0.049 A 
ATOM     41  N   UNL A   1      39.934  30.442  32.143  1.00  0.00    -0.248 NA
ATOM     42  C   UNL A   1      38.086  31.863  32.071  1.00  0.00     0.031 C 
ATOM     43  C   UNL A   1      39.062  29.129  27.953  1.00  0.00     0.029 A 
ATOM     44  N   UNL A   1      40.421  28.860  29.708  1.00  0.00    -0.354 N 
ATOM     45  C   UNL A   1      39.886  31.200  33.307  1.00  0.00     0.074 A 
ATOM     46  C   UNL A   1      38.774  32.113  33.173  1.00  0.00     0.031 C 
ATOM     47  C   UNL A   1      40.016  28.254  27.593  1.00  0.00     0.029 A 
ATOM     48  C   UNL A   1      40.930  28.058  28.713  1.00  0.00     0.049 A 
ATOM     49  H   UNL A   1      40.832  28.941  30.599  1.00  0.00     0.167 HD
ATOM     50  C   UNL A   1      40.667  31.116  34.409  1.00  0.00     0.034 A 
ATOM     51  C   UNL A   1      42.007  27.248  28.713  1.00  0.00     0.034 A 
ATOM     52  C   UNL A   1      41.730  30.163  34.559  1.00  0.00     0.049 A 
ATOM     53  C   UNL A   1      42.816  27.119  29.975  1.00  0.00     0.074 A 
ATOM     54  C   UNL A   1      42.517  29.920  35.671  1.00  0.00     0.029 A 
ATOM     55  N   UNL A   1      42.157  29.296  33.566  1.00  0.00    -0.354 N 
ATOM     56  N   UNL A   1      42.645  27.715  31.130  1.00  0.00    -0.248 NA
ATOM     57  C   UNL A   1      43.943  26.175  29.947  1.00  0.00     0.031 C 
ATOM     58  C   UNL A   1      43.434  28.915  35.341  1.00  0.00     0.029 A 
ATOM     59  C   UNL A   1      43.201  28.518  34.034  1.00  0.00     0.049 A 
ATOM     60  H   UNL A   1      41.773  29.240  32.661  1.00  0.00     0.167 HD
ATOM     61  C   UNL A   1      43.619  27.196  31.976  1.00  0.00     0.074 A 
ATOM     62  C   UNL A   1      44.359  26.217  31.206  1.00  0.00     0.031 C 
ATOM     63  C   UNL A   1      43.891  27.514  33.266  1.00  0.00     0.034 A 
BRANCH  50  64
ATOM     64  C   UNL A   1      40.351  32.035  35.560  1.00  0.00     0.023 A 
ATOM     65  C   UNL A   1      41.140  33.187  35.766  1.00  0.00     0.012 A 
ATOM     66  C   UNL A   1      39.256  31.789  36.409  1.00  0.00     0.148 A 
ATOM     67  C   UNL A   1      40.869  34.055  36.823  1.00  0.00     0.002 A 
ATOM     68  C   UNL A   1      38.964  32.684  37.432  1.00  0.00     0.091 A 
ATOM     69  F   UNL A   1      38.532  30.677  36.213  1.00  0.00    -0.205 F 
ATOM     70  C   UNL A   1      39.776  33.809  37.648  1.00  0.00     0.022 A 
BRANCH  68  71
ATOM     71  S   UNL A   1      37.532  32.501  38.501  1.00  0.00     0.127 S 
ATOM     72  O   UNL A   1      37.883  33.380  39.615  1.00  0.00    -0.237 OA
ATOM     73  O   UNL A   1      36.449  32.997  37.651  1.00  0.00    -0.237 OA
ATOM     74  O   UNL A   1      37.450  31.083  38.824  1.00  0.00    -0.744 OA
ENDBRANCH  68  71
ENDBRANCH  50  64
BRANCH  51  75
ATOM     75  C   UNL A   1      42.327  26.433  27.507  1.00  0.00     0.023 A 
ATOM     76  C   UNL A   1      43.046  27.019  26.447  1.00  0.00     0.012 A 
ATOM     77  C   UNL A   1      41.953  25.078  27.414  1.00  0.00     0.148 A 
ATOM     78  C   UNL A   1      43.356  26.284  25.302  1.00  0.00     0.002 A 
ATOM     79  C   UNL A   1      42.312  24.336  26.295  1.00  0.00     0.091 A 
ATOM     80  F   UNL A   1      41.261  24.539  28.428  1.00  0.00    -0.205 F 
ATOM     81  C   UNL A   1      42.998  24.941  25.229  1.00  0.00     0.022 A 
BRANCH  79  82
ATOM     82  S   UNL A   1      42.008  22.569  26.174  1.00  0.00     0.127 S 
ATOM     83  O   UNL A   1      42.674  22.235  24.918  1.00  0.00    -0.237 OA
ATOM     84  O   UNL A   1      42.674  22.065  27.377  1.00  0.00    -0.237 OA
ATOM     85  O   UNL A   1      40.560  22.420  26.185  1.00  0.00    -0.744 OA
ENDBRANCH  79  82
ENDBRANCH  51  75
BRANCH  63  86
ATOM     86  C   UNL A   1      45.020  26.781  33.939  1.00  0.00     0.023 A 
ATOM     87  C   UNL A   1      46.332  27.288  33.852  1.00  0.00     0.012 A 
ATOM     88  C   UNL A   1      44.771  25.632  34.717  1.00  0.00     0.148 A 
ATOM     89  C   UNL A   1      47.384  26.643  34.500  1.00  0.00     0.002 A 
ATOM     90  C   UNL A   1      45.817  25.026  35.401  1.00  0.00     0.091 A 
ATOM     91  F   UNL A   1      43.519  25.157  34.772  1.00  0.00    -0.205 F 
ATOM     92  C   UNL A   1      47.126  25.521  35.283  1.00  0.00     0.022 A 
BRANCH  90  93
ATOM     93  S   UNL A   1      45.559  23.637  36.512  1.00  0.00     0.127 S 
ATOM     94  O   UNL A   1      46.932  23.279  36.864  1.00  0.00    -0.237 OA
ATOM     95  O   UNL A   1      44.789  24.246  37.597  1.00  0.00    -0.237 OA
ATOM     96  O   UNL A   1      44.829  22.639  35.741  1.00  0.00    -0.744 OA
ENDBRANCH  90  93
ENDBRANCH  63  86
ENDBRANCH  37  38
ENDBRANCH  29  32
ENDBRANCH  27  28
ENDBRANCH   1  27
TORSDOF 16
ENDMDL
MODEL 2
REMARK VINA RESULT:     -12.3      2.383      2.872
REMARK SMILES CC1(C)CCC[C@H]1NC(=O)N[C@@H]1COC[C@@]1(C)C(=O)NCCCCNC(=O)c1ccc(-c2c3nc(c(-c4cccc(S(=O)(=O)[O-])c4F)c4ccc([nH]4)c(-c4cccc(S(=O)(=O)[O-])c4F)c4nc(c(-c5cccc(S(=O)(=O)[O-])c5F)c5ccc2[nH]5)C=C4)C=C3)cc1
REMARK SMILES IDX 23 1 22 2 21 3 20 4 18 5 19 6 16 8 12 9 13 10 14 11 15 12
REMARK SMILES IDX 17 13 11 14 8 15 9 16 10 18 7 20 1 21 2 22 3 23 4 24 5 25
REMARK SMILES IDX 6 26 24 27 25 28 26 29 27 31 28 32 29 33 90 34 30 35 89 36
REMARK SMILES IDX 31 37 32 38 33 39 83 40 34 41 88 42 82 43 84 44 35 45 87 46
REMARK SMILES IDX 81 47 80 48 36 50 68 51 48 52 67 53 49 54 52 55 66 56 85 57
REMARK SMILES IDX 50 58 51 59 65 61 86 62 53 63 37 64 38 65 46 66 39 67 41 68
REMARK SMILES IDX 47 69 40 70 42 71 43 72 44 73 45 74 69 75 70 76 78 77 71 78
REMARK SMILES IDX 73 79 79 80 72 81 74 82 75 83 76 84 77 85 54 86 55 87 63 88
REMARK SMILES IDX 56 89 58 90 64 91 57 92 59 93 60 94 61 95 62 96
REMARK H PARENT 20 7 8 17 11 19 25 30 84 49 52 60
REMARK Flexibility Score: inf
ROOT
ATOM      1  C   UNL A   1      33.398  28.149  27.095  1.00  0.00     0.023 C 
ENDROOT
BRANCH   1   2
ATOM      2  C   UNL A   1      31.878  28.067  27.176  1.00  0.00     0.023 C 
BRANCH   2   3
ATOM      3  C   UNL A   1      31.160  27.193  26.142  1.00  0.00     0.116 C 
BRANCH   3   4
ATOM      4  N   UNL A   1      31.198  27.643  24.760  1.00  0.00    -0.355 N 
ATOM      5  C   UNL A   1      31.481  26.969  23.603  1.00  0.00     0.230 C 
ATOM      6  O   UNL A   1      31.112  27.499  22.552  1.00  0.00    -0.274 OA
ATOM      7  H   UNL A   1      30.985  28.596  24.636  1.00  0.00     0.163 HD
BRANCH   5   8
ATOM      8  C   UNL A   1      32.300  25.670  23.593  1.00  0.00     0.092 C 
ATOM      9  C   UNL A   1      31.572  24.407  24.089  1.00  0.00     0.127 C 
ATOM     10  C   UNL A   1      31.869  23.303  23.077  1.00  0.00     0.186 C 
ATOM     11  O   UNL A   1      32.804  23.840  22.141  1.00  0.00    -0.378 OA
ATOM     12  C   UNL A   1      32.595  25.262  22.132  1.00  0.00     0.179 C 
ATOM     13  C   UNL A   1      33.628  25.982  24.237  1.00  0.00     0.026 C 
BRANCH   9  14
ATOM     14  N   UNL A   1      31.676  23.958  25.486  1.00  0.00    -0.332 N 
ATOM     15  N   UNL A   1      33.613  22.684  26.063  1.00  0.00    -0.335 N 
ATOM     16  C   UNL A   1      32.461  23.290  26.326  1.00  0.00     0.315 C 
ATOM     17  H   UNL A   1      34.097  22.466  26.892  1.00  0.00     0.165 HD
ATOM     18  O   UNL A   1      32.076  23.255  27.500  1.00  0.00    -0.249 OA
ATOM     19  H   UNL A   1      30.877  24.260  25.976  1.00  0.00     0.165 HD
BRANCH  15  20
ATOM     20  C   UNL A   1      34.363  22.252  24.884  1.00  0.00     0.089 C 
ATOM     21  C   UNL A   1      36.243  23.933  25.723  1.00  0.00     0.013 C 
ATOM     22  C   UNL A   1      35.882  22.674  24.913  1.00  0.00    -0.015 C 
ATOM     23  C   UNL A   1      36.443  22.840  23.477  1.00  0.00     0.013 C 
ATOM     24  C   UNL A   1      36.554  21.459  25.573  1.00  0.00     0.008 C 
ATOM     25  C   UNL A   1      35.845  20.271  24.953  1.00  0.00     0.003 C 
ATOM     26  C   UNL A   1      34.385  20.702  24.860  1.00  0.00     0.025 C 
ENDBRANCH  15  20
ENDBRANCH   9  14
ENDBRANCH   5   8
ENDBRANCH   3   4
ENDBRANCH   2   3
ENDBRANCH   1   2
BRANCH   1  27
ATOM     27  C   UNL A   1      33.941  29.385  26.411  1.00  0.00     0.116 C 
BRANCH  27  28
ATOM     28  N   UNL A   1      33.721  30.623  27.142  1.00  0.00    -0.352 N 
ATOM     29  C   UNL A   1      34.540  31.186  28.101  1.00  0.00     0.251 C 
ATOM     30  H   UNL A   1      32.896  31.115  26.928  1.00  0.00     0.163 HD
ATOM     31  O   UNL A   1      34.200  32.190  28.702  1.00  0.00    -0.269 OA
BRANCH  29  32
ATOM     32  C   UNL A   1      35.814  30.504  28.423  1.00  0.00     0.039 A 
ATOM     33  C   UNL A   1      36.943  30.785  27.652  1.00  0.00     0.014 A 
ATOM     34  C   UNL A   1      35.905  29.658  29.530  1.00  0.00     0.014 A 
ATOM     35  C   UNL A   1      38.180  30.262  28.034  1.00  0.00     0.010 A 
ATOM     36  C   UNL A   1      37.150  29.236  29.972  1.00  0.00     0.010 A 
ATOM     37  C   UNL A   1      38.298  29.512  29.216  1.00  0.00    -0.014 A 
BRANCH  37  38
ATOM     38  C   UNL A   1      39.607  28.979  29.664  1.00  0.00     0.031 A 
ATOM     39  C   UNL A   1      40.345  29.656  30.789  1.00  0.00     0.074 A 
ATOM     40  C   UNL A   1      40.165  27.939  29.013  1.00  0.00     0.049 A 
ATOM     41  N   UNL A   1      41.504  29.354  31.313  1.00  0.00    -0.248 NA
ATOM     42  C   UNL A   1      39.718  30.852  31.380  1.00  0.00     0.031 C 
ATOM     43  C   UNL A   1      39.597  27.268  27.841  1.00  0.00     0.029 A 
ATOM     44  N   UNL A   1      41.345  27.274  29.234  1.00  0.00    -0.354 N 
ATOM     45  C   UNL A   1      41.759  30.337  32.261  1.00  0.00     0.074 A 
ATOM     46  C   UNL A   1      40.662  31.277  32.204  1.00  0.00     0.031 C 
ATOM     47  C   UNL A   1      40.417  26.275  27.461  1.00  0.00     0.029 A 
ATOM     48  C   UNL A   1      41.577  26.251  28.345  1.00  0.00     0.049 A 
ATOM     49  H   UNL A   1      41.966  27.508  29.961  1.00  0.00     0.167 HD
ATOM     50  C   UNL A   1      42.788  30.429  33.135  1.00  0.00     0.034 A 
ATOM     51  C   UNL A   1      42.608  25.387  28.261  1.00  0.00     0.034 A 
ATOM     52  C   UNL A   1      43.840  29.456  33.229  1.00  0.00     0.049 A 
ATOM     53  C   UNL A   1      43.704  25.466  29.290  1.00  0.00     0.074 A 
ATOM     54  C   UNL A   1      44.875  29.393  34.145  1.00  0.00     0.029 A 
ATOM     55  N   UNL A   1      43.993  28.375  32.375  1.00  0.00    -0.354 N 
ATOM     56  N   UNL A   1      43.835  26.297  30.295  1.00  0.00    -0.248 NA
ATOM     57  C   UNL A   1      44.773  24.461  29.198  1.00  0.00     0.031 C 
ATOM     58  C   UNL A   1      45.665  28.282  33.831  1.00  0.00     0.029 A 
ATOM     59  C   UNL A   1      45.109  27.641  32.735  1.00  0.00     0.049 A 
ATOM     60  H   UNL A   1      43.395  28.161  31.623  1.00  0.00     0.167 HD
ATOM     61  C   UNL A   1      44.981  25.898  30.974  1.00  0.00     0.074 A 
ATOM     62  C   UNL A   1      45.490  24.733  30.280  1.00  0.00     0.031 C 
ATOM     63  C   UNL A   1      45.570  26.455  32.061  1.00  0.00     0.034 A 
BRANCH  50  64
ATOM     64  C   UNL A   1      42.783  31.584  34.101  1.00  0.00     0.023 A 
ATOM     65  C   UNL A   1      43.370  32.810  33.722  1.00  0.00     0.012 A 
ATOM     66  C   UNL A   1      42.164  31.478  35.361  1.00  0.00     0.148 A 
ATOM     67  C   UNL A   1      43.379  33.896  34.596  1.00  0.00     0.002 A 
ATOM     68  C   UNL A   1      42.135  32.580  36.208  1.00  0.00     0.091 A 
ATOM     69  F   UNL A   1      41.631  30.299  35.715  1.00  0.00    -0.205 F 
ATOM     70  C   UNL A   1      42.752  33.784  35.833  1.00  0.00     0.022 A 
BRANCH  68  71
ATOM     71  S   UNL A   1      41.285  32.564  37.791  1.00  0.00     0.127 S 
ATOM     72  O   UNL A   1      42.061  31.571  38.531  1.00  0.00    -0.237 OA
ATOM     73  O   UNL A   1      41.463  33.942  38.248  1.00  0.00    -0.237 OA
ATOM     74  O   UNL A   1      39.907  32.192  37.502  1.00  0.00    -0.744 OA
ENDBRANCH  68  71
ENDBRANCH  50  64
BRANCH  51  75
ATOM     75  C   UNL A   1      42.605  24.320  27.220  1.00  0.00     0.023 A 
ATOM     76  C   UNL A   1      43.276  24.543  26.002  1.00  0.00     0.012 A 
ATOM     77  C   UNL A   1      41.971  23.081  27.437  1.00  0.00     0.148 A 
ATOM     78  C   UNL A   1      43.287  23.566  25.005  1.00  0.00     0.002 A 
ATOM     79  C   UNL A   1      42.032  22.093  26.462  1.00  0.00     0.091 A 
ATOM     80  F   UNL A   1      41.329  22.892  28.598  1.00  0.00    -0.205 F 
ATOM     81  C   UNL A   1      42.674  22.339  25.238  1.00  0.00     0.022 A 
BRANCH  79  82
ATOM     82  S   UNL A   1      41.384  20.438  26.728  1.00  0.00     0.127 S 
ATOM     83  O   UNL A   1      39.951  20.693  26.849  1.00  0.00    -0.237 OA
ATOM     84  O   UNL A   1      41.786  19.754  25.498  1.00  0.00    -0.237 OA
ATOM     85  O   UNL A   1      42.046  19.948  27.929  1.00  0.00    -0.744 OA
ENDBRANCH  79  82
ENDBRANCH  51  75
BRANCH  63  86
ATOM     86  C   UNL A   1      46.820  25.801  32.586  1.00  0.00     0.023 A 
ATOM     87  C   UNL A   1      46.737  24.908  33.673  1.00  0.00     0.012 A 
ATOM     88  C   UNL A   1      48.063  26.015  31.958  1.00  0.00     0.148 A 
ATOM     89  C   UNL A   1      47.878  24.264  34.148  1.00  0.00     0.002 A 
ATOM     90  C   UNL A   1      49.186  25.330  32.406  1.00  0.00     0.091 A 
ATOM     91  F   UNL A   1      48.123  26.882  30.937  1.00  0.00    -0.205 F 
ATOM     92  C   UNL A   1      49.099  24.466  33.508  1.00  0.00     0.022 A 
BRANCH  90  93
ATOM     93  S   UNL A   1      50.777  25.452  31.579  1.00  0.00     0.127 S 
ATOM     94  O   UNL A   1      51.586  24.512  32.352  1.00  0.00    -0.237 OA
ATOM     95  O   UNL A   1      50.456  25.010  30.221  1.00  0.00    -0.237 OA
ATOM     96  O   UNL A   1      51.173  26.851  31.680  1.00  0.00    -0.744 OA
ENDBRANCH  90  93
ENDBRANCH  63  86
ENDBRANCH  37  38
ENDBRANCH  29  32
ENDBRANCH  27  28
ENDBRANCH   1  27
TORSDOF 16
ENDMDL
MODEL 3
REMARK VINA RESULT:     -12.2      4.959     10.200
REMARK SMILES CC1(C)CCC[C@H]1NC(=O)N[C@@H]1COC[C@@]1(C)C(=O)NCCCCNC(=O)c1ccc(-c2c3nc(c(-c4cccc(S(=O)(=O)[O-])c4F)c4ccc([nH]4)c(-c4cccc(S(=O)(=O)[O-])c4F)c4nc(c(-c5cccc(S(=O)(=O)[O-])c5F)c5ccc2[nH]5)C=C4)C=C3)cc1
REMARK SMILES IDX 23 1 22 2 21 3 20 4 18 5 19 6 16 8 12 9 13 10 14 11 15 12
REMARK SMILES IDX 17 13 11 14 8 15 9 16 10 18 7 20 1 21 2 22 3 23 4 24 5 25
REMARK SMILES IDX 6 26 24 27 25 28 26 29 27 31 28 32 29 33 90 34 30 35 89 36
REMARK SMILES IDX 31 37 32 38 33 39 83 40 34 41 88 42 82 43 84 44 35 45 87 46
REMARK SMILES IDX 81 47 80 48 36 50 68 51 48 52 67 53 49 54 52 55 66 56 85 57
REMARK SMILES IDX 50 58 51 59 65 61 86 62 53 63 37 64 38 65 46 66 39 67 41 68
REMARK SMILES IDX 47 69 40 70 42 71 43 72 44 73 45 74 69 75 70 76 78 77 71 78
REMARK SMILES IDX 73 79 79 80 72 81 74 82 75 83 76 84 77 85 54 86 55 87 63 88
REMARK SMILES IDX 56 89 58 90 64 91 57 92 59 93 60 94 61 95 62 96
REMARK H PARENT 20 7 8 17 11 19 25 30 84 49 52 60
REMARK Flexibility Score: inf
ROOT
ATOM      1  C   UNL A   1      36.756  21.770  23.941  1.00  0.00     0.023 C 
ENDROOT
BRANCH   1   2
ATOM      2  C   UNL A   1      36.162  23.110  23.525  1.00  0.00     0.023 C 
BRANCH   2   3
ATOM      3  C   UNL A   1      34.659  23.159  23.230  1.00  0.00     0.116 C 
BRANCH   3   4
ATOM      4  N   UNL A   1      33.799  22.336  24.064  1.00  0.00    -0.355 N 
ATOM      5  C   UNL A   1      32.587  22.601  24.643  1.00  0.00     0.230 C 
ATOM      6  O   UNL A   1      31.925  21.627  25.008  1.00  0.00    -0.274 OA
ATOM      7  H   UNL A   1      34.148  21.432  24.243  1.00  0.00     0.163 HD
BRANCH   5   8
ATOM      8  C   UNL A   1      32.110  24.034  24.918  1.00  0.00     0.092 C 
ATOM      9  C   UNL A   1      31.591  24.820  23.700  1.00  0.00     0.127 C 
ATOM     10  C   UNL A   1      30.281  25.479  24.128  1.00  0.00     0.186 C 
ATOM     11  O   UNL A   1      30.119  25.213  25.522  1.00  0.00    -0.378 OA
ATOM     12  C   UNL A   1      30.830  23.991  25.784  1.00  0.00     0.179 C 
ATOM     13  C   UNL A   1      33.177  24.702  25.749  1.00  0.00     0.026 C 
BRANCH   9  14
ATOM     14  N   UNL A   1      32.469  25.717  22.932  1.00  0.00    -0.332 N 
ATOM     15  N   UNL A   1      32.840  27.895  23.843  1.00  0.00    -0.335 N 
ATOM     16  C   UNL A   1      33.009  26.932  22.944  1.00  0.00     0.315 C 
ATOM     17  H   UNL A   1      33.520  28.598  23.741  1.00  0.00     0.165 HD
ATOM     18  O   UNL A   1      33.783  27.179  22.011  1.00  0.00    -0.249 OA
ATOM     19  H   UNL A   1      32.761  25.251  22.116  1.00  0.00     0.165 HD
BRANCH  15  20
ATOM     20  C   UNL A   1      31.924  28.199  24.942  1.00  0.00     0.089 C 
ATOM     21  C   UNL A   1      34.073  28.036  26.497  1.00  0.00     0.013 C 
ATOM     22  C   UNL A   1      32.657  28.599  26.280  1.00  0.00    -0.015 C 
ATOM     23  C   UNL A   1      31.794  28.242  27.517  1.00  0.00     0.013 C 
ATOM     24  C   UNL A   1      32.751  30.129  26.163  1.00  0.00     0.008 C 
ATOM     25  C   UNL A   1      31.410  30.533  25.583  1.00  0.00     0.003 C 
ATOM     26  C   UNL A   1      31.097  29.451  24.555  1.00  0.00     0.025 C 
ENDBRANCH  15  20
ENDBRANCH   9  14
ENDBRANCH   5   8
ENDBRANCH   3   4
ENDBRANCH   2   3
ENDBRANCH   1   2
BRANCH   1  27
ATOM     27  C   UNL A   1      37.294  21.714  25.355  1.00  0.00     0.116 C 
BRANCH  27  28
ATOM     28  N   UNL A   1      38.273  20.663  25.584  1.00  0.00    -0.352 N 
ATOM     29  C   UNL A   1      39.520  20.792  26.163  1.00  0.00     0.251 C 
ATOM     30  H   UNL A   1      38.018  19.758  25.295  1.00  0.00     0.163 HD
ATOM     31  O   UNL A   1      40.283  19.844  26.224  1.00  0.00    -0.269 OA
BRANCH  29  32
ATOM     32  C   UNL A   1      39.929  22.127  26.655  1.00  0.00     0.039 A 
ATOM     33  C   UNL A   1      40.790  22.208  27.751  1.00  0.00     0.014 A 
ATOM     34  C   UNL A   1      39.529  23.283  25.983  1.00  0.00     0.014 A 
ATOM     35  C   UNL A   1      41.298  23.451  28.132  1.00  0.00     0.010 A 
ATOM     36  C   UNL A   1      40.124  24.498  26.290  1.00  0.00     0.010 A 
ATOM     37  C   UNL A   1      40.995  24.600  27.383  1.00  0.00    -0.014 A 
BRANCH  37  38
ATOM     38  C   UNL A   1      41.554  25.926  27.744  1.00  0.00     0.031 A 
ATOM     39  C   UNL A   1      42.976  26.262  27.381  1.00  0.00     0.074 A 
ATOM     40  C   UNL A   1      40.811  26.793  28.460  1.00  0.00     0.049 A 
ATOM     41  N   UNL A   1      43.651  27.356  27.621  1.00  0.00    -0.248 NA
ATOM     42  C   UNL A   1      43.758  25.220  26.691  1.00  0.00     0.031 C 
ATOM     43  C   UNL A   1      39.459  26.539  28.962  1.00  0.00     0.029 A 
ATOM     44  N   UNL A   1      41.096  28.059  28.907  1.00  0.00    -0.354 N 
ATOM     45  C   UNL A   1      44.936  27.120  27.148  1.00  0.00     0.074 A 
ATOM     46  C   UNL A   1      44.965  25.761  26.657  1.00  0.00     0.031 C 
ATOM     47  C   UNL A   1      39.025  27.622  29.628  1.00  0.00     0.029 A 
ATOM     48  C   UNL A   1      40.072  28.637  29.620  1.00  0.00     0.049 A 
ATOM     49  H   UNL A   1      41.954  28.510  28.733  1.00  0.00     0.167 HD
ATOM     50  C   UNL A   1      45.987  27.970  27.084  1.00  0.00     0.034 A 
ATOM     51  C   UNL A   1      39.988  29.854  30.193  1.00  0.00     0.034 A 
ATOM     52  C   UNL A   1      45.931  29.338  27.516  1.00  0.00     0.049 A 
ATOM     53  C   UNL A   1      41.144  30.805  30.044  1.00  0.00     0.074 A 
ATOM     54  C   UNL A   1      46.902  30.317  27.402  1.00  0.00     0.029 A 
ATOM     55  N   UNL A   1      44.844  29.922  28.145  1.00  0.00    -0.354 N 
ATOM     56  N   UNL A   1      42.290  30.624  29.433  1.00  0.00    -0.248 NA
ATOM     57  C   UNL A   1      40.981  32.144  30.629  1.00  0.00     0.031 C 
ATOM     58  C   UNL A   1      46.406  31.489  27.982  1.00  0.00     0.029 A 
ATOM     59  C   UNL A   1      45.119  31.246  28.435  1.00  0.00     0.049 A 
ATOM     60  H   UNL A   1      43.998  29.462  28.356  1.00  0.00     0.167 HD
ATOM     61  C   UNL A   1      42.971  31.832  29.530  1.00  0.00     0.074 A 
ATOM     62  C   UNL A   1      42.096  32.746  30.236  1.00  0.00     0.031 C 
ATOM     63  C   UNL A   1      44.214  32.153  29.094  1.00  0.00     0.034 A 
BRANCH  50  64
ATOM     64  C   UNL A   1      47.261  27.458  26.464  1.00  0.00     0.023 A 
ATOM     65  C   UNL A   1      47.582  27.820  25.138  1.00  0.00     0.012 A 
ATOM     66  C   UNL A   1      48.159  26.660  27.196  1.00  0.00     0.148 A 
ATOM     67  C   UNL A   1      48.754  27.362  24.539  1.00  0.00     0.002 A 
ATOM     68  C   UNL A   1      49.349  26.246  26.608  1.00  0.00     0.091 A 
ATOM     69  F   UNL A   1      47.828  26.306  28.447  1.00  0.00    -0.205 F 
ATOM     70  C   UNL A   1      49.642  26.585  25.277  1.00  0.00     0.022 A 
BRANCH  68  71
ATOM     71  S   UNL A   1      50.596  25.309  27.498  1.00  0.00     0.127 S 
ATOM     72  O   UNL A   1      51.553  25.009  26.434  1.00  0.00    -0.237 OA
ATOM     73  O   UNL A   1      51.066  26.282  28.484  1.00  0.00    -0.237 OA
ATOM     74  O   UNL A   1      49.906  24.157  28.062  1.00  0.00    -0.744 OA
ENDBRANCH  68  71
ENDBRANCH  50  64
BRANCH  51  75
ATOM     75  C   UNL A   1      38.732  30.270  30.879  1.00  0.00     0.023 A 
ATOM     76  C   UNL A   1      38.570  29.992  32.250  1.00  0.00     0.012 A 
ATOM     77  C   UNL A   1      37.714  30.963  30.195  1.00  0.00     0.148 A 
ATOM     78  C   UNL A   1      37.403  30.364  32.921  1.00  0.00     0.002 A 
ATOM     79  C   UNL A   1      36.579  31.379  30.881  1.00  0.00     0.091 A 
ATOM     80  F   UNL A   1      37.882  31.210  28.889  1.00  0.00    -0.205 F 
ATOM     81  C   UNL A   1      36.413  31.065  32.240  1.00  0.00     0.022 A 
BRANCH  79  82
ATOM     82  S   UNL A   1      35.313  32.399  30.117  1.00  0.00     0.127 S 
ATOM     83  O   UNL A   1      34.371  32.584  31.217  1.00  0.00    -0.237 OA
ATOM     84  O   UNL A   1      36.072  33.596  29.748  1.00  0.00    -0.237 OA
ATOM     85  O   UNL A   1      34.823  31.629  28.982  1.00  0.00    -0.744 OA
ENDBRANCH  79  82
ENDBRANCH  51  75
BRANCH  63  86
ATOM     86  C   UNL A   1      44.698  33.556  29.343  1.00  0.00     0.023 A 
ATOM     87  C   UNL A   1      45.297  33.879  30.576  1.00  0.00     0.012 A 
ATOM     88  C   UNL A   1      44.625  34.533  28.330  1.00  0.00     0.148 A 
ATOM     89  C   UNL A   1      45.786  35.163  30.810  1.00  0.00     0.002 A 
ATOM     90  C   UNL A   1      45.160  35.796  28.554  1.00  0.00     0.091 A 
ATOM     91  F   UNL A   1      44.035  34.210  27.171  1.00  0.00    -0.205 F 
ATOM     92  C   UNL A   1      45.728  36.117  29.797  1.00  0.00     0.022 A 
BRANCH  90  93
ATOM     93  S   UNL A   1      45.219  37.053  27.272  1.00  0.00     0.127 S 
ATOM     94  O   UNL A   1      45.975  38.116  27.932  1.00  0.00    -0.237 OA
ATOM     95  O   UNL A   1      45.939  36.369  26.197  1.00  0.00    -0.237 OA
ATOM     96  O   UNL A   1      43.832  37.372  26.960  1.00  0.00    -0.744 OA
ENDBRANCH  90  93
ENDBRANCH  63  86
ENDBRANCH  37  38
ENDBRANCH  29  32
ENDBRANCH  27  28
ENDBRANCH   1  27
TORSDOF 16
ENDMDL
