MODEL 1
REMARK VINA RESULT:     -12.7      0.000      0.000
REMARK SMILES O=C(NCCCCNC(=O)c1ccc(NC(=O)c2ccc([N+](=O)[O-])cc2Cl)cc1Cl)c1ccc(-c2c3nc(c(-c4cccc(S(=O)(=O)[O-])c4F)c4ccc([nH]4)c(-c4cccc(S(=O)(=O)[O-])c4F)c4nc(c(-c5cccc(S(=O)(=O)[O-])c5F)c5ccc2[nH]5)C=C4)C=C3)cc1
REMARK SMILES IDX 5 1 4 2 3 3 1 4 2 5 31 7 32 8 93 9 33 10 92 11 34 12 35 13
REMARK SMILES IDX 36 14 86 15 37 16 91 17 85 18 87 19 38 20 90 21 84 22 83 23
REMARK SMILES IDX 39 25 71 26 51 27 70 28 52 29 55 30 69 31 88 32 53 33 54 34
REMARK SMILES IDX 68 36 89 37 56 38 40 39 41 40 49 41 42 42 44 43 50 44 43 45
REMARK SMILES IDX 45 46 46 47 47 48 48 49 72 50 73 51 81 52 74 53 76 54 82 55
REMARK SMILES IDX 75 56 77 57 78 58 79 59 80 60 57 61 58 62 66 63 59 64 61 65
REMARK SMILES IDX 67 66 60 67 62 68 63 69 64 70 65 71 6 72 7 73 8 74 9 75
REMARK SMILES IDX 10 77 11 78 12 79 29 80 13 81 28 82 30 83 14 84 15 85 16 86
REMARK SMILES IDX 17 88 18 89 19 90 26 91 20 92 25 93 27 94 21 95 22 96 23 97
REMARK SMILES IDX 24 98
REMARK H PARENT 3 6 87 24 55 35 8 76 15 87
REMARK Flexibility Score: inf
ROOT
ATOM      1  C   UNL A   1      32.278  28.899  24.576  1.00  0.00     0.023 C 
ENDROOT
BRANCH   1   2
ATOM      2  C   UNL A   1      32.914  29.399  25.864  1.00  0.00     0.116 C 
BRANCH   2   3
ATOM      3  N   UNL A   1      32.487  30.733  26.253  1.00  0.00    -0.352 N 
ATOM      4  O   UNL A   1      32.545  32.680  27.391  1.00  0.00    -0.269 OA
ATOM      5  C   UNL A   1      33.104  31.626  27.102  1.00  0.00     0.251 C 
ATOM      6  H   UNL A   1      31.641  31.040  25.856  1.00  0.00     0.163 HD
BRANCH   5   7
ATOM      7  C   UNL A   1      34.418  31.284  27.696  1.00  0.00     0.039 A 
ATOM      8  C   UNL A   1      34.698  29.975  28.089  1.00  0.00     0.014 A 
ATOM      9  C   UNL A   1      35.366  32.293  27.898  1.00  0.00     0.014 A 
ATOM     10  C   UNL A   1      35.835  29.713  28.844  1.00  0.00     0.010 A 
ATOM     11  C   UNL A   1      36.560  32.002  28.569  1.00  0.00     0.010 A 
ATOM     12  C   UNL A   1      36.786  30.719  29.088  1.00  0.00    -0.014 A 
BRANCH  12  13
ATOM     13  C   UNL A   1      38.027  30.362  29.826  1.00  0.00     0.031 A 
ATOM     14  C   UNL A   1      38.265  30.801  31.246  1.00  0.00     0.074 A 
ATOM     15  C   UNL A   1      38.932  29.581  29.204  1.00  0.00     0.049 A 
ATOM     16  N   UNL A   1      39.251  30.484  32.047  1.00  0.00    -0.248 NA
ATOM     17  C   UNL A   1      37.284  31.719  31.847  1.00  0.00     0.031 C 
ATOM     18  C   UNL A   1      38.843  29.144  27.808  1.00  0.00     0.029 A 
ATOM     19  N   UNL A   1      40.087  28.998  29.659  1.00  0.00    -0.354 N 
ATOM     20  C   UNL A   1      39.030  31.180  33.230  1.00  0.00     0.074 A 
ATOM     21  C   UNL A   1      37.819  31.950  33.040  1.00  0.00     0.031 C 
ATOM     22  C   UNL A   1      39.866  28.324  27.535  1.00  0.00     0.029 A 
ATOM     23  C   UNL A   1      40.712  28.213  28.717  1.00  0.00     0.049 A 
ATOM     24  H   UNL A   1      40.434  29.128  30.571  1.00  0.00     0.167 HD
ATOM     25  C   UNL A   1      39.756  31.161  34.374  1.00  0.00     0.034 A 
ATOM     26  C   UNL A   1      41.842  27.484  28.792  1.00  0.00     0.034 A 
ATOM     27  C   UNL A   1      40.939  30.364  34.572  1.00  0.00     0.049 A 
ATOM     28  C   UNL A   1      42.587  27.433  30.093  1.00  0.00     0.074 A 
ATOM     29  C   UNL A   1      41.722  30.250  35.708  1.00  0.00     0.029 A 
ATOM     30  N   UNL A   1      41.511  29.540  33.614  1.00  0.00    -0.354 N 
ATOM     31  N   UNL A   1      42.290  28.005  31.235  1.00  0.00    -0.248 NA
ATOM     32  C   UNL A   1      43.806  26.616  30.127  1.00  0.00     0.031 C 
ATOM     33  C   UNL A   1      42.766  29.359  35.437  1.00  0.00     0.029 A 
ATOM     34  C   UNL A   1      42.631  28.912  34.132  1.00  0.00     0.049 A 
ATOM     35  H   UNL A   1      41.169  29.418  32.697  1.00  0.00     0.167 HD
ATOM     36  C   UNL A   1      43.283  27.615  32.123  1.00  0.00     0.074 A 
ATOM     37  C   UNL A   1      44.161  26.718  31.400  1.00  0.00     0.031 C 
ATOM     38  C   UNL A   1      43.471  27.991  33.412  1.00  0.00     0.034 A 
BRANCH  25  39
ATOM     39  C   UNL A   1      39.265  31.985  35.538  1.00  0.00     0.023 A 
ATOM     40  C   UNL A   1      39.479  33.378  35.531  1.00  0.00     0.012 A 
ATOM     41  C   UNL A   1      38.514  31.406  36.580  1.00  0.00     0.148 A 
ATOM     42  C   UNL A   1      38.970  34.181  36.551  1.00  0.00     0.002 A 
ATOM     43  C   UNL A   1      37.981  32.218  37.576  1.00  0.00     0.091 A 
ATOM     44  F   UNL A   1      38.336  30.078  36.579  1.00  0.00    -0.205 F 
ATOM     45  C   UNL A   1      38.213  33.603  37.567  1.00  0.00     0.022 A 
BRANCH  43  46
ATOM     46  S   UNL A   1      36.932  31.582  38.891  1.00  0.00     0.127 S 
ATOM     47  O   UNL A   1      37.812  31.707  40.054  1.00  0.00    -0.237 OA
ATOM     48  O   UNL A   1      35.810  32.522  38.874  1.00  0.00    -0.237 OA
ATOM     49  O   UNL A   1      36.591  30.220  38.509  1.00  0.00    -0.744 OA
ENDBRANCH  43  46
ENDBRANCH  25  39
BRANCH  26  50
ATOM     50  C   UNL A   1      42.293  26.706  27.606  1.00  0.00     0.023 A 
ATOM     51  C   UNL A   1      43.008  27.351  26.580  1.00  0.00     0.012 A 
ATOM     52  C   UNL A   1      42.074  25.317  27.521  1.00  0.00     0.148 A 
ATOM     53  C   UNL A   1      43.478  26.631  25.480  1.00  0.00     0.002 A 
ATOM     54  C   UNL A   1      42.602  24.596  26.456  1.00  0.00     0.091 A 
ATOM     55  F   UNL A   1      41.372  24.719  28.494  1.00  0.00    -0.205 F 
ATOM     56  C   UNL A   1      43.289  25.251  25.426  1.00  0.00     0.022 A 
BRANCH  54  57
ATOM     57  S   UNL A   1      42.534  22.801  26.426  1.00  0.00     0.127 S 
ATOM     58  O   UNL A   1      42.653  22.518  25.000  1.00  0.00    -0.237 OA
ATOM     59  O   UNL A   1      43.701  22.428  27.227  1.00  0.00    -0.237 OA
ATOM     60  O   UNL A   1      41.260  22.466  27.048  1.00  0.00    -0.744 OA
ENDBRANCH  54  57
ENDBRANCH  26  50
BRANCH  38  61
ATOM     61  C   UNL A   1      44.683  27.440  34.113  1.00  0.00     0.023 A 
ATOM     62  C   UNL A   1      45.905  28.137  34.026  1.00  0.00     0.012 A 
ATOM     63  C   UNL A   1      44.610  26.264  34.882  1.00  0.00     0.148 A 
ATOM     64  C   UNL A   1      47.045  27.652  34.663  1.00  0.00     0.002 A 
ATOM     65  C   UNL A   1      45.742  25.807  35.548  1.00  0.00     0.091 A 
ATOM     66  F   UNL A   1      43.446  25.600  34.933  1.00  0.00    -0.205 F 
ATOM     67  C   UNL A   1      46.962  26.493  35.431  1.00  0.00     0.022 A 
BRANCH  65  68
ATOM     68  S   UNL A   1      45.697  24.365  36.618  1.00  0.00     0.127 S 
ATOM     69  O   UNL A   1      45.330  23.307  35.681  1.00  0.00    -0.237 OA
ATOM     70  O   UNL A   1      47.074  24.292  37.110  1.00  0.00    -0.237 OA
ATOM     71  O   UNL A   1      44.711  24.672  37.646  1.00  0.00    -0.744 OA
ENDBRANCH  65  68
ENDBRANCH  38  61
ENDBRANCH  12  13
ENDBRANCH   5   7
ENDBRANCH   2   3
ENDBRANCH   1   2
BRANCH   1  72
ATOM     72  C   UNL A   1      33.158  28.953  23.333  1.00  0.00     0.023 C 
BRANCH  72  73
ATOM     73  C   UNL A   1      33.634  27.609  22.791  1.00  0.00     0.116 C 
BRANCH  73  74
ATOM     74  N   UNL A   1      32.920  27.152  21.608  1.00  0.00    -0.352 N 
ATOM     75  C   UNL A   1      31.934  26.199  21.504  1.00  0.00     0.252 C 
ATOM     76  H   UNL A   1      33.179  27.586  20.763  1.00  0.00     0.163 HD
ATOM     77  O   UNL A   1      31.404  25.953  20.425  1.00  0.00    -0.269 OA
BRANCH  75  78
ATOM     78  C   UNL A   1      31.606  25.365  22.671  1.00  0.00     0.058 A 
ATOM     79  C   UNL A   1      32.306  24.163  22.783  1.00  0.00     0.017 A 
ATOM     80  C   UNL A   1      30.704  25.733  23.668  1.00  0.00     0.055 A 
ATOM     81  C   UNL A   1      32.214  23.412  23.954  1.00  0.00     0.027 A 
ATOM     82  C   UNL A   1      30.669  25.007  24.865  1.00  0.00     0.047 A 
ATOM     83  Cl  UNL A   1      29.628  27.073  23.502  1.00  0.00    -0.083 Cl
ATOM     84  C   UNL A   1      31.490  23.887  25.048  1.00  0.00     0.043 A 
BRANCH  84  85
ATOM     85  N   UNL A   1      31.546  23.345  26.349  1.00  0.00    -0.322 N 
ATOM     86  C   UNL A   1      32.494  22.598  27.014  1.00  0.00     0.257 C 
ATOM     87  H   UNL A   1      30.746  23.538  26.889  1.00  0.00     0.170 HD
ATOM     88  O   UNL A   1      32.287  22.208  28.162  1.00  0.00    -0.269 OA
BRANCH  86  89
ATOM     89  C   UNL A   1      33.762  22.211  26.379  1.00  0.00     0.059 A 
ATOM     90  C   UNL A   1      34.841  23.089  26.559  1.00  0.00     0.022 A 
ATOM     91  C   UNL A   1      33.930  21.007  25.682  1.00  0.00     0.060 A 
ATOM     92  C   UNL A   1      36.116  22.720  26.129  1.00  0.00     0.086 A 
ATOM     93  C   UNL A   1      35.209  20.627  25.260  1.00  0.00     0.107 A 
ATOM     94  Cl  UNL A   1      32.618  19.931  25.368  1.00  0.00    -0.083 Cl
ATOM     95  C   UNL A   1      36.299  21.476  25.509  1.00  0.00     0.270 A 
BRANCH  95  96
ATOM     96  N   UNL A   1      37.654  21.042  25.154  1.00  0.00     0.062 N 
ATOM     97  O   UNL A   1      37.780  19.927  24.628  1.00  0.00    -0.258 OA
ATOM     98  O   UNL A   1      38.585  21.823  25.386  1.00  0.00    -0.258 OA
ENDBRANCH  95  96
ENDBRANCH  86  89
ENDBRANCH  84  85
ENDBRANCH  75  78
ENDBRANCH  73  74
ENDBRANCH  72  73
ENDBRANCH   1  72
TORSDOF 17
ENDMDL
MODEL 2
REMARK VINA RESULT:     -12.6      1.820      2.177
REMARK SMILES O=C(NCCCCNC(=O)c1ccc(NC(=O)c2ccc([N+](=O)[O-])cc2Cl)cc1Cl)c1ccc(-c2c3nc(c(-c4cccc(S(=O)(=O)[O-])c4F)c4ccc([nH]4)c(-c4cccc(S(=O)(=O)[O-])c4F)c4nc(c(-c5cccc(S(=O)(=O)[O-])c5F)c5ccc2[nH]5)C=C4)C=C3)cc1
REMARK SMILES IDX 5 1 4 2 3 3 1 4 2 5 31 7 32 8 93 9 33 10 92 11 34 12 35 13
REMARK SMILES IDX 36 14 86 15 37 16 91 17 85 18 87 19 38 20 90 21 84 22 83 23
REMARK SMILES IDX 39 25 71 26 51 27 70 28 52 29 55 30 69 31 88 32 53 33 54 34
REMARK SMILES IDX 68 36 89 37 56 38 40 39 41 40 49 41 42 42 44 43 50 44 43 45
REMARK SMILES IDX 45 46 46 47 47 48 48 49 72 50 73 51 81 52 74 53 76 54 82 55
REMARK SMILES IDX 75 56 77 57 78 58 79 59 80 60 57 61 58 62 66 63 59 64 61 65
REMARK SMILES IDX 67 66 60 67 62 68 63 69 64 70 65 71 6 72 7 73 8 74 9 75
REMARK SMILES IDX 10 77 11 78 12 79 29 80 13 81 28 82 30 83 14 84 15 85 16 86
REMARK SMILES IDX 17 88 18 89 19 90 26 91 20 92 25 93 27 94 21 95 22 96 23 97
REMARK SMILES IDX 24 98
REMARK H PARENT 3 6 87 24 55 35 8 76 15 87
REMARK Flexibility Score: inf
ROOT
ATOM      1  C   UNL A   1      33.577  28.504  25.203  1.00  0.00     0.023 C 
ENDROOT
BRANCH   1   2
ATOM      2  C   UNL A   1      32.596  28.831  26.318  1.00  0.00     0.116 C 
BRANCH   2   3
ATOM      3  N   UNL A   1      32.285  30.247  26.431  1.00  0.00    -0.352 N 
ATOM      4  O   UNL A   1      32.552  32.381  27.115  1.00  0.00    -0.269 OA
ATOM      5  C   UNL A   1      33.018  31.249  27.031  1.00  0.00     0.251 C 
ATOM      6  H   UNL A   1      31.435  30.529  26.024  1.00  0.00     0.163 HD
BRANCH   5   7
ATOM      7  C   UNL A   1      34.345  30.937  27.612  1.00  0.00     0.039 A 
ATOM      8  C   UNL A   1      34.636  29.651  28.066  1.00  0.00     0.014 A 
ATOM      9  C   UNL A   1      35.297  31.955  27.740  1.00  0.00     0.014 A 
ATOM     10  C   UNL A   1      35.790  29.428  28.808  1.00  0.00     0.010 A 
ATOM     11  C   UNL A   1      36.506  31.699  28.397  1.00  0.00     0.010 A 
ATOM     12  C   UNL A   1      36.746  30.445  28.977  1.00  0.00    -0.014 A 
BRANCH  12  13
ATOM     13  C   UNL A   1      38.003  30.126  29.704  1.00  0.00     0.031 A 
ATOM     14  C   UNL A   1      38.259  30.612  31.106  1.00  0.00     0.074 A 
ATOM     15  C   UNL A   1      38.908  29.338  29.091  1.00  0.00     0.049 A 
ATOM     16  N   UNL A   1      39.263  30.332  31.899  1.00  0.00    -0.248 NA
ATOM     17  C   UNL A   1      37.277  31.536  31.695  1.00  0.00     0.031 C 
ATOM     18  C   UNL A   1      38.800  28.856  27.711  1.00  0.00     0.029 A 
ATOM     19  N   UNL A   1      40.077  28.783  29.543  1.00  0.00    -0.354 N 
ATOM     20  C   UNL A   1      39.052  31.061  33.063  1.00  0.00     0.074 A 
ATOM     21  C   UNL A   1      37.829  31.811  32.871  1.00  0.00     0.031 C 
ATOM     22  C   UNL A   1      39.829  28.041  27.446  1.00  0.00     0.029 A 
ATOM     23  C   UNL A   1      40.697  27.977  28.616  1.00  0.00     0.049 A 
ATOM     24  H   UNL A   1      40.438  28.946  30.445  1.00  0.00     0.167 HD
ATOM     25  C   UNL A   1      39.799  31.088  34.194  1.00  0.00     0.034 A 
ATOM     26  C   UNL A   1      41.836  27.265  28.694  1.00  0.00     0.034 A 
ATOM     27  C   UNL A   1      40.995  30.311  34.396  1.00  0.00     0.049 A 
ATOM     28  C   UNL A   1      42.605  27.264  29.982  1.00  0.00     0.074 A 
ATOM     29  C   UNL A   1      41.798  30.242  35.522  1.00  0.00     0.029 A 
ATOM     30  N   UNL A   1      41.560  29.465  33.454  1.00  0.00    -0.354 N 
ATOM     31  N   UNL A   1      42.319  27.867  31.111  1.00  0.00    -0.248 NA
ATOM     32  C   UNL A   1      43.835  26.463  30.020  1.00  0.00     0.031 C 
ATOM     33  C   UNL A   1      42.849  29.357  35.260  1.00  0.00     0.029 A 
ATOM     34  C   UNL A   1      42.698  28.868  33.973  1.00  0.00     0.049 A 
ATOM     35  H   UNL A   1      41.205  29.311  32.548  1.00  0.00     0.167 HD
ATOM     36  C   UNL A   1      43.332  27.517  31.993  1.00  0.00     0.074 A 
ATOM     37  C   UNL A   1      44.209  26.609  31.283  1.00  0.00     0.031 C 
ATOM     38  C   UNL A   1      43.537  27.936  33.266  1.00  0.00     0.034 A 
BRANCH  25  39
ATOM     39  C   UNL A   1      39.316  31.941  35.341  1.00  0.00     0.023 A 
ATOM     40  C   UNL A   1      38.451  31.375  36.299  1.00  0.00     0.012 A 
ATOM     41  C   UNL A   1      39.787  33.256  35.525  1.00  0.00     0.148 A 
ATOM     42  C   UNL A   1      38.047  32.109  37.414  1.00  0.00     0.002 A 
ATOM     43  C   UNL A   1      39.407  33.970  36.657  1.00  0.00     0.091 A 
ATOM     44  F   UNL A   1      40.594  33.782  34.595  1.00  0.00    -0.205 F 
ATOM     45  C   UNL A   1      38.533  33.401  37.599  1.00  0.00     0.022 A 
BRANCH  43  46
ATOM     46  S   UNL A   1      40.031  35.615  37.025  1.00  0.00     0.127 S 
ATOM     47  O   UNL A   1      39.347  35.914  38.283  1.00  0.00    -0.237 OA
ATOM     48  O   UNL A   1      41.470  35.378  37.156  1.00  0.00    -0.237 OA
ATOM     49  O   UNL A   1      39.653  36.449  35.894  1.00  0.00    -0.744 OA
ENDBRANCH  43  46
ENDBRANCH  25  39
BRANCH  26  50
ATOM     50  C   UNL A   1      42.278  26.456  27.524  1.00  0.00     0.023 A 
ATOM     51  C   UNL A   1      43.173  27.011  26.591  1.00  0.00     0.012 A 
ATOM     52  C   UNL A   1      41.866  25.119  27.368  1.00  0.00     0.148 A 
ATOM     53  C   UNL A   1      43.633  26.255  25.511  1.00  0.00     0.002 A 
ATOM     54  C   UNL A   1      42.379  24.351  26.329  1.00  0.00     0.091 A 
ATOM     55  F   UNL A   1      40.995  24.610  28.252  1.00  0.00    -0.205 F 
ATOM     56  C   UNL A   1      43.249  24.921  25.389  1.00  0.00     0.022 A 
BRANCH  54  57
ATOM     57  S   UNL A   1      42.052  22.588  26.226  1.00  0.00     0.127 S 
ATOM     58  O   UNL A   1      42.762  22.219  25.006  1.00  0.00    -0.237 OA
ATOM     59  O   UNL A   1      42.649  22.084  27.463  1.00  0.00    -0.237 OA
ATOM     60  O   UNL A   1      40.599  22.481  26.186  1.00  0.00    -0.744 OA
ENDBRANCH  54  57
ENDBRANCH  26  50
BRANCH  38  61
ATOM     61  C   UNL A   1      44.767  27.422  33.964  1.00  0.00     0.023 A 
ATOM     62  C   UNL A   1      45.962  28.168  33.893  1.00  0.00     0.012 A 
ATOM     63  C   UNL A   1      44.739  26.231  34.713  1.00  0.00     0.148 A 
ATOM     64  C   UNL A   1      47.118  27.718  34.525  1.00  0.00     0.002 A 
ATOM     65  C   UNL A   1      45.887  25.808  35.375  1.00  0.00     0.091 A 
ATOM     66  F   UNL A   1      43.602  25.520  34.749  1.00  0.00    -0.205 F 
ATOM     67  C   UNL A   1      47.079  26.544  35.274  1.00  0.00     0.022 A 
BRANCH  65  68
ATOM     68  S   UNL A   1      45.895  24.348  36.422  1.00  0.00     0.127 S 
ATOM     69  O   UNL A   1      44.709  24.563  37.246  1.00  0.00    -0.237 OA
ATOM     70  O   UNL A   1      45.774  23.260  35.450  1.00  0.00    -0.237 OA
ATOM     71  O   UNL A   1      47.170  24.381  37.127  1.00  0.00    -0.744 OA
ENDBRANCH  65  68
ENDBRANCH  38  61
ENDBRANCH  12  13
ENDBRANCH   5   7
ENDBRANCH   2   3
ENDBRANCH   1   2
BRANCH   1  72
ATOM     72  C   UNL A   1      33.172  28.954  23.805  1.00  0.00     0.023 C 
BRANCH  72  73
ATOM     73  C   UNL A   1      33.924  28.304  22.648  1.00  0.00     0.116 C 
BRANCH  73  74
ATOM     74  N   UNL A   1      33.066  27.719  21.627  1.00  0.00    -0.352 N 
ATOM     75  C   UNL A   1      32.384  26.526  21.647  1.00  0.00     0.252 C 
ATOM     76  H   UNL A   1      32.958  28.254  20.807  1.00  0.00     0.163 HD
ATOM     77  O   UNL A   1      31.668  26.191  20.708  1.00  0.00    -0.269 OA
BRANCH  75  78
ATOM     78  C   UNL A   1      32.623  25.572  22.742  1.00  0.00     0.058 A 
ATOM     79  C   UNL A   1      33.715  24.719  22.586  1.00  0.00     0.017 A 
ATOM     80  C   UNL A   1      31.871  25.522  23.915  1.00  0.00     0.055 A 
ATOM     81  C   UNL A   1      34.141  23.931  23.655  1.00  0.00     0.027 A 
ATOM     82  C   UNL A   1      32.344  24.778  25.002  1.00  0.00     0.047 A 
ATOM     83  Cl  UNL A   1      30.375  26.363  24.098  1.00  0.00    -0.083 Cl
ATOM     84  C   UNL A   1      33.533  24.043  24.905  1.00  0.00     0.043 A 
BRANCH  84  85
ATOM     85  N   UNL A   1      34.042  23.497  26.102  1.00  0.00    -0.322 N 
ATOM     86  C   UNL A   1      34.282  22.204  26.516  1.00  0.00     0.257 C 
ATOM     87  H   UNL A   1      34.272  24.176  26.777  1.00  0.00     0.170 HD
ATOM     88  O   UNL A   1      34.709  21.982  27.647  1.00  0.00    -0.269 OA
BRANCH  86  89
ATOM     89  C   UNL A   1      34.010  21.049  25.649  1.00  0.00     0.059 A 
ATOM     90  C   UNL A   1      35.126  20.312  25.226  1.00  0.00     0.022 A 
ATOM     91  C   UNL A   1      32.714  20.646  25.299  1.00  0.00     0.060 A 
ATOM     92  C   UNL A   1      34.946  19.112  24.539  1.00  0.00     0.086 A 
ATOM     93  C   UNL A   1      32.528  19.437  24.620  1.00  0.00     0.107 A 
ATOM     94  Cl  UNL A   1      31.315  21.560  25.728  1.00  0.00    -0.083 Cl
ATOM     95  C   UNL A   1      33.646  18.664  24.265  1.00  0.00     0.270 A 
BRANCH  95  96
ATOM     96  N   UNL A   1      33.454  17.352  23.638  1.00  0.00     0.062 N 
ATOM     97  O   UNL A   1      33.539  16.352  24.364  1.00  0.00    -0.258 OA
ATOM     98  O   UNL A   1      33.201  17.328  22.426  1.00  0.00    -0.258 OA
ENDBRANCH  95  96
ENDBRANCH  86  89
ENDBRANCH  84  85
ENDBRANCH  75  78
ENDBRANCH  73  74
ENDBRANCH  72  73
ENDBRANCH   1  72
TORSDOF 17
ENDMDL
MODEL 3
REMARK VINA RESULT:     -12.6      5.199     10.292
REMARK SMILES O=C(NCCCCNC(=O)c1ccc(NC(=O)c2ccc([N+](=O)[O-])cc2Cl)cc1Cl)c1ccc(-c2c3nc(c(-c4cccc(S(=O)(=O)[O-])c4F)c4ccc([nH]4)c(-c4cccc(S(=O)(=O)[O-])c4F)c4nc(c(-c5cccc(S(=O)(=O)[O-])c5F)c5ccc2[nH]5)C=C4)C=C3)cc1
REMARK SMILES IDX 5 1 4 2 3 3 1 4 2 5 31 7 32 8 93 9 33 10 92 11 34 12 35 13
REMARK SMILES IDX 36 14 86 15 37 16 91 17 85 18 87 19 38 20 90 21 84 22 83 23
REMARK SMILES IDX 39 25 71 26 51 27 70 28 52 29 55 30 69 31 88 32 53 33 54 34
REMARK SMILES IDX 68 36 89 37 56 38 40 39 41 40 49 41 42 42 44 43 50 44 43 45
REMARK SMILES IDX 45 46 46 47 47 48 48 49 72 50 73 51 81 52 74 53 76 54 82 55
REMARK SMILES IDX 75 56 77 57 78 58 79 59 80 60 57 61 58 62 66 63 59 64 61 65
REMARK SMILES IDX 67 66 60 67 62 68 63 69 64 70 65 71 6 72 7 73 8 74 9 75
REMARK SMILES IDX 10 77 11 78 12 79 29 80 13 81 28 82 30 83 14 84 15 85 16 86
REMARK SMILES IDX 17 88 18 89 19 90 26 91 20 92 25 93 27 94 21 95 22 96 23 97
REMARK SMILES IDX 24 98
REMARK H PARENT 3 6 87 24 55 35 8 76 15 87
REMARK Flexibility Score: inf
ROOT
ATOM      1  C   UNL A   1      35.681  23.410  24.790  1.00  0.00     0.023 C 
ENDROOT
BRANCH   1   2
ATOM      2  C   UNL A   1      36.394  23.039  26.082  1.00  0.00     0.116 C 
BRANCH   2   3
ATOM      3  N   UNL A   1      37.285  21.897  25.955  1.00  0.00    -0.352 N 
ATOM      4  O   UNL A   1      39.255  20.797  25.913  1.00  0.00    -0.269 OA
ATOM      5  C   UNL A   1      38.647  21.834  26.161  1.00  0.00     0.251 C 
ATOM      6  H   UNL A   1      36.857  21.052  25.686  1.00  0.00     0.163 HD
BRANCH   5   7
ATOM      7  C   UNL A   1      39.372  23.036  26.636  1.00  0.00     0.039 A 
ATOM      8  C   UNL A   1      39.111  24.287  26.077  1.00  0.00     0.014 A 
ATOM      9  C   UNL A   1      40.352  22.903  27.625  1.00  0.00     0.014 A 
ATOM     10  C   UNL A   1      39.948  25.358  26.368  1.00  0.00     0.010 A 
ATOM     11  C   UNL A   1      41.126  24.010  27.992  1.00  0.00     0.010 A 
ATOM     12  C   UNL A   1      40.962  25.238  27.335  1.00  0.00    -0.014 A 
BRANCH  12  13
ATOM     13  C   UNL A   1      41.770  26.440  27.671  1.00  0.00     0.031 A 
ATOM     14  C   UNL A   1      43.192  26.601  27.203  1.00  0.00     0.074 A 
ATOM     15  C   UNL A   1      41.180  27.425  28.376  1.00  0.00     0.049 A 
ATOM     16  N   UNL A   1      43.984  27.635  27.334  1.00  0.00    -0.248 NA
ATOM     17  C   UNL A   1      43.812  25.462  26.508  1.00  0.00     0.031 C 
ATOM     18  C   UNL A   1      39.828  27.358  28.939  1.00  0.00     0.029 A 
ATOM     19  N   UNL A   1      41.619  28.676  28.724  1.00  0.00    -0.354 N 
ATOM     20  C   UNL A   1      45.200  27.266  26.769  1.00  0.00     0.074 A 
ATOM     21  C   UNL A   1      45.047  25.904  26.303  1.00  0.00     0.031 C 
ATOM     22  C   UNL A   1      39.530  28.530  29.515  1.00  0.00     0.029 A 
ATOM     23  C   UNL A   1      40.683  29.416  29.408  1.00  0.00     0.049 A 
ATOM     24  H   UNL A   1      42.518  29.013  28.504  1.00  0.00     0.167 HD
ATOM     25  C   UNL A   1      46.331  28.001  26.634  1.00  0.00     0.034 A 
ATOM     26  C   UNL A   1      40.740  30.669  29.898  1.00  0.00     0.034 A 
ATOM     27  C   UNL A   1      46.467  29.369  27.065  1.00  0.00     0.049 A 
ATOM     28  C   UNL A   1      41.983  31.479  29.674  1.00  0.00     0.074 A 
ATOM     29  C   UNL A   1      47.560  30.209  26.937  1.00  0.00     0.029 A 
ATOM     30  N   UNL A   1      45.478  30.102  27.705  1.00  0.00    -0.354 N 
ATOM     31  N   UNL A   1      43.075  31.148  29.029  1.00  0.00    -0.248 NA
ATOM     32  C   UNL A   1      41.992  32.843  30.217  1.00  0.00     0.031 C 
ATOM     33  C   UNL A   1      47.233  31.447  27.500  1.00  0.00     0.029 A 
ATOM     34  C   UNL A   1      45.933  31.382  27.974  1.00  0.00     0.049 A 
ATOM     35  H   UNL A   1      44.582  29.762  27.934  1.00  0.00     0.167 HD
ATOM     36  C   UNL A   1      43.901  32.263  29.087  1.00  0.00     0.074 A 
ATOM     37  C   UNL A   1      43.161  33.294  29.786  1.00  0.00     0.031 C 
ATOM     38  C   UNL A   1      45.170  32.409  28.634  1.00  0.00     0.034 A 
BRANCH  25  39
ATOM     39  C   UNL A   1      47.507  27.368  25.934  1.00  0.00     0.023 A 
ATOM     40  C   UNL A   1      47.635  27.516  24.538  1.00  0.00     0.012 A 
ATOM     41  C   UNL A   1      48.526  26.718  26.656  1.00  0.00     0.148 A 
ATOM     42  C   UNL A   1      48.749  27.011  23.869  1.00  0.00     0.002 A 
ATOM     43  C   UNL A   1      49.651  26.247  25.986  1.00  0.00     0.091 A 
ATOM     44  F   UNL A   1      48.379  26.571  27.980  1.00  0.00    -0.205 F 
ATOM     45  C   UNL A   1      49.761  26.387  24.593  1.00  0.00     0.022 A 
BRANCH  43  46
ATOM     46  S   UNL A   1      51.044  25.491  26.835  1.00  0.00     0.127 S 
ATOM     47  O   UNL A   1      50.398  24.370  27.519  1.00  0.00    -0.237 OA
ATOM     48  O   UNL A   1      51.913  25.105  25.722  1.00  0.00    -0.237 OA
ATOM     49  O   UNL A   1      51.591  26.521  27.705  1.00  0.00    -0.744 OA
ENDBRANCH  43  46
ENDBRANCH  25  39
BRANCH  26  50
ATOM     50  C   UNL A   1      39.556  31.238  30.600  1.00  0.00     0.023 A 
ATOM     51  C   UNL A   1      38.467  31.719  29.851  1.00  0.00     0.012 A 
ATOM     52  C   UNL A   1      39.479  31.246  32.006  1.00  0.00     0.148 A 
ATOM     53  C   UNL A   1      37.329  32.217  30.489  1.00  0.00     0.002 A 
ATOM     54  C   UNL A   1      38.318  31.681  32.634  1.00  0.00     0.091 A 
ATOM     55  F   UNL A   1      40.534  30.807  32.707  1.00  0.00    -0.205 F 
ATOM     56  C   UNL A   1      37.248  32.183  31.880  1.00  0.00     0.022 A 
BRANCH  54  57
ATOM     57  S   UNL A   1      38.098  31.500  34.407  1.00  0.00     0.127 S 
ATOM     58  O   UNL A   1      36.781  32.095  34.611  1.00  0.00    -0.237 OA
ATOM     59  O   UNL A   1      38.151  30.048  34.585  1.00  0.00    -0.237 OA
ATOM     60  O   UNL A   1      39.226  32.208  34.997  1.00  0.00    -0.744 OA
ENDBRANCH  54  57
ENDBRANCH  26  50
BRANCH  38  61
ATOM     61  C   UNL A   1      45.839  33.732  28.894  1.00  0.00     0.023 A 
ATOM     62  C   UNL A   1      46.601  33.898  30.069  1.00  0.00     0.012 A 
ATOM     63  C   UNL A   1      45.747  34.791  27.972  1.00  0.00     0.148 A 
ATOM     64  C   UNL A   1      47.231  35.111  30.339  1.00  0.00     0.002 A 
ATOM     65  C   UNL A   1      46.412  35.985  28.230  1.00  0.00     0.091 A 
ATOM     66  F   UNL A   1      44.998  34.624  26.873  1.00  0.00    -0.205 F 
ATOM     67  C   UNL A   1      47.145  36.151  29.416  1.00  0.00     0.022 A 
BRANCH  65  68
ATOM     68  S   UNL A   1      46.413  37.344  27.055  1.00  0.00     0.127 S 
ATOM     69  O   UNL A   1      44.994  37.687  26.993  1.00  0.00    -0.237 OA
ATOM     70  O   UNL A   1      47.253  38.340  27.722  1.00  0.00    -0.237 OA
ATOM     71  O   UNL A   1      46.987  36.801  25.830  1.00  0.00    -0.744 OA
ENDBRANCH  65  68
ENDBRANCH  38  61
ENDBRANCH  12  13
ENDBRANCH   5   7
ENDBRANCH   2   3
ENDBRANCH   1   2
BRANCH   1  72
ATOM     72  C   UNL A   1      34.651  24.527  24.895  1.00  0.00     0.023 C 
BRANCH  72  73
ATOM     73  C   UNL A   1      33.903  24.625  26.221  1.00  0.00     0.116 C 
BRANCH  73  74
ATOM     74  N   UNL A   1      33.039  23.489  26.509  1.00  0.00    -0.352 N 
ATOM     75  C   UNL A   1      31.846  23.136  25.923  1.00  0.00     0.252 C 
ATOM     76  H   UNL A   1      33.353  22.889  27.223  1.00  0.00     0.163 HD
ATOM     77  O   UNL A   1      31.253  22.117  26.262  1.00  0.00    -0.269 OA
BRANCH  75  78
ATOM     78  C   UNL A   1      31.201  24.062  24.978  1.00  0.00     0.058 A 
ATOM     79  C   UNL A   1      30.387  25.045  25.541  1.00  0.00     0.017 A 
ATOM     80  C   UNL A   1      31.404  24.040  23.599  1.00  0.00     0.055 A 
ATOM     81  C   UNL A   1      29.904  26.086  24.748  1.00  0.00     0.027 A 
ATOM     82  C   UNL A   1      30.970  25.123  22.825  1.00  0.00     0.047 A 
ATOM     83  Cl  UNL A   1      32.194  22.734  22.794  1.00  0.00    -0.083 Cl
ATOM     84  C   UNL A   1      30.289  26.198  23.412  1.00  0.00     0.043 A 
BRANCH  84  85
ATOM     85  N   UNL A   1      30.076  27.334  22.603  1.00  0.00    -0.322 N 
ATOM     86  C   UNL A   1      30.577  28.618  22.639  1.00  0.00     0.257 C 
ATOM     87  H   UNL A   1      29.443  27.178  21.866  1.00  0.00     0.170 HD
ATOM     88  O   UNL A   1      30.200  29.455  21.822  1.00  0.00    -0.269 OA
BRANCH  86  89
ATOM     89  C   UNL A   1      31.542  29.046  23.662  1.00  0.00     0.059 A 
ATOM     90  C   UNL A   1      31.034  29.837  24.703  1.00  0.00     0.022 A 
ATOM     91  C   UNL A   1      32.886  28.648  23.657  1.00  0.00     0.060 A 
ATOM     92  C   UNL A   1      31.844  30.150  25.795  1.00  0.00     0.086 A 
ATOM     93  C   UNL A   1      33.698  28.949  24.756  1.00  0.00     0.107 A 
ATOM     94  Cl  UNL A   1      33.575  27.741  22.361  1.00  0.00    -0.083 Cl
ATOM     95  C   UNL A   1      33.163  29.677  25.831  1.00  0.00     0.270 A 
BRANCH  95  96
ATOM     96  N   UNL A   1      33.980  29.915  27.026  1.00  0.00     0.062 N 
ATOM     97  O   UNL A   1      34.178  31.091  27.360  1.00  0.00    -0.258 OA
ATOM     98  O   UNL A   1      34.405  28.925  27.635  1.00  0.00    -0.258 OA
ENDBRANCH  95  96
ENDBRANCH  86  89
ENDBRANCH  84  85
ENDBRANCH  75  78
ENDBRANCH  73  74
ENDBRANCH  72  73
ENDBRANCH   1  72
TORSDOF 17
ENDMDL
