MODEL 1
REMARK VINA RESULT:     -11.7      0.000      0.000
REMARK SMILES C[C@@H]1CCC[C@@](Cc2ncccn2)(C(=O)NCCCCNC(=O)c2ccc(-c3c4nc(c(-c5cccc(S(=O)(=O)[O-])c5F)c5ccc([nH]5)c(-c5cccc(S(=O)(=O)[O-])c5F)c5nc(c(-c6cccc(S(=O)(=O)[O-])c6F)c6ccc3[nH]6)C=C5)C=C4)cc2)C1
REMARK SMILES IDX 19 1 18 2 17 3 16 4 14 5 15 6 6 8 1 9 2 10 3 11 87 12 4 13
REMARK SMILES IDX 5 14 7 15 8 16 9 17 13 18 10 19 12 20 11 21 20 22 21 23
REMARK SMILES IDX 22 24 23 26 24 27 25 28 86 29 26 30 85 31 27 32 28 33 29 34
REMARK SMILES IDX 79 35 30 36 84 37 78 38 80 39 31 40 83 41 77 42 76 43 32 45
REMARK SMILES IDX 64 46 44 47 63 48 45 49 48 50 62 51 81 52 46 53 47 54 61 56
REMARK SMILES IDX 82 57 49 58 33 59 34 60 42 61 35 62 37 63 43 64 36 65 38 66
REMARK SMILES IDX 39 67 40 68 41 69 65 70 66 71 74 72 67 73 69 74 75 75 68 76
REMARK SMILES IDX 70 77 71 78 72 79 73 80 50 81 51 82 59 83 52 84 54 85 60 86
REMARK SMILES IDX 53 87 55 88 56 89 57 90 58 91
REMARK H PARENT 16 7 21 25 80 44 48 55
REMARK Flexibility Score: inf
ROOT
ATOM      1  C   UNL A   1      32.225  30.890  26.858  1.00  0.00     0.023 C 
ENDROOT
BRANCH   1   2
ATOM      2  C   UNL A   1      32.499  29.426  27.198  1.00  0.00     0.023 C 
BRANCH   2   3
ATOM      3  C   UNL A   1      33.890  28.930  26.827  1.00  0.00     0.116 C 
BRANCH   3   4
ATOM      4  N   UNL A   1      34.161  28.950  25.408  1.00  0.00    -0.356 N 
ATOM      5  C   UNL A   1      33.757  28.142  24.394  1.00  0.00     0.226 C 
ATOM      6  O   UNL A   1      33.934  28.603  23.258  1.00  0.00    -0.274 OA
ATOM      7  H   UNL A   1      34.749  29.687  25.124  1.00  0.00     0.163 HD
BRANCH   5   8
ATOM      8  C   UNL A   1      33.112  26.733  24.582  1.00  0.00     0.056 C 
ATOM      9  C   UNL A   1      31.304  24.200  23.144  1.00  0.00     0.007 C 
ATOM     10  C   UNL A   1      32.766  24.616  22.973  1.00  0.00    -0.013 C 
ATOM     11  C   UNL A   1      33.695  23.807  23.876  1.00  0.00     0.003 C 
ATOM     12  C   UNL A   1      33.022  26.127  23.125  1.00  0.00     0.020 C 
ATOM     13  C   UNL A   1      33.681  24.309  25.310  1.00  0.00     0.001 C 
ATOM     14  C   UNL A   1      34.030  25.793  25.400  1.00  0.00     0.017 C 
BRANCH   8  15
ATOM     15  C   UNL A   1      31.658  26.888  25.107  1.00  0.00     0.094 C 
BRANCH  15  16
ATOM     16  C   UNL A   1      30.668  27.698  24.318  1.00  0.00     0.129 A 
ATOM     17  N   UNL A   1      29.581  27.069  23.830  1.00  0.00    -0.241 NA
ATOM     18  N   UNL A   1      30.937  29.004  24.128  1.00  0.00    -0.241 NA
ATOM     19  C   UNL A   1      28.712  27.826  23.129  1.00  0.00     0.115 A 
ATOM     20  C   UNL A   1      30.039  29.711  23.414  1.00  0.00     0.115 A 
ATOM     21  C   UNL A   1      28.889  29.168  22.894  1.00  0.00     0.040 A 
ENDBRANCH  15  16
ENDBRANCH   8  15
ENDBRANCH   5   8
ENDBRANCH   3   4
ENDBRANCH   2   3
ENDBRANCH   1   2
BRANCH   1  22
ATOM     22  C   UNL A   1      33.194  31.911  27.453  1.00  0.00     0.116 C 
BRANCH  22  23
ATOM     23  N   UNL A   1      32.645  33.256  27.588  1.00  0.00    -0.352 N 
ATOM     24  C   UNL A   1      33.089  34.262  28.417  1.00  0.00     0.251 C 
ATOM     25  H   UNL A   1      31.870  33.471  27.019  1.00  0.00     0.163 HD
ATOM     26  O   UNL A   1      32.534  35.355  28.441  1.00  0.00    -0.269 OA
BRANCH  24  27
ATOM     27  C   UNL A   1      34.234  33.974  29.303  1.00  0.00     0.039 A 
ATOM     28  C   UNL A   1      34.026  33.228  30.466  1.00  0.00     0.014 A 
ATOM     29  C   UNL A   1      35.522  34.339  28.905  1.00  0.00     0.014 A 
ATOM     30  C   UNL A   1      35.128  32.773  31.194  1.00  0.00     0.010 A 
ATOM     31  C   UNL A   1      36.616  33.835  29.598  1.00  0.00     0.010 A 
ATOM     32  C   UNL A   1      36.430  33.038  30.740  1.00  0.00    -0.014 A 
BRANCH  32  33
ATOM     33  C   UNL A   1      37.629  32.483  31.417  1.00  0.00     0.031 A 
ATOM     34  C   UNL A   1      38.381  31.351  30.776  1.00  0.00     0.074 A 
ATOM     35  C   UNL A   1      37.953  32.896  32.658  1.00  0.00     0.049 A 
ATOM     36  N   UNL A   1      39.340  30.611  31.269  1.00  0.00    -0.248 NA
ATOM     37  C   UNL A   1      37.975  30.977  29.410  1.00  0.00     0.031 C 
ATOM     38  C   UNL A   1      37.256  33.938  33.414  1.00  0.00     0.029 A 
ATOM     39  N   UNL A   1      38.928  32.457  33.520  1.00  0.00    -0.354 N 
ATOM     40  C   UNL A   1      39.615  29.656  30.300  1.00  0.00     0.074 A 
ATOM     41  C   UNL A   1      38.711  29.896  29.197  1.00  0.00     0.031 C 
ATOM     42  C   UNL A   1      37.817  34.049  34.630  1.00  0.00     0.029 A 
ATOM     43  C   UNL A   1      38.892  33.070  34.752  1.00  0.00     0.049 A 
ATOM     44  H   UNL A   1      39.591  31.770  33.279  1.00  0.00     0.167 HD
ATOM     45  C   UNL A   1      40.556  28.682  30.314  1.00  0.00     0.034 A 
ATOM     46  C   UNL A   1      39.633  32.856  35.859  1.00  0.00     0.034 A 
ATOM     47  C   UNL A   1      41.494  28.487  31.384  1.00  0.00     0.049 A 
ATOM     48  C   UNL A   1      40.717  31.813  35.822  1.00  0.00     0.074 A 
ATOM     49  C   UNL A   1      42.533  27.577  31.461  1.00  0.00     0.029 A 
ATOM     50  N   UNL A   1      41.512  29.218  32.561  1.00  0.00    -0.354 N 
ATOM     51  N   UNL A   1      41.057  31.011  34.841  1.00  0.00    -0.248 NA
ATOM     52  C   UNL A   1      41.547  31.668  37.027  1.00  0.00     0.031 C 
ATOM     53  C   UNL A   1      43.185  27.763  32.685  1.00  0.00     0.029 A 
ATOM     54  C   UNL A   1      42.553  28.792  33.365  1.00  0.00     0.049 A 
ATOM     55  H   UNL A   1      40.878  29.936  32.790  1.00  0.00     0.167 HD
ATOM     56  C   UNL A   1      42.162  30.300  35.293  1.00  0.00     0.074 A 
ATOM     57  C   UNL A   1      42.443  30.772  36.633  1.00  0.00     0.031 C 
ATOM     58  C   UNL A   1      42.869  29.331  34.663  1.00  0.00     0.034 A 
BRANCH  45  59
ATOM     59  C   UNL A   1      40.658  27.798  29.101  1.00  0.00     0.023 A 
ATOM     60  C   UNL A   1      39.829  26.661  29.007  1.00  0.00     0.012 A 
ATOM     61  C   UNL A   1      41.530  28.108  28.041  1.00  0.00     0.148 A 
ATOM     62  C   UNL A   1      39.891  25.828  27.892  1.00  0.00     0.002 A 
ATOM     63  C   UNL A   1      41.558  27.294  26.914  1.00  0.00     0.091 A 
ATOM     64  F   UNL A   1      42.329  29.178  28.160  1.00  0.00    -0.205 F 
ATOM     65  C   UNL A   1      40.747  26.149  26.843  1.00  0.00     0.022 A 
BRANCH  63  66
ATOM     66  S   UNL A   1      42.575  27.670  25.482  1.00  0.00     0.127 S 
ATOM     67  O   UNL A   1      42.320  26.512  24.627  1.00  0.00    -0.237 OA
ATOM     68  O   UNL A   1      41.988  28.921  25.001  1.00  0.00    -0.237 OA
ATOM     69  O   UNL A   1      43.935  27.797  25.985  1.00  0.00    -0.744 OA
ENDBRANCH  63  66
ENDBRANCH  45  59
BRANCH  46  70
ATOM     70  C   UNL A   1      39.428  33.705  37.067  1.00  0.00     0.023 A 
ATOM     71  C   UNL A   1      39.861  35.046  37.042  1.00  0.00     0.012 A 
ATOM     72  C   UNL A   1      38.784  33.214  38.218  1.00  0.00     0.148 A 
ATOM     73  C   UNL A   1      39.683  35.874  38.150  1.00  0.00     0.002 A 
ATOM     74  C   UNL A   1      38.564  34.059  39.302  1.00  0.00     0.091 A 
ATOM     75  F   UNL A   1      38.391  31.933  38.231  1.00  0.00    -0.205 F 
ATOM     76  C   UNL A   1      39.026  35.385  39.275  1.00  0.00     0.022 A 
BRANCH  74  77
ATOM     77  S   UNL A   1      37.611  33.549  40.736  1.00  0.00     0.127 S 
ATOM     78  O   UNL A   1      37.497  34.800  41.480  1.00  0.00    -0.237 OA
ATOM     79  O   UNL A   1      36.366  33.078  40.127  1.00  0.00    -0.237 OA
ATOM     80  O   UNL A   1      38.399  32.498  41.369  1.00  0.00    -0.744 OA
ENDBRANCH  74  77
ENDBRANCH  46  70
BRANCH  58  81
ATOM     81  C   UNL A   1      44.056  28.745  35.378  1.00  0.00     0.023 A 
ATOM     82  C   UNL A   1      45.324  29.335  35.223  1.00  0.00     0.012 A 
ATOM     83  C   UNL A   1      43.890  27.683  36.288  1.00  0.00     0.148 A 
ATOM     84  C   UNL A   1      46.415  28.866  35.954  1.00  0.00     0.002 A 
ATOM     85  C   UNL A   1      44.972  27.246  37.043  1.00  0.00     0.091 A 
ATOM     86  F   UNL A   1      42.676  27.123  36.404  1.00  0.00    -0.205 F 
ATOM     87  C   UNL A   1      46.237  27.833  36.872  1.00  0.00     0.022 A 
BRANCH  85  88
ATOM     88  S   UNL A   1      44.811  25.986  38.313  1.00  0.00     0.127 S 
ATOM     89  O   UNL A   1      43.933  26.646  39.277  1.00  0.00    -0.237 OA
ATOM     90  O   UNL A   1      44.191  24.881  37.581  1.00  0.00    -0.237 OA
ATOM     91  O   UNL A   1      46.164  25.715  38.779  1.00  0.00    -0.744 OA
ENDBRANCH  85  88
ENDBRANCH  58  81
ENDBRANCH  32  33
ENDBRANCH  24  27
ENDBRANCH  22  23
ENDBRANCH   1  22
TORSDOF 16
ENDMDL
MODEL 2
REMARK VINA RESULT:     -11.6      5.724     10.676
REMARK SMILES C[C@@H]1CCC[C@@](Cc2ncccn2)(C(=O)NCCCCNC(=O)c2ccc(-c3c4nc(c(-c5cccc(S(=O)(=O)[O-])c5F)c5ccc([nH]5)c(-c5cccc(S(=O)(=O)[O-])c5F)c5nc(c(-c6cccc(S(=O)(=O)[O-])c6F)c6ccc3[nH]6)C=C5)C=C4)cc2)C1
REMARK SMILES IDX 19 1 18 2 17 3 16 4 14 5 15 6 6 8 1 9 2 10 3 11 87 12 4 13
REMARK SMILES IDX 5 14 7 15 8 16 9 17 13 18 10 19 12 20 11 21 20 22 21 23
REMARK SMILES IDX 22 24 23 26 24 27 25 28 86 29 26 30 85 31 27 32 28 33 29 34
REMARK SMILES IDX 79 35 30 36 84 37 78 38 80 39 31 40 83 41 77 42 76 43 32 45
REMARK SMILES IDX 64 46 44 47 63 48 45 49 48 50 62 51 81 52 46 53 47 54 61 56
REMARK SMILES IDX 82 57 49 58 33 59 34 60 42 61 35 62 37 63 43 64 36 65 38 66
REMARK SMILES IDX 39 67 40 68 41 69 65 70 66 71 74 72 67 73 69 74 75 75 68 76
REMARK SMILES IDX 70 77 71 78 72 79 73 80 50 81 51 82 59 83 52 84 54 85 60 86
REMARK SMILES IDX 53 87 55 88 56 89 57 90 58 91
REMARK H PARENT 16 7 21 25 80 44 48 55
REMARK Flexibility Score: inf
ROOT
ATOM      1  C   UNL A   1      34.769  21.905  26.731  1.00  0.00     0.023 C 
ENDROOT
BRANCH   1   2
ATOM      2  C   UNL A   1      33.893  20.893  25.994  1.00  0.00     0.023 C 
BRANCH   2   3
ATOM      3  C   UNL A   1      32.604  21.461  25.416  1.00  0.00     0.116 C 
BRANCH   3   4
ATOM      4  N   UNL A   1      31.737  22.067  26.399  1.00  0.00    -0.356 N 
ATOM      5  C   UNL A   1      31.251  23.329  26.528  1.00  0.00     0.226 C 
ATOM      6  O   UNL A   1      30.305  23.445  27.319  1.00  0.00    -0.274 OA
ATOM      7  H   UNL A   1      31.443  21.451  27.109  1.00  0.00     0.163 HD
BRANCH   5   8
ATOM      8  C   UNL A   1      31.798  24.576  25.765  1.00  0.00     0.056 C 
ATOM      9  C   UNL A   1      34.005  27.200  25.785  1.00  0.00     0.007 C 
ATOM     10  C   UNL A   1      34.221  25.705  25.542  1.00  0.00    -0.013 C 
ATOM     11  C   UNL A   1      34.217  25.365  24.054  1.00  0.00     0.003 C 
ATOM     12  C   UNL A   1      33.262  24.787  26.324  1.00  0.00     0.020 C 
ATOM     13  C   UNL A   1      32.809  25.292  23.486  1.00  0.00     0.001 C 
ATOM     14  C   UNL A   1      31.936  24.299  24.248  1.00  0.00     0.017 C 
BRANCH   8  15
ATOM     15  C   UNL A   1      30.972  25.833  26.153  1.00  0.00     0.094 C 
BRANCH  15  16
ATOM     16  C   UNL A   1      30.281  26.624  25.078  1.00  0.00     0.129 A 
ATOM     17  N   UNL A   1      29.112  26.154  24.597  1.00  0.00    -0.241 NA
ATOM     18  N   UNL A   1      30.881  27.748  24.642  1.00  0.00    -0.241 NA
ATOM     19  C   UNL A   1      28.519  26.891  23.635  1.00  0.00     0.115 A 
ATOM     20  C   UNL A   1      30.248  28.441  23.676  1.00  0.00     0.115 A 
ATOM     21  C   UNL A   1      29.043  28.058  23.137  1.00  0.00     0.040 A 
ENDBRANCH  15  16
ENDBRANCH   8  15
ENDBRANCH   5   8
ENDBRANCH   3   4
ENDBRANCH   2   3
ENDBRANCH   1   2
BRANCH   1  22
ATOM     22  C   UNL A   1      35.978  22.434  25.959  1.00  0.00     0.116 C 
BRANCH  22  23
ATOM     23  N   UNL A   1      36.918  21.403  25.531  1.00  0.00    -0.352 N 
ATOM     24  C   UNL A   1      38.281  21.380  25.727  1.00  0.00     0.251 C 
ATOM     25  H   UNL A   1      36.535  20.635  25.047  1.00  0.00     0.163 HD
ATOM     26  O   UNL A   1      38.966  20.452  25.310  1.00  0.00    -0.269 OA
BRANCH  24  27
ATOM     27  C   UNL A   1      38.899  22.523  26.427  1.00  0.00     0.039 A 
ATOM     28  C   UNL A   1      39.953  22.290  27.313  1.00  0.00     0.014 A 
ATOM     29  C   UNL A   1      38.511  23.824  26.099  1.00  0.00     0.014 A 
ATOM     30  C   UNL A   1      40.680  23.374  27.813  1.00  0.00     0.010 A 
ATOM     31  C   UNL A   1      39.271  24.895  26.552  1.00  0.00     0.010 A 
ATOM     32  C   UNL A   1      40.369  24.680  27.402  1.00  0.00    -0.014 A 
BRANCH  32  33
ATOM     33  C   UNL A   1      41.180  25.851  27.818  1.00  0.00     0.031 A 
ATOM     34  C   UNL A   1      40.534  26.954  28.608  1.00  0.00     0.074 A 
ATOM     35  C   UNL A   1      42.444  25.988  27.371  1.00  0.00     0.049 A 
ATOM     36  N   UNL A   1      41.005  28.132  28.923  1.00  0.00    -0.248 NA
ATOM     37  C   UNL A   1      39.158  26.712  29.076  1.00  0.00     0.031 C 
ATOM     38  C   UNL A   1      43.159  25.019  26.538  1.00  0.00     0.029 A 
ATOM     39  N   UNL A   1      43.338  27.020  27.520  1.00  0.00    -0.354 N 
ATOM     40  C   UNL A   1      39.973  28.790  29.577  1.00  0.00     0.074 A 
ATOM     41  C   UNL A   1      38.841  27.888  29.598  1.00  0.00     0.031 C 
ATOM     42  C   UNL A   1      44.374  25.507  26.239  1.00  0.00     0.029 A 
ATOM     43  C   UNL A   1      44.516  26.833  26.833  1.00  0.00     0.049 A 
ATOM     44  H   UNL A   1      43.154  27.818  28.067  1.00  0.00     0.167 HD
ATOM     45  C   UNL A   1      39.973  30.024  30.134  1.00  0.00     0.034 A 
ATOM     46  C   UNL A   1      45.584  27.645  26.687  1.00  0.00     0.034 A 
ATOM     47  C   UNL A   1      41.117  30.890  30.166  1.00  0.00     0.049 A 
ATOM     48  C   UNL A   1      45.583  28.983  27.376  1.00  0.00     0.074 A 
ATOM     49  C   UNL A   1      41.242  32.128  30.772  1.00  0.00     0.029 A 
ATOM     50  N   UNL A   1      42.338  30.608  29.574  1.00  0.00    -0.354 N 
ATOM     51  N   UNL A   1      44.645  29.532  28.111  1.00  0.00    -0.248 NA
ATOM     52  C   UNL A   1      46.799  29.801  27.250  1.00  0.00     0.031 C 
ATOM     53  C   UNL A   1      42.544  32.592  30.550  1.00  0.00     0.029 A 
ATOM     54  C   UNL A   1      43.228  31.639  29.812  1.00  0.00     0.049 A 
ATOM     55  H   UNL A   1      42.542  29.792  29.061  1.00  0.00     0.167 HD
ATOM     56  C   UNL A   1      45.172  30.734  28.569  1.00  0.00     0.074 A 
ATOM     57  C   UNL A   1      46.516  30.831  28.037  1.00  0.00     0.031 C 
ATOM     58  C   UNL A   1      44.590  31.680  29.344  1.00  0.00     0.034 A 
BRANCH  45  59
ATOM     59  C   UNL A   1      38.710  30.478  30.816  1.00  0.00     0.023 A 
ATOM     60  C   UNL A   1      38.562  30.263  32.201  1.00  0.00     0.012 A 
ATOM     61  C   UNL A   1      37.698  31.150  30.106  1.00  0.00     0.148 A 
ATOM     62  C   UNL A   1      37.410  30.681  32.864  1.00  0.00     0.002 A 
ATOM     63  C   UNL A   1      36.569  31.599  30.782  1.00  0.00     0.091 A 
ATOM     64  F   UNL A   1      37.845  31.322  28.785  1.00  0.00    -0.205 F 
ATOM     65  C   UNL A   1      36.419  31.357  32.158  1.00  0.00     0.022 A 
BRANCH  63  66
ATOM     66  S   UNL A   1      35.275  32.544  29.970  1.00  0.00     0.127 S 
ATOM     67  O   UNL A   1      34.295  32.688  31.046  1.00  0.00    -0.237 OA
ATOM     68  O   UNL A   1      35.968  33.781  29.610  1.00  0.00    -0.237 OA
ATOM     69  O   UNL A   1      34.851  31.738  28.834  1.00  0.00    -0.744 OA
ENDBRANCH  63  66
ENDBRANCH  45  59
BRANCH  46  70
ATOM     70  C   UNL A   1      46.775  27.177  25.924  1.00  0.00     0.023 A 
ATOM     71  C   UNL A   1      47.649  26.248  26.522  1.00  0.00     0.012 A 
ATOM     72  C   UNL A   1      47.032  27.612  24.610  1.00  0.00     0.148 A 
ATOM     73  C   UNL A   1      48.772  25.782  25.839  1.00  0.00     0.002 A 
ATOM     74  C   UNL A   1      48.126  27.106  23.915  1.00  0.00     0.091 A 
ATOM     75  F   UNL A   1      46.200  28.507  24.061  1.00  0.00    -0.205 F 
ATOM     76  C   UNL A   1      49.006  26.202  24.533  1.00  0.00     0.022 A 
BRANCH  74  77
ATOM     77  S   UNL A   1      48.426  27.493  22.187  1.00  0.00     0.127 S 
ATOM     78  O   UNL A   1      47.179  28.151  21.807  1.00  0.00    -0.237 OA
ATOM     79  O   UNL A   1      49.590  28.377  22.266  1.00  0.00    -0.237 OA
ATOM     80  O   UNL A   1      48.694  26.212  21.545  1.00  0.00    -0.744 OA
ENDBRANCH  74  77
ENDBRANCH  46  70
BRANCH  58  81
ATOM     81  C   UNL A   1      45.408  32.884  29.722  1.00  0.00     0.023 A 
ATOM     82  C   UNL A   1      46.217  32.844  30.873  1.00  0.00     0.012 A 
ATOM     83  C   UNL A   1      45.460  34.009  28.875  1.00  0.00     0.148 A 
ATOM     84  C   UNL A   1      47.056  33.913  31.186  1.00  0.00     0.002 A 
ATOM     85  C   UNL A   1      46.328  35.054  29.171  1.00  0.00     0.091 A 
ATOM     86  F   UNL A   1      44.665  34.034  27.795  1.00  0.00    -0.205 F 
ATOM     87  C   UNL A   1      47.122  35.010  30.329  1.00  0.00     0.022 A 
BRANCH  85  88
ATOM     88  S   UNL A   1      46.544  36.460  28.074  1.00  0.00     0.127 S 
ATOM     89  O   UNL A   1      46.819  35.803  26.798  1.00  0.00    -0.237 OA
ATOM     90  O   UNL A   1      45.241  37.121  28.151  1.00  0.00    -0.237 OA
ATOM     91  O   UNL A   1      47.645  37.235  28.631  1.00  0.00    -0.744 OA
ENDBRANCH  85  88
ENDBRANCH  58  81
ENDBRANCH  32  33
ENDBRANCH  24  27
ENDBRANCH  22  23
ENDBRANCH   1  22
TORSDOF 16
ENDMDL
MODEL 3
REMARK VINA RESULT:     -11.5      2.160      2.845
REMARK SMILES C[C@@H]1CCC[C@@](Cc2ncccn2)(C(=O)NCCCCNC(=O)c2ccc(-c3c4nc(c(-c5cccc(S(=O)(=O)[O-])c5F)c5ccc([nH]5)c(-c5cccc(S(=O)(=O)[O-])c5F)c5nc(c(-c6cccc(S(=O)(=O)[O-])c6F)c6ccc3[nH]6)C=C5)C=C4)cc2)C1
REMARK SMILES IDX 19 1 18 2 17 3 16 4 14 5 15 6 6 8 1 9 2 10 3 11 87 12 4 13
REMARK SMILES IDX 5 14 7 15 8 16 9 17 13 18 10 19 12 20 11 21 20 22 21 23
REMARK SMILES IDX 22 24 23 26 24 27 25 28 86 29 26 30 85 31 27 32 28 33 29 34
REMARK SMILES IDX 79 35 30 36 84 37 78 38 80 39 31 40 83 41 77 42 76 43 32 45
REMARK SMILES IDX 64 46 44 47 63 48 45 49 48 50 62 51 81 52 46 53 47 54 61 56
REMARK SMILES IDX 82 57 49 58 33 59 34 60 42 61 35 62 37 63 43 64 36 65 38 66
REMARK SMILES IDX 39 67 40 68 41 69 65 70 66 71 74 72 67 73 69 74 75 75 68 76
REMARK SMILES IDX 70 77 71 78 72 79 73 80 50 81 51 82 59 83 52 84 54 85 60 86
REMARK SMILES IDX 53 87 55 88 56 89 57 90 58 91
REMARK H PARENT 16 7 21 25 80 44 48 55
REMARK Flexibility Score: inf
ROOT
ATOM      1  C   UNL A   1      31.758  29.025  26.571  1.00  0.00     0.023 C 
ENDROOT
BRANCH   1   2
ATOM      2  C   UNL A   1      32.452  27.772  27.103  1.00  0.00     0.023 C 
BRANCH   2   3
ATOM      3  C   UNL A   1      32.288  26.530  26.238  1.00  0.00     0.116 C 
BRANCH   3   4
ATOM      4  N   UNL A   1      31.138  25.726  26.578  1.00  0.00    -0.356 N 
ATOM      5  C   UNL A   1      30.795  24.449  26.263  1.00  0.00     0.226 C 
ATOM      6  O   UNL A   1      29.884  23.969  26.952  1.00  0.00    -0.274 OA
ATOM      7  H   UNL A   1      30.479  26.189  27.144  1.00  0.00     0.163 HD
BRANCH   5   8
ATOM      8  C   UNL A   1      31.461  23.602  25.134  1.00  0.00     0.056 C 
ATOM      9  C   UNL A   1      33.990  23.392  22.829  1.00  0.00     0.007 C 
ATOM     10  C   UNL A   1      33.996  23.214  24.349  1.00  0.00    -0.013 C 
ATOM     11  C   UNL A   1      33.870  21.746  24.748  1.00  0.00     0.003 C 
ATOM     12  C   UNL A   1      32.966  24.082  25.097  1.00  0.00     0.020 C 
ATOM     13  C   UNL A   1      32.438  21.246  24.657  1.00  0.00     0.001 C 
ATOM     14  C   UNL A   1      31.482  22.096  25.491  1.00  0.00     0.017 C 
BRANCH   8  15
ATOM     15  C   UNL A   1      30.827  23.965  23.763  1.00  0.00     0.094 C 
BRANCH  15  16
ATOM     16  C   UNL A   1      30.518  25.401  23.448  1.00  0.00     0.129 A 
ATOM     17  N   UNL A   1      29.378  25.926  23.939  1.00  0.00    -0.241 NA
ATOM     18  N   UNL A   1      31.389  26.075  22.673  1.00  0.00    -0.241 NA
ATOM     19  C   UNL A   1      29.133  27.218  23.639  1.00  0.00     0.115 A 
ATOM     20  C   UNL A   1      31.091  27.360  22.398  1.00  0.00     0.115 A 
ATOM     21  C   UNL A   1      29.967  27.993  22.871  1.00  0.00     0.040 A 
ENDBRANCH  15  16
ENDBRANCH   8  15
ENDBRANCH   5   8
ENDBRANCH   3   4
ENDBRANCH   2   3
ENDBRANCH   1   2
BRANCH   1  22
ATOM     22  C   UNL A   1      32.676  30.161  26.121  1.00  0.00     0.116 C 
BRANCH  22  23
ATOM     23  N   UNL A   1      32.278  31.482  26.596  1.00  0.00    -0.352 N 
ATOM     24  C   UNL A   1      33.016  32.351  27.368  1.00  0.00     0.251 C 
ATOM     25  H   UNL A   1      31.380  31.788  26.333  1.00  0.00     0.163 HD
ATOM     26  O   UNL A   1      32.563  33.438  27.708  1.00  0.00    -0.269 OA
BRANCH  24  27
ATOM     27  C   UNL A   1      34.360  31.920  27.803  1.00  0.00     0.039 A 
ATOM     28  C   UNL A   1      35.380  32.869  27.904  1.00  0.00     0.014 A 
ATOM     29  C   UNL A   1      34.558  30.605  28.228  1.00  0.00     0.014 A 
ATOM     30  C   UNL A   1      36.586  32.516  28.513  1.00  0.00     0.010 A 
ATOM     31  C   UNL A   1      35.737  30.273  28.885  1.00  0.00     0.010 A 
ATOM     32  C   UNL A   1      36.756  31.227  29.045  1.00  0.00    -0.014 A 
BRANCH  32  33
ATOM     33  C   UNL A   1      37.975  30.839  29.798  1.00  0.00     0.031 A 
ATOM     34  C   UNL A   1      38.941  29.865  29.187  1.00  0.00     0.074 A 
ATOM     35  C   UNL A   1      38.138  31.248  31.072  1.00  0.00     0.049 A 
ATOM     36  N   UNL A   1      39.966  29.264  29.732  1.00  0.00    -0.248 NA
ATOM     37  C   UNL A   1      38.700  29.487  27.783  1.00  0.00     0.031 C 
ATOM     38  C   UNL A   1      37.232  32.138  31.800  1.00  0.00     0.029 A 
ATOM     39  N   UNL A   1      39.105  30.933  31.995  1.00  0.00    -0.354 N 
ATOM     40  C   UNL A   1      40.460  28.403  28.761  1.00  0.00     0.074 A 
ATOM     41  C   UNL A   1      39.611  28.543  27.598  1.00  0.00     0.031 C 
ATOM     42  C   UNL A   1      37.678  32.287  33.058  1.00  0.00     0.029 A 
ATOM     43  C   UNL A   1      38.882  31.483  33.237  1.00  0.00     0.049 A 
ATOM     44  H   UNL A   1      39.884  30.367  31.788  1.00  0.00     0.167 HD
ATOM     45  C   UNL A   1      41.539  27.588  28.822  1.00  0.00     0.034 A 
ATOM     46  C   UNL A   1      39.565  31.343  34.392  1.00  0.00     0.034 A 
ATOM     47  C   UNL A   1      42.416  27.499  29.956  1.00  0.00     0.049 A 
ATOM     48  C   UNL A   1      40.801  30.484  34.410  1.00  0.00     0.074 A 
ATOM     49  C   UNL A   1      43.578  26.760  30.088  1.00  0.00     0.029 A 
ATOM     50  N   UNL A   1      42.232  28.176  31.150  1.00  0.00    -0.354 N 
ATOM     51  N   UNL A   1      41.334  29.785  33.437  1.00  0.00    -0.248 NA
ATOM     52  C   UNL A   1      41.554  30.422  35.673  1.00  0.00     0.031 C 
ATOM     53  C   UNL A   1      44.101  26.997  31.365  1.00  0.00     0.029 A 
ATOM     54  C   UNL A   1      43.266  27.886  32.022  1.00  0.00     0.049 A 
ATOM     55  H   UNL A   1      41.478  28.777  31.350  1.00  0.00     0.167 HD
ATOM     56  C   UNL A   1      42.502  29.237  33.954  1.00  0.00     0.074 A 
ATOM     57  C   UNL A   1      42.606  29.694  35.325  1.00  0.00     0.031 C 
ATOM     58  C   UNL A   1      43.398  28.416  33.355  1.00  0.00     0.034 A 
BRANCH  45  59
ATOM     59  C   UNL A   1      41.868  26.779  27.596  1.00  0.00     0.023 A 
ATOM     60  C   UNL A   1      42.418  27.428  26.472  1.00  0.00     0.012 A 
ATOM     61  C   UNL A   1      41.679  25.385  27.568  1.00  0.00     0.148 A 
ATOM     62  C   UNL A   1      42.743  26.706  25.325  1.00  0.00     0.002 A 
ATOM     63  C   UNL A   1      42.042  24.666  26.434  1.00  0.00     0.091 A 
ATOM     64  F   UNL A   1      41.130  24.789  28.636  1.00  0.00    -0.205 F 
ATOM     65  C   UNL A   1      42.565  25.326  25.310  1.00  0.00     0.022 A 
BRANCH  63  66
ATOM     66  S   UNL A   1      41.918  22.876  26.351  1.00  0.00     0.127 S 
ATOM     67  O   UNL A   1      40.470  22.678  26.412  1.00  0.00    -0.237 OA
ATOM     68  O   UNL A   1      42.517  22.581  25.049  1.00  0.00    -0.237 OA
ATOM     69  O   UNL A   1      42.672  22.374  27.490  1.00  0.00    -0.744 OA
ENDBRANCH  63  66
ENDBRANCH  45  59
BRANCH  46  70
ATOM     70  C   UNL A   1      39.141  32.101  35.603  1.00  0.00     0.023 A 
ATOM     71  C   UNL A   1      39.418  33.481  35.678  1.00  0.00     0.012 A 
ATOM     72  C   UNL A   1      38.443  31.484  36.658  1.00  0.00     0.148 A 
ATOM     73  C   UNL A   1      39.033  34.226  36.793  1.00  0.00     0.002 A 
ATOM     74  C   UNL A   1      38.017  32.242  37.744  1.00  0.00     0.091 A 
ATOM     75  F   UNL A   1      38.201  30.168  36.578  1.00  0.00    -0.205 F 
ATOM     76  C   UNL A   1      38.324  33.611  37.820  1.00  0.00     0.022 A 
BRANCH  74  77
ATOM     77  S   UNL A   1      36.987  31.557  39.046  1.00  0.00     0.127 S 
ATOM     78  O   UNL A   1      35.836  32.455  39.021  1.00  0.00    -0.237 OA
ATOM     79  O   UNL A   1      36.725  30.205  38.552  1.00  0.00    -0.237 OA
ATOM     80  O   UNL A   1      37.807  31.602  40.250  1.00  0.00    -0.744 OA
ENDBRANCH  74  77
ENDBRANCH  46  70
BRANCH  58  81
ATOM     81  C   UNL A   1      44.607  27.994  34.144  1.00  0.00     0.023 A 
ATOM     82  C   UNL A   1      45.741  28.826  34.179  1.00  0.00     0.012 A 
ATOM     83  C   UNL A   1      44.573  26.831  34.938  1.00  0.00     0.148 A 
ATOM     84  C   UNL A   1      46.833  28.498  34.982  1.00  0.00     0.002 A 
ATOM     85  C   UNL A   1      45.647  26.531  35.767  1.00  0.00     0.091 A 
ATOM     86  F   UNL A   1      43.489  26.043  34.872  1.00  0.00    -0.205 F 
ATOM     87  C   UNL A   1      46.780  27.361  35.786  1.00  0.00     0.022 A 
BRANCH  85  88
ATOM     88  S   UNL A   1      45.624  25.139  36.901  1.00  0.00     0.127 S 
ATOM     89  O   UNL A   1      44.437  25.427  37.703  1.00  0.00    -0.237 OA
ATOM     90  O   UNL A   1      45.485  23.998  35.995  1.00  0.00    -0.237 OA
ATOM     91  O   UNL A   1      46.892  25.186  37.617  1.00  0.00    -0.744 OA
ENDBRANCH  85  88
ENDBRANCH  58  81
ENDBRANCH  32  33
ENDBRANCH  24  27
ENDBRANCH  22  23
ENDBRANCH   1  22
TORSDOF 16
ENDMDL
