MODEL 1
REMARK VINA RESULT:     -12.1      0.000      0.000
REMARK SMILES CC(C)(C)c1ccc(C(=O)C[C@H](C(=O)NCCCCNC(=O)c2ccc(-c3c4nc(c(-c5cccc(S(=O)(=O)[O-])c5F)c5ccc([nH]5)c(-c5cccc(S(=O)(=O)[O-])c5F)c5nc(c(-c6cccc(S(=O)(=O)[O-])c6F)c6ccc3[nH]6)C=C5)C=C4)cc2)[NH+]2CCCC2)cc1
REMARK SMILES IDX 17 1 16 2 15 3 13 4 14 5 12 7 11 8 9 9 10 10 8 11 5 12 6 13
REMARK SMILES IDX 92 14 7 15 91 16 2 17 1 18 3 19 4 20 86 21 87 22 90 23 88 25
REMARK SMILES IDX 89 26 18 27 19 28 20 29 21 30 22 32 23 33 24 34 85 35 25 36
REMARK SMILES IDX 84 37 26 38 27 39 28 40 78 41 29 42 83 43 77 44 79 45 30 46
REMARK SMILES IDX 82 47 76 48 75 49 31 51 63 52 43 53 62 54 44 55 47 56 61 57
REMARK SMILES IDX 80 58 45 59 46 60 60 62 81 63 48 64 32 65 33 66 41 67 34 68
REMARK SMILES IDX 36 69 42 70 35 71 37 72 38 73 39 74 40 75 64 76 65 77 73 78
REMARK SMILES IDX 66 79 68 80 74 81 67 82 69 83 70 84 71 85 72 86 49 87 50 88
REMARK SMILES IDX 58 89 51 90 53 91 59 92 52 93 54 94 55 95 56 96 57 97
REMARK H PARENT 15 6 86 24 20 31 79 50 47 61
REMARK Flexibility Score: inf
ROOT
ATOM      1  C   UNL A   1      31.302  27.877  26.495  1.00  0.00     0.023 C 
ENDROOT
BRANCH   1   2
ATOM      2  C   UNL A   1      32.113  26.602  26.587  1.00  0.00     0.116 C 
BRANCH   2   3
ATOM      3  N   UNL A   1      31.324  25.381  26.656  1.00  0.00    -0.351 N 
ATOM      4  C   UNL A   1      31.599  24.067  26.434  1.00  0.00     0.278 C 
ATOM      5  O   UNL A   1      31.079  23.298  27.261  1.00  0.00    -0.268 OA
ATOM      6  H   UNL A   1      30.391  25.539  26.923  1.00  0.00     0.163 HD
BRANCH   4   7
ATOM      7  C   UNL A   1      32.212  23.470  25.142  1.00  0.00     0.281 C 
BRANCH   7   8
ATOM      8  C   UNL A   1      31.288  23.720  23.924  1.00  0.00     0.156 C 
BRANCH   8   9
ATOM      9  C   UNL A   1      31.621  24.839  22.965  1.00  0.00     0.169 C 
ATOM     10  O   UNL A   1      32.351  24.622  21.996  1.00  0.00    -0.294 OA
BRANCH   9  11
ATOM     11  C   UNL A   1      31.051  26.216  23.141  1.00  0.00     0.018 A 
ATOM     12  C   UNL A   1      29.643  28.702  23.103  1.00  0.00    -0.043 A 
ATOM     13  C   UNL A   1      29.045  27.529  23.590  1.00  0.00     0.005 A 
ATOM     14  C   UNL A   1      31.007  28.618  22.753  1.00  0.00     0.005 A 
ATOM     15  C   UNL A   1      29.739  26.311  23.619  1.00  0.00     0.012 A 
ATOM     16  C   UNL A   1      31.707  27.393  22.775  1.00  0.00     0.012 A 
BRANCH  12  17
ATOM     17  C   UNL A   1      28.824  29.991  22.848  1.00  0.00    -0.013 C 
ATOM     18  C   UNL A   1      29.212  31.123  23.819  1.00  0.00     0.016 C 
ATOM     19  C   UNL A   1      27.298  29.773  22.972  1.00  0.00     0.016 C 
ATOM     20  C   UNL A   1      29.087  30.496  21.411  1.00  0.00     0.016 C 
ENDBRANCH  12  17
ENDBRANCH   9  11
ENDBRANCH   8   9
ENDBRANCH   7   8
BRANCH   7  21
ATOM     21  N   UNL A   1      33.657  23.115  25.100  1.00  0.00    -0.324 N 
ATOM     22  C   UNL A   1      34.088  21.834  24.575  1.00  0.00     0.263 C 
ATOM     23  C   UNL A   1      34.403  23.266  26.356  1.00  0.00     0.263 C 
ATOM     24  H   UNL A   1      33.876  23.834  24.409  1.00  0.00     0.348 HD
ATOM     25  C   UNL A   1      34.084  20.944  25.798  1.00  0.00     0.067 C 
ATOM     26  C   UNL A   1      34.676  21.850  26.865  1.00  0.00     0.067 C 
ENDBRANCH   7  21
ENDBRANCH   4   7
ENDBRANCH   2   3
ENDBRANCH   1   2
BRANCH   1  27
ATOM     27  C   UNL A   1      31.960  29.082  27.157  1.00  0.00     0.023 C 
BRANCH  27  28
ATOM     28  C   UNL A   1      32.767  29.961  26.214  1.00  0.00     0.116 C 
BRANCH  28  29
ATOM     29  N   UNL A   1      32.752  31.357  26.606  1.00  0.00    -0.352 N 
ATOM     30  C   UNL A   1      33.592  32.106  27.393  1.00  0.00     0.251 C 
ATOM     31  H   UNL A   1      31.994  31.865  26.236  1.00  0.00     0.163 HD
ATOM     32  O   UNL A   1      33.255  33.264  27.640  1.00  0.00    -0.269 OA
BRANCH  30  33
ATOM     33  C   UNL A   1      34.849  31.569  27.989  1.00  0.00     0.039 A 
ATOM     34  C   UNL A   1      34.835  30.249  28.465  1.00  0.00     0.014 A 
ATOM     35  C   UNL A   1      36.015  32.316  28.144  1.00  0.00     0.014 A 
ATOM     36  C   UNL A   1      35.966  29.700  29.085  1.00  0.00     0.010 A 
ATOM     37  C   UNL A   1      37.175  31.732  28.655  1.00  0.00     0.010 A 
ATOM     38  C   UNL A   1      37.158  30.434  29.176  1.00  0.00    -0.014 A 
BRANCH  38  39
ATOM     39  C   UNL A   1      38.371  29.897  29.855  1.00  0.00     0.031 A 
ATOM     40  C   UNL A   1      38.733  30.364  31.248  1.00  0.00     0.074 A 
ATOM     41  C   UNL A   1      39.198  29.057  29.200  1.00  0.00     0.049 A 
ATOM     42  N   UNL A   1      39.800  30.099  31.960  1.00  0.00    -0.248 NA
ATOM     43  C   UNL A   1      37.797  31.290  31.910  1.00  0.00     0.031 C 
ATOM     44  C   UNL A   1      39.021  28.594  27.822  1.00  0.00     0.029 A 
ATOM     45  N   UNL A   1      40.369  28.460  29.599  1.00  0.00    -0.354 N 
ATOM     46  C   UNL A   1      39.693  30.873  33.112  1.00  0.00     0.074 A 
ATOM     47  C   UNL A   1      38.481  31.650  32.986  1.00  0.00     0.031 C 
ATOM     48  C   UNL A   1      40.033  27.772  27.498  1.00  0.00     0.029 A 
ATOM     49  C   UNL A   1      40.950  27.676  28.630  1.00  0.00     0.049 A 
ATOM     50  H   UNL A   1      40.756  28.582  30.497  1.00  0.00     0.167 HD
ATOM     51  C   UNL A   1      40.504  30.909  34.197  1.00  0.00     0.034 A 
ATOM     52  C   UNL A   1      42.094  26.964  28.646  1.00  0.00     0.034 A 
ATOM     53  C   UNL A   1      41.653  30.063  34.365  1.00  0.00     0.049 A 
ATOM     54  C   UNL A   1      42.926  26.942  29.901  1.00  0.00     0.074 A 
ATOM     55  C   UNL A   1      42.471  29.932  35.474  1.00  0.00     0.029 A 
ATOM     56  N   UNL A   1      42.140  29.192  33.404  1.00  0.00    -0.354 N 
ATOM     57  N   UNL A   1      42.723  27.566  31.035  1.00  0.00    -0.248 NA
ATOM     58  C   UNL A   1      44.124  26.090  29.890  1.00  0.00     0.031 C 
ATOM     59  C   UNL A   1      43.462  28.991  35.176  1.00  0.00     0.029 A 
ATOM     60  C   UNL A   1      43.248  28.521  33.890  1.00  0.00     0.049 A 
ATOM     61  H   UNL A   1      41.755  29.070  32.506  1.00  0.00     0.167 HD
ATOM     62  C   UNL A   1      43.746  27.156  31.883  1.00  0.00     0.074 A 
ATOM     63  C   UNL A   1      44.553  26.213  31.139  1.00  0.00     0.031 C 
ATOM     64  C   UNL A   1      44.004  27.540  33.158  1.00  0.00     0.034 A 
BRANCH  51  65
ATOM     65  C   UNL A   1      40.138  31.845  35.323  1.00  0.00     0.023 A 
ATOM     66  C   UNL A   1      40.769  33.103  35.419  1.00  0.00     0.012 A 
ATOM     67  C   UNL A   1      39.131  31.509  36.249  1.00  0.00     0.148 A 
ATOM     68  C   UNL A   1      40.439  33.991  36.442  1.00  0.00     0.002 A 
ATOM     69  C   UNL A   1      38.772  32.419  37.238  1.00  0.00     0.091 A 
ATOM     70  F   UNL A   1      38.551  30.304  36.155  1.00  0.00    -0.205 F 
ATOM     71  C   UNL A   1      39.434  33.654  37.345  1.00  0.00     0.022 A 
BRANCH  69  72
ATOM     72  S   UNL A   1      37.433  32.118  38.399  1.00  0.00     0.127 S 
ATOM     73  O   UNL A   1      36.403  33.029  37.903  1.00  0.00    -0.237 OA
ATOM     74  O   UNL A   1      37.150  30.701  38.181  1.00  0.00    -0.237 OA
ATOM     75  O   UNL A   1      37.967  32.435  39.717  1.00  0.00    -0.744 OA
ENDBRANCH  69  72
ENDBRANCH  51  65
BRANCH  52  76
ATOM     76  C   UNL A   1      42.478  26.149  27.458  1.00  0.00     0.023 A 
ATOM     77  C   UNL A   1      43.277  26.728  26.453  1.00  0.00     0.012 A 
ATOM     78  C   UNL A   1      42.092  24.801  27.336  1.00  0.00     0.148 A 
ATOM     79  C   UNL A   1      43.657  25.990  25.331  1.00  0.00     0.002 A 
ATOM     80  C   UNL A   1      42.522  24.054  26.245  1.00  0.00     0.091 A 
ATOM     81  F   UNL A   1      41.323  24.270  28.297  1.00  0.00    -0.205 F 
ATOM     82  C   UNL A   1      43.290  24.651  25.233  1.00  0.00     0.022 A 
BRANCH  80  83
ATOM     83  S   UNL A   1      42.215  22.290  26.112  1.00  0.00     0.127 S 
ATOM     84  O   UNL A   1      42.929  21.955  24.882  1.00  0.00    -0.237 OA
ATOM     85  O   UNL A   1      42.829  21.780  27.338  1.00  0.00    -0.237 OA
ATOM     86  O   UNL A   1      40.766  22.147  26.066  1.00  0.00    -0.744 OA
ENDBRANCH  80  83
ENDBRANCH  52  76
BRANCH  64  87
ATOM     87  C   UNL A   1      45.185  26.914  33.852  1.00  0.00     0.023 A 
ATOM     88  C   UNL A   1      46.464  27.489  33.713  1.00  0.00     0.012 A 
ATOM     89  C   UNL A   1      45.012  25.809  34.707  1.00  0.00     0.148 A 
ATOM     90  C   UNL A   1      47.558  26.951  34.390  1.00  0.00     0.002 A 
ATOM     91  C   UNL A   1      46.096  25.310  35.416  1.00  0.00     0.091 A 
ATOM     92  F   UNL A   1      43.789  25.265  34.811  1.00  0.00    -0.205 F 
ATOM     93  C   UNL A   1      47.373  25.872  35.251  1.00  0.00     0.022 A 
BRANCH  91  94
ATOM     94  S   UNL A   1      45.931  23.986  36.621  1.00  0.00     0.127 S 
ATOM     95  O   UNL A   1      45.366  22.912  35.806  1.00  0.00    -0.237 OA
ATOM     96  O   UNL A   1      47.316  23.772  37.040  1.00  0.00    -0.237 OA
ATOM     97  O   UNL A   1      45.058  24.504  37.665  1.00  0.00    -0.744 OA
ENDBRANCH  91  94
ENDBRANCH  64  87
ENDBRANCH  38  39
ENDBRANCH  30  33
ENDBRANCH  28  29
ENDBRANCH  27  28
ENDBRANCH   1  27
TORSDOF 19
ENDMDL
MODEL 2
REMARK VINA RESULT:     -12.0      4.994     10.497
REMARK SMILES CC(C)(C)c1ccc(C(=O)C[C@H](C(=O)NCCCCNC(=O)c2ccc(-c3c4nc(c(-c5cccc(S(=O)(=O)[O-])c5F)c5ccc([nH]5)c(-c5cccc(S(=O)(=O)[O-])c5F)c5nc(c(-c6cccc(S(=O)(=O)[O-])c6F)c6ccc3[nH]6)C=C5)C=C4)cc2)[NH+]2CCCC2)cc1
REMARK SMILES IDX 17 1 16 2 15 3 13 4 14 5 12 7 11 8 9 9 10 10 8 11 5 12 6 13
REMARK SMILES IDX 92 14 7 15 91 16 2 17 1 18 3 19 4 20 86 21 87 22 90 23 88 25
REMARK SMILES IDX 89 26 18 27 19 28 20 29 21 30 22 32 23 33 24 34 85 35 25 36
REMARK SMILES IDX 84 37 26 38 27 39 28 40 78 41 29 42 83 43 77 44 79 45 30 46
REMARK SMILES IDX 82 47 76 48 75 49 31 51 63 52 43 53 62 54 44 55 47 56 61 57
REMARK SMILES IDX 80 58 45 59 46 60 60 62 81 63 48 64 32 65 33 66 41 67 34 68
REMARK SMILES IDX 36 69 42 70 35 71 37 72 38 73 39 74 40 75 64 76 65 77 73 78
REMARK SMILES IDX 66 79 68 80 74 81 67 82 69 83 70 84 71 85 72 86 49 87 50 88
REMARK SMILES IDX 58 89 51 90 53 91 59 92 52 93 54 94 55 95 56 96 57 97
REMARK H PARENT 15 6 86 24 20 31 79 50 47 61
REMARK Flexibility Score: inf
ROOT
ATOM      1  C   UNL A   1      36.256  22.963  23.427  1.00  0.00     0.023 C 
ENDROOT
BRANCH   1   2
ATOM      2  C   UNL A   1      35.062  23.816  23.801  1.00  0.00     0.116 C 
BRANCH   2   3
ATOM      3  N   UNL A   1      34.193  24.172  22.689  1.00  0.00    -0.351 N 
ATOM      4  C   UNL A   1      33.287  25.165  22.481  1.00  0.00     0.278 C 
ATOM      5  O   UNL A   1      33.330  25.653  21.339  1.00  0.00    -0.268 OA
ATOM      6  H   UNL A   1      34.281  23.563  21.921  1.00  0.00     0.163 HD
BRANCH   4   7
ATOM      7  C   UNL A   1      32.079  25.502  23.393  1.00  0.00     0.281 C 
BRANCH   7   8
ATOM      8  C   UNL A   1      31.108  24.299  23.492  1.00  0.00     0.156 C 
BRANCH   8   9
ATOM      9  C   UNL A   1      31.228  23.351  24.663  1.00  0.00     0.169 C 
ATOM     10  O   UNL A   1      30.613  23.581  25.706  1.00  0.00    -0.294 OA
BRANCH   9  11
ATOM     11  C   UNL A   1      32.058  22.104  24.577  1.00  0.00     0.018 A 
ATOM     12  C   UNL A   1      33.188  19.490  24.350  1.00  0.00    -0.043 A 
ATOM     13  C   UNL A   1      32.622  20.142  23.243  1.00  0.00     0.005 A 
ATOM     14  C   UNL A   1      33.283  20.237  25.544  1.00  0.00     0.005 A 
ATOM     15  C   UNL A   1      32.076  21.429  23.352  1.00  0.00     0.012 A 
ATOM     16  C   UNL A   1      32.730  21.529  25.659  1.00  0.00     0.012 A 
BRANCH  12  17
ATOM     17  C   UNL A   1      33.580  17.992  24.304  1.00  0.00    -0.013 C 
ATOM     18  C   UNL A   1      35.076  17.777  24.605  1.00  0.00     0.016 C 
ATOM     19  C   UNL A   1      33.278  17.330  22.940  1.00  0.00     0.016 C 
ATOM     20  C   UNL A   1      32.772  17.213  25.366  1.00  0.00     0.016 C 
ENDBRANCH  12  17
ENDBRANCH   9  11
ENDBRANCH   8   9
ENDBRANCH   7   8
BRANCH   7  21
ATOM     21  N   UNL A   1      32.151  26.663  24.321  1.00  0.00    -0.324 N 
ATOM     22  C   UNL A   1      31.235  27.778  24.180  1.00  0.00     0.263 C 
ATOM     23  C   UNL A   1      33.469  27.290  24.483  1.00  0.00     0.263 C 
ATOM     24  H   UNL A   1      31.861  26.112  25.129  1.00  0.00     0.348 HD
ATOM     25  C   UNL A   1      31.970  28.708  23.240  1.00  0.00     0.067 C 
ATOM     26  C   UNL A   1      33.398  28.631  23.753  1.00  0.00     0.067 C 
ENDBRANCH   7  21
ENDBRANCH   4   7
ENDBRANCH   2   3
ENDBRANCH   1   2
BRANCH   1  27
ATOM     27  C   UNL A   1      36.432  21.725  24.297  1.00  0.00     0.023 C 
BRANCH  27  28
ATOM     28  C   UNL A   1      37.051  21.991  25.661  1.00  0.00     0.116 C 
BRANCH  28  29
ATOM     29  N   UNL A   1      38.156  21.099  25.954  1.00  0.00    -0.352 N 
ATOM     30  C   UNL A   1      39.423  21.324  26.435  1.00  0.00     0.251 C 
ATOM     31  H   UNL A   1      37.960  20.152  25.775  1.00  0.00     0.163 HD
ATOM     32  O   UNL A   1      40.192  20.364  26.476  1.00  0.00    -0.269 OA
BRANCH  30  33
ATOM     33  C   UNL A   1      39.912  22.669  26.854  1.00  0.00     0.039 A 
ATOM     34  C   UNL A   1      39.400  23.790  26.182  1.00  0.00     0.014 A 
ATOM     35  C   UNL A   1      40.879  22.871  27.836  1.00  0.00     0.014 A 
ATOM     36  C   UNL A   1      39.856  25.079  26.490  1.00  0.00     0.010 A 
ATOM     37  C   UNL A   1      41.247  24.161  28.223  1.00  0.00     0.010 A 
ATOM     38  C   UNL A   1      40.779  25.281  27.527  1.00  0.00    -0.014 A 
BRANCH  38  39
ATOM     39  C   UNL A   1      41.311  26.632  27.864  1.00  0.00     0.031 A 
ATOM     40  C   UNL A   1      42.735  27.001  27.504  1.00  0.00     0.074 A 
ATOM     41  C   UNL A   1      40.557  27.502  28.565  1.00  0.00     0.049 A 
ATOM     42  N   UNL A   1      43.413  28.080  27.805  1.00  0.00    -0.248 NA
ATOM     43  C   UNL A   1      43.515  26.007  26.746  1.00  0.00     0.031 C 
ATOM     44  C   UNL A   1      39.201  27.247  29.056  1.00  0.00     0.029 A 
ATOM     45  N   UNL A   1      40.833  28.773  29.008  1.00  0.00    -0.354 N 
ATOM     46  C   UNL A   1      44.706  27.862  27.338  1.00  0.00     0.074 A 
ATOM     47  C   UNL A   1      44.730  26.533  26.770  1.00  0.00     0.031 C 
ATOM     48  C   UNL A   1      38.757  28.330  29.713  1.00  0.00     0.029 A 
ATOM     49  C   UNL A   1      39.807  29.345  29.724  1.00  0.00     0.049 A 
ATOM     50  H   UNL A   1      41.686  29.232  28.830  1.00  0.00     0.167 HD
ATOM     51  C   UNL A   1      45.769  28.702  27.341  1.00  0.00     0.034 A 
ATOM     52  C   UNL A   1      39.720  30.548  30.324  1.00  0.00     0.034 A 
ATOM     53  C   UNL A   1      45.717  30.059  27.813  1.00  0.00     0.049 A 
ATOM     54  C   UNL A   1      40.881  31.501  30.227  1.00  0.00     0.074 A 
ATOM     55  C   UNL A   1      46.699  31.031  27.749  1.00  0.00     0.029 A 
ATOM     56  N   UNL A   1      44.617  30.640  28.424  1.00  0.00    -0.354 N 
ATOM     57  N   UNL A   1      42.043  31.329  29.645  1.00  0.00    -0.248 NA
ATOM     58  C   UNL A   1      40.705  32.828  30.835  1.00  0.00     0.031 C 
ATOM     59  C   UNL A   1      46.197  32.197  28.336  1.00  0.00     0.029 A 
ATOM     60  C   UNL A   1      44.895  31.956  28.745  1.00  0.00     0.049 A 
ATOM     61  H   UNL A   1      43.764  30.182  28.603  1.00  0.00     0.167 HD
ATOM     62  C   UNL A   1      42.722  32.533  29.787  1.00  0.00     0.074 A 
ATOM     63  C   UNL A   1      41.833  33.435  30.489  1.00  0.00     0.031 C 
ATOM     64  C   UNL A   1      43.977  32.858  29.389  1.00  0.00     0.034 A 
BRANCH  51  65
ATOM     65  C   UNL A   1      47.065  28.203  26.749  1.00  0.00     0.023 A 
ATOM     66  C   UNL A   1      48.120  27.818  27.602  1.00  0.00     0.012 A 
ATOM     67  C   UNL A   1      47.221  28.061  25.356  1.00  0.00     0.148 A 
ATOM     68  C   UNL A   1      49.322  27.342  27.081  1.00  0.00     0.002 A 
ATOM     69  C   UNL A   1      48.405  27.539  24.845  1.00  0.00     0.091 A 
ATOM     70  F   UNL A   1      46.216  28.446  24.556  1.00  0.00    -0.205 F 
ATOM     71  C   UNL A   1      49.461  27.193  25.704  1.00  0.00     0.022 A 
BRANCH  69  72
ATOM     72  S   UNL A   1      48.654  27.228  23.092  1.00  0.00     0.127 S 
ATOM     73  O   UNL A   1      48.306  25.811  22.992  1.00  0.00    -0.237 OA
ATOM     74  O   UNL A   1      47.690  28.138  22.478  1.00  0.00    -0.237 OA
ATOM     75  O   UNL A   1      50.051  27.549  22.823  1.00  0.00    -0.744 OA
ENDBRANCH  69  72
ENDBRANCH  51  65
BRANCH  52  76
ATOM     76  C   UNL A   1      38.456  30.948  31.006  1.00  0.00     0.023 A 
ATOM     77  C   UNL A   1      38.319  30.729  32.391  1.00  0.00     0.012 A 
ATOM     78  C   UNL A   1      37.410  31.575  30.305  1.00  0.00     0.148 A 
ATOM     79  C   UNL A   1      37.150  31.096  33.059  1.00  0.00     0.002 A 
ATOM     80  C   UNL A   1      36.271  31.992  30.986  1.00  0.00     0.091 A 
ATOM     81  F   UNL A   1      37.553  31.766  28.986  1.00  0.00    -0.205 F 
ATOM     82  C   UNL A   1      36.132  31.737  32.360  1.00  0.00     0.022 A 
BRANCH  80  83
ATOM     83  S   UNL A   1      34.977  32.950  30.192  1.00  0.00     0.127 S 
ATOM     84  O   UNL A   1      34.511  32.027  29.160  1.00  0.00    -0.237 OA
ATOM     85  O   UNL A   1      34.039  33.168  31.294  1.00  0.00    -0.237 OA
ATOM     86  O   UNL A   1      35.626  34.164  29.714  1.00  0.00    -0.744 OA
ENDBRANCH  80  83
ENDBRANCH  52  76
BRANCH  64  87
ATOM     87  C   UNL A   1      44.458  34.259  29.662  1.00  0.00     0.023 A 
ATOM     88  C   UNL A   1      45.180  34.534  30.840  1.00  0.00     0.012 A 
ATOM     89  C   UNL A   1      44.266  35.282  28.713  1.00  0.00     0.148 A 
ATOM     90  C   UNL A   1      45.676  35.814  31.083  1.00  0.00     0.002 A 
ATOM     91  C   UNL A   1      44.805  36.541  28.939  1.00  0.00     0.091 A 
ATOM     92  F   UNL A   1      43.559  35.004  27.607  1.00  0.00    -0.205 F 
ATOM     93  C   UNL A   1      45.500  36.813  30.128  1.00  0.00     0.022 A 
BRANCH  91  94
ATOM     94  S   UNL A   1      44.713  37.859  27.721  1.00  0.00     0.127 S 
ATOM     95  O   UNL A   1      43.276  38.127  27.680  1.00  0.00    -0.237 OA
ATOM     96  O   UNL A   1      45.514  38.914  28.343  1.00  0.00    -0.237 OA
ATOM     97  O   UNL A   1      45.282  37.312  26.497  1.00  0.00    -0.744 OA
ENDBRANCH  91  94
ENDBRANCH  64  87
ENDBRANCH  38  39
ENDBRANCH  30  33
ENDBRANCH  28  29
ENDBRANCH  27  28
ENDBRANCH   1  27
TORSDOF 19
ENDMDL
MODEL 3
REMARK VINA RESULT:     -11.7      5.609      8.375
REMARK SMILES CC(C)(C)c1ccc(C(=O)C[C@H](C(=O)NCCCCNC(=O)c2ccc(-c3c4nc(c(-c5cccc(S(=O)(=O)[O-])c5F)c5ccc([nH]5)c(-c5cccc(S(=O)(=O)[O-])c5F)c5nc(c(-c6cccc(S(=O)(=O)[O-])c6F)c6ccc3[nH]6)C=C5)C=C4)cc2)[NH+]2CCCC2)cc1
REMARK SMILES IDX 17 1 16 2 15 3 13 4 14 5 12 7 11 8 9 9 10 10 8 11 5 12 6 13
REMARK SMILES IDX 92 14 7 15 91 16 2 17 1 18 3 19 4 20 86 21 87 22 90 23 88 25
REMARK SMILES IDX 89 26 18 27 19 28 20 29 21 30 22 32 23 33 24 34 85 35 25 36
REMARK SMILES IDX 84 37 26 38 27 39 28 40 78 41 29 42 83 43 77 44 79 45 30 46
REMARK SMILES IDX 82 47 76 48 75 49 31 51 63 52 43 53 62 54 44 55 47 56 61 57
REMARK SMILES IDX 80 58 45 59 46 60 60 62 81 63 48 64 32 65 33 66 41 67 34 68
REMARK SMILES IDX 36 69 42 70 35 71 37 72 38 73 39 74 40 75 64 76 65 77 73 78
REMARK SMILES IDX 66 79 68 80 74 81 67 82 69 83 70 84 71 85 72 86 49 87 50 88
REMARK SMILES IDX 58 89 51 90 53 91 59 92 52 93 54 94 55 95 56 96 57 97
REMARK H PARENT 15 6 86 24 20 31 79 50 47 61
REMARK Flexibility Score: inf
ROOT
ATOM      1  C   UNL A   1      36.777  19.325  24.927  1.00  0.00     0.023 C 
ENDROOT
BRANCH   1   2
ATOM      2  C   UNL A   1      35.682  20.366  25.015  1.00  0.00     0.116 C 
BRANCH   2   3
ATOM      3  N   UNL A   1      34.329  19.840  24.908  1.00  0.00    -0.351 N 
ATOM      4  C   UNL A   1      33.175  20.312  24.365  1.00  0.00     0.278 C 
ATOM      5  O   UNL A   1      32.518  19.451  23.754  1.00  0.00    -0.268 OA
ATOM      6  H   UNL A   1      34.228  18.950  25.315  1.00  0.00     0.163 HD
BRANCH   4   7
ATOM      7  C   UNL A   1      32.505  21.673  24.687  1.00  0.00     0.281 C 
BRANCH   7   8
ATOM      8  C   UNL A   1      32.232  22.476  23.391  1.00  0.00     0.156 C 
BRANCH   8   9
ATOM      9  C   UNL A   1      33.196  23.566  22.984  1.00  0.00     0.169 C 
ATOM     10  O   UNL A   1      34.013  23.359  22.084  1.00  0.00    -0.294 OA
BRANCH   9  11
ATOM     11  C   UNL A   1      33.163  24.920  23.629  1.00  0.00     0.018 A 
ATOM     12  C   UNL A   1      33.006  27.239  25.290  1.00  0.00    -0.043 A 
ATOM     13  C   UNL A   1      34.086  26.345  25.379  1.00  0.00     0.005 A 
ATOM     14  C   UNL A   1      32.074  27.003  24.257  1.00  0.00     0.005 A 
ATOM     15  C   UNL A   1      34.168  25.212  24.558  1.00  0.00     0.012 A 
ATOM     16  C   UNL A   1      32.150  25.861  23.433  1.00  0.00     0.012 A 
BRANCH  12  17
ATOM     17  C   UNL A   1      32.781  28.356  26.338  1.00  0.00    -0.013 C 
ATOM     18  C   UNL A   1      34.095  28.779  27.023  1.00  0.00     0.016 C 
ATOM     19  C   UNL A   1      31.785  27.951  27.448  1.00  0.00     0.016 C 
ATOM     20  C   UNL A   1      32.191  29.605  25.644  1.00  0.00     0.016 C 
ENDBRANCH  12  17
ENDBRANCH   9  11
ENDBRANCH   8   9
ENDBRANCH   7   8
BRANCH   7  21
ATOM     21  N   UNL A   1      31.874  21.893  26.017  1.00  0.00    -0.324 N 
ATOM     22  C   UNL A   1      30.506  22.363  26.117  1.00  0.00     0.263 C 
ATOM     23  C   UNL A   1      32.620  22.733  26.963  1.00  0.00     0.263 C 
ATOM     24  H   UNL A   1      31.890  20.901  26.256  1.00  0.00     0.348 HD
ATOM     25  C   UNL A   1      30.661  23.867  26.137  1.00  0.00     0.067 C 
ATOM     26  C   UNL A   1      31.866  24.061  27.044  1.00  0.00     0.067 C 
ENDBRANCH   7  21
ENDBRANCH   4   7
ENDBRANCH   2   3
ENDBRANCH   1   2
BRANCH   1  27
ATOM     27  C   UNL A   1      38.175  19.906  24.753  1.00  0.00     0.023 C 
BRANCH  27  28
ATOM     28  C   UNL A   1      38.997  19.974  26.031  1.00  0.00     0.116 C 
BRANCH  28  29
ATOM     29  N   UNL A   1      40.218  19.197  25.949  1.00  0.00    -0.352 N 
ATOM     30  C   UNL A   1      41.543  19.540  26.073  1.00  0.00     0.251 C 
ATOM     31  H   UNL A   1      40.069  18.240  25.772  1.00  0.00     0.163 HD
ATOM     32  O   UNL A   1      42.379  18.667  25.838  1.00  0.00    -0.269 OA
BRANCH  30  33
ATOM     33  C   UNL A   1      42.002  20.913  26.424  1.00  0.00     0.039 A 
ATOM     34  C   UNL A   1      42.097  21.857  25.390  1.00  0.00     0.014 A 
ATOM     35  C   UNL A   1      42.388  21.298  27.707  1.00  0.00     0.014 A 
ATOM     36  C   UNL A   1      42.572  23.151  25.642  1.00  0.00     0.010 A 
ATOM     37  C   UNL A   1      42.750  22.618  27.979  1.00  0.00     0.010 A 
ATOM     38  C   UNL A   1      42.893  23.552  26.947  1.00  0.00    -0.014 A 
BRANCH  38  39
ATOM     39  C   UNL A   1      43.431  24.909  27.251  1.00  0.00     0.031 A 
ATOM     40  C   UNL A   1      42.524  25.976  27.825  1.00  0.00     0.074 A 
ATOM     41  C   UNL A   1      44.706  25.218  26.939  1.00  0.00     0.049 A 
ATOM     42  N   UNL A   1      42.774  27.241  28.054  1.00  0.00    -0.248 NA
ATOM     43  C   UNL A   1      41.138  25.583  28.136  1.00  0.00     0.031 C 
ATOM     44  C   UNL A   1      45.666  24.316  26.299  1.00  0.00     0.029 A 
ATOM     45  N   UNL A   1      45.408  26.388  27.096  1.00  0.00    -0.354 N 
ATOM     46  C   UNL A   1      41.568  27.801  28.467  1.00  0.00     0.074 A 
ATOM     47  C   UNL A   1      40.577  26.750  28.417  1.00  0.00     0.031 C 
ATOM     48  C   UNL A   1      46.834  24.957  26.137  1.00  0.00     0.029 A 
ATOM     49  C   UNL A   1      46.699  26.326  26.626  1.00  0.00     0.049 A 
ATOM     50  H   UNL A   1      45.022  27.196  27.507  1.00  0.00     0.167 HD
ATOM     51  C   UNL A   1      41.311  29.062  28.890  1.00  0.00     0.034 A 
ATOM     52  C   UNL A   1      47.666  27.264  26.590  1.00  0.00     0.034 A 
ATOM     53  C   UNL A   1      42.317  30.078  29.037  1.00  0.00     0.049 A 
ATOM     54  C   UNL A   1      47.383  28.630  27.158  1.00  0.00     0.074 A 
ATOM     55  C   UNL A   1      42.187  31.348  29.571  1.00  0.00     0.029 A 
ATOM     56  N   UNL A   1      43.644  29.935  28.661  1.00  0.00    -0.354 N 
ATOM     57  N   UNL A   1      46.275  29.091  27.685  1.00  0.00    -0.248 NA
ATOM     58  C   UNL A   1      48.495  29.592  27.161  1.00  0.00     0.031 C 
ATOM     59  C   UNL A   1      43.434  31.979  29.504  1.00  0.00     0.029 A 
ATOM     60  C   UNL A   1      44.343  31.093  28.949  1.00  0.00     0.049 A 
ATOM     61  H   UNL A   1      44.030  29.129  28.249  1.00  0.00     0.167 HD
ATOM     62  C   UNL A   1      46.565  30.381  28.112  1.00  0.00     0.074 A 
ATOM     63  C   UNL A   1      47.959  30.621  27.804  1.00  0.00     0.031 C 
ATOM     64  C   UNL A   1      45.745  31.294  28.691  1.00  0.00     0.034 A 
BRANCH  51  65
ATOM     65  C   UNL A   1      39.896  29.397  29.296  1.00  0.00     0.023 A 
ATOM     66  C   UNL A   1      38.933  29.676  28.305  1.00  0.00     0.012 A 
ATOM     67  C   UNL A   1      39.505  29.379  30.650  1.00  0.00     0.148 A 
ATOM     68  C   UNL A   1      37.617  29.975  28.654  1.00  0.00     0.002 A 
ATOM     69  C   UNL A   1      38.179  29.630  30.987  1.00  0.00     0.091 A 
ATOM     70  F   UNL A   1      40.435  29.127  31.582  1.00  0.00    -0.205 F 
ATOM     71  C   UNL A   1      37.237  29.943  29.993  1.00  0.00     0.022 A 
BRANCH  69  72
ATOM     72  S   UNL A   1      37.568  29.529  32.675  1.00  0.00     0.127 S 
ATOM     73  O   UNL A   1      38.562  30.324  33.395  1.00  0.00    -0.237 OA
ATOM     74  O   UNL A   1      36.252  30.154  32.563  1.00  0.00    -0.237 OA
ATOM     75  O   UNL A   1      37.542  28.110  33.007  1.00  0.00    -0.744 OA
ENDBRANCH  69  72
ENDBRANCH  51  65
BRANCH  52  76
ATOM     76  C   UNL A   1      49.017  26.919  26.062  1.00  0.00     0.023 A 
ATOM     77  C   UNL A   1      49.881  26.127  26.843  1.00  0.00     0.012 A 
ATOM     78  C   UNL A   1      49.435  27.335  24.785  1.00  0.00     0.148 A 
ATOM     79  C   UNL A   1      51.150  25.784  26.375  1.00  0.00     0.002 A 
ATOM     80  C   UNL A   1      50.677  26.942  24.300  1.00  0.00     0.091 A 
ATOM     81  F   UNL A   1      48.603  28.098  24.061  1.00  0.00    -0.205 F 
ATOM     82  C   UNL A   1      51.544  26.180  25.101  1.00  0.00     0.022 A 
BRANCH  80  83
ATOM     83  S   UNL A   1      51.203  27.288  22.618  1.00  0.00     0.127 S 
ATOM     84  O   UNL A   1      52.495  26.608  22.563  1.00  0.00    -0.237 OA
ATOM     85  O   UNL A   1      50.142  26.659  21.831  1.00  0.00    -0.237 OA
ATOM     86  O   UNL A   1      51.242  28.741  22.513  1.00  0.00    -0.744 OA
ENDBRANCH  80  83
ENDBRANCH  52  76
BRANCH  64  87
ATOM     87  C   UNL A   1      46.337  32.626  29.071  1.00  0.00     0.023 A 
ATOM     88  C   UNL A   1      46.982  32.776  30.314  1.00  0.00     0.012 A 
ATOM     89  C   UNL A   1      46.326  33.701  28.161  1.00  0.00     0.148 A 
ATOM     90  C   UNL A   1      47.579  33.988  30.658  1.00  0.00     0.002 A 
ATOM     91  C   UNL A   1      46.966  34.888  28.491  1.00  0.00     0.091 A 
ATOM     92  F   UNL A   1      45.690  33.542  26.990  1.00  0.00    -0.205 F 
ATOM     93  C   UNL A   1      47.583  35.038  29.743  1.00  0.00     0.022 A 
BRANCH  91  94
ATOM     94  S   UNL A   1      47.106  36.257  27.335  1.00  0.00     0.127 S 
ATOM     95  O   UNL A   1      45.731  36.751  27.291  1.00  0.00    -0.237 OA
ATOM     96  O   UNL A   1      48.051  37.144  28.016  1.00  0.00    -0.237 OA
ATOM     97  O   UNL A   1      47.605  35.683  26.094  1.00  0.00    -0.744 OA
ENDBRANCH  91  94
ENDBRANCH  64  87
ENDBRANCH  38  39
ENDBRANCH  30  33
ENDBRANCH  28  29
ENDBRANCH  27  28
ENDBRANCH   1  27
TORSDOF 19
ENDMDL
