MODEL 1
REMARK VINA RESULT:     -13.0      0.000      0.000
REMARK SMILES Cc1c(C[NH2+]C2CCCCC2)c(C(=O)NCCCCNC(=O)c2ccc(-c3c4nc(c(-c5cccc(S(=O)(=O)[O-])c5F)c5ccc([nH]5)c(-c5cccc(S(=O)(=O)[O-])c5F)c5nc(c(-c6cccc(S(=O)(=O)[O-])c6F)c6ccc3[nH]6)C=C5)C=C4)cc2)c(C)n1Cc1ccccc1
REMARK SMILES IDX 17 1 16 2 15 3 13 4 14 5 12 7 1 8 2 9 3 10 88 11 86 12 87 13
REMARK SMILES IDX 4 14 5 15 6 18 7 19 11 20 8 21 10 22 9 23 89 24 90 25 91 26
REMARK SMILES IDX 95 27 92 28 94 29 93 30 18 31 19 32 20 33 21 34 22 36 23 37
REMARK SMILES IDX 24 38 85 39 25 40 84 41 26 42 27 43 28 44 78 45 29 46 83 47
REMARK SMILES IDX 77 48 79 49 30 50 82 51 76 52 75 53 31 55 63 56 43 57 62 58
REMARK SMILES IDX 44 59 47 60 61 61 80 62 45 63 46 64 60 66 81 67 48 68 32 69
REMARK SMILES IDX 33 70 41 71 34 72 36 73 42 74 35 75 37 76 38 77 39 78 40 79
REMARK SMILES IDX 64 80 65 81 73 82 66 83 68 84 74 85 67 86 69 87 70 88 71 89
REMARK SMILES IDX 72 90 49 91 50 92 58 93 51 94 53 95 59 96 52 97 54 98 55 99
REMARK SMILES IDX 56 100 57 101
REMARK H PARENT 15 6 5 16 5 17 20 35 79 54 47 65
REMARK Flexibility Score: inf
ROOT
ATOM      1  C   UNL A   1      33.543  27.201  25.424  1.00  0.00     0.023 C 
ENDROOT
BRANCH   1   2
ATOM      2  C   UNL A   1      33.586  25.709  25.728  1.00  0.00     0.116 C 
BRANCH   2   3
ATOM      3  N   UNL A   1      34.839  25.025  25.539  1.00  0.00    -0.352 N 
ATOM      4  C   UNL A   1      35.084  23.764  25.038  1.00  0.00     0.253 C 
ATOM      5  O   UNL A   1      36.286  23.438  25.008  1.00  0.00    -0.269 OA
ATOM      6  H   UNL A   1      35.640  25.533  25.807  1.00  0.00     0.163 HD
BRANCH   4   7
ATOM      7  C   UNL A   1      34.007  22.807  24.703  1.00  0.00     0.069 A 
ATOM      8  C   UNL A   1      31.760  20.874  22.389  1.00  0.00     0.065 C 
ATOM      9  C   UNL A   1      32.621  21.466  23.454  1.00  0.00     0.025 A 
ATOM     10  C   UNL A   1      33.467  22.575  23.371  1.00  0.00     0.040 A 
ATOM     11  N   UNL A   1      32.697  21.002  24.757  1.00  0.00    -0.343 N 
ATOM     12  C   UNL A   1      33.149  22.065  25.528  1.00  0.00     0.028 A 
ATOM     13  C   UNL A   1      32.676  22.278  26.929  1.00  0.00     0.065 C 
BRANCH  10  14
ATOM     14  C   UNL A   1      33.773  23.377  22.120  1.00  0.00     0.300 C 
BRANCH  14  15
ATOM     15  N   UNL A   1      32.553  24.019  21.620  1.00  0.00    -0.340 N 
ATOM     16  H   UNL A   1      31.834  23.303  21.507  1.00  0.00     0.346 HD
ATOM     17  H   UNL A   1      32.792  24.471  20.737  1.00  0.00     0.346 HD
BRANCH  15  18
ATOM     18  C   UNL A   1      32.030  25.066  22.514  1.00  0.00     0.182 C 
ATOM     19  C   UNL A   1      31.737  26.345  21.701  1.00  0.00     0.065 C 
ATOM     20  C   UNL A   1      30.749  24.627  23.250  1.00  0.00     0.065 C 
ATOM     21  C   UNL A   1      31.168  27.465  22.578  1.00  0.00     0.006 C 
ATOM     22  C   UNL A   1      30.179  25.744  24.127  1.00  0.00     0.006 C 
ATOM     23  C   UNL A   1      29.920  27.018  23.331  1.00  0.00     0.000 C 
ENDBRANCH  15  18
ENDBRANCH  14  15
ENDBRANCH  10  14
BRANCH  11  24
ATOM     24  C   UNL A   1      32.154  19.741  25.289  1.00  0.00     0.157 C 
BRANCH  24  25
ATOM     25  C   UNL A   1      33.074  18.530  25.205  1.00  0.00    -0.028 A 
ATOM     26  C   UNL A   1      34.358  18.658  24.645  1.00  0.00     0.005 A 
ATOM     27  C   UNL A   1      32.645  17.233  25.529  1.00  0.00     0.005 A 
ATOM     28  C   UNL A   1      35.169  17.537  24.417  1.00  0.00     0.000 A 
ATOM     29  C   UNL A   1      33.452  16.111  25.304  1.00  0.00     0.000 A 
ATOM     30  C   UNL A   1      34.714  16.262  24.742  1.00  0.00     0.000 A 
ENDBRANCH  24  25
ENDBRANCH  11  24
ENDBRANCH   4   7
ENDBRANCH   2   3
ENDBRANCH   1   2
BRANCH   1  31
ATOM     31  C   UNL A   1      34.360  28.176  26.280  1.00  0.00     0.023 C 
BRANCH  31  32
ATOM     32  C   UNL A   1      33.693  28.848  27.490  1.00  0.00     0.116 C 
BRANCH  32  33
ATOM     33  N   UNL A   1      33.767  30.292  27.483  1.00  0.00    -0.352 N 
ATOM     34  C   UNL A   1      34.856  31.080  27.830  1.00  0.00     0.251 C 
ATOM     35  H   UNL A   1      32.954  30.769  27.200  1.00  0.00     0.163 HD
ATOM     36  O   UNL A   1      34.684  32.299  27.840  1.00  0.00    -0.269 OA
BRANCH  34  37
ATOM     37  C   UNL A   1      36.137  30.466  28.344  1.00  0.00     0.039 A 
ATOM     38  C   UNL A   1      37.122  30.199  27.411  1.00  0.00     0.014 A 
ATOM     39  C   UNL A   1      36.384  30.018  29.655  1.00  0.00     0.014 A 
ATOM     40  C   UNL A   1      38.334  29.559  27.798  1.00  0.00     0.010 A 
ATOM     41  C   UNL A   1      37.584  29.256  30.018  1.00  0.00     0.010 A 
ATOM     42  C   UNL A   1      38.610  28.976  29.096  1.00  0.00    -0.014 A 
BRANCH  42  43
ATOM     43  C   UNL A   1      39.686  27.737  29.093  1.00  0.00     0.031 A 
ATOM     44  C   UNL A   1      40.667  28.217  30.109  1.00  0.00     0.074 A 
ATOM     45  C   UNL A   1      40.099  26.561  28.449  1.00  0.00     0.049 A 
ATOM     46  N   UNL A   1      41.176  29.409  29.968  1.00  0.00    -0.248 NA
ATOM     47  C   UNL A   1      40.774  27.683  31.469  1.00  0.00     0.031 C 
ATOM     48  C   UNL A   1      39.585  25.971  27.200  1.00  0.00     0.029 A 
ATOM     49  N   UNL A   1      41.112  25.578  28.759  1.00  0.00    -0.354 N 
ATOM     50  C   UNL A   1      41.987  29.612  31.039  1.00  0.00     0.074 A 
ATOM     51  C   UNL A   1      41.473  28.678  32.034  1.00  0.00     0.031 C 
ATOM     52  C   UNL A   1      40.122  24.736  26.951  1.00  0.00     0.029 A 
ATOM     53  C   UNL A   1      41.106  24.357  27.968  1.00  0.00     0.049 A 
ATOM     54  H   UNL A   1      41.775  25.728  29.472  1.00  0.00     0.167 HD
ATOM     55  C   UNL A   1      43.278  29.907  30.709  1.00  0.00     0.034 A 
ATOM     56  C   UNL A   1      41.876  23.187  28.048  1.00  0.00     0.034 A 
ATOM     57  C   UNL A   1      44.157  28.797  30.948  1.00  0.00     0.049 A 
ATOM     58  C   UNL A   1      43.143  23.611  28.658  1.00  0.00     0.074 A 
ATOM     59  C   UNL A   1      44.229  27.848  31.953  1.00  0.00     0.029 A 
ATOM     60  N   UNL A   1      44.772  28.252  29.845  1.00  0.00    -0.354 N 
ATOM     61  N   UNL A   1      44.065  24.189  27.949  1.00  0.00    -0.248 NA
ATOM     62  C   UNL A   1      43.524  23.263  30.022  1.00  0.00     0.031 C 
ATOM     63  C   UNL A   1      44.369  26.620  31.271  1.00  0.00     0.029 A 
ATOM     64  C   UNL A   1      44.804  26.878  29.979  1.00  0.00     0.049 A 
ATOM     65  H   UNL A   1      45.133  28.760  29.082  1.00  0.00     0.167 HD
ATOM     66  C   UNL A   1      44.860  24.750  28.897  1.00  0.00     0.074 A 
ATOM     67  C   UNL A   1      44.674  23.937  30.085  1.00  0.00     0.031 C 
ATOM     68  C   UNL A   1      45.047  26.086  28.799  1.00  0.00     0.034 A 
BRANCH  55  69
ATOM     69  C   UNL A   1      43.410  30.908  29.574  1.00  0.00     0.023 A 
ATOM     70  C   UNL A   1      43.938  30.432  28.364  1.00  0.00     0.012 A 
ATOM     71  C   UNL A   1      43.233  32.313  29.729  1.00  0.00     0.148 A 
ATOM     72  C   UNL A   1      44.341  31.323  27.364  1.00  0.00     0.002 A 
ATOM     73  C   UNL A   1      43.750  33.195  28.784  1.00  0.00     0.091 A 
ATOM     74  F   UNL A   1      42.567  32.774  30.800  1.00  0.00    -0.205 F 
ATOM     75  C   UNL A   1      44.288  32.699  27.590  1.00  0.00     0.022 A 
BRANCH  73  76
ATOM     76  S   UNL A   1      43.972  34.954  29.130  1.00  0.00     0.127 S 
ATOM     77  O   UNL A   1      44.758  34.938  30.368  1.00  0.00    -0.237 OA
ATOM     78  O   UNL A   1      44.706  35.430  27.963  1.00  0.00    -0.237 OA
ATOM     79  O   UNL A   1      42.636  35.514  29.302  1.00  0.00    -0.744 OA
ENDBRANCH  73  76
ENDBRANCH  55  69
BRANCH  56  80
ATOM     80  C   UNL A   1      42.099  21.698  27.557  1.00  0.00     0.023 A 
ATOM     81  C   UNL A   1      40.955  20.816  27.515  1.00  0.00     0.012 A 
ATOM     82  C   UNL A   1      43.173  21.277  26.737  1.00  0.00     0.148 A 
ATOM     83  C   UNL A   1      40.822  19.710  26.651  1.00  0.00     0.002 A 
ATOM     84  C   UNL A   1      43.052  20.132  25.895  1.00  0.00     0.091 A 
ATOM     85  F   UNL A   1      44.273  22.038  26.696  1.00  0.00    -0.205 F 
ATOM     86  C   UNL A   1      41.871  19.374  25.827  1.00  0.00     0.022 A 
BRANCH  84  87
ATOM     87  S   UNL A   1      44.340  19.571  24.753  1.00  0.00     0.127 S 
ATOM     88  O   UNL A   1      43.795  18.313  24.244  1.00  0.00    -0.237 OA
ATOM     89  O   UNL A   1      44.374  20.654  23.777  1.00  0.00    -0.237 OA
ATOM     90  O   UNL A   1      45.539  19.417  25.574  1.00  0.00    -0.744 OA
ENDBRANCH  84  87
ENDBRANCH  56  80
BRANCH  68  91
ATOM     91  C   UNL A   1      45.259  26.675  27.419  1.00  0.00     0.023 A 
ATOM     92  C   UNL A   1      44.267  27.309  26.639  1.00  0.00     0.012 A 
ATOM     93  C   UNL A   1      46.552  26.588  26.884  1.00  0.00     0.148 A 
ATOM     94  C   UNL A   1      44.555  27.814  25.364  1.00  0.00     0.002 A 
ATOM     95  C   UNL A   1      46.854  27.146  25.648  1.00  0.00     0.091 A 
ATOM     96  F   UNL A   1      47.487  25.950  27.607  1.00  0.00    -0.205 F 
ATOM     97  C   UNL A   1      45.857  27.752  24.877  1.00  0.00     0.022 A 
BRANCH  95  98
ATOM     98  S   UNL A   1      48.545  27.136  25.052  1.00  0.00     0.127 S 
ATOM     99  O   UNL A   1      48.712  25.743  24.642  1.00  0.00    -0.237 OA
ATOM    100  O   UNL A   1      48.523  28.096  23.952  1.00  0.00    -0.237 OA
ATOM    101  O   UNL A   1      49.353  27.554  26.194  1.00  0.00    -0.744 OA
ENDBRANCH  95  98
ENDBRANCH  68  91
ENDBRANCH  42  43
ENDBRANCH  34  37
ENDBRANCH  32  33
ENDBRANCH  31  32
ENDBRANCH   1  31
TORSDOF 19
ENDMDL
MODEL 2
REMARK VINA RESULT:     -13.0      1.489      2.106
REMARK SMILES Cc1c(C[NH2+]C2CCCCC2)c(C(=O)NCCCCNC(=O)c2ccc(-c3c4nc(c(-c5cccc(S(=O)(=O)[O-])c5F)c5ccc([nH]5)c(-c5cccc(S(=O)(=O)[O-])c5F)c5nc(c(-c6cccc(S(=O)(=O)[O-])c6F)c6ccc3[nH]6)C=C5)C=C4)cc2)c(C)n1Cc1ccccc1
REMARK SMILES IDX 17 1 16 2 15 3 13 4 14 5 12 7 1 8 2 9 3 10 88 11 86 12 87 13
REMARK SMILES IDX 4 14 5 15 6 18 7 19 11 20 8 21 10 22 9 23 89 24 90 25 91 26
REMARK SMILES IDX 95 27 92 28 94 29 93 30 18 31 19 32 20 33 21 34 22 36 23 37
REMARK SMILES IDX 24 38 85 39 25 40 84 41 26 42 27 43 28 44 78 45 29 46 83 47
REMARK SMILES IDX 77 48 79 49 30 50 82 51 76 52 75 53 31 55 63 56 43 57 62 58
REMARK SMILES IDX 44 59 47 60 61 61 80 62 45 63 46 64 60 66 81 67 48 68 32 69
REMARK SMILES IDX 33 70 41 71 34 72 36 73 42 74 35 75 37 76 38 77 39 78 40 79
REMARK SMILES IDX 64 80 65 81 73 82 66 83 68 84 74 85 67 86 69 87 70 88 71 89
REMARK SMILES IDX 72 90 49 91 50 92 58 93 51 94 53 95 59 96 52 97 54 98 55 99
REMARK SMILES IDX 56 100 57 101
REMARK H PARENT 15 6 5 16 5 17 20 35 79 54 47 65
REMARK Flexibility Score: inf
ROOT
ATOM      1  C   UNL A   1      32.237  27.602  26.999  1.00  0.00     0.023 C 
ENDROOT
BRANCH   1   2
ATOM      2  C   UNL A   1      31.099  27.131  26.102  1.00  0.00     0.116 C 
BRANCH   2   3
ATOM      3  N   UNL A   1      30.353  25.973  26.522  1.00  0.00    -0.352 N 
ATOM      4  C   UNL A   1      30.709  24.641  26.488  1.00  0.00     0.253 C 
ATOM      5  O   UNL A   1      29.839  23.857  26.912  1.00  0.00    -0.269 OA
ATOM      6  H   UNL A   1      29.458  26.159  26.887  1.00  0.00     0.163 HD
BRANCH   4   7
ATOM      7  C   UNL A   1      31.957  24.155  25.859  1.00  0.00     0.069 A 
ATOM      8  C   UNL A   1      34.304  23.510  22.992  1.00  0.00     0.065 C 
ATOM      9  C   UNL A   1      33.563  23.773  24.260  1.00  0.00     0.025 A 
ATOM     10  C   UNL A   1      32.213  24.096  24.427  1.00  0.00     0.040 A 
ATOM     11  N   UNL A   1      34.117  23.707  25.528  1.00  0.00    -0.343 N 
ATOM     12  C   UNL A   1      33.064  23.493  26.408  1.00  0.00     0.028 A 
ATOM     13  C   UNL A   1      33.220  22.646  27.629  1.00  0.00     0.065 C 
BRANCH  10  14
ATOM     14  C   UNL A   1      31.209  24.353  23.318  1.00  0.00     0.300 C 
BRANCH  14  15
ATOM     15  N   UNL A   1      31.895  24.860  22.124  1.00  0.00    -0.340 N 
ATOM     16  H   UNL A   1      31.463  24.440  21.300  1.00  0.00     0.346 HD
ATOM     17  H   UNL A   1      32.880  24.610  22.215  1.00  0.00     0.346 HD
BRANCH  15  18
ATOM     18  C   UNL A   1      31.832  26.325  21.987  1.00  0.00     0.182 C 
ATOM     19  C   UNL A   1      30.554  26.856  22.671  1.00  0.00     0.065 C 
ATOM     20  C   UNL A   1      33.062  27.028  22.591  1.00  0.00     0.065 C 
ATOM     21  C   UNL A   1      30.445  28.381  22.579  1.00  0.00     0.006 C 
ATOM     22  C   UNL A   1      32.956  28.552  22.501  1.00  0.00     0.006 C 
ATOM     23  C   UNL A   1      31.679  29.074  23.148  1.00  0.00     0.000 C 
ENDBRANCH  15  18
ENDBRANCH  14  15
ENDBRANCH  10  14
BRANCH  11  24
ATOM     24  C   UNL A   1      35.544  23.602  25.874  1.00  0.00     0.157 C 
BRANCH  24  25
ATOM     25  C   UNL A   1      36.248  22.328  25.422  1.00  0.00    -0.028 A 
ATOM     26  C   UNL A   1      35.513  21.141  25.248  1.00  0.00     0.005 A 
ATOM     27  C   UNL A   1      37.645  22.237  25.310  1.00  0.00     0.005 A 
ATOM     28  C   UNL A   1      36.151  19.922  24.980  1.00  0.00     0.000 A 
ATOM     29  C   UNL A   1      38.285  21.022  25.041  1.00  0.00     0.000 A 
ATOM     30  C   UNL A   1      37.539  19.861  24.881  1.00  0.00     0.000 A 
ENDBRANCH  24  25
ENDBRANCH  11  24
ENDBRANCH   4   7
ENDBRANCH   2   3
ENDBRANCH   1   2
BRANCH   1  31
ATOM     31  C   UNL A   1      33.679  27.563  26.481  1.00  0.00     0.023 C 
BRANCH  31  32
ATOM     32  C   UNL A   1      34.306  28.846  25.916  1.00  0.00     0.116 C 
BRANCH  32  33
ATOM     33  N   UNL A   1      33.928  30.052  26.619  1.00  0.00    -0.352 N 
ATOM     34  C   UNL A   1      34.646  30.710  27.607  1.00  0.00     0.251 C 
ATOM     35  H   UNL A   1      33.064  30.449  26.368  1.00  0.00     0.163 HD
ATOM     36  O   UNL A   1      34.105  31.678  28.142  1.00  0.00    -0.269 OA
BRANCH  34  37
ATOM     37  C   UNL A   1      35.955  30.160  28.125  1.00  0.00     0.039 A 
ATOM     38  C   UNL A   1      36.928  29.871  27.187  1.00  0.00     0.014 A 
ATOM     39  C   UNL A   1      36.239  29.789  29.453  1.00  0.00     0.014 A 
ATOM     40  C   UNL A   1      38.165  29.285  27.581  1.00  0.00     0.010 A 
ATOM     41  C   UNL A   1      37.468  29.081  29.829  1.00  0.00     0.010 A 
ATOM     42  C   UNL A   1      38.483  28.779  28.902  1.00  0.00    -0.014 A 
BRANCH  42  43
ATOM     43  C   UNL A   1      39.593  27.572  28.942  1.00  0.00     0.031 A 
ATOM     44  C   UNL A   1      40.536  28.093  29.973  1.00  0.00     0.074 A 
ATOM     45  C   UNL A   1      40.054  26.399  28.324  1.00  0.00     0.049 A 
ATOM     46  N   UNL A   1      41.014  29.298  29.827  1.00  0.00    -0.248 NA
ATOM     47  C   UNL A   1      40.626  27.581  31.343  1.00  0.00     0.031 C 
ATOM     48  C   UNL A   1      39.587  25.779  27.072  1.00  0.00     0.029 A 
ATOM     49  N   UNL A   1      41.087  25.451  28.672  1.00  0.00    -0.354 N 
ATOM     50  C   UNL A   1      41.794  29.538  30.914  1.00  0.00     0.074 A 
ATOM     51  C   UNL A   1      41.282  28.603  31.910  1.00  0.00     0.031 C 
ATOM     52  C   UNL A   1      40.165  24.556  26.853  1.00  0.00     0.029 A 
ATOM     53  C   UNL A   1      41.134  24.220  27.898  1.00  0.00     0.049 A 
ATOM     54  H   UNL A   1      41.729  25.629  29.397  1.00  0.00     0.167 HD
ATOM     55  C   UNL A   1      43.083  29.865  30.610  1.00  0.00     0.034 A 
ATOM     56  C   UNL A   1      41.935  23.073  28.012  1.00  0.00     0.034 A 
ATOM     57  C   UNL A   1      43.987  28.785  30.885  1.00  0.00     0.049 A 
ATOM     58  C   UNL A   1      43.175  23.541  28.645  1.00  0.00     0.074 A 
ATOM     59  C   UNL A   1      44.062  27.852  31.905  1.00  0.00     0.029 A 
ATOM     60  N   UNL A   1      44.644  28.242  29.804  1.00  0.00    -0.354 N 
ATOM     61  N   UNL A   1      44.097  24.136  27.950  1.00  0.00    -0.248 NA
ATOM     62  C   UNL A   1      43.533  23.223  30.023  1.00  0.00     0.031 C 
ATOM     63  C   UNL A   1      44.253  26.619  31.244  1.00  0.00     0.029 A 
ATOM     64  C   UNL A   1      44.711  26.872  29.959  1.00  0.00     0.049 A 
ATOM     65  H   UNL A   1      45.008  28.750  29.043  1.00  0.00     0.167 HD
ATOM     66  C   UNL A   1      44.853  24.732  28.908  1.00  0.00     0.074 A 
ATOM     67  C   UNL A   1      44.662  23.930  30.103  1.00  0.00     0.031 C 
ATOM     68  C   UNL A   1      45.005  26.072  28.796  1.00  0.00     0.034 A 
BRANCH  55  69
ATOM     69  C   UNL A   1      43.214  30.855  29.464  1.00  0.00     0.023 A 
ATOM     70  C   UNL A   1      43.412  30.321  28.182  1.00  0.00     0.012 A 
ATOM     71  C   UNL A   1      43.356  32.261  29.641  1.00  0.00     0.148 A 
ATOM     72  C   UNL A   1      43.804  31.143  27.121  1.00  0.00     0.002 A 
ATOM     73  C   UNL A   1      43.866  33.050  28.614  1.00  0.00     0.091 A 
ATOM     74  F   UNL A   1      42.998  32.813  30.811  1.00  0.00    -0.205 F 
ATOM     75  C   UNL A   1      44.073  32.494  27.346  1.00  0.00     0.022 A 
BRANCH  73  76
ATOM     76  S   UNL A   1      44.499  34.717  28.905  1.00  0.00     0.127 S 
ATOM     77  O   UNL A   1      45.508  34.497  29.947  1.00  0.00    -0.237 OA
ATOM     78  O   UNL A   1      45.052  35.092  27.609  1.00  0.00    -0.237 OA
ATOM     79  O   UNL A   1      43.366  35.516  29.360  1.00  0.00    -0.744 OA
ENDBRANCH  73  76
ENDBRANCH  55  69
BRANCH  56  80
ATOM     80  C   UNL A   1      42.212  21.584  27.547  1.00  0.00     0.023 A 
ATOM     81  C   UNL A   1      41.087  20.683  27.444  1.00  0.00     0.012 A 
ATOM     82  C   UNL A   1      43.340  21.176  26.797  1.00  0.00     0.148 A 
ATOM     83  C   UNL A   1      41.025  19.569  26.583  1.00  0.00     0.002 A 
ATOM     84  C   UNL A   1      43.289  20.024  25.958  1.00  0.00     0.091 A 
ATOM     85  F   UNL A   1      44.428  21.956  26.816  1.00  0.00    -0.205 F 
ATOM     86  C   UNL A   1      42.127  19.245  25.825  1.00  0.00     0.022 A 
BRANCH  84  87
ATOM     87  S   UNL A   1      44.652  19.476  24.901  1.00  0.00     0.127 S 
ATOM     88  O   UNL A   1      44.093  19.610  23.556  1.00  0.00    -0.237 OA
ATOM     89  O   UNL A   1      45.694  20.446  25.221  1.00  0.00    -0.237 OA
ATOM     90  O   UNL A   1      44.921  18.098  25.305  1.00  0.00    -0.744 OA
ENDBRANCH  84  87
ENDBRANCH  56  80
BRANCH  68  91
ATOM     91  C   UNL A   1      45.232  26.648  27.413  1.00  0.00     0.023 A 
ATOM     92  C   UNL A   1      44.228  27.177  26.571  1.00  0.00     0.012 A 
ATOM     93  C   UNL A   1      46.553  26.663  26.942  1.00  0.00     0.148 A 
ATOM     94  C   UNL A   1      44.534  27.678  25.299  1.00  0.00     0.002 A 
ATOM     95  C   UNL A   1      46.866  27.219  25.708  1.00  0.00     0.091 A 
ATOM     96  F   UNL A   1      47.502  26.124  27.723  1.00  0.00    -0.205 F 
ATOM     97  C   UNL A   1      45.859  27.720  24.875  1.00  0.00     0.022 A 
BRANCH  95  98
ATOM     98  S   UNL A   1      48.578  27.344  25.192  1.00  0.00     0.127 S 
ATOM     99  O   UNL A   1      48.454  27.999  23.891  1.00  0.00    -0.237 OA
ATOM    100  O   UNL A   1      49.189  28.166  26.233  1.00  0.00    -0.237 OA
ATOM    101  O   UNL A   1      49.065  25.968  25.154  1.00  0.00    -0.744 OA
ENDBRANCH  95  98
ENDBRANCH  68  91
ENDBRANCH  42  43
ENDBRANCH  34  37
ENDBRANCH  32  33
ENDBRANCH  31  32
ENDBRANCH   1  31
TORSDOF 19
ENDMDL
MODEL 3
REMARK VINA RESULT:     -13.0      1.208      2.781
REMARK SMILES Cc1c(C[NH2+]C2CCCCC2)c(C(=O)NCCCCNC(=O)c2ccc(-c3c4nc(c(-c5cccc(S(=O)(=O)[O-])c5F)c5ccc([nH]5)c(-c5cccc(S(=O)(=O)[O-])c5F)c5nc(c(-c6cccc(S(=O)(=O)[O-])c6F)c6ccc3[nH]6)C=C5)C=C4)cc2)c(C)n1Cc1ccccc1
REMARK SMILES IDX 17 1 16 2 15 3 13 4 14 5 12 7 1 8 2 9 3 10 88 11 86 12 87 13
REMARK SMILES IDX 4 14 5 15 6 18 7 19 11 20 8 21 10 22 9 23 89 24 90 25 91 26
REMARK SMILES IDX 95 27 92 28 94 29 93 30 18 31 19 32 20 33 21 34 22 36 23 37
REMARK SMILES IDX 24 38 85 39 25 40 84 41 26 42 27 43 28 44 78 45 29 46 83 47
REMARK SMILES IDX 77 48 79 49 30 50 82 51 76 52 75 53 31 55 63 56 43 57 62 58
REMARK SMILES IDX 44 59 47 60 61 61 80 62 45 63 46 64 60 66 81 67 48 68 32 69
REMARK SMILES IDX 33 70 41 71 34 72 36 73 42 74 35 75 37 76 38 77 39 78 40 79
REMARK SMILES IDX 64 80 65 81 73 82 66 83 68 84 74 85 67 86 69 87 70 88 71 89
REMARK SMILES IDX 72 90 49 91 50 92 58 93 51 94 53 95 59 96 52 97 54 98 55 99
REMARK SMILES IDX 56 100 57 101
REMARK H PARENT 15 6 5 16 5 17 20 35 79 54 47 65
REMARK Flexibility Score: inf
ROOT
ATOM      1  C   UNL A   1      32.866  27.667  25.131  1.00  0.00     0.023 C 
ENDROOT
BRANCH   1   2
ATOM      2  C   UNL A   1      31.497  27.162  25.571  1.00  0.00     0.116 C 
BRANCH   2   3
ATOM      3  N   UNL A   1      31.457  26.093  26.536  1.00  0.00    -0.352 N 
ATOM      4  C   UNL A   1      31.864  24.782  26.409  1.00  0.00     0.253 C 
ATOM      5  O   UNL A   1      31.690  24.081  27.424  1.00  0.00    -0.269 OA
ATOM      6  H   UNL A   1      31.085  26.335  27.415  1.00  0.00     0.163 HD
BRANCH   4   7
ATOM      7  C   UNL A   1      32.329  24.201  25.131  1.00  0.00     0.069 A 
ATOM      8  C   UNL A   1      34.900  22.937  22.694  1.00  0.00     0.065 C 
ATOM      9  C   UNL A   1      33.735  23.293  23.555  1.00  0.00     0.025 A 
ATOM     10  C   UNL A   1      33.720  24.063  24.723  1.00  0.00     0.040 A 
ATOM     11  N   UNL A   1      32.423  22.923  23.305  1.00  0.00    -0.343 N 
ATOM     12  C   UNL A   1      31.621  23.835  23.977  1.00  0.00     0.028 A 
ATOM     13  C   UNL A   1      30.310  24.288  23.422  1.00  0.00     0.065 C 
BRANCH  10  14
ATOM     14  C   UNL A   1      34.932  24.632  25.436  1.00  0.00     0.300 C 
BRANCH  14  15
ATOM     15  N   UNL A   1      35.561  23.599  26.266  1.00  0.00    -0.340 N 
ATOM     16  H   UNL A   1      34.846  23.190  26.869  1.00  0.00     0.346 HD
ATOM     17  H   UNL A   1      36.304  24.052  26.798  1.00  0.00     0.346 HD
BRANCH  15  18
ATOM     18  C   UNL A   1      36.186  22.517  25.485  1.00  0.00     0.182 C 
ATOM     19  C   UNL A   1      37.685  22.419  25.841  1.00  0.00     0.065 C 
ATOM     20  C   UNL A   1      35.516  21.151  25.728  1.00  0.00     0.065 C 
ATOM     21  C   UNL A   1      38.385  21.293  25.074  1.00  0.00     0.006 C 
ATOM     22  C   UNL A   1      36.213  20.024  24.963  1.00  0.00     0.006 C 
ATOM     23  C   UNL A   1      37.700  19.949  25.290  1.00  0.00     0.000 C 
ENDBRANCH  15  18
ENDBRANCH  14  15
ENDBRANCH  10  14
BRANCH  11  24
ATOM     24  C   UNL A   1      31.946  21.946  22.313  1.00  0.00     0.157 C 
BRANCH  24  25
ATOM     25  C   UNL A   1      32.102  20.478  22.693  1.00  0.00    -0.028 A 
ATOM     26  C   UNL A   1      32.394  20.122  24.023  1.00  0.00     0.005 A 
ATOM     27  C   UNL A   1      32.116  19.449  21.738  1.00  0.00     0.005 A 
ATOM     28  C   UNL A   1      32.690  18.798  24.374  1.00  0.00     0.000 A 
ATOM     29  C   UNL A   1      32.410  18.125  22.085  1.00  0.00     0.000 A 
ATOM     30  C   UNL A   1      32.703  17.799  23.404  1.00  0.00     0.000 A 
ENDBRANCH  24  25
ENDBRANCH  11  24
ENDBRANCH   4   7
ENDBRANCH   2   3
ENDBRANCH   1   2
BRANCH   1  31
ATOM     31  C   UNL A   1      33.961  27.903  26.177  1.00  0.00     0.023 C 
BRANCH  31  32
ATOM     32  C   UNL A   1      33.600  28.613  27.490  1.00  0.00     0.116 C 
BRANCH  32  33
ATOM     33  N   UNL A   1      33.651  30.056  27.419  1.00  0.00    -0.352 N 
ATOM     34  C   UNL A   1      34.728  30.876  27.723  1.00  0.00     0.251 C 
ATOM     35  H   UNL A   1      32.829  30.507  27.121  1.00  0.00     0.163 HD
ATOM     36  O   UNL A   1      34.537  32.092  27.680  1.00  0.00    -0.269 OA
BRANCH  34  37
ATOM     37  C   UNL A   1      36.023  30.307  28.255  1.00  0.00     0.039 A 
ATOM     38  C   UNL A   1      37.027  30.070  27.335  1.00  0.00     0.014 A 
ATOM     39  C   UNL A   1      36.268  29.870  29.571  1.00  0.00     0.014 A 
ATOM     40  C   UNL A   1      38.255  29.471  27.739  1.00  0.00     0.010 A 
ATOM     41  C   UNL A   1      37.488  29.150  29.950  1.00  0.00     0.010 A 
ATOM     42  C   UNL A   1      38.534  28.901  29.041  1.00  0.00    -0.014 A 
BRANCH  42  43
ATOM     43  C   UNL A   1      39.650  27.699  29.057  1.00  0.00     0.031 A 
ATOM     44  C   UNL A   1      40.620  28.228  30.058  1.00  0.00     0.074 A 
ATOM     45  C   UNL A   1      40.099  26.524  28.432  1.00  0.00     0.049 A 
ATOM     46  N   UNL A   1      41.089  29.434  29.893  1.00  0.00    -0.248 NA
ATOM     47  C   UNL A   1      40.750  27.723  31.428  1.00  0.00     0.031 C 
ATOM     48  C   UNL A   1      39.600  25.896  27.196  1.00  0.00     0.029 A 
ATOM     49  N   UNL A   1      41.145  25.581  28.755  1.00  0.00    -0.354 N 
ATOM     50  C   UNL A   1      41.897  29.683  30.957  1.00  0.00     0.074 A 
ATOM     51  C   UNL A   1      41.418  28.751  31.971  1.00  0.00     0.031 C 
ATOM     52  C   UNL A   1      40.176  24.675  26.967  1.00  0.00     0.029 A 
ATOM     53  C   UNL A   1      41.176  24.347  27.986  1.00  0.00     0.049 A 
ATOM     54  H   UNL A   1      41.806  25.766  29.461  1.00  0.00     0.167 HD
ATOM     55  C   UNL A   1      43.176  30.014  30.615  1.00  0.00     0.034 A 
ATOM     56  C   UNL A   1      41.985  23.205  28.083  1.00  0.00     0.034 A 
ATOM     57  C   UNL A   1      44.092  28.938  30.870  1.00  0.00     0.049 A 
ATOM     58  C   UNL A   1      43.240  23.680  28.679  1.00  0.00     0.074 A 
ATOM     59  C   UNL A   1      44.199  28.011  31.891  1.00  0.00     0.029 A 
ATOM     60  N   UNL A   1      44.720  28.393  29.774  1.00  0.00    -0.354 N 
ATOM     61  N   UNL A   1      44.139  24.276  27.955  1.00  0.00    -0.248 NA
ATOM     62  C   UNL A   1      43.638  23.371  30.048  1.00  0.00     0.031 C 
ATOM     63  C   UNL A   1      44.377  26.776  31.231  1.00  0.00     0.029 A 
ATOM     64  C   UNL A   1      44.798  27.024  29.933  1.00  0.00     0.049 A 
ATOM     65  H   UNL A   1      45.061  28.899  29.000  1.00  0.00     0.167 HD
ATOM     66  C   UNL A   1      44.919  24.880  28.889  1.00  0.00     0.074 A 
ATOM     67  C   UNL A   1      44.765  24.083  30.093  1.00  0.00     0.031 C 
ATOM     68  C   UNL A   1      45.062  26.220  28.766  1.00  0.00     0.034 A 
BRANCH  55  69
ATOM     69  C   UNL A   1      43.270  30.999  29.461  1.00  0.00     0.023 A 
ATOM     70  C   UNL A   1      43.708  30.493  28.228  1.00  0.00     0.012 A 
ATOM     71  C   UNL A   1      43.147  32.410  29.609  1.00  0.00     0.148 A 
ATOM     72  C   UNL A   1      44.077  31.358  27.194  1.00  0.00     0.002 A 
ATOM     73  C   UNL A   1      43.633  33.264  28.623  1.00  0.00     0.091 A 
ATOM     74  F   UNL A   1      42.563  32.904  30.712  1.00  0.00    -0.205 F 
ATOM     75  C   UNL A   1      44.082  32.738  27.405  1.00  0.00     0.022 A 
BRANCH  73  76
ATOM     76  S   UNL A   1      43.932  35.019  28.932  1.00  0.00     0.127 S 
ATOM     77  O   UNL A   1      42.591  35.517  29.258  1.00  0.00    -0.237 OA
ATOM     78  O   UNL A   1      44.853  35.003  30.063  1.00  0.00    -0.237 OA
ATOM     79  O   UNL A   1      44.468  35.572  27.693  1.00  0.00    -0.744 OA
ENDBRANCH  73  76
ENDBRANCH  55  69
BRANCH  56  80
ATOM     80  C   UNL A   1      42.254  21.714  27.618  1.00  0.00     0.023 A 
ATOM     81  C   UNL A   1      41.163  20.770  27.690  1.00  0.00     0.012 A 
ATOM     82  C   UNL A   1      43.285  21.327  26.729  1.00  0.00     0.148 A 
ATOM     83  C   UNL A   1      41.028  19.631  26.871  1.00  0.00     0.002 A 
ATOM     84  C   UNL A   1      43.166  20.151  25.931  1.00  0.00     0.091 A 
ATOM     85  F   UNL A   1      44.333  22.146  26.581  1.00  0.00    -0.205 F 
ATOM     86  C   UNL A   1      42.029  19.327  25.977  1.00  0.00     0.022 A 
BRANCH  84  87
ATOM     87  S   UNL A   1      44.393  19.624  24.709  1.00  0.00     0.127 S 
ATOM     88  O   UNL A   1      45.622  19.542  25.499  1.00  0.00    -0.237 OA
ATOM     89  O   UNL A   1      43.863  18.334  24.282  1.00  0.00    -0.237 OA
ATOM     90  O   UNL A   1      44.400  20.676  23.694  1.00  0.00    -0.744 OA
ENDBRANCH  84  87
ENDBRANCH  56  80
BRANCH  68  91
ATOM     91  C   UNL A   1      45.248  26.790  27.375  1.00  0.00     0.023 A 
ATOM     92  C   UNL A   1      44.218  27.303  26.556  1.00  0.00     0.012 A 
ATOM     93  C   UNL A   1      46.556  26.816  26.870  1.00  0.00     0.148 A 
ATOM     94  C   UNL A   1      44.486  27.800  25.274  1.00  0.00     0.002 A 
ATOM     95  C   UNL A   1      46.832  27.367  25.625  1.00  0.00     0.091 A 
ATOM     96  F   UNL A   1      47.531  26.291  27.630  1.00  0.00    -0.205 F 
ATOM     97  C   UNL A   1      45.799  27.853  24.816  1.00  0.00     0.022 A 
BRANCH  95  98
ATOM     98  S   UNL A   1      48.529  27.507  25.065  1.00  0.00     0.127 S 
ATOM     99  O   UNL A   1      49.052  28.552  25.944  1.00  0.00    -0.237 OA
ATOM    100  O   UNL A   1      49.079  26.176  25.307  1.00  0.00    -0.237 OA
ATOM    101  O   UNL A   1      48.435  27.867  23.653  1.00  0.00    -0.744 OA
ENDBRANCH  95  98
ENDBRANCH  68  91
ENDBRANCH  42  43
ENDBRANCH  34  37
ENDBRANCH  32  33
ENDBRANCH  31  32
ENDBRANCH   1  31
TORSDOF 19
ENDMDL
