MODEL 1
REMARK VINA RESULT:     -10.2      0.000      0.000
REMARK SMILES CCCCCC[C@@H](C)N1C[C@H](C(=O)NCCCCNC(=O)c2ccc(-c3c4nc(c(-c5cccc(S(=O)(=O)[O-])c5F)c5ccc([nH]5)c(-c5cccc(S(=O)(=O)[O-])c5F)c5nc(c(-c6cccc(S(=O)(=O)[O-])c6F)c6ccc3[nH]6)C=C5)C=C4)cc2)CC1=O
REMARK SMILES IDX 15 1 14 2 12 3 13 4 11 6 9 7 10 8 86 9 85 10 87 11 7 12 8 13
REMARK SMILES IDX 6 14 5 15 4 16 3 17 2 18 1 19 16 20 17 21 18 22 19 23 20 24
REMARK SMILES IDX 21 26 22 27 23 28 84 29 24 30 83 31 25 32 26 33 27 34 77 35
REMARK SMILES IDX 28 36 82 37 76 38 78 39 29 40 81 41 75 42 74 43 30 45 62 46
REMARK SMILES IDX 42 47 61 48 43 49 46 50 60 51 79 52 44 53 45 54 59 56 80 57
REMARK SMILES IDX 47 58 31 59 32 60 40 61 33 62 35 63 41 64 34 65 36 66 37 67
REMARK SMILES IDX 38 68 39 69 63 70 64 71 72 72 65 73 67 74 73 75 66 76 68 77
REMARK SMILES IDX 69 78 70 79 71 80 48 81 49 82 57 83 50 84 52 85 58 86 51 87
REMARK SMILES IDX 53 88 54 89 55 90 56 91
REMARK H PARENT 14 5 19 25 78 44 46 55
REMARK Flexibility Score: inf
ROOT
ATOM      1  C   UNL A   1      34.293  29.439  27.215  1.00  0.00     0.116 C 
ENDROOT
BRANCH   1   2
ATOM      2  N   UNL A   1      33.149  28.719  27.741  1.00  0.00    -0.356 N 
ATOM      3  C   UNL A   1      32.219  27.959  27.098  1.00  0.00     0.225 C 
ATOM      4  O   UNL A   1      31.232  27.591  27.734  1.00  0.00    -0.275 OA
ATOM      5  H   UNL A   1      33.025  28.790  28.715  1.00  0.00     0.163 HD
BRANCH   3   6
ATOM      6  C   UNL A   1      32.464  27.523  25.665  1.00  0.00     0.107 C 
ATOM      7  N   UNL A   1      31.326  25.481  25.342  1.00  0.00    -0.339 N 
ATOM      8  C   UNL A   1      32.644  26.016  25.628  1.00  0.00     0.133 C 
ATOM      9  C   UNL A   1      30.506  26.467  24.795  1.00  0.00     0.223 C 
ATOM     10  C   UNL A   1      31.251  27.776  24.789  1.00  0.00     0.115 C 
ATOM     11  O   UNL A   1      29.393  26.339  24.303  1.00  0.00    -0.275 OA
BRANCH   7  12
ATOM     12  C   UNL A   1      31.056  24.023  25.354  1.00  0.00     0.082 C 
ATOM     13  C   UNL A   1      30.552  23.498  26.705  1.00  0.00     0.031 C 
BRANCH  12  14
ATOM     14  C   UNL A   1      32.291  23.207  24.892  1.00  0.00     0.025 C 
BRANCH  14  15
ATOM     15  C   UNL A   1      32.199  21.684  25.088  1.00  0.00     0.002 C 
BRANCH  15  16
ATOM     16  C   UNL A   1      32.283  20.865  23.795  1.00  0.00     0.000 C 
BRANCH  16  17
ATOM     17  C   UNL A   1      32.585  19.376  23.994  1.00  0.00    -0.000 C 
BRANCH  17  18
ATOM     18  C   UNL A   1      32.759  18.936  25.451  1.00  0.00    -0.003 C 
ATOM     19  C   UNL A   1      32.741  17.425  25.631  1.00  0.00     0.004 C 
ENDBRANCH  17  18
ENDBRANCH  16  17
ENDBRANCH  15  16
ENDBRANCH  14  15
ENDBRANCH  12  14
ENDBRANCH   7  12
ENDBRANCH   3   6
ENDBRANCH   1   2
BRANCH   1  20
ATOM     20  C   UNL A   1      34.347  30.862  27.772  1.00  0.00     0.023 C 
BRANCH  20  21
ATOM     21  C   UNL A   1      33.526  31.887  26.977  1.00  0.00     0.023 C 
BRANCH  21  22
ATOM     22  C   UNL A   1      32.355  32.517  27.729  1.00  0.00     0.116 C 
BRANCH  22  23
ATOM     23  N   UNL A   1      32.434  33.967  27.777  1.00  0.00    -0.352 N 
ATOM     24  C   UNL A   1      33.295  34.775  28.477  1.00  0.00     0.251 C 
ATOM     25  H   UNL A   1      31.770  34.441  27.227  1.00  0.00     0.163 HD
ATOM     26  O   UNL A   1      33.097  35.988  28.490  1.00  0.00    -0.269 OA
BRANCH  24  27
ATOM     27  C   UNL A   1      34.434  34.201  29.229  1.00  0.00     0.039 A 
ATOM     28  C   UNL A   1      34.176  33.596  30.462  1.00  0.00     0.014 A 
ATOM     29  C   UNL A   1      35.746  34.268  28.750  1.00  0.00     0.014 A 
ATOM     30  C   UNL A   1      35.221  33.017  31.185  1.00  0.00     0.010 A 
ATOM     31  C   UNL A   1      36.776  33.623  29.436  1.00  0.00     0.010 A 
ATOM     32  C   UNL A   1      36.527  32.993  30.664  1.00  0.00    -0.014 A 
BRANCH  32  33
ATOM     33  C   UNL A   1      37.612  32.281  31.393  1.00  0.00     0.031 A 
ATOM     34  C   UNL A   1      38.335  31.114  30.769  1.00  0.00     0.074 A 
ATOM     35  C   UNL A   1      37.930  32.675  32.642  1.00  0.00     0.049 A 
ATOM     36  N   UNL A   1      39.337  30.420  31.246  1.00  0.00    -0.248 NA
ATOM     37  C   UNL A   1      37.867  30.655  29.451  1.00  0.00     0.031 C 
ATOM     38  C   UNL A   1      37.248  33.733  33.395  1.00  0.00     0.029 A 
ATOM     39  N   UNL A   1      38.903  32.235  33.504  1.00  0.00    -0.354 N 
ATOM     40  C   UNL A   1      39.612  29.441  30.298  1.00  0.00     0.074 A 
ATOM     41  C   UNL A   1      38.640  29.599  29.238  1.00  0.00     0.031 C 
ATOM     42  C   UNL A   1      37.839  33.876  34.591  1.00  0.00     0.029 A 
ATOM     43  C   UNL A   1      38.921  32.904  34.707  1.00  0.00     0.049 A 
ATOM     44  H   UNL A   1      39.529  31.508  33.284  1.00  0.00     0.167 HD
ATOM     45  C   UNL A   1      40.603  28.517  30.290  1.00  0.00     0.034 A 
ATOM     46  C   UNL A   1      39.718  32.753  35.783  1.00  0.00     0.034 A 
ATOM     47  C   UNL A   1      41.583  28.372  31.335  1.00  0.00     0.049 A 
ATOM     48  C   UNL A   1      40.825  31.735  35.731  1.00  0.00     0.074 A 
ATOM     49  C   UNL A   1      42.659  27.503  31.391  1.00  0.00     0.029 A 
ATOM     50  N   UNL A   1      41.607  29.109  32.508  1.00  0.00    -0.354 N 
ATOM     51  N   UNL A   1      41.163  30.928  34.756  1.00  0.00    -0.248 NA
ATOM     52  C   UNL A   1      41.689  31.638  36.916  1.00  0.00     0.031 C 
ATOM     53  C   UNL A   1      43.319  27.698  32.610  1.00  0.00     0.029 A 
ATOM     54  C   UNL A   1      42.676  28.714  33.296  1.00  0.00     0.049 A 
ATOM     55  H   UNL A   1      40.959  29.811  32.747  1.00  0.00     0.167 HD
ATOM     56  C   UNL A   1      42.298  30.256  35.194  1.00  0.00     0.074 A 
ATOM     57  C   UNL A   1      42.612  30.781  36.507  1.00  0.00     0.031 C 
ATOM     58  C   UNL A   1      43.006  29.276  34.579  1.00  0.00     0.034 A 
BRANCH  45  59
ATOM     59  C   UNL A   1      40.726  27.623  29.082  1.00  0.00     0.023 A 
ATOM     60  C   UNL A   1      39.820  26.552  28.922  1.00  0.00     0.012 A 
ATOM     61  C   UNL A   1      41.663  27.890  28.065  1.00  0.00     0.148 A 
ATOM     62  C   UNL A   1      39.862  25.749  27.783  1.00  0.00     0.002 A 
ATOM     63  C   UNL A   1      41.669  27.112  26.913  1.00  0.00     0.091 A 
ATOM     64  F   UNL A   1      42.524  28.902  28.240  1.00  0.00    -0.205 F 
ATOM     65  C   UNL A   1      40.776  26.036  26.775  1.00  0.00     0.022 A 
BRANCH  63  66
ATOM     66  S   UNL A   1      42.751  27.443  25.517  1.00  0.00     0.127 S 
ATOM     67  O   UNL A   1      44.010  27.763  26.189  1.00  0.00    -0.237 OA
ATOM     68  O   UNL A   1      42.745  26.160  24.814  1.00  0.00    -0.237 OA
ATOM     69  O   UNL A   1      42.142  28.545  24.785  1.00  0.00    -0.744 OA
ENDBRANCH  63  66
ENDBRANCH  45  59
BRANCH  46  70
ATOM     70  C   UNL A   1      39.543  33.619  36.984  1.00  0.00     0.023 A 
ATOM     71  C   UNL A   1      40.092  34.918  36.996  1.00  0.00     0.012 A 
ATOM     72  C   UNL A   1      38.860  33.156  38.124  1.00  0.00     0.148 A 
ATOM     73  C   UNL A   1      40.015  35.714  38.139  1.00  0.00     0.002 A 
ATOM     74  C   UNL A   1      38.730  33.978  39.237  1.00  0.00     0.091 A 
ATOM     75  F   UNL A   1      38.354  31.915  38.102  1.00  0.00    -0.205 F 
ATOM     76  C   UNL A   1      39.327  35.247  39.256  1.00  0.00     0.022 A 
BRANCH  74  77
ATOM     77  S   UNL A   1      37.746  33.508  40.663  1.00  0.00     0.127 S 
ATOM     78  O   UNL A   1      37.694  34.759  41.416  1.00  0.00    -0.237 OA
ATOM     79  O   UNL A   1      36.483  33.108  40.042  1.00  0.00    -0.237 OA
ATOM     80  O   UNL A   1      38.474  32.414  41.292  1.00  0.00    -0.744 OA
ENDBRANCH  74  77
ENDBRANCH  46  70
BRANCH  58  81
ATOM     81  C   UNL A   1      44.216  28.742  35.303  1.00  0.00     0.023 A 
ATOM     82  C   UNL A   1      45.494  29.269  35.027  1.00  0.00     0.012 A 
ATOM     83  C   UNL A   1      44.084  27.728  36.272  1.00  0.00     0.148 A 
ATOM     84  C   UNL A   1      46.625  28.755  35.659  1.00  0.00     0.002 A 
ATOM     85  C   UNL A   1      45.209  27.260  36.940  1.00  0.00     0.091 A 
ATOM     86  F   UNL A   1      42.863  27.225  36.513  1.00  0.00    -0.205 F 
ATOM     87  C   UNL A   1      46.483  27.758  36.620  1.00  0.00     0.022 A 
BRANCH  85  88
ATOM     88  S   UNL A   1      45.109  26.049  38.262  1.00  0.00     0.127 S 
ATOM     89  O   UNL A   1      46.494  26.002  38.730  1.00  0.00    -0.237 OA
ATOM     90  O   UNL A   1      44.172  26.682  39.192  1.00  0.00    -0.237 OA
ATOM     91  O   UNL A   1      44.613  24.826  37.646  1.00  0.00    -0.744 OA
ENDBRANCH  85  88
ENDBRANCH  58  81
ENDBRANCH  32  33
ENDBRANCH  24  27
ENDBRANCH  22  23
ENDBRANCH  21  22
ENDBRANCH  20  21
ENDBRANCH   1  20
TORSDOF 20
ENDMDL
MODEL 2
REMARK VINA RESULT:     -10.1      5.227      8.700
REMARK SMILES CCCCCC[C@@H](C)N1C[C@H](C(=O)NCCCCNC(=O)c2ccc(-c3c4nc(c(-c5cccc(S(=O)(=O)[O-])c5F)c5ccc([nH]5)c(-c5cccc(S(=O)(=O)[O-])c5F)c5nc(c(-c6cccc(S(=O)(=O)[O-])c6F)c6ccc3[nH]6)C=C5)C=C4)cc2)CC1=O
REMARK SMILES IDX 15 1 14 2 12 3 13 4 11 6 9 7 10 8 86 9 85 10 87 11 7 12 8 13
REMARK SMILES IDX 6 14 5 15 4 16 3 17 2 18 1 19 16 20 17 21 18 22 19 23 20 24
REMARK SMILES IDX 21 26 22 27 23 28 84 29 24 30 83 31 25 32 26 33 27 34 77 35
REMARK SMILES IDX 28 36 82 37 76 38 78 39 29 40 81 41 75 42 74 43 30 45 62 46
REMARK SMILES IDX 42 47 61 48 43 49 46 50 60 51 79 52 44 53 45 54 59 56 80 57
REMARK SMILES IDX 47 58 31 59 32 60 40 61 33 62 35 63 41 64 34 65 36 66 37 67
REMARK SMILES IDX 38 68 39 69 63 70 64 71 72 72 65 73 67 74 73 75 66 76 68 77
REMARK SMILES IDX 69 78 70 79 71 80 48 81 49 82 57 83 50 84 52 85 58 86 51 87
REMARK SMILES IDX 53 88 54 89 55 90 56 91
REMARK H PARENT 14 5 19 25 78 44 46 55
REMARK Flexibility Score: inf
ROOT
ATOM      1  C   UNL A   1      34.407  23.238  23.500  1.00  0.00     0.116 C 
ENDROOT
BRANCH   1   2
ATOM      2  N   UNL A   1      33.692  23.393  24.752  1.00  0.00    -0.356 N 
ATOM      3  C   UNL A   1      33.425  24.515  25.477  1.00  0.00     0.225 C 
ATOM      4  O   UNL A   1      32.953  24.377  26.605  1.00  0.00    -0.275 OA
ATOM      5  H   UNL A   1      33.344  22.557  25.138  1.00  0.00     0.163 HD
BRANCH   3   6
ATOM      6  C   UNL A   1      33.635  25.882  24.852  1.00  0.00     0.107 C 
ATOM      7  N   UNL A   1      31.515  26.900  24.650  1.00  0.00    -0.339 N 
ATOM      8  C   UNL A   1      32.501  26.163  23.882  1.00  0.00     0.133 C 
ATOM      9  C   UNL A   1      32.095  27.446  25.795  1.00  0.00     0.223 C 
ATOM     10  C   UNL A   1      33.527  26.991  25.883  1.00  0.00     0.115 C 
ATOM     11  O   UNL A   1      31.605  28.240  26.586  1.00  0.00    -0.275 OA
BRANCH   7  12
ATOM     12  C   UNL A   1      30.189  27.249  24.087  1.00  0.00     0.082 C 
ATOM     13  C   UNL A   1      29.167  26.107  24.156  1.00  0.00     0.031 C 
BRANCH  12  14
ATOM     14  C   UNL A   1      30.304  27.774  22.631  1.00  0.00     0.025 C 
BRANCH  14  15
ATOM     15  C   UNL A   1      30.533  29.287  22.481  1.00  0.00     0.002 C 
BRANCH  15  16
ATOM     16  C   UNL A   1      29.328  30.069  21.947  1.00  0.00     0.000 C 
BRANCH  16  17
ATOM     17  C   UNL A   1      28.178  30.242  22.947  1.00  0.00    -0.000 C 
BRANCH  17  18
ATOM     18  C   UNL A   1      27.694  31.682  23.138  1.00  0.00    -0.003 C 
ATOM     19  C   UNL A   1      28.795  32.717  22.960  1.00  0.00     0.004 C 
ENDBRANCH  17  18
ENDBRANCH  16  17
ENDBRANCH  15  16
ENDBRANCH  14  15
ENDBRANCH  12  14
ENDBRANCH   7  12
ENDBRANCH   3   6
ENDBRANCH   1   2
BRANCH   1  20
ATOM     20  C   UNL A   1      35.789  22.624  23.731  1.00  0.00     0.023 C 
BRANCH  20  21
ATOM     21  C   UNL A   1      36.818  23.586  24.340  1.00  0.00     0.023 C 
BRANCH  21  22
ATOM     22  C   UNL A   1      37.151  23.347  25.811  1.00  0.00     0.116 C 
BRANCH  22  23
ATOM     23  N   UNL A   1      38.132  22.293  26.001  1.00  0.00    -0.352 N 
ATOM     24  C   UNL A   1      39.423  22.370  26.460  1.00  0.00     0.251 C 
ATOM     25  H   UNL A   1      37.825  21.388  25.765  1.00  0.00     0.163 HD
ATOM     26  O   UNL A   1      40.135  21.370  26.408  1.00  0.00    -0.269 OA
BRANCH  24  27
ATOM     27  C   UNL A   1      39.968  23.642  26.988  1.00  0.00     0.039 A 
ATOM     28  C   UNL A   1      39.848  24.791  26.201  1.00  0.00     0.014 A 
ATOM     29  C   UNL A   1      40.609  23.714  28.228  1.00  0.00     0.014 A 
ATOM     30  C   UNL A   1      40.322  26.014  26.680  1.00  0.00     0.010 A 
ATOM     31  C   UNL A   1      41.014  24.949  28.736  1.00  0.00     0.010 A 
ATOM     32  C   UNL A   1      40.879  26.114  27.967  1.00  0.00    -0.014 A 
BRANCH  32  33
ATOM     33  C   UNL A   1      41.284  27.440  28.508  1.00  0.00     0.031 A 
ATOM     34  C   UNL A   1      42.736  27.819  28.636  1.00  0.00     0.074 A 
ATOM     35  C   UNL A   1      40.328  28.302  28.911  1.00  0.00     0.049 A 
ATOM     36  N   UNL A   1      43.257  28.952  29.036  1.00  0.00    -0.248 NA
ATOM     37  C   UNL A   1      43.736  26.796  28.288  1.00  0.00     0.031 C 
ATOM     38  C   UNL A   1      38.888  28.024  28.923  1.00  0.00     0.029 A 
ATOM     39  N   UNL A   1      40.418  29.584  29.394  1.00  0.00    -0.354 N 
ATOM     40  C   UNL A   1      44.636  28.776  28.999  1.00  0.00     0.074 A 
ATOM     41  C   UNL A   1      44.873  27.412  28.582  1.00  0.00     0.031 C 
ATOM     42  C   UNL A   1      38.233  29.109  29.364  1.00  0.00     0.029 A 
ATOM     43  C   UNL A   1      39.200  30.149  29.694  1.00  0.00     0.049 A 
ATOM     44  H   UNL A   1      41.274  30.055  29.514  1.00  0.00     0.167 HD
ATOM     45  C   UNL A   1      45.616  29.677  29.252  1.00  0.00     0.034 A 
ATOM     46  C   UNL A   1      38.895  31.368  30.180  1.00  0.00     0.034 A 
ATOM     47  C   UNL A   1      45.381  31.041  29.646  1.00  0.00     0.049 A 
ATOM     48  C   UNL A   1      40.007  32.352  30.427  1.00  0.00     0.074 A 
ATOM     49  C   UNL A   1      46.308  32.044  29.871  1.00  0.00     0.029 A 
ATOM     50  N   UNL A   1      44.132  31.595  29.879  1.00  0.00    -0.354 N 
ATOM     51  N   UNL A   1      41.295  32.212  30.232  1.00  0.00    -0.248 NA
ATOM     52  C   UNL A   1      39.615  33.680  30.921  1.00  0.00     0.031 C 
ATOM     53  C   UNL A   1      45.621  33.198  30.265  1.00  0.00     0.029 A 
ATOM     54  C   UNL A   1      44.263  32.924  30.249  1.00  0.00     0.049 A 
ATOM     55  H   UNL A   1      43.276  31.115  29.795  1.00  0.00     0.167 HD
ATOM     56  C   UNL A   1      41.862  33.443  30.543  1.00  0.00     0.074 A 
ATOM     57  C   UNL A   1      40.771  34.326  30.900  1.00  0.00     0.031 C 
ATOM     58  C   UNL A   1      43.168  33.806  30.555  1.00  0.00     0.034 A 
BRANCH  45  59
ATOM     59  C   UNL A   1      47.046  29.240  29.049  1.00  0.00     0.023 A 
ATOM     60  C   UNL A   1      47.782  28.759  30.152  1.00  0.00     0.012 A 
ATOM     61  C   UNL A   1      47.628  29.214  27.766  1.00  0.00     0.148 A 
ATOM     62  C   UNL A   1      49.083  28.284  29.987  1.00  0.00     0.002 A 
ATOM     63  C   UNL A   1      48.908  28.696  27.603  1.00  0.00     0.091 A 
ATOM     64  F   UNL A   1      46.919  29.688  26.733  1.00  0.00    -0.205 F 
ATOM     65  C   UNL A   1      49.640  28.240  28.712  1.00  0.00     0.022 A 
BRANCH  63  66
ATOM     66  S   UNL A   1      49.692  28.520  25.996  1.00  0.00     0.127 S 
ATOM     67  O   UNL A   1      48.540  28.271  25.131  1.00  0.00    -0.237 OA
ATOM     68  O   UNL A   1      50.317  29.831  25.815  1.00  0.00    -0.237 OA
ATOM     69  O   UNL A   1      50.625  27.409  26.120  1.00  0.00    -0.744 OA
ENDBRANCH  63  66
ENDBRANCH  45  59
BRANCH  46  70
ATOM     70  C   UNL A   1      37.475  31.757  30.417  1.00  0.00     0.023 A 
ATOM     71  C   UNL A   1      36.951  31.726  31.726  1.00  0.00     0.012 A 
ATOM     72  C   UNL A   1      36.633  32.131  29.353  1.00  0.00     0.148 A 
ATOM     73  C   UNL A   1      35.604  32.003  31.961  1.00  0.00     0.002 A 
ATOM     74  C   UNL A   1      35.309  32.469  29.603  1.00  0.00     0.091 A 
ATOM     75  F   UNL A   1      37.142  32.144  28.113  1.00  0.00    -0.205 F 
ATOM     76  C   UNL A   1      34.785  32.382  30.902  1.00  0.00     0.022 A 
BRANCH  74  77
ATOM     77  S   UNL A   1      34.224  33.098  28.317  1.00  0.00     0.127 S 
ATOM     78  O   UNL A   1      33.719  31.863  27.722  1.00  0.00    -0.237 OA
ATOM     79  O   UNL A   1      33.242  33.857  29.092  1.00  0.00    -0.237 OA
ATOM     80  O   UNL A   1      35.072  33.918  27.462  1.00  0.00    -0.744 OA
ENDBRANCH  74  77
ENDBRANCH  46  70
BRANCH  58  81
ATOM     81  C   UNL A   1      43.484  35.233  30.926  1.00  0.00     0.023 A 
ATOM     82  C   UNL A   1      43.662  36.202  29.917  1.00  0.00     0.012 A 
ATOM     83  C   UNL A   1      43.584  35.620  32.277  1.00  0.00     0.148 A 
ATOM     84  C   UNL A   1      43.995  37.515  30.245  1.00  0.00     0.002 A 
ATOM     85  C   UNL A   1      43.859  36.944  32.597  1.00  0.00     0.091 A 
ATOM     86  F   UNL A   1      43.427  34.684  33.226  1.00  0.00    -0.205 F 
ATOM     87  C   UNL A   1      44.084  37.888  31.583  1.00  0.00     0.022 A 
BRANCH  85  88
ATOM     88  S   UNL A   1      43.896  37.535  34.293  1.00  0.00     0.127 S 
ATOM     89  O   UNL A   1      44.267  38.938  34.112  1.00  0.00    -0.237 OA
ATOM     90  O   UNL A   1      42.514  37.320  34.727  1.00  0.00    -0.237 OA
ATOM     91  O   UNL A   1      44.879  36.710  34.982  1.00  0.00    -0.744 OA
ENDBRANCH  85  88
ENDBRANCH  58  81
ENDBRANCH  32  33
ENDBRANCH  24  27
ENDBRANCH  22  23
ENDBRANCH  21  22
ENDBRANCH  20  21
ENDBRANCH   1  20
TORSDOF 20
ENDMDL
MODEL 3
REMARK VINA RESULT:     -10.0      6.322     11.659
REMARK SMILES CCCCCC[C@@H](C)N1C[C@H](C(=O)NCCCCNC(=O)c2ccc(-c3c4nc(c(-c5cccc(S(=O)(=O)[O-])c5F)c5ccc([nH]5)c(-c5cccc(S(=O)(=O)[O-])c5F)c5nc(c(-c6cccc(S(=O)(=O)[O-])c6F)c6ccc3[nH]6)C=C5)C=C4)cc2)CC1=O
REMARK SMILES IDX 15 1 14 2 12 3 13 4 11 6 9 7 10 8 86 9 85 10 87 11 7 12 8 13
REMARK SMILES IDX 6 14 5 15 4 16 3 17 2 18 1 19 16 20 17 21 18 22 19 23 20 24
REMARK SMILES IDX 21 26 22 27 23 28 84 29 24 30 83 31 25 32 26 33 27 34 77 35
REMARK SMILES IDX 28 36 82 37 76 38 78 39 29 40 81 41 75 42 74 43 30 45 62 46
REMARK SMILES IDX 42 47 61 48 43 49 46 50 60 51 79 52 44 53 45 54 59 56 80 57
REMARK SMILES IDX 47 58 31 59 32 60 40 61 33 62 35 63 41 64 34 65 36 66 37 67
REMARK SMILES IDX 38 68 39 69 63 70 64 71 72 72 65 73 67 74 73 75 66 76 68 77
REMARK SMILES IDX 69 78 70 79 71 80 48 81 49 82 57 83 50 84 52 85 58 86 51 87
REMARK SMILES IDX 53 88 54 89 55 90 56 91
REMARK H PARENT 14 5 19 25 78 44 46 55
REMARK Flexibility Score: inf
ROOT
ATOM      1  C   UNL A   1      36.440  21.079  25.574  1.00  0.00     0.116 C 
ENDROOT
BRANCH   1   2
ATOM      2  N   UNL A   1      35.092  20.571  25.407  1.00  0.00    -0.356 N 
ATOM      3  C   UNL A   1      33.908  21.052  25.878  1.00  0.00     0.225 C 
ATOM      4  O   UNL A   1      32.907  20.348  25.754  1.00  0.00    -0.275 OA
ATOM      5  H   UNL A   1      35.021  19.750  24.867  1.00  0.00     0.163 HD
BRANCH   3   6
ATOM      6  C   UNL A   1      33.842  22.454  26.456  1.00  0.00     0.107 C 
ATOM      7  N   UNL A   1      31.900  23.483  25.598  1.00  0.00    -0.339 N 
ATOM      8  C   UNL A   1      33.334  23.407  25.390  1.00  0.00     0.133 C 
ATOM      9  C   UNL A   1      31.568  23.048  26.880  1.00  0.00     0.223 C 
ATOM     10  C   UNL A   1      32.813  22.553  27.567  1.00  0.00     0.115 C 
ATOM     11  O   UNL A   1      30.484  23.113  27.444  1.00  0.00    -0.275 OA
BRANCH   7  12
ATOM     12  C   UNL A   1      31.014  24.220  24.664  1.00  0.00     0.082 C 
ATOM     13  C   UNL A   1      31.363  24.011  23.185  1.00  0.00     0.031 C 
BRANCH  12  14
ATOM     14  C   UNL A   1      30.968  25.735  24.992  1.00  0.00     0.025 C 
BRANCH  14  15
ATOM     15  C   UNL A   1      29.784  26.514  24.397  1.00  0.00     0.002 C 
BRANCH  15  16
ATOM     16  C   UNL A   1      30.175  27.632  23.424  1.00  0.00     0.000 C 
BRANCH  16  17
ATOM     17  C   UNL A   1      31.105  28.700  24.010  1.00  0.00    -0.000 C 
BRANCH  17  18
ATOM     18  C   UNL A   1      32.401  28.934  23.229  1.00  0.00    -0.003 C 
ATOM     19  C   UNL A   1      33.065  27.646  22.763  1.00  0.00     0.004 C 
ENDBRANCH  17  18
ENDBRANCH  16  17
ENDBRANCH  15  16
ENDBRANCH  14  15
ENDBRANCH  12  14
ENDBRANCH   7  12
ENDBRANCH   3   6
ENDBRANCH   1   2
BRANCH   1  20
ATOM     20  C   UNL A   1      37.371  20.530  24.492  1.00  0.00     0.023 C 
BRANCH  20  21
ATOM     21  C   UNL A   1      38.307  19.410  24.967  1.00  0.00     0.023 C 
BRANCH  21  22
ATOM     22  C   UNL A   1      39.157  19.740  26.193  1.00  0.00     0.116 C 
BRANCH  22  23
ATOM     23  N   UNL A   1      40.424  19.028  26.205  1.00  0.00    -0.352 N 
ATOM     24  C   UNL A   1      41.704  19.520  26.267  1.00  0.00     0.251 C 
ATOM     25  H   UNL A   1      40.354  18.048  26.161  1.00  0.00     0.163 HD
ATOM     26  O   UNL A   1      42.648  18.747  26.119  1.00  0.00    -0.269 OA
BRANCH  24  27
ATOM     27  C   UNL A   1      41.954  20.963  26.484  1.00  0.00     0.039 A 
ATOM     28  C   UNL A   1      42.220  21.402  27.784  1.00  0.00     0.014 A 
ATOM     29  C   UNL A   1      41.910  21.887  25.436  1.00  0.00     0.014 A 
ATOM     30  C   UNL A   1      42.490  22.751  28.021  1.00  0.00     0.010 A 
ATOM     31  C   UNL A   1      42.255  23.220  25.662  1.00  0.00     0.010 A 
ATOM     32  C   UNL A   1      42.546  23.670  26.958  1.00  0.00    -0.014 A 
BRANCH  32  33
ATOM     33  C   UNL A   1      42.939  25.083  27.208  1.00  0.00     0.031 A 
ATOM     34  C   UNL A   1      41.991  26.051  27.868  1.00  0.00     0.074 A 
ATOM     35  C   UNL A   1      44.158  25.504  26.813  1.00  0.00     0.049 A 
ATOM     36  N   UNL A   1      42.195  27.300  28.206  1.00  0.00    -0.248 NA
ATOM     37  C   UNL A   1      40.635  25.568  28.173  1.00  0.00     0.031 C 
ATOM     38  C   UNL A   1      45.138  24.691  26.085  1.00  0.00     0.029 A 
ATOM     39  N   UNL A   1      44.783  26.716  26.960  1.00  0.00    -0.354 N 
ATOM     40  C   UNL A   1      40.999  27.752  28.751  1.00  0.00     0.074 A 
ATOM     41  C   UNL A   1      40.056  26.659  28.656  1.00  0.00     0.031 C 
ATOM     42  C   UNL A   1      46.245  25.419  25.873  1.00  0.00     0.029 A 
ATOM     43  C   UNL A   1      46.049  26.756  26.422  1.00  0.00     0.049 A 
ATOM     44  H   UNL A   1      44.365  27.487  27.409  1.00  0.00     0.167 HD
ATOM     45  C   UNL A   1      40.719  28.953  29.312  1.00  0.00     0.034 A 
ATOM     46  C   UNL A   1      46.951  27.756  26.374  1.00  0.00     0.034 A 
ATOM     47  C   UNL A   1      41.664  30.034  29.426  1.00  0.00     0.049 A 
ATOM     48  C   UNL A   1      46.617  29.069  27.029  1.00  0.00     0.074 A 
ATOM     49  C   UNL A   1      41.490  31.268  30.029  1.00  0.00     0.029 A 
ATOM     50  N   UNL A   1      42.955  30.014  28.925  1.00  0.00    -0.354 N 
ATOM     51  N   UNL A   1      45.534  29.418  27.678  1.00  0.00    -0.248 NA
ATOM     52  C   UNL A   1      47.651  30.112  26.981  1.00  0.00     0.031 C 
ATOM     53  C   UNL A   1      42.670  32.004  29.869  1.00  0.00     0.029 A 
ATOM     54  C   UNL A   1      43.590  31.215  29.201  1.00  0.00     0.049 A 
ATOM     55  H   UNL A   1      43.363  29.258  28.443  1.00  0.00     0.167 HD
ATOM     56  C   UNL A   1      45.771  30.706  28.147  1.00  0.00     0.074 A 
ATOM     57  C   UNL A   1      47.116  31.056  27.741  1.00  0.00     0.031 C 
ATOM     58  C   UNL A   1      44.944  31.534  28.833  1.00  0.00     0.034 A 
BRANCH  45  59
ATOM     59  C   UNL A   1      39.349  29.150  29.912  1.00  0.00     0.023 A 
ATOM     60  C   UNL A   1      39.085  28.653  31.206  1.00  0.00     0.012 A 
ATOM     61  C   UNL A   1      38.359  29.900  29.246  1.00  0.00     0.148 A 
ATOM     62  C   UNL A   1      37.852  28.877  31.817  1.00  0.00     0.002 A 
ATOM     63  C   UNL A   1      37.149  30.157  29.880  1.00  0.00     0.091 A 
ATOM     64  F   UNL A   1      38.623  30.352  28.012  1.00  0.00    -0.205 F 
ATOM     65  C   UNL A   1      36.891  29.639  31.160  1.00  0.00     0.022 A 
BRANCH  63  66
ATOM     66  S   UNL A   1      35.870  31.193  29.159  1.00  0.00     0.127 S 
ATOM     67  O   UNL A   1      35.187  31.692  30.352  1.00  0.00    -0.237 OA
ATOM     68  O   UNL A   1      36.657  32.197  28.443  1.00  0.00    -0.237 OA
ATOM     69  O   UNL A   1      35.073  30.319  28.310  1.00  0.00    -0.744 OA
ENDBRANCH  63  66
ENDBRANCH  45  59
BRANCH  46  70
ATOM     70  C   UNL A   1      48.281  27.548  25.732  1.00  0.00     0.023 A 
ATOM     71  C   UNL A   1      49.413  27.297  26.534  1.00  0.00     0.012 A 
ATOM     72  C   UNL A   1      48.436  27.623  24.334  1.00  0.00     0.148 A 
ATOM     73  C   UNL A   1      50.680  27.185  25.962  1.00  0.00     0.002 A 
ATOM     74  C   UNL A   1      49.691  27.445  23.766  1.00  0.00     0.091 A 
ATOM     75  F   UNL A   1      47.352  27.874  23.587  1.00  0.00    -0.205 F 
ATOM     76  C   UNL A   1      50.818  27.250  24.578  1.00  0.00     0.022 A 
BRANCH  74  77
ATOM     77  S   UNL A   1      49.934  27.379  21.988  1.00  0.00     0.127 S 
ATOM     78  O   UNL A   1      51.344  27.013  21.893  1.00  0.00    -0.237 OA
ATOM     79  O   UNL A   1      48.995  26.330  21.591  1.00  0.00    -0.237 OA
ATOM     80  O   UNL A   1      49.586  28.707  21.500  1.00  0.00    -0.744 OA
ENDBRANCH  74  77
ENDBRANCH  46  70
BRANCH  58  81
ATOM     81  C   UNL A   1      45.491  32.884  29.224  1.00  0.00     0.023 A 
ATOM     82  C   UNL A   1      46.156  33.047  30.456  1.00  0.00     0.012 A 
ATOM     83  C   UNL A   1      45.362  33.989  28.360  1.00  0.00     0.148 A 
ATOM     84  C   UNL A   1      46.629  34.298  30.848  1.00  0.00     0.002 A 
ATOM     85  C   UNL A   1      45.887  35.221  28.732  1.00  0.00     0.091 A 
ATOM     86  F   UNL A   1      44.713  33.823  27.197  1.00  0.00    -0.205 F 
ATOM     87  C   UNL A   1      46.502  35.382  29.983  1.00  0.00     0.022 A 
BRANCH  85  88
ATOM     88  S   UNL A   1      45.858  36.648  27.641  1.00  0.00     0.127 S 
ATOM     89  O   UNL A   1      46.562  36.140  26.465  1.00  0.00    -0.237 OA
ATOM     90  O   UNL A   1      44.422  36.860  27.448  1.00  0.00    -0.237 OA
ATOM     91  O   UNL A   1      46.532  37.717  28.365  1.00  0.00    -0.744 OA
ENDBRANCH  85  88
ENDBRANCH  58  81
ENDBRANCH  32  33
ENDBRANCH  24  27
ENDBRANCH  22  23
ENDBRANCH  21  22
ENDBRANCH  20  21
ENDBRANCH   1  20
TORSDOF 20
ENDMDL
