MODEL 1
REMARK VINA RESULT:     -11.8      0.000      0.000
REMARK SMILES COc1ccc(N2C(=O)/C(=C\c3ccc(-c4ccc(Cl)c(C(=O)NCCCCNC(=O)c5ccc(-c6c7nc(c(-c8cccc(S(=O)(=O)[O-])c8F)c8ccc([nH]8)c(-c8cccc(S(=O)(=O)[O-])c8F)c8nc(c(-c9cccc(S(=O)(=O)[O-])c9F)c9ccc6[nH]9)C=C8)C=C7)cc5)c4)o3)SC2=S)cc1
REMARK SMILES IDX 26 1 25 2 24 3 22 4 23 5 21 7 16 8 17 9 95 10 18 11 19 12
REMARK SMILES IDX 20 13 15 14 12 15 13 16 96 17 14 18 11 19 7 20 8 21 98 22
REMARK SMILES IDX 9 23 10 24 97 25 99 26 6 27 3 28 4 29 101 30 5 31 100 32
REMARK SMILES IDX 2 33 1 34 27 35 28 36 29 37 30 38 31 40 32 41 33 42 94 43
REMARK SMILES IDX 34 44 93 45 35 46 36 47 37 48 87 49 38 50 92 51 86 52 88 53
REMARK SMILES IDX 39 54 91 55 85 56 84 57 40 59 72 60 52 61 71 62 53 63 56 64
REMARK SMILES IDX 70 65 89 66 54 67 55 68 69 70 90 71 57 72 41 73 42 74 50 75
REMARK SMILES IDX 43 76 45 77 51 78 44 79 46 80 47 81 48 82 49 83 73 84 74 85
REMARK SMILES IDX 82 86 75 87 77 88 83 89 76 90 78 91 79 92 80 93 81 94 58 95
REMARK SMILES IDX 59 96 67 97 60 98 62 99 68 100 61 101 63 102 64 103 65 104
REMARK SMILES IDX 66 105
REMARK H PARENT 24 6 29 39 88 58 56 69
REMARK Flexibility Score: inf
ROOT
ATOM      1  C   UNL A   1      46.681  27.551  38.303  1.00  0.00     0.023 C 
ENDROOT
BRANCH   1   2
ATOM      2  C   UNL A   1      45.877  26.334  37.866  1.00  0.00     0.116 C 
BRANCH   2   3
ATOM      3  N   UNL A   1      44.445  26.382  38.145  1.00  0.00    -0.352 N 
ATOM      4  C   UNL A   1      43.355  25.779  37.532  1.00  0.00     0.252 C 
ATOM      5  O   UNL A   1      42.256  25.887  38.070  1.00  0.00    -0.269 OA
ATOM      6  H   UNL A   1      44.206  26.950  38.913  1.00  0.00     0.163 HD
BRANCH   4   7
ATOM      7  C   UNL A   1      43.490  25.030  36.248  1.00  0.00     0.059 A 
ATOM      8  C   UNL A   1      44.638  23.205  35.114  1.00  0.00     0.018 A 
ATOM      9  C   UNL A   1      44.280  23.740  33.879  1.00  0.00     0.013 A 
ATOM     10  C   UNL A   1      44.101  23.777  36.271  1.00  0.00     0.027 A 
ATOM     11  C   UNL A   1      43.459  24.873  33.827  1.00  0.00     0.022 A 
ATOM     12  C   UNL A   1      43.100  25.547  35.006  1.00  0.00     0.053 A 
ATOM     13  Cl  UNL A   1      42.217  27.019  34.809  1.00  0.00    -0.083 Cl
BRANCH   8  14
ATOM     14  C   UNL A   1      45.668  22.190  35.284  1.00  0.00     0.134 A 
ATOM     15  C   UNL A   1      47.058  20.978  36.515  1.00  0.00     0.128 A 
ATOM     16  C   UNL A   1      46.948  20.364  35.274  1.00  0.00     0.051 A 
ATOM     17  O   UNL A   1      46.233  22.080  36.522  1.00  0.00    -0.457 OA
ATOM     18  C   UNL A   1      46.103  21.160  34.478  1.00  0.00     0.051 A 
BRANCH  15  19
ATOM     19  C   UNL A   1      47.942  20.628  37.568  1.00  0.00     0.068 C 
ATOM     20  N   UNL A   1      46.144  18.190  39.603  1.00  0.00    -0.261 N 
ATOM     21  C   UNL A   1      46.317  18.906  38.425  1.00  0.00     0.270 C 
ATOM     22  C   UNL A   1      47.134  18.335  40.560  1.00  0.00     0.152 C 
ATOM     23  O   UNL A   1      45.547  18.908  37.470  1.00  0.00    -0.268 OA
ATOM     24  C   UNL A   1      47.563  19.722  38.481  1.00  0.00     0.084 C 
ATOM     25  S   UNL A   1      48.409  19.401  39.941  1.00  0.00    -0.054 SA
ATOM     26  S   UNL A   1      47.296  17.599  42.054  1.00  0.00    -0.051 S 
BRANCH  20  27
ATOM     27  C   UNL A   1      44.970  17.388  39.720  1.00  0.00     0.051 A 
ATOM     28  C   UNL A   1      42.829  15.616  40.141  1.00  0.00     0.119 A 
ATOM     29  C   UNL A   1      43.194  16.509  41.139  1.00  0.00     0.048 A 
ATOM     30  C   UNL A   1      43.500  15.631  38.916  1.00  0.00     0.048 A 
ATOM     31  C   UNL A   1      44.263  17.378  40.935  1.00  0.00     0.030 A 
ATOM     32  C   UNL A   1      44.566  16.516  38.704  1.00  0.00     0.030 A 
BRANCH  28  33
ATOM     33  O   UNL A   1      41.771  14.798  40.423  1.00  0.00    -0.497 OA
ATOM     34  C   UNL A   1      42.003  13.928  41.526  1.00  0.00     0.278 C 
ENDBRANCH  28  33
ENDBRANCH  20  27
ENDBRANCH  15  19
ENDBRANCH   8  14
ENDBRANCH   4   7
ENDBRANCH   2   3
ENDBRANCH   1   2
BRANCH   1  35
ATOM     35  C   UNL A   1      48.177  27.524  38.022  1.00  0.00     0.023 C 
BRANCH  35  36
ATOM     36  C   UNL A   1      48.756  28.748  37.319  1.00  0.00     0.116 C 
BRANCH  36  37
ATOM     37  N   UNL A   1      49.513  28.438  36.112  1.00  0.00    -0.352 N 
ATOM     38  C   UNL A   1      49.098  28.406  34.799  1.00  0.00     0.251 C 
ATOM     39  H   UNL A   1      50.463  28.222  36.257  1.00  0.00     0.163 HD
ATOM     40  O   UNL A   1      49.878  28.046  33.920  1.00  0.00    -0.269 OA
BRANCH  38  41
ATOM     41  C   UNL A   1      47.704  28.760  34.456  1.00  0.00     0.039 A 
ATOM     42  C   UNL A   1      47.433  30.040  33.966  1.00  0.00     0.014 A 
ATOM     43  C   UNL A   1      46.677  27.821  34.566  1.00  0.00     0.014 A 
ATOM     44  C   UNL A   1      46.156  30.342  33.487  1.00  0.00     0.010 A 
ATOM     45  C   UNL A   1      45.430  28.094  34.010  1.00  0.00     0.010 A 
ATOM     46  C   UNL A   1      45.159  29.352  33.451  1.00  0.00    -0.014 A 
BRANCH  46  47
ATOM     47  C   UNL A   1      43.853  29.597  32.782  1.00  0.00     0.031 A 
ATOM     48  C   UNL A   1      42.742  30.307  33.507  1.00  0.00     0.074 A 
ATOM     49  C   UNL A   1      43.636  29.095  31.549  1.00  0.00     0.049 A 
ATOM     50  N   UNL A   1      41.525  30.562  33.099  1.00  0.00    -0.248 NA
ATOM     51  C   UNL A   1      43.023  30.770  34.875  1.00  0.00     0.031 C 
ATOM     52  C   UNL A   1      44.602  28.313  30.773  1.00  0.00     0.029 A 
ATOM     53  N   UNL A   1      42.527  29.140  30.741  1.00  0.00    -0.354 N 
ATOM     54  C   UNL A   1      40.888  31.184  34.166  1.00  0.00     0.074 A 
ATOM     55  C   UNL A   1      41.841  31.237  35.252  1.00  0.00     0.031 C 
ATOM     56  C   UNL A   1      44.047  27.961  29.602  1.00  0.00     0.029 A 
ATOM     57  C   UNL A   1      42.676  28.457  29.556  1.00  0.00     0.049 A 
ATOM     58  H   UNL A   1      41.701  29.618  30.986  1.00  0.00     0.167 HD
ATOM     59  C   UNL A   1      39.633  31.690  34.228  1.00  0.00     0.034 A 
ATOM     60  C   UNL A   1      41.805  28.239  28.551  1.00  0.00     0.034 A 
ATOM     61  C   UNL A   1      38.696  31.661  33.137  1.00  0.00     0.049 A 
ATOM     62  C   UNL A   1      40.425  28.832  28.638  1.00  0.00     0.074 A 
ATOM     63  C   UNL A   1      37.433  32.224  33.076  1.00  0.00     0.029 A 
ATOM     64  N   UNL A   1      38.908  31.024  31.925  1.00  0.00    -0.354 N 
ATOM     65  N   UNL A   1      39.898  29.561  29.591  1.00  0.00    -0.248 NA
ATOM     66  C   UNL A   1      39.528  28.599  27.497  1.00  0.00     0.031 C 
ATOM     67  C   UNL A   1      36.868  31.896  31.838  1.00  0.00     0.029 A 
ATOM     68  C   UNL A   1      37.794  31.163  31.115  1.00  0.00     0.049 A 
ATOM     69  H   UNL A   1      39.731  30.541  31.678  1.00  0.00     0.167 HD
ATOM     70  C   UNL A   1      38.625  29.903  29.151  1.00  0.00     0.074 A 
ATOM     71  C   UNL A   1      38.469  29.321  27.834  1.00  0.00     0.031 C 
ATOM     72  C   UNL A   1      37.666  30.620  29.787  1.00  0.00     0.034 A 
BRANCH  59  73
ATOM     73  C   UNL A   1      39.209  32.362  35.510  1.00  0.00     0.023 A 
ATOM     74  C   UNL A   1      39.445  33.742  35.682  1.00  0.00     0.012 A 
ATOM     75  C   UNL A   1      38.518  31.650  36.509  1.00  0.00     0.148 A 
ATOM     76  C   UNL A   1      39.029  34.395  36.842  1.00  0.00     0.002 A 
ATOM     77  C   UNL A   1      38.065  32.317  37.640  1.00  0.00     0.091 A 
ATOM     78  F   UNL A   1      38.320  30.335  36.334  1.00  0.00    -0.205 F 
ATOM     79  C   UNL A   1      38.330  33.685  37.815  1.00  0.00     0.022 A 
BRANCH  77  80
ATOM     80  S   UNL A   1      37.084  31.515  38.914  1.00  0.00     0.127 S 
ATOM     81  O   UNL A   1      37.975  31.604  40.070  1.00  0.00    -0.237 OA
ATOM     82  O   UNL A   1      35.907  32.380  38.984  1.00  0.00    -0.237 OA
ATOM     83  O   UNL A   1      36.823  30.166  38.432  1.00  0.00    -0.744 OA
ENDBRANCH  77  80
ENDBRANCH  59  73
BRANCH  60  84
ATOM     84  C   UNL A   1      42.226  27.463  27.349  1.00  0.00     0.023 A 
ATOM     85  C   UNL A   1      42.744  28.143  26.229  1.00  0.00     0.012 A 
ATOM     86  C   UNL A   1      42.127  26.059  27.314  1.00  0.00     0.148 A 
ATOM     87  C   UNL A   1      43.119  27.441  25.082  1.00  0.00     0.002 A 
ATOM     88  C   UNL A   1      42.559  25.362  26.191  1.00  0.00     0.091 A 
ATOM     89  F   UNL A   1      41.623  25.431  28.385  1.00  0.00    -0.205 F 
ATOM     90  C   UNL A   1      43.036  26.051  25.066  1.00  0.00     0.022 A 
BRANCH  88  91
ATOM     91  S   UNL A   1      42.614  23.568  26.134  1.00  0.00     0.127 S 
ATOM     92  O   UNL A   1      43.127  23.327  24.788  1.00  0.00    -0.237 OA
ATOM     93  O   UNL A   1      43.552  23.261  27.215  1.00  0.00    -0.237 OA
ATOM     94  O   UNL A   1      41.249  23.124  26.381  1.00  0.00    -0.744 OA
ENDBRANCH  88  91
ENDBRANCH  60  84
BRANCH  72  95
ATOM     95  C   UNL A   1      36.369  30.854  29.056  1.00  0.00     0.023 A 
ATOM     96  C   UNL A   1      35.624  29.758  28.576  1.00  0.00     0.012 A 
ATOM     97  C   UNL A   1      35.856  32.157  28.905  1.00  0.00     0.148 A 
ATOM     98  C   UNL A   1      34.409  29.959  27.922  1.00  0.00     0.002 A 
ATOM     99  C   UNL A   1      34.619  32.346  28.301  1.00  0.00     0.091 A 
ATOM    100  F   UNL A   1      36.588  33.188  29.354  1.00  0.00    -0.205 F 
ATOM    101  C   UNL A   1      33.901  31.250  27.795  1.00  0.00     0.022 A 
BRANCH  99 102
ATOM    102  S   UNL A   1      33.840  33.960  28.180  1.00  0.00     0.127 S 
ATOM    103  O   UNL A   1      33.861  34.406  29.572  1.00  0.00    -0.237 OA
ATOM    104  O   UNL A   1      34.757  34.680  27.295  1.00  0.00    -0.237 OA
ATOM    105  O   UNL A   1      32.516  33.728  27.620  1.00  0.00    -0.744 OA
ENDBRANCH  99 102
ENDBRANCH  72  95
ENDBRANCH  46  47
ENDBRANCH  38  41
ENDBRANCH  36  37
ENDBRANCH  35  36
ENDBRANCH   1  35
TORSDOF 18
ENDMDL
MODEL 2
REMARK VINA RESULT:     -11.7      5.017     10.199
REMARK SMILES COc1ccc(N2C(=O)/C(=C\c3ccc(-c4ccc(Cl)c(C(=O)NCCCCNC(=O)c5ccc(-c6c7nc(c(-c8cccc(S(=O)(=O)[O-])c8F)c8ccc([nH]8)c(-c8cccc(S(=O)(=O)[O-])c8F)c8nc(c(-c9cccc(S(=O)(=O)[O-])c9F)c9ccc6[nH]9)C=C8)C=C7)cc5)c4)o3)SC2=S)cc1
REMARK SMILES IDX 26 1 25 2 24 3 22 4 23 5 21 7 16 8 17 9 95 10 18 11 19 12
REMARK SMILES IDX 20 13 15 14 12 15 13 16 96 17 14 18 11 19 7 20 8 21 98 22
REMARK SMILES IDX 9 23 10 24 97 25 99 26 6 27 3 28 4 29 101 30 5 31 100 32
REMARK SMILES IDX 2 33 1 34 27 35 28 36 29 37 30 38 31 40 32 41 33 42 94 43
REMARK SMILES IDX 34 44 93 45 35 46 36 47 37 48 87 49 38 50 92 51 86 52 88 53
REMARK SMILES IDX 39 54 91 55 85 56 84 57 40 59 72 60 52 61 71 62 53 63 56 64
REMARK SMILES IDX 70 65 89 66 54 67 55 68 69 70 90 71 57 72 41 73 42 74 50 75
REMARK SMILES IDX 43 76 45 77 51 78 44 79 46 80 47 81 48 82 49 83 73 84 74 85
REMARK SMILES IDX 82 86 75 87 77 88 83 89 76 90 78 91 79 92 80 93 81 94 58 95
REMARK SMILES IDX 59 96 67 97 60 98 62 99 68 100 61 101 63 102 64 103 65 104
REMARK SMILES IDX 66 105
REMARK H PARENT 24 6 29 39 88 58 56 69
REMARK Flexibility Score: inf
ROOT
ATOM      1  C   UNL A   1      43.182  22.182  26.213  1.00  0.00     0.023 C 
ENDROOT
BRANCH   1   2
ATOM      2  C   UNL A   1      44.466  22.750  25.624  1.00  0.00     0.116 C 
BRANCH   2   3
ATOM      3  N   UNL A   1      44.417  24.153  25.222  1.00  0.00    -0.352 N 
ATOM      4  C   UNL A   1      45.184  25.253  25.581  1.00  0.00     0.252 C 
ATOM      5  O   UNL A   1      45.007  26.305  24.973  1.00  0.00    -0.269 OA
ATOM      6  H   UNL A   1      43.706  24.358  24.573  1.00  0.00     0.163 HD
BRANCH   4   7
ATOM      7  C   UNL A   1      46.190  25.184  26.683  1.00  0.00     0.059 A 
ATOM      8  C   UNL A   1      46.527  25.348  29.089  1.00  0.00     0.018 A 
ATOM      9  C   UNL A   1      47.890  25.554  28.890  1.00  0.00     0.013 A 
ATOM     10  C   UNL A   1      45.733  25.011  27.989  1.00  0.00     0.027 A 
ATOM     11  C   UNL A   1      48.416  25.494  27.595  1.00  0.00     0.022 A 
ATOM     12  C   UNL A   1      47.566  25.356  26.485  1.00  0.00     0.053 A 
ATOM     13  Cl  UNL A   1      48.311  25.453  24.930  1.00  0.00    -0.083 Cl
BRANCH   8  14
ATOM     14  C   UNL A   1      45.846  25.622  30.347  1.00  0.00     0.134 A 
ATOM     15  C   UNL A   1      44.960  25.008  32.284  1.00  0.00     0.128 A 
ATOM     16  C   UNL A   1      45.142  26.385  32.321  1.00  0.00     0.051 A 
ATOM     17  O   UNL A   1      45.434  24.545  31.079  1.00  0.00    -0.457 OA
ATOM     18  C   UNL A   1      45.659  26.778  31.073  1.00  0.00     0.051 A 
BRANCH  15  19
ATOM     19  C   UNL A   1      44.298  24.207  33.250  1.00  0.00     0.068 C 
ATOM     20  N   UNL A   1      46.930  22.375  34.992  1.00  0.00    -0.261 N 
ATOM     21  C   UNL A   1      46.501  23.413  34.174  1.00  0.00     0.270 C 
ATOM     22  C   UNL A   1      45.939  21.594  35.562  1.00  0.00     0.152 C 
ATOM     23  O   UNL A   1      47.229  24.203  33.581  1.00  0.00    -0.268 OA
ATOM     24  C   UNL A   1      45.015  23.424  34.069  1.00  0.00     0.084 C 
ATOM     25  S   UNL A   1      44.347  22.217  35.093  1.00  0.00    -0.054 SA
ATOM     26  S   UNL A   1      46.067  20.312  36.628  1.00  0.00    -0.051 S 
BRANCH  20  27
ATOM     27  C   UNL A   1      48.337  22.206  35.160  1.00  0.00     0.051 A 
ATOM     28  C   UNL A   1      51.040  21.591  35.623  1.00  0.00     0.119 A 
ATOM     29  C   UNL A   1      50.361  20.981  34.576  1.00  0.00     0.048 A 
ATOM     30  C   UNL A   1      50.389  22.539  36.415  1.00  0.00     0.048 A 
ATOM     31  C   UNL A   1      49.018  21.277  34.355  1.00  0.00     0.030 A 
ATOM     32  C   UNL A   1      49.041  22.848  36.183  1.00  0.00     0.030 A 
BRANCH  28  33
ATOM     33  O   UNL A   1      52.353  21.244  35.771  1.00  0.00    -0.497 OA
ATOM     34  C   UNL A   1      53.137  22.243  36.418  1.00  0.00     0.278 C 
ENDBRANCH  28  33
ENDBRANCH  20  27
ENDBRANCH  15  19
ENDBRANCH   8  14
ENDBRANCH   4   7
ENDBRANCH   2   3
ENDBRANCH   1   2
BRANCH   1  35
ATOM     35  C   UNL A   1      42.765  22.700  27.582  1.00  0.00     0.023 C 
BRANCH  35  36
ATOM     36  C   UNL A   1      41.579  22.002  28.238  1.00  0.00     0.116 C 
BRANCH  36  37
ATOM     37  N   UNL A   1      40.464  21.746  27.334  1.00  0.00    -0.352 N 
ATOM     38  C   UNL A   1      39.550  22.625  26.796  1.00  0.00     0.251 C 
ATOM     39  H   UNL A   1      40.348  20.806  27.067  1.00  0.00     0.163 HD
ATOM     40  O   UNL A   1      38.627  22.201  26.105  1.00  0.00    -0.269 OA
BRANCH  38  41
ATOM     41  C   UNL A   1      39.655  24.072  27.088  1.00  0.00     0.039 A 
ATOM     42  C   UNL A   1      39.379  24.522  28.381  1.00  0.00     0.014 A 
ATOM     43  C   UNL A   1      40.075  24.973  26.107  1.00  0.00     0.014 A 
ATOM     44  C   UNL A   1      39.627  25.856  28.717  1.00  0.00     0.010 A 
ATOM     45  C   UNL A   1      40.402  26.278  26.465  1.00  0.00     0.010 A 
ATOM     46  C   UNL A   1      40.196  26.730  27.777  1.00  0.00    -0.014 A 
BRANCH  46  47
ATOM     47  C   UNL A   1      40.635  28.098  28.163  1.00  0.00     0.031 A 
ATOM     48  C   UNL A   1      42.094  28.468  28.153  1.00  0.00     0.074 A 
ATOM     49  C   UNL A   1      39.722  28.983  28.616  1.00  0.00     0.049 A 
ATOM     50  N   UNL A   1      42.660  29.593  28.506  1.00  0.00    -0.248 NA
ATOM     51  C   UNL A   1      43.044  27.433  27.713  1.00  0.00     0.031 C 
ATOM     52  C   UNL A   1      38.288  28.720  28.757  1.00  0.00     0.029 A 
ATOM     53  N   UNL A   1      39.865  30.272  29.068  1.00  0.00    -0.354 N 
ATOM     54  C   UNL A   1      44.028  29.393  28.362  1.00  0.00     0.074 A 
ATOM     55  C   UNL A   1      44.209  28.028  27.922  1.00  0.00     0.031 C 
ATOM     56  C   UNL A   1      37.684  29.813  29.250  1.00  0.00     0.029 A 
ATOM     57  C   UNL A   1      38.689  30.842  29.498  1.00  0.00     0.049 A 
ATOM     58  H   UNL A   1      40.729  30.745  29.081  1.00  0.00     0.167 HD
ATOM     59  C   UNL A   1      45.039  30.274  28.551  1.00  0.00     0.034 A 
ATOM     60  C   UNL A   1      38.445  32.049  30.045  1.00  0.00     0.034 A 
ATOM     61  C   UNL A   1      44.854  31.641  28.961  1.00  0.00     0.049 A 
ATOM     62  C   UNL A   1      39.585  33.014  30.223  1.00  0.00     0.074 A 
ATOM     63  C   UNL A   1      45.809  32.633  29.096  1.00  0.00     0.029 A 
ATOM     64  N   UNL A   1      43.639  32.204  29.319  1.00  0.00    -0.354 N 
ATOM     65  N   UNL A   1      40.852  32.860  29.923  1.00  0.00    -0.248 NA
ATOM     66  C   UNL A   1      39.258  34.332  30.786  1.00  0.00     0.031 C 
ATOM     67  C   UNL A   1      45.176  33.788  29.569  1.00  0.00     0.029 A 
ATOM     68  C   UNL A   1      43.822  33.526  29.691  1.00  0.00     0.049 A 
ATOM     69  H   UNL A   1      42.774  31.733  29.310  1.00  0.00     0.167 HD
ATOM     70  C   UNL A   1      41.466  34.070  30.227  1.00  0.00     0.074 A 
ATOM     71  C   UNL A   1      40.426  34.955  30.711  1.00  0.00     0.031 C 
ATOM     72  C   UNL A   1      42.774  34.412  30.128  1.00  0.00     0.034 A 
BRANCH  59  73
ATOM     73  C   UNL A   1      46.443  29.801  28.273  1.00  0.00     0.023 A 
ATOM     74  C   UNL A   1      46.887  29.684  26.939  1.00  0.00     0.012 A 
ATOM     75  C   UNL A   1      47.344  29.542  29.325  1.00  0.00     0.148 A 
ATOM     76  C   UNL A   1      48.193  29.284  26.657  1.00  0.00     0.002 A 
ATOM     77  C   UNL A   1      48.656  29.191  29.036  1.00  0.00     0.091 A 
ATOM     78  F   UNL A   1      46.898  29.642  30.585  1.00  0.00    -0.205 F 
ATOM     79  C   UNL A   1      49.079  29.050  27.704  1.00  0.00     0.022 A 
BRANCH  77  80
ATOM     80  S   UNL A   1      49.900  28.947  30.309  1.00  0.00     0.127 S 
ATOM     81  O   UNL A   1      50.021  30.294  30.864  1.00  0.00    -0.237 OA
ATOM     82  O   UNL A   1      49.248  27.980  31.192  1.00  0.00    -0.237 OA
ATOM     83  O   UNL A   1      51.084  28.447  29.625  1.00  0.00    -0.744 OA
ENDBRANCH  77  80
ENDBRANCH  59  73
BRANCH  60  84
ATOM     84  C   UNL A   1      37.054  32.435  30.420  1.00  0.00     0.023 A 
ATOM     85  C   UNL A   1      36.600  32.205  31.734  1.00  0.00     0.012 A 
ATOM     86  C   UNL A   1      36.185  33.035  29.489  1.00  0.00     0.148 A 
ATOM     87  C   UNL A   1      35.293  32.532  32.102  1.00  0.00     0.002 A 
ATOM     88  C   UNL A   1      34.906  33.413  29.880  1.00  0.00     0.091 A 
ATOM     89  F   UNL A   1      36.632  33.236  28.242  1.00  0.00    -0.205 F 
ATOM     90  C   UNL A   1      34.450  33.144  31.180  1.00  0.00     0.022 A 
BRANCH  88  91
ATOM     91  S   UNL A   1      33.800  34.326  28.799  1.00  0.00     0.127 S 
ATOM     92  O   UNL A   1      33.423  33.304  27.825  1.00  0.00    -0.237 OA
ATOM     93  O   UNL A   1      32.734  34.719  29.722  1.00  0.00    -0.237 OA
ATOM     94  O   UNL A   1      34.584  35.437  28.280  1.00  0.00    -0.744 OA
ENDBRANCH  88  91
ENDBRANCH  60  84
BRANCH  72  95
ATOM     95  C   UNL A   1      43.160  35.816  30.516  1.00  0.00     0.023 A 
ATOM     96  C   UNL A   1      43.626  36.084  31.819  1.00  0.00     0.012 A 
ATOM     97  C   UNL A   1      43.123  36.857  29.567  1.00  0.00     0.148 A 
ATOM     98  C   UNL A   1      44.013  37.374  32.182  1.00  0.00     0.002 A 
ATOM     99  C   UNL A   1      43.562  38.128  29.921  1.00  0.00     0.091 A 
ATOM    100  F   UNL A   1      42.662  36.586  28.338  1.00  0.00    -0.205 F 
ATOM    101  C   UNL A   1      43.992  38.391  31.231  1.00  0.00     0.022 A 
BRANCH  99 102
ATOM    102  S   UNL A   1      43.663  39.477  28.739  1.00  0.00     0.127 S 
ATOM    103  O   UNL A   1      42.254  39.699  28.418  1.00  0.00    -0.237 OA
ATOM    104  O   UNL A   1      44.283  40.538  29.534  1.00  0.00    -0.237 OA
ATOM    105  O   UNL A   1      44.483  38.989  27.639  1.00  0.00    -0.744 OA
ENDBRANCH  99 102
ENDBRANCH  72  95
ENDBRANCH  46  47
ENDBRANCH  38  41
ENDBRANCH  36  37
ENDBRANCH  35  36
ENDBRANCH   1  35
TORSDOF 18
ENDMDL
MODEL 3
REMARK VINA RESULT:     -11.3      4.681     11.741
REMARK SMILES COc1ccc(N2C(=O)/C(=C\c3ccc(-c4ccc(Cl)c(C(=O)NCCCCNC(=O)c5ccc(-c6c7nc(c(-c8cccc(S(=O)(=O)[O-])c8F)c8ccc([nH]8)c(-c8cccc(S(=O)(=O)[O-])c8F)c8nc(c(-c9cccc(S(=O)(=O)[O-])c9F)c9ccc6[nH]9)C=C8)C=C7)cc5)c4)o3)SC2=S)cc1
REMARK SMILES IDX 26 1 25 2 24 3 22 4 23 5 21 7 16 8 17 9 95 10 18 11 19 12
REMARK SMILES IDX 20 13 15 14 12 15 13 16 96 17 14 18 11 19 7 20 8 21 98 22
REMARK SMILES IDX 9 23 10 24 97 25 99 26 6 27 3 28 4 29 101 30 5 31 100 32
REMARK SMILES IDX 2 33 1 34 27 35 28 36 29 37 30 38 31 40 32 41 33 42 94 43
REMARK SMILES IDX 34 44 93 45 35 46 36 47 37 48 87 49 38 50 92 51 86 52 88 53
REMARK SMILES IDX 39 54 91 55 85 56 84 57 40 59 72 60 52 61 71 62 53 63 56 64
REMARK SMILES IDX 70 65 89 66 54 67 55 68 69 70 90 71 57 72 41 73 42 74 50 75
REMARK SMILES IDX 43 76 45 77 51 78 44 79 46 80 47 81 48 82 49 83 73 84 74 85
REMARK SMILES IDX 82 86 75 87 77 88 83 89 76 90 78 91 79 92 80 93 81 94 58 95
REMARK SMILES IDX 59 96 67 97 60 98 62 99 68 100 61 101 63 102 64 103 65 104
REMARK SMILES IDX 66 105
REMARK H PARENT 24 6 29 39 88 58 56 69
REMARK Flexibility Score: inf
ROOT
ATOM      1  C   UNL A   1      46.576  24.541  26.935  1.00  0.00     0.023 C 
ENDROOT
BRANCH   1   2
ATOM      2  C   UNL A   1      45.145  24.022  26.935  1.00  0.00     0.116 C 
BRANCH   2   3
ATOM      3  N   UNL A   1      44.680  23.432  25.683  1.00  0.00    -0.352 N 
ATOM      4  C   UNL A   1      43.411  23.271  25.143  1.00  0.00     0.252 C 
ATOM      5  O   UNL A   1      43.322  22.857  23.990  1.00  0.00    -0.269 OA
ATOM      6  H   UNL A   1      45.403  23.080  25.115  1.00  0.00     0.163 HD
BRANCH   4   7
ATOM      7  C   UNL A   1      42.178  23.573  25.928  1.00  0.00     0.059 A 
ATOM      8  C   UNL A   1      40.821  25.342  26.911  1.00  0.00     0.018 A 
ATOM      9  C   UNL A   1      40.201  24.412  27.741  1.00  0.00     0.013 A 
ATOM     10  C   UNL A   1      41.684  24.877  25.913  1.00  0.00     0.027 A 
ATOM     11  C   UNL A   1      40.508  23.053  27.609  1.00  0.00     0.022 A 
ATOM     12  C   UNL A   1      41.528  22.634  26.738  1.00  0.00     0.053 A 
ATOM     13  Cl  UNL A   1      41.926  20.953  26.775  1.00  0.00    -0.083 Cl
BRANCH   8  14
ATOM     14  C   UNL A   1      40.756  26.781  27.122  1.00  0.00     0.134 A 
ATOM     15  C   UNL A   1      40.752  28.588  28.407  1.00  0.00     0.128 A 
ATOM     16  C   UNL A   1      40.999  28.998  27.103  1.00  0.00     0.051 A 
ATOM     17  O   UNL A   1      40.644  27.216  28.411  1.00  0.00    -0.457 OA
ATOM     18  C   UNL A   1      40.953  27.856  26.282  1.00  0.00     0.051 A 
BRANCH  15  19
ATOM     19  C   UNL A   1      40.527  29.416  29.537  1.00  0.00     0.068 C 
ATOM     20  N   UNL A   1      37.137  30.713  29.156  1.00  0.00    -0.261 N 
ATOM     21  C   UNL A   1      38.140  29.807  28.837  1.00  0.00     0.270 C 
ATOM     22  C   UNL A   1      37.414  31.597  30.185  1.00  0.00     0.152 C 
ATOM     23  O   UNL A   1      38.079  28.955  27.955  1.00  0.00    -0.268 OA
ATOM     24  C   UNL A   1      39.342  30.026  29.688  1.00  0.00     0.084 C 
ATOM     25  S   UNL A   1      39.022  31.252  30.848  1.00  0.00    -0.054 SA
ATOM     26  S   UNL A   1      36.446  32.773  30.877  1.00  0.00    -0.051 S 
BRANCH  20  27
ATOM     27  C   UNL A   1      35.930  30.657  28.397  1.00  0.00     0.051 A 
ATOM     28  C   UNL A   1      33.400  30.606  27.174  1.00  0.00     0.119 A 
ATOM     29  C   UNL A   1      33.976  31.820  27.522  1.00  0.00     0.048 A 
ATOM     30  C   UNL A   1      34.098  29.417  27.394  1.00  0.00     0.048 A 
ATOM     31  C   UNL A   1      35.224  31.844  28.139  1.00  0.00     0.030 A 
ATOM     32  C   UNL A   1      35.362  29.441  28.002  1.00  0.00     0.030 A 
BRANCH  28  33
ATOM     33  O   UNL A   1      32.174  30.671  26.574  1.00  0.00    -0.497 OA
ATOM     34  C   UNL A   1      31.812  29.477  25.887  1.00  0.00     0.278 C 
ENDBRANCH  28  33
ENDBRANCH  20  27
ENDBRANCH  15  19
ENDBRANCH   8  14
ENDBRANCH   4   7
ENDBRANCH   2   3
ENDBRANCH   1   2
BRANCH   1  35
ATOM     35  C   UNL A   1      47.303  24.553  25.598  1.00  0.00     0.023 C 
BRANCH  35  36
ATOM     36  C   UNL A   1      48.340  25.654  25.401  1.00  0.00     0.116 C 
BRANCH  36  37
ATOM     37  N   UNL A   1      47.950  26.674  24.435  1.00  0.00    -0.352 N 
ATOM     38  C   UNL A   1      47.065  27.721  24.572  1.00  0.00     0.251 C 
ATOM     39  H   UNL A   1      48.385  26.606  23.554  1.00  0.00     0.163 HD
ATOM     40  O   UNL A   1      46.811  28.438  23.608  1.00  0.00    -0.269 OA
BRANCH  38  41
ATOM     41  C   UNL A   1      46.388  27.951  25.867  1.00  0.00     0.039 A 
ATOM     42  C   UNL A   1      47.108  28.537  26.911  1.00  0.00     0.014 A 
ATOM     43  C   UNL A   1      45.037  27.640  26.036  1.00  0.00     0.014 A 
ATOM     44  C   UNL A   1      46.447  28.908  28.085  1.00  0.00     0.010 A 
ATOM     45  C   UNL A   1      44.363  28.089  27.169  1.00  0.00     0.010 A 
ATOM     46  C   UNL A   1      45.057  28.741  28.200  1.00  0.00    -0.014 A 
BRANCH  46  47
ATOM     47  C   UNL A   1      44.307  29.291  29.361  1.00  0.00     0.031 A 
ATOM     48  C   UNL A   1      43.902  30.741  29.394  1.00  0.00     0.074 A 
ATOM     49  C   UNL A   1      44.073  28.505  30.431  1.00  0.00     0.049 A 
ATOM     50  N   UNL A   1      43.291  31.402  30.344  1.00  0.00    -0.248 NA
ATOM     51  C   UNL A   1      44.249  31.560  28.222  1.00  0.00     0.031 C 
ATOM     52  C   UNL A   1      44.491  27.106  30.560  1.00  0.00     0.029 A 
ATOM     53  N   UNL A   1      43.453  28.773  31.627  1.00  0.00    -0.354 N 
ATOM     54  C   UNL A   1      43.208  32.716  29.899  1.00  0.00     0.074 A 
ATOM     55  C   UNL A   1      43.862  32.767  28.611  1.00  0.00     0.031 C 
ATOM     56  C   UNL A   1      44.108  26.639  31.759  1.00  0.00     0.029 A 
ATOM     57  C   UNL A   1      43.453  27.710  32.502  1.00  0.00     0.049 A 
ATOM     58  H   UNL A   1      43.045  29.644  31.838  1.00  0.00     0.167 HD
ATOM     59  C   UNL A   1      42.617  33.779  30.496  1.00  0.00     0.034 A 
ATOM     60  C   UNL A   1      42.992  27.611  33.764  1.00  0.00     0.034 A 
ATOM     61  C   UNL A   1      41.942  33.720  31.766  1.00  0.00     0.049 A 
ATOM     62  C   UNL A   1      42.321  28.801  34.393  1.00  0.00     0.074 A 
ATOM     63  C   UNL A   1      41.239  34.722  32.411  1.00  0.00     0.029 A 
ATOM     64  N   UNL A   1      41.900  32.607  32.590  1.00  0.00    -0.354 N 
ATOM     65  N   UNL A   1      42.106  29.991  33.887  1.00  0.00    -0.248 NA
ATOM     66  C   UNL A   1      41.801  28.627  35.757  1.00  0.00     0.031 C 
ATOM     67  C   UNL A   1      40.801  34.224  33.643  1.00  0.00     0.029 A 
ATOM     68  C   UNL A   1      41.197  32.901  33.747  1.00  0.00     0.049 A 
ATOM     69  H   UNL A   1      42.310  31.735  32.384  1.00  0.00     0.167 HD
ATOM     70  C   UNL A   1      41.397  30.695  34.853  1.00  0.00     0.074 A 
ATOM     71  C   UNL A   1      41.196  29.788  35.965  1.00  0.00     0.031 C 
ATOM     72  C   UNL A   1      40.964  31.979  34.828  1.00  0.00     0.034 A 
BRANCH  59  73
ATOM     73  C   UNL A   1      42.633  35.096  29.762  1.00  0.00     0.023 A 
ATOM     74  C   UNL A   1      41.644  35.364  28.793  1.00  0.00     0.012 A 
ATOM     75  C   UNL A   1      43.577  36.092  30.078  1.00  0.00     0.148 A 
ATOM     76  C   UNL A   1      41.614  36.589  28.127  1.00  0.00     0.002 A 
ATOM     77  C   UNL A   1      43.513  37.326  29.445  1.00  0.00     0.091 A 
ATOM     78  F   UNL A   1      44.520  35.811  30.989  1.00  0.00    -0.205 F 
ATOM     79  C   UNL A   1      42.541  37.573  28.461  1.00  0.00     0.022 A 
BRANCH  77  80
ATOM     80  S   UNL A   1      44.606  38.690  29.859  1.00  0.00     0.127 S 
ATOM     81  O   UNL A   1      44.102  39.747  28.984  1.00  0.00    -0.237 OA
ATOM     82  O   UNL A   1      44.322  38.889  31.281  1.00  0.00    -0.237 OA
ATOM     83  O   UNL A   1      45.955  38.229  29.565  1.00  0.00    -0.744 OA
ENDBRANCH  77  80
ENDBRANCH  59  73
BRANCH  60  84
ATOM     84  C   UNL A   1      43.105  26.320  34.503  1.00  0.00     0.023 A 
ATOM     85  C   UNL A   1      41.957  25.526  34.693  1.00  0.00     0.012 A 
ATOM     86  C   UNL A   1      44.340  25.873  35.010  1.00  0.00     0.148 A 
ATOM     87  C   UNL A   1      42.031  24.327  35.405  1.00  0.00     0.002 A 
ATOM     88  C   UNL A   1      44.418  24.650  35.666  1.00  0.00     0.091 A 
ATOM     89  F   UNL A   1      45.418  26.648  34.829  1.00  0.00    -0.205 F 
ATOM     90  C   UNL A   1      43.261  23.885  35.883  1.00  0.00     0.022 A 
BRANCH  88  91
ATOM     91  S   UNL A   1      45.979  23.940  36.196  1.00  0.00     0.127 S 
ATOM     92  O   UNL A   1      46.668  23.746  34.922  1.00  0.00    -0.237 OA
ATOM     93  O   UNL A   1      46.525  25.007  37.036  1.00  0.00    -0.237 OA
ATOM     94  O   UNL A   1      45.633  22.725  36.920  1.00  0.00    -0.744 OA
ENDBRANCH  88  91
ENDBRANCH  60  84
BRANCH  72  95
ATOM     95  C   UNL A   1      40.194  32.480  36.023  1.00  0.00     0.023 A 
ATOM     96  C   UNL A   1      38.786  32.533  35.982  1.00  0.00     0.012 A 
ATOM     97  C   UNL A   1      40.864  32.836  37.210  1.00  0.00     0.148 A 
ATOM     98  C   UNL A   1      38.060  32.968  37.090  1.00  0.00     0.002 A 
ATOM     99  C   UNL A   1      40.132  33.217  38.328  1.00  0.00     0.091 A 
ATOM    100  F   UNL A   1      42.204  32.795  37.224  1.00  0.00    -0.205 F 
ATOM    101  C   UNL A   1      38.731  33.299  38.265  1.00  0.00     0.022 A 
BRANCH  99 102
ATOM    102  S   UNL A   1      40.901  33.566  39.913  1.00  0.00     0.127 S 
ATOM    103  O   UNL A   1      41.013  32.228  40.492  1.00  0.00    -0.237 OA
ATOM    104  O   UNL A   1      42.175  34.166  39.512  1.00  0.00    -0.237 OA
ATOM    105  O   UNL A   1      39.999  34.473  40.609  1.00  0.00    -0.744 OA
ENDBRANCH  99 102
ENDBRANCH  72  95
ENDBRANCH  46  47
ENDBRANCH  38  41
ENDBRANCH  36  37
ENDBRANCH  35  36
ENDBRANCH   1  35
TORSDOF 18
ENDMDL
