MODEL 1
REMARK VINA RESULT:     -11.2      0.000      0.000
REMARK SMILES O=C(NCCCCNC(=O)[C@@H]1C[C@@H](O)CN1C(=O)CSc1ccc(F)cc1F)c1ccc(-c2c3nc(c(-c4cccc(S(=O)(=O)[O-])c4F)c4ccc([nH]4)c(-c4cccc(S(=O)(=O)[O-])c4F)c4nc(c(-c5cccc(S(=O)(=O)[O-])c5F)c5ccc2[nH]5)C=C4)C=C3)cc1
REMARK SMILES IDX 6 1 5 2 4 3 3 4 1 5 2 6 29 8 30 9 91 10 31 11 90 12 32 13
REMARK SMILES IDX 33 14 34 15 84 16 35 17 89 18 83 19 85 20 36 21 88 22 82 23
REMARK SMILES IDX 81 24 37 26 69 27 49 28 68 29 50 30 53 31 67 32 86 33 51 34
REMARK SMILES IDX 52 35 66 37 87 38 54 39 38 40 39 41 47 42 40 43 42 44 48 45
REMARK SMILES IDX 41 46 43 47 44 48 45 49 46 50 70 51 71 52 79 53 72 54 74 55
REMARK SMILES IDX 80 56 73 57 75 58 76 59 77 60 78 61 55 62 56 63 64 64 57 65
REMARK SMILES IDX 59 66 65 67 58 68 60 69 61 70 62 71 63 72 7 73 8 74 9 75
REMARK SMILES IDX 10 77 11 78 12 79 16 80 13 81 15 82 17 83 18 84 19 85 20 86
REMARK SMILES IDX 21 87 22 88 27 89 23 90 26 91 28 92 24 93 25 94 14 95
REMARK H PARENT 3 7 85 25 53 36 8 76 14 96
REMARK Flexibility Score: inf
ROOT
ATOM      1  C   UNL A   1      31.836  29.593  27.091  1.00  0.00     0.023 C 
ENDROOT
BRANCH   1   2
ATOM      2  C   UNL A   1      31.616  31.037  26.641  1.00  0.00     0.023 C 
BRANCH   2   3
ATOM      3  C   UNL A   1      32.864  31.907  26.695  1.00  0.00     0.116 C 
BRANCH   3   4
ATOM      4  N   UNL A   1      32.605  33.242  27.206  1.00  0.00    -0.352 N 
ATOM      5  O   UNL A   1      32.895  35.005  28.580  1.00  0.00    -0.269 OA
ATOM      6  C   UNL A   1      33.297  33.926  28.177  1.00  0.00     0.251 C 
ATOM      7  H   UNL A   1      31.836  33.715  26.809  1.00  0.00     0.163 HD
BRANCH   6   8
ATOM      8  C   UNL A   1      34.507  33.299  28.743  1.00  0.00     0.039 A 
ATOM      9  C   UNL A   1      34.401  32.165  29.555  1.00  0.00     0.014 A 
ATOM     10  C   UNL A   1      35.745  33.890  28.494  1.00  0.00     0.014 A 
ATOM     11  C   UNL A   1      35.528  31.685  30.213  1.00  0.00     0.010 A 
ATOM     12  C   UNL A   1      36.884  33.368  29.102  1.00  0.00     0.010 A 
ATOM     13  C   UNL A   1      36.778  32.279  29.984  1.00  0.00    -0.014 A 
BRANCH  13  14
ATOM     14  C   UNL A   1      37.994  31.715  30.609  1.00  0.00     0.031 A 
ATOM     15  C   UNL A   1      38.802  30.665  29.907  1.00  0.00     0.074 A 
ATOM     16  C   UNL A   1      38.315  32.110  31.856  1.00  0.00     0.049 A 
ATOM     17  N   UNL A   1      39.828  29.987  30.348  1.00  0.00    -0.248 NA
ATOM     18  C   UNL A   1      38.399  30.322  28.533  1.00  0.00     0.031 C 
ATOM     19  C   UNL A   1      37.566  33.095  32.640  1.00  0.00     0.029 A 
ATOM     20  N   UNL A   1      39.320  31.706  32.693  1.00  0.00    -0.354 N 
ATOM     21  C   UNL A   1      40.166  29.103  29.331  1.00  0.00     0.074 A 
ATOM     22  C   UNL A   1      39.237  29.334  28.245  1.00  0.00     0.031 C 
ATOM     23  C   UNL A   1      38.123  33.202  33.854  1.00  0.00     0.029 A 
ATOM     24  C   UNL A   1      39.233  32.261  33.948  1.00  0.00     0.049 A 
ATOM     25  H   UNL A   1      40.033  31.082  32.424  1.00  0.00     0.167 HD
ATOM     26  C   UNL A   1      41.167  28.193  29.305  1.00  0.00     0.034 A 
ATOM     27  C   UNL A   1      39.941  32.011  35.066  1.00  0.00     0.034 A 
ATOM     28  C   UNL A   1      42.104  28.001  30.381  1.00  0.00     0.049 A 
ATOM     29  C   UNL A   1      41.060  31.015  35.005  1.00  0.00     0.074 A 
ATOM     30  C   UNL A   1      43.205  27.164  30.423  1.00  0.00     0.029 A 
ATOM     31  N   UNL A   1      42.042  28.646  31.608  1.00  0.00    -0.354 N 
ATOM     32  N   UNL A   1      41.456  30.286  33.989  1.00  0.00    -0.248 NA
ATOM     33  C   UNL A   1      41.852  30.826  36.228  1.00  0.00     0.031 C 
ATOM     34  C   UNL A   1      43.800  27.291  31.683  1.00  0.00     0.029 A 
ATOM     35  C   UNL A   1      43.079  28.218  32.420  1.00  0.00     0.049 A 
ATOM     36  H   UNL A   1      41.361  29.309  31.863  1.00  0.00     0.167 HD
ATOM     37  C   UNL A   1      42.557  29.570  34.438  1.00  0.00     0.074 A 
ATOM     38  C   UNL A   1      42.776  29.965  35.816  1.00  0.00     0.031 C 
ATOM     39  C   UNL A   1      43.311  28.662  33.772  1.00  0.00     0.034 A 
BRANCH  26  40
ATOM     40  C   UNL A   1      41.322  27.356  28.063  1.00  0.00     0.023 A 
ATOM     41  C   UNL A   1      41.915  27.919  26.914  1.00  0.00     0.012 A 
ATOM     42  C   UNL A   1      40.927  26.004  28.044  1.00  0.00     0.148 A 
ATOM     43  C   UNL A   1      42.083  27.159  25.757  1.00  0.00     0.002 A 
ATOM     44  C   UNL A   1      41.131  25.243  26.897  1.00  0.00     0.091 A 
ATOM     45  F   UNL A   1      40.339  25.491  29.133  1.00  0.00    -0.205 F 
ATOM     46  C   UNL A   1      41.700  25.821  25.751  1.00  0.00     0.022 A 
BRANCH  44  47
ATOM     47  S   UNL A   1      40.730  23.493  26.835  1.00  0.00     0.127 S 
ATOM     48  O   UNL A   1      39.307  23.527  26.503  1.00  0.00    -0.237 OA
ATOM     49  O   UNL A   1      41.593  23.008  25.757  1.00  0.00    -0.237 OA
ATOM     50  O   UNL A   1      41.064  22.970  28.152  1.00  0.00    -0.744 OA
ENDBRANCH  44  47
ENDBRANCH  26  40
BRANCH  27  51
ATOM     51  C   UNL A   1      39.611  32.762  36.306  1.00  0.00     0.023 A 
ATOM     52  C   UNL A   1      40.097  34.071  36.473  1.00  0.00     0.012 A 
ATOM     53  C   UNL A   1      38.719  32.229  37.260  1.00  0.00     0.148 A 
ATOM     54  C   UNL A   1      39.705  34.837  37.571  1.00  0.00     0.002 A 
ATOM     55  C   UNL A   1      38.289  33.017  38.320  1.00  0.00     0.091 A 
ATOM     56  F   UNL A   1      38.275  30.977  37.082  1.00  0.00    -0.205 F 
ATOM     57  C   UNL A   1      38.791  34.317  38.485  1.00  0.00     0.022 A 
BRANCH  55  58
ATOM     58  S   UNL A   1      37.001  32.488  39.454  1.00  0.00     0.127 S 
ATOM     59  O   UNL A   1      37.107  33.486  40.515  1.00  0.00    -0.237 OA
ATOM     60  O   UNL A   1      35.802  32.598  38.621  1.00  0.00    -0.237 OA
ATOM     61  O   UNL A   1      37.344  31.124  39.833  1.00  0.00    -0.744 OA
ENDBRANCH  55  58
ENDBRANCH  27  51
BRANCH  39  62
ATOM     62  C   UNL A   1      44.467  28.042  34.507  1.00  0.00     0.023 A 
ATOM     63  C   UNL A   1      45.713  28.699  34.526  1.00  0.00     0.012 A 
ATOM     64  C   UNL A   1      44.288  26.868  35.264  1.00  0.00     0.148 A 
ATOM     65  C   UNL A   1      46.769  28.188  35.278  1.00  0.00     0.002 A 
ATOM     66  C   UNL A   1      45.332  26.388  36.045  1.00  0.00     0.091 A 
ATOM     67  F   UNL A   1      43.098  26.251  35.214  1.00  0.00    -0.205 F 
ATOM     68  C   UNL A   1      46.575  27.042  36.048  1.00  0.00     0.022 A 
BRANCH  66  69
ATOM     69  S   UNL A   1      45.147  24.974  37.137  1.00  0.00     0.127 S 
ATOM     70  O   UNL A   1      44.078  25.421  38.027  1.00  0.00    -0.237 OA
ATOM     71  O   UNL A   1      44.762  23.912  36.205  1.00  0.00    -0.237 OA
ATOM     72  O   UNL A   1      46.445  24.781  37.770  1.00  0.00    -0.744 OA
ENDBRANCH  66  69
ENDBRANCH  39  62
ENDBRANCH  13  14
ENDBRANCH   6   8
ENDBRANCH   3   4
ENDBRANCH   2   3
ENDBRANCH   1   2
BRANCH   1  73
ATOM     73  C   UNL A   1      33.227  29.039  26.766  1.00  0.00     0.116 C 
BRANCH  73  74
ATOM     74  N   UNL A   1      33.327  28.740  25.354  1.00  0.00    -0.354 N 
ATOM     75  C   UNL A   1      33.583  27.543  24.742  1.00  0.00     0.242 C 
ATOM     76  H   UNL A   1      33.189  29.505  24.749  1.00  0.00     0.163 HD
ATOM     77  O   UNL A   1      33.788  27.577  23.527  1.00  0.00    -0.273 OA
BRANCH  75  78
ATOM     78  C   UNL A   1      33.551  26.229  25.576  1.00  0.00     0.177 C 
ATOM     79  C   UNL A   1      34.650  25.241  25.149  1.00  0.00     0.069 C 
ATOM     80  N   UNL A   1      32.317  25.432  25.432  1.00  0.00    -0.327 N 
ATOM     81  C   UNL A   1      34.080  23.877  25.497  1.00  0.00     0.136 C 
ATOM     82  C   UNL A   1      32.614  24.034  25.128  1.00  0.00     0.152 C 
BRANCH  80  83
ATOM     83  C   UNL A   1      31.084  25.953  25.751  1.00  0.00     0.233 C 
ATOM     84  O   UNL A   1      30.827  26.280  26.916  1.00  0.00    -0.274 OA
BRANCH  83  85
ATOM     85  C   UNL A   1      29.970  25.995  24.712  1.00  0.00     0.175 C 
BRANCH  85  86
ATOM     86  S   UNL A   1      30.345  26.769  23.103  1.00  0.00    -0.113 SA
BRANCH  86  87
ATOM     87  C   UNL A   1      29.400  28.275  23.196  1.00  0.00     0.044 A 
ATOM     88  C   UNL A   1      28.003  28.199  23.258  1.00  0.00     0.021 A 
ATOM     89  C   UNL A   1      30.002  29.536  23.100  1.00  0.00     0.139 A 
ATOM     90  C   UNL A   1      27.237  29.368  23.270  1.00  0.00     0.040 A 
ATOM     91  C   UNL A   1      29.249  30.704  23.150  1.00  0.00     0.079 A 
ATOM     92  F   UNL A   1      31.325  29.640  22.899  1.00  0.00    -0.206 F 
ATOM     93  C   UNL A   1      27.868  30.608  23.233  1.00  0.00     0.126 A 
ATOM     94  F   UNL A   1      27.125  31.722  23.248  1.00  0.00    -0.207 F 
ENDBRANCH  86  87
ENDBRANCH  85  86
ENDBRANCH  83  85
ENDBRANCH  80  83
BRANCH  81  95
ATOM     95  O   UNL A   1      34.242  23.621  26.892  1.00  0.00    -0.391 OA
ATOM     96  H   UNL A   1      34.077  22.682  27.070  1.00  0.00     0.211 HD
ENDBRANCH  81  95
ENDBRANCH  75  78
ENDBRANCH  73  74
ENDBRANCH   1  73
TORSDOF 19
ENDMDL
MODEL 2
REMARK VINA RESULT:     -11.1      1.982      2.499
REMARK SMILES O=C(NCCCCNC(=O)[C@@H]1C[C@@H](O)CN1C(=O)CSc1ccc(F)cc1F)c1ccc(-c2c3nc(c(-c4cccc(S(=O)(=O)[O-])c4F)c4ccc([nH]4)c(-c4cccc(S(=O)(=O)[O-])c4F)c4nc(c(-c5cccc(S(=O)(=O)[O-])c5F)c5ccc2[nH]5)C=C4)C=C3)cc1
REMARK SMILES IDX 6 1 5 2 4 3 3 4 1 5 2 6 29 8 30 9 91 10 31 11 90 12 32 13
REMARK SMILES IDX 33 14 34 15 84 16 35 17 89 18 83 19 85 20 36 21 88 22 82 23
REMARK SMILES IDX 81 24 37 26 69 27 49 28 68 29 50 30 53 31 67 32 86 33 51 34
REMARK SMILES IDX 52 35 66 37 87 38 54 39 38 40 39 41 47 42 40 43 42 44 48 45
REMARK SMILES IDX 41 46 43 47 44 48 45 49 46 50 70 51 71 52 79 53 72 54 74 55
REMARK SMILES IDX 80 56 73 57 75 58 76 59 77 60 78 61 55 62 56 63 64 64 57 65
REMARK SMILES IDX 59 66 65 67 58 68 60 69 61 70 62 71 63 72 7 73 8 74 9 75
REMARK SMILES IDX 10 77 11 78 12 79 16 80 13 81 15 82 17 83 18 84 19 85 20 86
REMARK SMILES IDX 21 87 22 88 27 89 23 90 26 91 28 92 24 93 25 94 14 95
REMARK H PARENT 3 7 85 25 53 36 8 76 14 96
REMARK Flexibility Score: inf
ROOT
ATOM      1  C   UNL A   1      32.236  27.289  26.897  1.00  0.00     0.023 C 
ENDROOT
BRANCH   1   2
ATOM      2  C   UNL A   1      31.878  28.356  25.862  1.00  0.00     0.023 C 
BRANCH   2   3
ATOM      3  C   UNL A   1      32.911  29.465  25.724  1.00  0.00     0.116 C 
BRANCH   3   4
ATOM      4  N   UNL A   1      32.403  30.768  26.118  1.00  0.00    -0.352 N 
ATOM      5  O   UNL A   1      32.348  32.667  27.331  1.00  0.00    -0.269 OA
ATOM      6  C   UNL A   1      32.948  31.651  27.020  1.00  0.00     0.251 C 
ATOM      7  H   UNL A   1      31.564  31.053  25.688  1.00  0.00     0.163 HD
BRANCH   6   8
ATOM      8  C   UNL A   1      34.248  31.312  27.629  1.00  0.00     0.039 A 
ATOM      9  C   UNL A   1      34.500  30.013  28.082  1.00  0.00     0.014 A 
ATOM     10  C   UNL A   1      35.195  32.324  27.789  1.00  0.00     0.014 A 
ATOM     11  C   UNL A   1      35.661  29.750  28.799  1.00  0.00     0.010 A 
ATOM     12  C   UNL A   1      36.387  32.042  28.451  1.00  0.00     0.010 A 
ATOM     13  C   UNL A   1      36.616  30.761  28.982  1.00  0.00    -0.014 A 
BRANCH  13  14
ATOM     14  C   UNL A   1      37.894  30.462  29.664  1.00  0.00     0.031 A 
ATOM     15  C   UNL A   1      38.889  29.523  29.052  1.00  0.00     0.074 A 
ATOM     16  C   UNL A   1      38.107  30.993  30.883  1.00  0.00     0.049 A 
ATOM     17  N   UNL A   1      40.004  29.067  29.557  1.00  0.00    -0.248 NA
ATOM     18  C   UNL A   1      38.589  29.020  27.702  1.00  0.00     0.031 C 
ATOM     19  C   UNL A   1      37.179  31.885  31.582  1.00  0.00     0.029 A 
ATOM     20  N   UNL A   1      39.144  30.830  31.762  1.00  0.00    -0.354 N 
ATOM     21  C   UNL A   1      40.517  28.186  28.613  1.00  0.00     0.074 A 
ATOM     22  C   UNL A   1      39.592  28.175  27.500  1.00  0.00     0.031 C 
ATOM     23  C   UNL A   1      37.677  32.172  32.792  1.00  0.00     0.029 A 
ATOM     24  C   UNL A   1      38.930  31.448  32.972  1.00  0.00     0.049 A 
ATOM     25  H   UNL A   1      39.962  30.323  31.550  1.00  0.00     0.167 HD
ATOM     26  C   UNL A   1      41.661  27.465  28.669  1.00  0.00     0.034 A 
ATOM     27  C   UNL A   1      39.640  31.404  34.115  1.00  0.00     0.034 A 
ATOM     28  C   UNL A   1      42.588  27.515  29.769  1.00  0.00     0.049 A 
ATOM     29  C   UNL A   1      40.915  30.616  34.144  1.00  0.00     0.074 A 
ATOM     30  C   UNL A   1      43.815  26.887  29.889  1.00  0.00     0.029 A 
ATOM     31  N   UNL A   1      42.382  28.222  30.944  1.00  0.00    -0.354 N 
ATOM     32  N   UNL A   1      41.457  29.898  33.190  1.00  0.00    -0.248 NA
ATOM     33  C   UNL A   1      41.694  30.653  35.389  1.00  0.00     0.031 C 
ATOM     34  C   UNL A   1      44.345  27.203  31.144  1.00  0.00     0.029 A 
ATOM     35  C   UNL A   1      43.455  28.040  31.801  1.00  0.00     0.049 A 
ATOM     36  H   UNL A   1      41.590  28.773  31.140  1.00  0.00     0.167 HD
ATOM     37  C   UNL A   1      42.654  29.418  33.706  1.00  0.00     0.074 A 
ATOM     38  C   UNL A   1      42.763  29.940  35.054  1.00  0.00     0.031 C 
ATOM     39  C   UNL A   1      43.571  28.611  33.119  1.00  0.00     0.034 A 
BRANCH  26  40
ATOM     40  C   UNL A   1      41.991  26.583  27.493  1.00  0.00     0.023 A 
ATOM     41  C   UNL A   1      42.642  27.135  26.371  1.00  0.00     0.012 A 
ATOM     42  C   UNL A   1      41.704  25.204  27.516  1.00  0.00     0.148 A 
ATOM     43  C   UNL A   1      42.972  26.335  25.277  1.00  0.00     0.002 A 
ATOM     44  C   UNL A   1      42.069  24.406  26.436  1.00  0.00     0.091 A 
ATOM     45  F   UNL A   1      41.061  24.700  28.578  1.00  0.00    -0.205 F 
ATOM     46  C   UNL A   1      42.694  24.971  25.313  1.00  0.00     0.022 A 
BRANCH  44  47
ATOM     47  S   UNL A   1      41.810  22.628  26.438  1.00  0.00     0.127 S 
ATOM     48  O   UNL A   1      40.351  22.542  26.437  1.00  0.00    -0.237 OA
ATOM     49  O   UNL A   1      42.444  22.214  25.186  1.00  0.00    -0.237 OA
ATOM     50  O   UNL A   1      42.476  22.139  27.637  1.00  0.00    -0.744 OA
ENDBRANCH  44  47
ENDBRANCH  26  40
BRANCH  27  51
ATOM     51  C   UNL A   1      39.151  32.171  35.292  1.00  0.00     0.023 A 
ATOM     52  C   UNL A   1      38.329  31.535  36.239  1.00  0.00     0.012 A 
ATOM     53  C   UNL A   1      39.599  33.486  35.536  1.00  0.00     0.148 A 
ATOM     54  C   UNL A   1      37.955  32.197  37.409  1.00  0.00     0.002 A 
ATOM     55  C   UNL A   1      39.270  34.117  36.729  1.00  0.00     0.091 A 
ATOM     56  F   UNL A   1      40.377  34.073  34.615  1.00  0.00    -0.205 F 
ATOM     57  C   UNL A   1      38.436  33.479  37.660  1.00  0.00     0.022 A 
BRANCH  55  58
ATOM     58  S   UNL A   1      39.968  35.702  37.205  1.00  0.00     0.127 S 
ATOM     59  O   UNL A   1      39.276  35.968  38.463  1.00  0.00    -0.237 OA
ATOM     60  O   UNL A   1      41.389  35.376  37.339  1.00  0.00    -0.237 OA
ATOM     61  O   UNL A   1      39.662  36.613  36.111  1.00  0.00    -0.744 OA
ENDBRANCH  55  58
ENDBRANCH  27  51
BRANCH  39  62
ATOM     62  C   UNL A   1      44.796  28.254  33.915  1.00  0.00     0.023 A 
ATOM     63  C   UNL A   1      45.906  29.122  33.910  1.00  0.00     0.012 A 
ATOM     64  C   UNL A   1      44.804  27.118  34.747  1.00  0.00     0.148 A 
ATOM     65  C   UNL A   1      47.013  28.856  34.713  1.00  0.00     0.002 A 
ATOM     66  C   UNL A   1      45.893  26.883  35.577  1.00  0.00     0.091 A 
ATOM     67  F   UNL A   1      43.744  26.298  34.719  1.00  0.00    -0.205 F 
ATOM     68  C   UNL A   1      47.002  27.745  35.555  1.00  0.00     0.022 A 
BRANCH  66  69
ATOM     69  S   UNL A   1      45.929  25.531  36.759  1.00  0.00     0.127 S 
ATOM     70  O   UNL A   1      47.196  25.770  37.447  1.00  0.00    -0.237 OA
ATOM     71  O   UNL A   1      44.736  25.793  37.566  1.00  0.00    -0.237 OA
ATOM     72  O   UNL A   1      45.868  24.306  35.973  1.00  0.00    -0.744 OA
ENDBRANCH  66  69
ENDBRANCH  39  62
ENDBRANCH  13  14
ENDBRANCH   6   8
ENDBRANCH   3   4
ENDBRANCH   2   3
ENDBRANCH   1   2
BRANCH   1  73
ATOM     73  C   UNL A   1      32.342  25.872  26.327  1.00  0.00     0.116 C 
BRANCH  73  74
ATOM     74  N   UNL A   1      33.685  25.626  25.848  1.00  0.00    -0.354 N 
ATOM     75  C   UNL A   1      34.109  24.763  24.873  1.00  0.00     0.242 C 
ATOM     76  H   UNL A   1      34.393  26.154  26.283  1.00  0.00     0.163 HD
ATOM     77  O   UNL A   1      35.327  24.609  24.764  1.00  0.00    -0.273 OA
BRANCH  75  78
ATOM     78  C   UNL A   1      33.065  24.080  23.943  1.00  0.00     0.177 C 
ATOM     79  C   UNL A   1      33.205  22.548  23.935  1.00  0.00     0.069 C 
ATOM     80  N   UNL A   1      33.186  24.428  22.513  1.00  0.00    -0.327 N 
ATOM     81  C   UNL A   1      32.680  22.133  22.573  1.00  0.00     0.136 C 
ATOM     82  C   UNL A   1      33.211  23.235  21.670  1.00  0.00     0.152 C 
BRANCH  80  83
ATOM     83  C   UNL A   1      33.083  25.730  22.080  1.00  0.00     0.233 C 
ATOM     84  O   UNL A   1      34.091  26.441  21.992  1.00  0.00    -0.274 OA
BRANCH  83  85
ATOM     85  C   UNL A   1      31.715  26.360  21.844  1.00  0.00     0.175 C 
BRANCH  85  86
ATOM     86  S   UNL A   1      30.515  26.313  23.218  1.00  0.00    -0.113 SA
BRANCH  86  87
ATOM     87  C   UNL A   1      29.583  27.804  22.936  1.00  0.00     0.044 A 
ATOM     88  C   UNL A   1      30.245  28.940  22.458  1.00  0.00     0.021 A 
ATOM     89  C   UNL A   1      28.229  27.908  23.281  1.00  0.00     0.139 A 
ATOM     90  C   UNL A   1      29.548  30.139  22.287  1.00  0.00     0.040 A 
ATOM     91  C   UNL A   1      27.520  29.087  23.078  1.00  0.00     0.079 A 
ATOM     92  F   UNL A   1      27.601  26.880  23.871  1.00  0.00    -0.206 F 
ATOM     93  C   UNL A   1      28.189  30.196  22.583  1.00  0.00     0.126 A 
ATOM     94  F   UNL A   1      27.529  31.348  22.413  1.00  0.00    -0.207 F 
ENDBRANCH  86  87
ENDBRANCH  85  86
ENDBRANCH  83  85
ENDBRANCH  80  83
BRANCH  81  95
ATOM     95  O   UNL A   1      31.254  22.109  22.584  1.00  0.00    -0.391 OA
ATOM     96  H   UNL A   1      30.919  22.359  21.709  1.00  0.00     0.211 HD
ENDBRANCH  81  95
ENDBRANCH  75  78
ENDBRANCH  73  74
ENDBRANCH   1  73
TORSDOF 19
ENDMDL
MODEL 3
REMARK VINA RESULT:     -11.1      5.780     10.898
REMARK SMILES O=C(NCCCCNC(=O)[C@@H]1C[C@@H](O)CN1C(=O)CSc1ccc(F)cc1F)c1ccc(-c2c3nc(c(-c4cccc(S(=O)(=O)[O-])c4F)c4ccc([nH]4)c(-c4cccc(S(=O)(=O)[O-])c4F)c4nc(c(-c5cccc(S(=O)(=O)[O-])c5F)c5ccc2[nH]5)C=C4)C=C3)cc1
REMARK SMILES IDX 6 1 5 2 4 3 3 4 1 5 2 6 29 8 30 9 91 10 31 11 90 12 32 13
REMARK SMILES IDX 33 14 34 15 84 16 35 17 89 18 83 19 85 20 36 21 88 22 82 23
REMARK SMILES IDX 81 24 37 26 69 27 49 28 68 29 50 30 53 31 67 32 86 33 51 34
REMARK SMILES IDX 52 35 66 37 87 38 54 39 38 40 39 41 47 42 40 43 42 44 48 45
REMARK SMILES IDX 41 46 43 47 44 48 45 49 46 50 70 51 71 52 79 53 72 54 74 55
REMARK SMILES IDX 80 56 73 57 75 58 76 59 77 60 78 61 55 62 56 63 64 64 57 65
REMARK SMILES IDX 59 66 65 67 58 68 60 69 61 70 62 71 63 72 7 73 8 74 9 75
REMARK SMILES IDX 10 77 11 78 12 79 16 80 13 81 15 82 17 83 18 84 19 85 20 86
REMARK SMILES IDX 21 87 22 88 27 89 23 90 26 91 28 92 24 93 25 94 14 95
REMARK H PARENT 3 7 85 25 53 36 8 76 14 96
REMARK Flexibility Score: inf
ROOT
ATOM      1  C   UNL A   1      36.674  20.243  25.060  1.00  0.00     0.023 C 
ENDROOT
BRANCH   1   2
ATOM      2  C   UNL A   1      38.058  19.649  24.800  1.00  0.00     0.023 C 
BRANCH   2   3
ATOM      3  C   UNL A   1      39.129  20.101  25.782  1.00  0.00     0.116 C 
BRANCH   3   4
ATOM      4  N   UNL A   1      40.261  19.193  25.848  1.00  0.00    -0.352 N 
ATOM      5  O   UNL A   1      42.437  18.637  26.038  1.00  0.00    -0.269 OA
ATOM      6  C   UNL A   1      41.573  19.495  26.125  1.00  0.00     0.251 C 
ATOM      7  H   UNL A   1      40.064  18.244  25.670  1.00  0.00     0.163 HD
BRANCH   6   8
ATOM      8  C   UNL A   1      41.908  20.886  26.482  1.00  0.00     0.039 A 
ATOM      9  C   UNL A   1      41.957  21.878  25.497  1.00  0.00     0.014 A 
ATOM     10  C   UNL A   1      42.225  21.178  27.809  1.00  0.00     0.014 A 
ATOM     11  C   UNL A   1      42.432  23.143  25.819  1.00  0.00     0.010 A 
ATOM     12  C   UNL A   1      42.639  22.465  28.143  1.00  0.00     0.010 A 
ATOM     13  C   UNL A   1      42.769  23.447  27.147  1.00  0.00    -0.014 A 
BRANCH  13  14
ATOM     14  C   UNL A   1      43.188  24.818  27.512  1.00  0.00     0.031 A 
ATOM     15  C   UNL A   1      42.212  25.783  28.114  1.00  0.00     0.074 A 
ATOM     16  C   UNL A   1      44.444  25.202  27.219  1.00  0.00     0.049 A 
ATOM     17  N   UNL A   1      42.376  27.048  28.395  1.00  0.00    -0.248 NA
ATOM     18  C   UNL A   1      40.872  25.265  28.434  1.00  0.00     0.031 C 
ATOM     19  C   UNL A   1      45.456  24.349  26.592  1.00  0.00     0.029 A 
ATOM     20  N   UNL A   1      45.070  26.411  27.369  1.00  0.00    -0.354 N 
ATOM     21  C   UNL A   1      41.152  27.494  28.877  1.00  0.00     0.074 A 
ATOM     22  C   UNL A   1      40.253  26.360  28.856  1.00  0.00     0.031 C 
ATOM     23  C   UNL A   1      46.569  25.067  26.389  1.00  0.00     0.029 A 
ATOM     24  C   UNL A   1      46.332  26.438  26.824  1.00  0.00     0.049 A 
ATOM     25  H   UNL A   1      44.658  27.183  27.821  1.00  0.00     0.167 HD
ATOM     26  C   UNL A   1      40.817  28.733  29.308  1.00  0.00     0.034 A 
ATOM     27  C   UNL A   1      47.190  27.461  26.655  1.00  0.00     0.034 A 
ATOM     28  C   UNL A   1      41.735  29.841  29.355  1.00  0.00     0.049 A 
ATOM     29  C   UNL A   1      46.805  28.819  27.161  1.00  0.00     0.074 A 
ATOM     30  C   UNL A   1      41.521  31.114  29.851  1.00  0.00     0.029 A 
ATOM     31  N   UNL A   1      43.037  29.809  28.877  1.00  0.00    -0.354 N 
ATOM     32  N   UNL A   1      45.690  29.192  27.743  1.00  0.00    -0.248 NA
ATOM     33  C   UNL A   1      47.799  29.891  27.020  1.00  0.00     0.031 C 
ATOM     34  C   UNL A   1      42.689  31.859  29.658  1.00  0.00     0.029 A 
ATOM     35  C   UNL A   1      43.637  31.045  29.056  1.00  0.00     0.049 A 
ATOM     36  H   UNL A   1      43.471  29.025  28.471  1.00  0.00     0.167 HD
ATOM     37  C   UNL A   1      45.856  30.533  28.063  1.00  0.00     0.074 A 
ATOM     38  C   UNL A   1      47.186  30.904  27.622  1.00  0.00     0.031 C 
ATOM     39  C   UNL A   1      44.981  31.380  28.658  1.00  0.00     0.034 A 
BRANCH  26  40
ATOM     40  C   UNL A   1      39.408  28.949  29.793  1.00  0.00     0.023 A 
ATOM     41  C   UNL A   1      39.043  28.517  31.084  1.00  0.00     0.012 A 
ATOM     42  C   UNL A   1      38.460  29.620  28.995  1.00  0.00     0.148 A 
ATOM     43  C   UNL A   1      37.748  28.720  31.561  1.00  0.00     0.002 A 
ATOM     44  C   UNL A   1      37.181  29.850  29.492  1.00  0.00     0.091 A 
ATOM     45  F   UNL A   1      38.814  30.000  27.760  1.00  0.00    -0.205 F 
ATOM     46  C   UNL A   1      36.821  29.393  30.770  1.00  0.00     0.022 A 
BRANCH  44  47
ATOM     47  S   UNL A   1      35.953  30.774  28.562  1.00  0.00     0.127 S 
ATOM     48  O   UNL A   1      34.946  31.043  29.587  1.00  0.00    -0.237 OA
ATOM     49  O   UNL A   1      36.705  31.952  28.127  1.00  0.00    -0.237 OA
ATOM     50  O   UNL A   1      35.540  29.893  27.479  1.00  0.00    -0.744 OA
ENDBRANCH  44  47
ENDBRANCH  26  40
BRANCH  27  51
ATOM     51  C   UNL A   1      48.503  27.197  26.007  1.00  0.00     0.023 A 
ATOM     52  C   UNL A   1      49.519  26.559  26.740  1.00  0.00     0.012 A 
ATOM     53  C   UNL A   1      48.701  27.464  24.637  1.00  0.00     0.148 A 
ATOM     54  C   UNL A   1      50.715  26.195  26.121  1.00  0.00     0.002 A 
ATOM     55  C   UNL A   1      49.871  27.047  24.014  1.00  0.00     0.091 A 
ATOM     56  F   UNL A   1      47.719  28.079  23.962  1.00  0.00    -0.205 F 
ATOM     57  C   UNL A   1      50.885  26.425  24.758  1.00  0.00     0.022 A 
BRANCH  55  58
ATOM     58  S   UNL A   1      50.111  27.162  22.238  1.00  0.00     0.127 S 
ATOM     59  O   UNL A   1      49.022  26.329  21.734  1.00  0.00    -0.237 OA
ATOM     60  O   UNL A   1      49.947  28.599  22.005  1.00  0.00    -0.237 OA
ATOM     61  O   UNL A   1      51.456  26.664  21.988  1.00  0.00    -0.744 OA
ENDBRANCH  55  58
ENDBRANCH  27  51
BRANCH  39  62
ATOM     62  C   UNL A   1      45.434  32.794  28.897  1.00  0.00     0.023 A 
ATOM     63  C   UNL A   1      46.167  33.103  30.059  1.00  0.00     0.012 A 
ATOM     64  C   UNL A   1      45.223  33.788  27.922  1.00  0.00     0.148 A 
ATOM     65  C   UNL A   1      46.675  34.386  30.252  1.00  0.00     0.002 A 
ATOM     66  C   UNL A   1      45.769  35.053  28.101  1.00  0.00     0.091 A 
ATOM     67  F   UNL A   1      44.505  33.474  26.834  1.00  0.00    -0.205 F 
ATOM     68  C   UNL A   1      46.488  35.356  29.269  1.00  0.00     0.022 A 
BRANCH  66  69
ATOM     69  S   UNL A   1      45.656  36.337  26.851  1.00  0.00     0.127 S 
ATOM     70  O   UNL A   1      46.185  35.654  25.673  1.00  0.00    -0.237 OA
ATOM     71  O   UNL A   1      44.218  36.604  26.808  1.00  0.00    -0.237 OA
ATOM     72  O   UNL A   1      46.462  37.448  27.340  1.00  0.00    -0.744 OA
ENDBRANCH  66  69
ENDBRANCH  39  62
ENDBRANCH  13  14
ENDBRANCH   6   8
ENDBRANCH   3   4
ENDBRANCH   2   3
ENDBRANCH   1   2
BRANCH   1  73
ATOM     73  C   UNL A   1      36.683  21.743  25.370  1.00  0.00     0.116 C 
BRANCH  73  74
ATOM     74  N   UNL A   1      36.401  22.501  24.171  1.00  0.00    -0.354 N 
ATOM     75  C   UNL A   1      35.191  22.806  23.607  1.00  0.00     0.242 C 
ATOM     76  H   UNL A   1      37.190  22.849  23.695  1.00  0.00     0.163 HD
ATOM     77  O   UNL A   1      35.218  23.322  22.488  1.00  0.00    -0.273 OA
BRANCH  75  78
ATOM     78  C   UNL A   1      33.882  22.543  24.405  1.00  0.00     0.177 C 
ATOM     79  C   UNL A   1      33.289  21.154  24.112  1.00  0.00     0.069 C 
ATOM     80  N   UNL A   1      32.764  23.451  24.082  1.00  0.00    -0.327 N 
ATOM     81  C   UNL A   1      31.801  21.324  24.356  1.00  0.00     0.136 C 
ATOM     82  C   UNL A   1      31.537  22.712  23.795  1.00  0.00     0.152 C 
BRANCH  80  83
ATOM     83  C   UNL A   1      32.876  24.814  24.241  1.00  0.00     0.233 C 
ATOM     84  O   UNL A   1      33.628  25.281  25.105  1.00  0.00    -0.274 OA
BRANCH  83  85
ATOM     85  C   UNL A   1      31.970  25.761  23.463  1.00  0.00     0.175 C 
BRANCH  85  86
ATOM     86  S   UNL A   1      30.477  26.385  24.306  1.00  0.00    -0.113 SA
BRANCH  86  87
ATOM     87  C   UNL A   1      31.141  27.718  25.281  1.00  0.00     0.044 A 
ATOM     88  C   UNL A   1      31.380  27.511  26.645  1.00  0.00     0.021 A 
ATOM     89  C   UNL A   1      31.332  29.001  24.751  1.00  0.00     0.139 A 
ATOM     90  C   UNL A   1      31.843  28.559  27.443  1.00  0.00     0.040 A 
ATOM     91  C   UNL A   1      31.829  30.040  25.532  1.00  0.00     0.079 A 
ATOM     92  F   UNL A   1      30.981  29.268  23.484  1.00  0.00    -0.206 F 
ATOM     93  C   UNL A   1      32.079  29.808  26.876  1.00  0.00     0.126 A 
ATOM     94  F   UNL A   1      32.526  30.805  27.649  1.00  0.00    -0.207 F 
ENDBRANCH  86  87
ENDBRANCH  85  86
ENDBRANCH  83  85
ENDBRANCH  80  83
BRANCH  81  95
ATOM     95  O   UNL A   1      31.524  21.265  25.754  1.00  0.00    -0.391 OA
ATOM     96  H   UNL A   1      30.959  20.498  25.940  1.00  0.00     0.211 HD
ENDBRANCH  81  95
ENDBRANCH  75  78
ENDBRANCH  73  74
ENDBRANCH   1  73
TORSDOF 19
ENDMDL
