MODEL 1
REMARK VINA RESULT:     -12.3      0.000      0.000
REMARK SMILES O=C(NCCCCNC(=O)c1ccc(N[C@@H]2CCCS(=O)(=O)C2)c(F)c1F)c1ccc(-c2c3nc(c(-c4cccc(S(=O)(=O)[O-])c4F)c4ccc([nH]4)c(-c4cccc(S(=O)(=O)[O-])c4F)c4nc(c(-c5cccc(S(=O)(=O)[O-])c5F)c5ccc2[nH]5)C=C4)C=C3)cc1
REMARK SMILES IDX 5 1 4 2 3 3 1 4 2 5 28 7 29 8 90 9 30 10 89 11 31 12 32 13
REMARK SMILES IDX 33 14 83 15 34 16 88 17 82 18 84 19 35 20 87 21 81 22 80 23
REMARK SMILES IDX 36 25 68 26 48 27 67 28 49 29 52 30 66 31 85 32 50 33 51 34
REMARK SMILES IDX 65 36 86 37 53 38 37 39 38 40 46 41 39 42 41 43 47 44 40 45
REMARK SMILES IDX 42 46 43 47 44 48 45 49 69 50 70 51 78 52 71 53 73 54 79 55
REMARK SMILES IDX 72 56 74 57 75 58 76 59 77 60 54 61 55 62 63 63 56 64 58 65
REMARK SMILES IDX 64 66 57 67 59 68 60 69 61 70 62 71 6 72 7 73 8 74 9 75
REMARK SMILES IDX 10 77 11 78 12 79 26 80 13 81 24 82 27 83 14 84 25 85 15 86
REMARK SMILES IDX 16 88 17 89 23 90 18 91 20 92 19 93 21 94 22 95
REMARK H PARENT 3 6 84 24 52 35 8 76 15 87
REMARK Flexibility Score: inf
ROOT
ATOM      1  C   UNL A   1      32.949  27.920  26.456  1.00  0.00     0.023 C 
ENDROOT
BRANCH   1   2
ATOM      2  C   UNL A   1      33.975  28.934  25.972  1.00  0.00     0.116 C 
BRANCH   2   3
ATOM      3  N   UNL A   1      33.773  30.260  26.534  1.00  0.00    -0.352 N 
ATOM      4  O   UNL A   1      34.090  31.966  27.975  1.00  0.00    -0.269 OA
ATOM      5  C   UNL A   1      34.496  30.904  27.514  1.00  0.00     0.251 C 
ATOM      6  H   UNL A   1      33.016  30.768  26.162  1.00  0.00     0.163 HD
BRANCH   5   7
ATOM      7  C   UNL A   1      35.739  30.285  28.021  1.00  0.00     0.039 A 
ATOM      8  C   UNL A   1      35.745  29.630  29.255  1.00  0.00     0.014 A 
ATOM      9  C   UNL A   1      36.914  30.390  27.275  1.00  0.00     0.014 A 
ATOM     10  C   UNL A   1      36.951  29.238  29.820  1.00  0.00     0.010 A 
ATOM     11  C   UNL A   1      38.113  29.897  27.801  1.00  0.00     0.010 A 
ATOM     12  C   UNL A   1      38.147  29.351  29.094  1.00  0.00    -0.014 A 
BRANCH  12  13
ATOM     13  C   UNL A   1      39.401  28.811  29.678  1.00  0.00     0.031 A 
ATOM     14  C   UNL A   1      40.013  29.402  30.918  1.00  0.00     0.074 A 
ATOM     15  C   UNL A   1      39.994  27.769  29.063  1.00  0.00     0.049 A 
ATOM     16  N   UNL A   1      41.097  29.034  31.552  1.00  0.00    -0.248 NA
ATOM     17  C   UNL A   1      39.330  30.556  31.523  1.00  0.00     0.031 C 
ATOM     18  C   UNL A   1      39.518  27.145  27.825  1.00  0.00     0.029 A 
ATOM     19  N   UNL A   1      41.122  27.057  29.380  1.00  0.00    -0.354 N 
ATOM     20  C   UNL A   1      41.255  29.933  32.600  1.00  0.00     0.074 A 
ATOM     21  C   UNL A   1      40.153  30.869  32.515  1.00  0.00     0.031 C 
ATOM     22  C   UNL A   1      40.336  26.136  27.497  1.00  0.00     0.029 A 
ATOM     23  C   UNL A   1      41.426  26.081  28.462  1.00  0.00     0.049 A 
ATOM     24  H   UNL A   1      41.659  27.228  30.186  1.00  0.00     0.167 HD
ATOM     25  C   UNL A   1      42.221  29.968  33.550  1.00  0.00     0.034 A 
ATOM     26  C   UNL A   1      42.482  25.250  28.381  1.00  0.00     0.034 A 
ATOM     27  C   UNL A   1      43.298  29.015  33.640  1.00  0.00     0.049 A 
ATOM     28  C   UNL A   1      43.527  25.300  29.455  1.00  0.00     0.074 A 
ATOM     29  C   UNL A   1      44.282  28.920  34.609  1.00  0.00     0.029 A 
ATOM     30  N   UNL A   1      43.547  28.007  32.720  1.00  0.00    -0.354 N 
ATOM     31  N   UNL A   1      43.581  26.066  30.517  1.00  0.00    -0.248 NA
ATOM     32  C   UNL A   1      44.642  24.350  29.339  1.00  0.00     0.031 C 
ATOM     33  C   UNL A   1      45.146  27.877  34.256  1.00  0.00     0.029 A 
ATOM     34  C   UNL A   1      44.680  27.298  33.086  1.00  0.00     0.049 A 
ATOM     35  H   UNL A   1      43.001  27.823  31.922  1.00  0.00     0.167 HD
ATOM     36  C   UNL A   1      44.721  25.679  31.208  1.00  0.00     0.074 A 
ATOM     37  C   UNL A   1      45.312  24.589  30.458  1.00  0.00     0.031 C 
ATOM     38  C   UNL A   1      45.237  26.189  32.353  1.00  0.00     0.034 A 
BRANCH  25  39
ATOM     39  C   UNL A   1      42.152  31.060  34.588  1.00  0.00     0.023 A 
ATOM     40  C   UNL A   1      41.515  30.817  35.822  1.00  0.00     0.012 A 
ATOM     41  C   UNL A   1      42.776  32.304  34.369  1.00  0.00     0.148 A 
ATOM     42  C   UNL A   1      41.468  31.805  36.805  1.00  0.00     0.002 A 
ATOM     43  C   UNL A   1      42.763  33.269  35.370  1.00  0.00     0.091 A 
ATOM     44  F   UNL A   1      43.362  32.527  33.183  1.00  0.00    -0.205 F 
ATOM     45  C   UNL A   1      42.100  33.026  36.583  1.00  0.00     0.022 A 
BRANCH  43  46
ATOM     46  S   UNL A   1      43.618  34.843  35.211  1.00  0.00     0.127 S 
ATOM     47  O   UNL A   1      42.729  35.569  34.306  1.00  0.00    -0.237 OA
ATOM     48  O   UNL A   1      43.618  35.334  36.590  1.00  0.00    -0.237 OA
ATOM     49  O   UNL A   1      44.936  34.529  34.680  1.00  0.00    -0.744 OA
ENDBRANCH  43  46
ENDBRANCH  25  39
BRANCH  26  50
ATOM     50  C   UNL A   1      42.576  24.294  27.244  1.00  0.00     0.023 A 
ATOM     51  C   UNL A   1      43.284  24.657  26.084  1.00  0.00     0.012 A 
ATOM     52  C   UNL A   1      42.017  23.004  27.337  1.00  0.00     0.148 A 
ATOM     53  C   UNL A   1      43.415  23.758  25.024  1.00  0.00     0.002 A 
ATOM     54  C   UNL A   1      42.205  22.093  26.305  1.00  0.00     0.091 A 
ATOM     55  F   UNL A   1      41.340  22.685  28.449  1.00  0.00    -0.205 F 
ATOM     56  C   UNL A   1      42.887  22.474  25.140  1.00  0.00     0.022 A 
BRANCH  54  57
ATOM     57  S   UNL A   1      41.692  20.377  26.435  1.00  0.00     0.127 S 
ATOM     58  O   UNL A   1      42.417  19.765  25.324  1.00  0.00    -0.237 OA
ATOM     59  O   UNL A   1      42.181  20.016  27.766  1.00  0.00    -0.237 OA
ATOM     60  O   UNL A   1      40.240  20.390  26.314  1.00  0.00    -0.744 OA
ENDBRANCH  54  57
ENDBRANCH  26  50
BRANCH  38  61
ATOM     61  C   UNL A   1      46.496  25.556  32.887  1.00  0.00     0.023 A 
ATOM     62  C   UNL A   1      47.754  26.064  32.508  1.00  0.00     0.012 A 
ATOM     63  C   UNL A   1      46.427  24.495  33.812  1.00  0.00     0.148 A 
ATOM     64  C   UNL A   1      48.926  25.504  33.015  1.00  0.00     0.002 A 
ATOM     65  C   UNL A   1      47.597  23.976  34.352  1.00  0.00     0.091 A 
ATOM     66  F   UNL A   1      45.221  24.012  34.143  1.00  0.00    -0.205 F 
ATOM     67  C   UNL A   1      48.847  24.469  33.945  1.00  0.00     0.022 A 
BRANCH  65  68
ATOM     68  S   UNL A   1      47.590  22.709  35.625  1.00  0.00     0.127 S 
ATOM     69  O   UNL A   1      46.682  23.287  36.615  1.00  0.00    -0.237 OA
ATOM     70  O   UNL A   1      47.055  21.552  34.908  1.00  0.00    -0.237 OA
ATOM     71  O   UNL A   1      48.974  22.566  36.058  1.00  0.00    -0.744 OA
ENDBRANCH  65  68
ENDBRANCH  38  61
ENDBRANCH  12  13
ENDBRANCH   5   7
ENDBRANCH   2   3
ENDBRANCH   1   2
BRANCH   1  72
ATOM     72  C   UNL A   1      33.277  26.468  26.129  1.00  0.00     0.023 C 
BRANCH  72  73
ATOM     73  C   UNL A   1      32.374  25.830  25.081  1.00  0.00     0.116 C 
BRANCH  73  74
ATOM     74  N   UNL A   1      32.797  26.109  23.715  1.00  0.00    -0.352 N 
ATOM     75  C   UNL A   1      33.547  25.325  22.868  1.00  0.00     0.254 C 
ATOM     76  H   UNL A   1      32.506  26.975  23.347  1.00  0.00     0.163 HD
ATOM     77  O   UNL A   1      33.872  25.717  21.755  1.00  0.00    -0.269 OA
BRANCH  75  78
ATOM     78  C   UNL A   1      33.921  23.978  23.313  1.00  0.00     0.078 A 
ATOM     79  C   UNL A   1      33.165  22.889  22.882  1.00  0.00     0.019 A 
ATOM     80  C   UNL A   1      34.959  23.794  24.214  1.00  0.00     0.173 A 
ATOM     81  C   UNL A   1      33.367  21.637  23.458  1.00  0.00     0.030 A 
ATOM     82  C   UNL A   1      35.182  22.524  24.744  1.00  0.00     0.182 A 
ATOM     83  F   UNL A   1      35.705  24.825  24.633  1.00  0.00    -0.203 F 
ATOM     84  C   UNL A   1      34.370  21.420  24.409  1.00  0.00     0.074 A 
ATOM     85  F   UNL A   1      36.165  22.356  25.645  1.00  0.00    -0.201 F 
BRANCH  84  86
ATOM     86  N   UNL A   1      34.577  20.204  25.045  1.00  0.00    -0.379 N 
ATOM     87  H   UNL A   1      35.144  20.231  25.849  1.00  0.00     0.160 HD
BRANCH  86  88
ATOM     88  C   UNL A   1      34.056  18.883  24.672  1.00  0.00     0.094 C 
ATOM     89  C   UNL A   1      32.685  18.648  25.342  1.00  0.00     0.027 C 
ATOM     90  C   UNL A   1      35.134  17.817  24.857  1.00  0.00     0.161 C 
ATOM     91  C   UNL A   1      32.104  17.245  25.182  1.00  0.00     0.018 C 
ATOM     92  S   UNL A   1      34.518  16.190  24.556  1.00  0.00     0.152 S 
ATOM     93  C   UNL A   1      33.081  16.161  25.599  1.00  0.00     0.137 C 
ATOM     94  O   UNL A   1      35.475  15.243  25.092  1.00  0.00    -0.229 OA
ATOM     95  O   UNL A   1      34.086  16.111  23.173  1.00  0.00    -0.229 OA
ENDBRANCH  86  88
ENDBRANCH  84  86
ENDBRANCH  75  78
ENDBRANCH  73  74
ENDBRANCH  72  73
ENDBRANCH   1  72
TORSDOF 16
ENDMDL
MODEL 2
REMARK VINA RESULT:     -12.2      5.301      8.975
REMARK SMILES O=C(NCCCCNC(=O)c1ccc(N[C@@H]2CCCS(=O)(=O)C2)c(F)c1F)c1ccc(-c2c3nc(c(-c4cccc(S(=O)(=O)[O-])c4F)c4ccc([nH]4)c(-c4cccc(S(=O)(=O)[O-])c4F)c4nc(c(-c5cccc(S(=O)(=O)[O-])c5F)c5ccc2[nH]5)C=C4)C=C3)cc1
REMARK SMILES IDX 5 1 4 2 3 3 1 4 2 5 28 7 29 8 90 9 30 10 89 11 31 12 32 13
REMARK SMILES IDX 33 14 83 15 34 16 88 17 82 18 84 19 35 20 87 21 81 22 80 23
REMARK SMILES IDX 36 25 68 26 48 27 67 28 49 29 52 30 66 31 85 32 50 33 51 34
REMARK SMILES IDX 65 36 86 37 53 38 37 39 38 40 46 41 39 42 41 43 47 44 40 45
REMARK SMILES IDX 42 46 43 47 44 48 45 49 69 50 70 51 78 52 71 53 73 54 79 55
REMARK SMILES IDX 72 56 74 57 75 58 76 59 77 60 54 61 55 62 63 63 56 64 58 65
REMARK SMILES IDX 64 66 57 67 59 68 60 69 61 70 62 71 6 72 7 73 8 74 9 75
REMARK SMILES IDX 10 77 11 78 12 79 26 80 13 81 24 82 27 83 14 84 25 85 15 86
REMARK SMILES IDX 16 88 17 89 23 90 18 91 20 92 19 93 21 94 22 95
REMARK H PARENT 3 6 84 24 52 35 8 76 15 87
REMARK Flexibility Score: inf
ROOT
ATOM      1  C   UNL A   1      37.632  20.001  24.830  1.00  0.00     0.023 C 
ENDROOT
BRANCH   1   2
ATOM      2  C   UNL A   1      38.750  20.443  25.764  1.00  0.00     0.116 C 
BRANCH   2   3
ATOM      3  N   UNL A   1      39.787  19.435  25.926  1.00  0.00    -0.352 N 
ATOM      4  O   UNL A   1      41.890  18.647  26.128  1.00  0.00    -0.269 OA
ATOM      5  C   UNL A   1      41.131  19.609  26.171  1.00  0.00     0.251 C 
ATOM      6  H   UNL A   1      39.486  18.501  25.851  1.00  0.00     0.163 HD
BRANCH   5   7
ATOM      7  C   UNL A   1      41.646  20.967  26.452  1.00  0.00     0.039 A 
ATOM      8  C   UNL A   1      41.788  21.406  27.769  1.00  0.00     0.014 A 
ATOM      9  C   UNL A   1      41.955  21.818  25.389  1.00  0.00     0.014 A 
ATOM     10  C   UNL A   1      42.068  22.742  28.023  1.00  0.00     0.010 A 
ATOM     11  C   UNL A   1      42.342  23.136  25.651  1.00  0.00     0.010 A 
ATOM     12  C   UNL A   1      42.365  23.619  26.969  1.00  0.00    -0.014 A 
BRANCH  12  13
ATOM     13  C   UNL A   1      42.779  25.010  27.281  1.00  0.00     0.031 A 
ATOM     14  C   UNL A   1      41.845  25.982  27.948  1.00  0.00     0.074 A 
ATOM     15  C   UNL A   1      44.026  25.396  26.944  1.00  0.00     0.049 A 
ATOM     16  N   UNL A   1      42.064  27.225  28.294  1.00  0.00    -0.248 NA
ATOM     17  C   UNL A   1      40.489  25.505  28.262  1.00  0.00     0.031 C 
ATOM     18  C   UNL A   1      45.003  24.555  26.248  1.00  0.00     0.029 A 
ATOM     19  N   UNL A   1      44.683  26.585  27.128  1.00  0.00    -0.354 N 
ATOM     20  C   UNL A   1      40.868  27.695  28.822  1.00  0.00     0.074 A 
ATOM     21  C   UNL A   1      39.922  26.602  28.750  1.00  0.00     0.031 C 
ATOM     22  C   UNL A   1      46.138  25.246  26.078  1.00  0.00     0.029 A 
ATOM     23  C   UNL A   1      45.949  26.595  26.594  1.00  0.00     0.049 A 
ATOM     24  H   UNL A   1      44.287  27.354  27.596  1.00  0.00     0.167 HD
ATOM     25  C   UNL A   1      40.590  28.920  29.331  1.00  0.00     0.034 A 
ATOM     26  C   UNL A   1      46.853  27.588  26.497  1.00  0.00     0.034 A 
ATOM     27  C   UNL A   1      41.547  29.993  29.422  1.00  0.00     0.049 A 
ATOM     28  C   UNL A   1      46.523  28.928  27.084  1.00  0.00     0.074 A 
ATOM     29  C   UNL A   1      41.383  31.244  29.991  1.00  0.00     0.029 A 
ATOM     30  N   UNL A   1      42.838  29.952  28.916  1.00  0.00    -0.354 N 
ATOM     31  N   UNL A   1      45.436  29.309  27.707  1.00  0.00    -0.248 NA
ATOM     32  C   UNL A   1      47.556  29.968  26.982  1.00  0.00     0.031 C 
ATOM     33  C   UNL A   1      42.563  31.972  29.797  1.00  0.00     0.029 A 
ATOM     34  C   UNL A   1      43.476  31.162  29.140  1.00  0.00     0.049 A 
ATOM     35  H   UNL A   1      43.242  29.177  28.463  1.00  0.00     0.167 HD
ATOM     36  C   UNL A   1      45.658  30.624  28.093  1.00  0.00     0.074 A 
ATOM     37  C   UNL A   1      46.998  30.964  27.657  1.00  0.00     0.031 C 
ATOM     38  C   UNL A   1      44.823  31.476  28.736  1.00  0.00     0.034 A 
BRANCH  25  39
ATOM     39  C   UNL A   1      39.196  29.168  29.851  1.00  0.00     0.023 A 
ATOM     40  C   UNL A   1      38.836  28.717  31.137  1.00  0.00     0.012 A 
ATOM     41  C   UNL A   1      38.263  29.906  29.095  1.00  0.00     0.148 A 
ATOM     42  C   UNL A   1      37.561  28.963  31.647  1.00  0.00     0.002 A 
ATOM     43  C   UNL A   1      37.009  30.186  29.627  1.00  0.00     0.091 A 
ATOM     44  F   UNL A   1      38.614  30.313  27.866  1.00  0.00    -0.205 F 
ATOM     45  C   UNL A   1      36.652  29.705  30.897  1.00  0.00     0.022 A 
BRANCH  43  46
ATOM     46  S   UNL A   1      35.799  31.203  28.772  1.00  0.00     0.127 S 
ATOM     47  O   UNL A   1      36.635  32.288  28.262  1.00  0.00    -0.237 OA
ATOM     48  O   UNL A   1      35.296  30.287  27.746  1.00  0.00    -0.237 OA
ATOM     49  O   UNL A   1      34.816  31.585  29.776  1.00  0.00    -0.744 OA
ENDBRANCH  43  46
ENDBRANCH  25  39
BRANCH  26  50
ATOM     50  C   UNL A   1      48.159  27.327  25.832  1.00  0.00     0.023 A 
ATOM     51  C   UNL A   1      49.235  26.818  26.581  1.00  0.00     0.012 A 
ATOM     52  C   UNL A   1      48.315  27.523  24.445  1.00  0.00     0.148 A 
ATOM     53  C   UNL A   1      50.454  26.530  25.965  1.00  0.00     0.002 A 
ATOM     54  C   UNL A   1      49.510  27.176  23.828  1.00  0.00     0.091 A 
ATOM     55  F   UNL A   1      47.278  28.017  23.754  1.00  0.00    -0.205 F 
ATOM     56  C   UNL A   1      50.586  26.697  24.589  1.00  0.00     0.022 A 
BRANCH  54  57
ATOM     57  S   UNL A   1      49.716  27.215  22.044  1.00  0.00     0.127 S 
ATOM     58  O   UNL A   1      49.432  28.615  21.742  1.00  0.00    -0.237 OA
ATOM     59  O   UNL A   1      51.117  26.821  21.895  1.00  0.00    -0.237 OA
ATOM     60  O   UNL A   1      48.763  26.247  21.517  1.00  0.00    -0.744 OA
ENDBRANCH  54  57
ENDBRANCH  26  50
BRANCH  38  61
ATOM     61  C   UNL A   1      45.342  32.857  29.038  1.00  0.00     0.023 A 
ATOM     62  C   UNL A   1      45.974  33.117  30.271  1.00  0.00     0.012 A 
ATOM     63  C   UNL A   1      45.257  33.882  28.075  1.00  0.00     0.148 A 
ATOM     64  C   UNL A   1      46.482  34.384  30.553  1.00  0.00     0.002 A 
ATOM     65  C   UNL A   1      45.811  35.127  28.342  1.00  0.00     0.091 A 
ATOM     66  F   UNL A   1      44.634  33.620  26.917  1.00  0.00    -0.205 F 
ATOM     67  C   UNL A   1      46.412  35.384  29.585  1.00  0.00     0.022 A 
BRANCH  65  68
ATOM     68  S   UNL A   1      45.853  36.445  27.123  1.00  0.00     0.127 S 
ATOM     69  O   UNL A   1      44.438  36.792  27.012  1.00  0.00    -0.237 OA
ATOM     70  O   UNL A   1      46.679  37.454  27.786  1.00  0.00    -0.237 OA
ATOM     71  O   UNL A   1      46.449  35.867  25.926  1.00  0.00    -0.744 OA
ENDBRANCH  65  68
ENDBRANCH  38  61
ENDBRANCH  12  13
ENDBRANCH   5   7
ENDBRANCH   2   3
ENDBRANCH   1   2
BRANCH   1  72
ATOM     72  C   UNL A   1      36.613  21.082  24.492  1.00  0.00     0.023 C 
BRANCH  72  73
ATOM     73  C   UNL A   1      35.482  21.231  25.501  1.00  0.00     0.116 C 
BRANCH  73  74
ATOM     74  N   UNL A   1      34.544  20.116  25.478  1.00  0.00    -0.352 N 
ATOM     75  C   UNL A   1      33.168  20.146  25.508  1.00  0.00     0.254 C 
ATOM     76  H   UNL A   1      34.948  19.220  25.435  1.00  0.00     0.163 HD
ATOM     77  O   UNL A   1      32.507  19.117  25.537  1.00  0.00    -0.269 OA
BRANCH  75  78
ATOM     78  C   UNL A   1      32.499  21.452  25.464  1.00  0.00     0.078 A 
ATOM     79  C   UNL A   1      32.266  22.134  26.658  1.00  0.00     0.019 A 
ATOM     80  C   UNL A   1      32.029  21.965  24.264  1.00  0.00     0.173 A 
ATOM     81  C   UNL A   1      31.448  23.261  26.660  1.00  0.00     0.030 A 
ATOM     82  C   UNL A   1      31.255  23.123  24.277  1.00  0.00     0.182 A 
ATOM     83  F   UNL A   1      32.252  21.331  23.104  1.00  0.00    -0.203 F 
ATOM     84  C   UNL A   1      30.913  23.782  25.476  1.00  0.00     0.074 A 
ATOM     85  F   UNL A   1      30.770  23.598  23.116  1.00  0.00    -0.201 F 
BRANCH  84  86
ATOM     86  N   UNL A   1      30.056  24.872  25.436  1.00  0.00    -0.379 N 
ATOM     87  H   UNL A   1      29.117  24.689  25.669  1.00  0.00     0.160 HD
BRANCH  86  88
ATOM     88  C   UNL A   1      30.370  26.264  25.091  1.00  0.00     0.094 C 
ATOM     89  C   UNL A   1      29.550  26.700  23.857  1.00  0.00     0.027 C 
ATOM     90  C   UNL A   1      31.883  26.472  25.053  1.00  0.00     0.161 C 
ATOM     91  C   UNL A   1      29.902  28.068  23.281  1.00  0.00     0.018 C 
ATOM     92  S   UNL A   1      32.317  28.094  24.506  1.00  0.00     0.152 S 
ATOM     93  C   UNL A   1      31.386  28.216  22.998  1.00  0.00     0.137 C 
ATOM     94  O   UNL A   1      33.724  28.087  24.160  1.00  0.00    -0.229 OA
ATOM     95  O   UNL A   1      31.786  29.055  25.454  1.00  0.00    -0.229 OA
ENDBRANCH  86  88
ENDBRANCH  84  86
ENDBRANCH  75  78
ENDBRANCH  73  74
ENDBRANCH  72  73
ENDBRANCH   1  72
TORSDOF 16
ENDMDL
MODEL 3
REMARK VINA RESULT:     -12.1      3.503      8.513
REMARK SMILES O=C(NCCCCNC(=O)c1ccc(N[C@@H]2CCCS(=O)(=O)C2)c(F)c1F)c1ccc(-c2c3nc(c(-c4cccc(S(=O)(=O)[O-])c4F)c4ccc([nH]4)c(-c4cccc(S(=O)(=O)[O-])c4F)c4nc(c(-c5cccc(S(=O)(=O)[O-])c5F)c5ccc2[nH]5)C=C4)C=C3)cc1
REMARK SMILES IDX 5 1 4 2 3 3 1 4 2 5 28 7 29 8 90 9 30 10 89 11 31 12 32 13
REMARK SMILES IDX 33 14 83 15 34 16 88 17 82 18 84 19 35 20 87 21 81 22 80 23
REMARK SMILES IDX 36 25 68 26 48 27 67 28 49 29 52 30 66 31 85 32 50 33 51 34
REMARK SMILES IDX 65 36 86 37 53 38 37 39 38 40 46 41 39 42 41 43 47 44 40 45
REMARK SMILES IDX 42 46 43 47 44 48 45 49 69 50 70 51 78 52 71 53 73 54 79 55
REMARK SMILES IDX 72 56 74 57 75 58 76 59 77 60 54 61 55 62 63 63 56 64 58 65
REMARK SMILES IDX 64 66 57 67 59 68 60 69 61 70 62 71 6 72 7 73 8 74 9 75
REMARK SMILES IDX 10 77 11 78 12 79 26 80 13 81 24 82 27 83 14 84 25 85 15 86
REMARK SMILES IDX 16 88 17 89 23 90 18 91 20 92 19 93 21 94 22 95
REMARK H PARENT 3 6 84 24 52 35 8 76 15 87
REMARK Flexibility Score: inf
ROOT
ATOM      1  C   UNL A   1      31.513  31.623  26.504  1.00  0.00     0.023 C 
ENDROOT
BRANCH   1   2
ATOM      2  C   UNL A   1      32.786  32.372  26.872  1.00  0.00     0.116 C 
BRANCH   2   3
ATOM      3  N   UNL A   1      32.533  33.723  27.349  1.00  0.00    -0.352 N 
ATOM      4  O   UNL A   1      32.679  35.482  28.752  1.00  0.00    -0.269 OA
ATOM      5  C   UNL A   1      33.124  34.398  28.393  1.00  0.00     0.251 C 
ATOM      6  H   UNL A   1      31.844  34.225  26.855  1.00  0.00     0.163 HD
BRANCH   5   7
ATOM      7  C   UNL A   1      34.274  33.783  29.093  1.00  0.00     0.039 A 
ATOM      8  C   UNL A   1      35.577  34.175  28.780  1.00  0.00     0.014 A 
ATOM      9  C   UNL A   1      34.048  32.784  30.041  1.00  0.00     0.014 A 
ATOM     10  C   UNL A   1      36.652  33.453  29.282  1.00  0.00     0.010 A 
ATOM     11  C   UNL A   1      35.136  32.129  30.626  1.00  0.00     0.010 A 
ATOM     12  C   UNL A   1      36.446  32.433  30.223  1.00  0.00    -0.014 A 
BRANCH  12  13
ATOM     13  C   UNL A   1      37.623  31.762  30.830  1.00  0.00     0.031 A 
ATOM     14  C   UNL A   1      38.419  30.730  30.080  1.00  0.00     0.074 A 
ATOM     15  C   UNL A   1      37.968  32.095  32.090  1.00  0.00     0.049 A 
ATOM     16  N   UNL A   1      39.476  30.065  30.473  1.00  0.00    -0.248 NA
ATOM     17  C   UNL A   1      37.971  30.391  28.721  1.00  0.00     0.031 C 
ATOM     18  C   UNL A   1      37.240  33.048  32.934  1.00  0.00     0.029 A 
ATOM     19  N   UNL A   1      39.001  31.672  32.885  1.00  0.00    -0.354 N 
ATOM     20  C   UNL A   1      39.794  29.199  29.433  1.00  0.00     0.074 A 
ATOM     21  C   UNL A   1      38.814  29.421  28.390  1.00  0.00     0.031 C 
ATOM     22  C   UNL A   1      37.856  33.148  34.119  1.00  0.00     0.029 A 
ATOM     23  C   UNL A   1      38.983  32.224  34.143  1.00  0.00     0.049 A 
ATOM     24  H   UNL A   1      39.688  31.035  32.583  1.00  0.00     0.167 HD
ATOM     25  C   UNL A   1      40.815  28.311  29.352  1.00  0.00     0.034 A 
ATOM     26  C   UNL A   1      39.763  31.993  35.215  1.00  0.00     0.034 A 
ATOM     27  C   UNL A   1      41.800  28.117  30.385  1.00  0.00     0.049 A 
ATOM     28  C   UNL A   1      40.895  31.017  35.090  1.00  0.00     0.074 A 
ATOM     29  C   UNL A   1      42.915  27.298  30.366  1.00  0.00     0.029 A 
ATOM     30  N   UNL A   1      41.779  28.731  31.629  1.00  0.00    -0.354 N 
ATOM     31  N   UNL A   1      41.264  30.313  34.049  1.00  0.00    -0.248 NA
ATOM     32  C   UNL A   1      41.738  30.826  36.278  1.00  0.00     0.031 C 
ATOM     33  C   UNL A   1      43.548  27.390  31.611  1.00  0.00     0.029 A 
ATOM     34  C   UNL A   1      42.850  28.295  32.393  1.00  0.00     0.049 A 
ATOM     35  H   UNL A   1      41.102  29.381  31.926  1.00  0.00     0.167 HD
ATOM     36  C   UNL A   1      42.394  29.611  34.445  1.00  0.00     0.074 A 
ATOM     37  C   UNL A   1      42.666  29.999  35.815  1.00  0.00     0.031 C 
ATOM     38  C   UNL A   1      43.132  28.717  33.742  1.00  0.00     0.034 A 
BRANCH  25  39
ATOM     39  C   UNL A   1      40.937  27.490  28.093  1.00  0.00     0.023 A 
ATOM     40  C   UNL A   1      41.568  28.036  26.957  1.00  0.00     0.012 A 
ATOM     41  C   UNL A   1      40.489  26.154  28.056  1.00  0.00     0.148 A 
ATOM     42  C   UNL A   1      41.717  27.281  25.794  1.00  0.00     0.002 A 
ATOM     43  C   UNL A   1      40.680  25.393  26.908  1.00  0.00     0.091 A 
ATOM     44  F   UNL A   1      39.875  25.654  29.139  1.00  0.00    -0.205 F 
ATOM     45  C   UNL A   1      41.282  25.958  25.773  1.00  0.00     0.022 A 
BRANCH  43  46
ATOM     46  S   UNL A   1      40.229  23.656  26.811  1.00  0.00     0.127 S 
ATOM     47  O   UNL A   1      41.120  23.180  25.754  1.00  0.00    -0.237 OA
ATOM     48  O   UNL A   1      40.563  23.175  28.152  1.00  0.00    -0.237 OA
ATOM     49  O   UNL A   1      38.808  23.629  26.494  1.00  0.00    -0.744 OA
ENDBRANCH  43  46
ENDBRANCH  25  39
BRANCH  26  50
ATOM     50  C   UNL A   1      39.498  32.723  36.485  1.00  0.00     0.023 A 
ATOM     51  C   UNL A   1      40.112  33.967  36.717  1.00  0.00     0.012 A 
ATOM     52  C   UNL A   1      38.588  32.215  37.434  1.00  0.00     0.148 A 
ATOM     53  C   UNL A   1      39.844  34.683  37.885  1.00  0.00     0.002 A 
ATOM     54  C   UNL A   1      38.278  32.961  38.563  1.00  0.00     0.091 A 
ATOM     55  F   UNL A   1      38.022  31.023  37.195  1.00  0.00    -0.205 F 
ATOM     56  C   UNL A   1      38.918  34.186  38.800  1.00  0.00     0.022 A 
BRANCH  54  57
ATOM     57  S   UNL A   1      36.990  32.470  39.714  1.00  0.00     0.127 S 
ATOM     58  O   UNL A   1      35.803  32.501  38.864  1.00  0.00    -0.237 OA
ATOM     59  O   UNL A   1      37.433  31.132  40.109  1.00  0.00    -0.237 OA
ATOM     60  O   UNL A   1      37.027  33.454  40.788  1.00  0.00    -0.744 OA
ENDBRANCH  54  57
ENDBRANCH  26  50
BRANCH  38  61
ATOM     61  C   UNL A   1      44.327  28.111  34.432  1.00  0.00     0.023 A 
ATOM     62  C   UNL A   1      45.577  28.757  34.367  1.00  0.00     0.012 A 
ATOM     63  C   UNL A   1      44.194  26.933  35.193  1.00  0.00     0.148 A 
ATOM     64  C   UNL A   1      46.685  28.222  35.022  1.00  0.00     0.002 A 
ATOM     65  C   UNL A   1      45.290  26.434  35.885  1.00  0.00     0.091 A 
ATOM     66  F   UNL A   1      43.001  26.323  35.224  1.00  0.00    -0.205 F 
ATOM     67  C   UNL A   1      46.539  27.069  35.791  1.00  0.00     0.022 A 
BRANCH  65  68
ATOM     68  S   UNL A   1      45.175  25.010  36.974  1.00  0.00     0.127 S 
ATOM     69  O   UNL A   1      44.837  23.943  36.034  1.00  0.00    -0.237 OA
ATOM     70  O   UNL A   1      46.528  24.932  37.526  1.00  0.00    -0.237 OA
ATOM     71  O   UNL A   1      44.142  25.331  37.949  1.00  0.00    -0.744 OA
ENDBRANCH  65  68
ENDBRANCH  38  61
ENDBRANCH  12  13
ENDBRANCH   5   7
ENDBRANCH   2   3
ENDBRANCH   1   2
BRANCH   1  72
ATOM     72  C   UNL A   1      31.587  30.111  26.676  1.00  0.00     0.023 C 
BRANCH  72  73
ATOM     73  C   UNL A   1      31.930  29.340  25.408  1.00  0.00     0.116 C 
BRANCH  73  74
ATOM     74  N   UNL A   1      31.166  29.779  24.246  1.00  0.00    -0.352 N 
ATOM     75  C   UNL A   1      30.926  29.108  23.068  1.00  0.00     0.254 C 
ATOM     76  H   UNL A   1      30.767  30.676  24.313  1.00  0.00     0.163 HD
ATOM     77  O   UNL A   1      30.304  29.629  22.152  1.00  0.00    -0.269 OA
BRANCH  75  78
ATOM     78  C   UNL A   1      31.400  27.725  22.945  1.00  0.00     0.078 A 
ATOM     79  C   UNL A   1      32.696  27.492  22.488  1.00  0.00     0.019 A 
ATOM     80  C   UNL A   1      30.548  26.660  23.200  1.00  0.00     0.173 A 
ATOM     81  C   UNL A   1      33.090  26.196  22.161  1.00  0.00     0.030 A 
ATOM     82  C   UNL A   1      30.975  25.365  22.916  1.00  0.00     0.182 A 
ATOM     83  F   UNL A   1      29.302  26.862  23.652  1.00  0.00    -0.203 F 
ATOM     84  C   UNL A   1      32.242  25.100  22.355  1.00  0.00     0.074 A 
ATOM     85  F   UNL A   1      30.134  24.338  23.130  1.00  0.00    -0.201 F 
BRANCH  84  86
ATOM     86  N   UNL A   1      32.573  23.801  22.000  1.00  0.00    -0.379 N 
ATOM     87  H   UNL A   1      32.425  23.563  21.056  1.00  0.00     0.160 HD
BRANCH  86  88
ATOM     88  C   UNL A   1      33.116  22.735  22.851  1.00  0.00     0.094 C 
ATOM     89  C   UNL A   1      32.162  21.521  22.851  1.00  0.00     0.027 C 
ATOM     90  C   UNL A   1      33.549  23.304  24.201  1.00  0.00     0.161 C 
ATOM     91  C   UNL A   1      32.514  20.405  23.830  1.00  0.00     0.018 C 
ATOM     92  S   UNL A   1      34.081  22.041  25.314  1.00  0.00     0.152 S 
ATOM     93  C   UNL A   1      32.709  20.914  25.247  1.00  0.00     0.137 C 
ATOM     94  O   UNL A   1      34.123  22.609  26.647  1.00  0.00    -0.229 OA
ATOM     95  O   UNL A   1      35.243  21.386  24.745  1.00  0.00    -0.229 OA
ENDBRANCH  86  88
ENDBRANCH  84  86
ENDBRANCH  75  78
ENDBRANCH  73  74
ENDBRANCH  72  73
ENDBRANCH   1  72
TORSDOF 16
ENDMDL
