MODEL 1
REMARK VINA RESULT:     -12.5      0.000      0.000
REMARK SMILES Cc1cccc(-c2cccnc2C(=O)NCCCCNC(=O)c2ccc(-c3c4nc(c(-c5cccc(S(=O)(=O)[O-])c5F)c5ccc([nH]5)c(-c5cccc(S(=O)(=O)[O-])c5F)c5nc(c(-c6cccc(S(=O)(=O)[O-])c6F)c6ccc3[nH]6)C=C5)C=C4)cc2)c1
REMARK SMILES IDX 18 1 17 2 16 3 15 4 13 5 14 6 12 8 7 9 8 10 9 11 11 12 10 13
REMARK SMILES IDX 6 14 1 15 2 16 3 17 86 18 4 19 5 20 19 21 20 22 21 23 22 25
REMARK SMILES IDX 23 26 24 27 85 28 25 29 84 30 26 31 27 32 28 33 78 34 29 35
REMARK SMILES IDX 83 36 77 37 79 38 30 39 82 40 76 41 75 42 31 44 63 45 43 46
REMARK SMILES IDX 62 47 44 48 47 49 61 50 80 51 45 52 46 53 60 55 81 56 48 57
REMARK SMILES IDX 32 58 33 59 41 60 34 61 36 62 42 63 35 64 37 65 38 66 39 67
REMARK SMILES IDX 40 68 64 69 65 70 73 71 66 72 68 73 74 74 67 75 69 76 70 77
REMARK SMILES IDX 71 78 72 79 49 80 50 81 58 82 51 83 53 84 59 85 52 86 54 87
REMARK SMILES IDX 55 88 56 89 57 90
REMARK H PARENT 15 7 20 24 79 43 47 54
REMARK Flexibility Score: inf
ROOT
ATOM      1  C   UNL A   1      35.947  22.891  25.567  1.00  0.00     0.023 C 
ENDROOT
BRANCH   1   2
ATOM      2  C   UNL A   1      34.839  23.879  25.946  1.00  0.00     0.023 C 
BRANCH   2   3
ATOM      3  C   UNL A   1      33.421  23.375  26.202  1.00  0.00     0.116 C 
BRANCH   3   4
ATOM      4  N   UNL A   1      32.403  24.316  26.596  1.00  0.00    -0.351 N 
ATOM      5  C   UNL A   1      31.798  25.324  25.854  1.00  0.00     0.270 C 
ATOM      6  O   UNL A   1      30.813  25.861  26.376  1.00  0.00    -0.267 OA
ATOM      7  H   UNL A   1      32.090  24.234  27.525  1.00  0.00     0.163 HD
BRANCH   5   8
ATOM      8  C   UNL A   1      32.300  25.887  24.527  1.00  0.00     0.135 A 
ATOM      9  C   UNL A   1      32.924  27.127  24.286  1.00  0.00     0.013 A 
ATOM     10  C   UNL A   1      33.336  27.391  22.960  1.00  0.00     0.013 A 
ATOM     11  C   UNL A   1      33.167  26.455  21.948  1.00  0.00     0.021 A 
ATOM     12  N   UNL A   1      32.135  24.965  23.520  1.00  0.00    -0.250 NA
ATOM     13  C   UNL A   1      32.577  25.257  22.282  1.00  0.00     0.112 A 
BRANCH   9  14
ATOM     14  C   UNL A   1      33.179  28.178  25.276  1.00  0.00    -0.016 A 
ATOM     15  C   UNL A   1      31.442  31.387  26.412  1.00  0.00     0.044 C 
ATOM     16  C   UNL A   1      32.452  30.282  26.304  1.00  0.00    -0.051 A 
ATOM     17  C   UNL A   1      33.387  30.084  27.319  1.00  0.00     0.003 A 
ATOM     18  C   UNL A   1      32.394  29.355  25.258  1.00  0.00     0.012 A 
ATOM     19  C   UNL A   1      34.242  28.979  27.290  1.00  0.00     0.001 A 
ATOM     20  C   UNL A   1      34.132  28.021  26.285  1.00  0.00     0.009 A 
ENDBRANCH   9  14
ENDBRANCH   5   8
ENDBRANCH   3   4
ENDBRANCH   2   3
ENDBRANCH   1   2
BRANCH   1  21
ATOM     21  C   UNL A   1      37.368  23.437  25.500  1.00  0.00     0.116 C 
BRANCH  21  22
ATOM     22  N   UNL A   1      38.331  22.701  26.325  1.00  0.00    -0.352 N 
ATOM     23  C   UNL A   1      39.485  23.159  26.947  1.00  0.00     0.251 C 
ATOM     24  H   UNL A   1      38.132  21.746  26.457  1.00  0.00     0.163 HD
ATOM     25  O   UNL A   1      40.346  22.348  27.281  1.00  0.00    -0.269 OA
BRANCH  23  26
ATOM     26  C   UNL A   1      39.633  24.596  27.256  1.00  0.00     0.039 A 
ATOM     27  C   UNL A   1      40.351  25.508  26.467  1.00  0.00     0.014 A 
ATOM     28  C   UNL A   1      39.111  25.008  28.469  1.00  0.00     0.014 A 
ATOM     29  C   UNL A   1      40.538  26.821  26.925  1.00  0.00     0.010 A 
ATOM     30  C   UNL A   1      39.095  26.320  28.810  1.00  0.00     0.010 A 
ATOM     31  C   UNL A   1      39.925  27.198  28.114  1.00  0.00    -0.014 A 
BRANCH  31  32
ATOM     32  C   UNL A   1      40.156  28.411  28.880  1.00  0.00     0.031 A 
ATOM     33  C   UNL A   1      39.232  29.538  28.812  1.00  0.00     0.074 A 
ATOM     34  C   UNL A   1      40.957  28.202  29.950  1.00  0.00     0.049 A 
ATOM     35  N   UNL A   1      39.429  30.649  29.426  1.00  0.00    -0.248 NA
ATOM     36  C   UNL A   1      37.998  29.503  28.043  1.00  0.00     0.031 C 
ATOM     37  C   UNL A   1      40.914  28.793  31.276  1.00  0.00     0.029 A 
ATOM     38  N   UNL A   1      42.037  27.316  30.015  1.00  0.00    -0.354 N 
ATOM     39  C   UNL A   1      38.234  31.335  29.411  1.00  0.00     0.074 A 
ATOM     40  C   UNL A   1      37.427  30.650  28.429  1.00  0.00     0.031 C 
ATOM     41  C   UNL A   1      42.050  28.470  31.923  1.00  0.00     0.029 A 
ATOM     42  C   UNL A   1      42.929  27.838  30.949  1.00  0.00     0.049 A 
ATOM     43  H   UNL A   1      42.146  26.485  29.499  1.00  0.00     0.167 HD
ATOM     44  C   UNL A   1      38.023  32.280  30.370  1.00  0.00     0.034 A 
ATOM     45  C   UNL A   1      44.165  28.282  30.572  1.00  0.00     0.034 A 
ATOM     46  C   UNL A   1      39.199  32.373  31.257  1.00  0.00     0.049 A 
ATOM     47  C   UNL A   1      44.294  29.778  30.785  1.00  0.00     0.074 A 
ATOM     48  C   UNL A   1      39.476  31.852  32.511  1.00  0.00     0.029 A 
ATOM     49  N   UNL A   1      40.416  32.805  30.740  1.00  0.00    -0.354 N 
ATOM     50  N   UNL A   1      43.300  30.572  31.077  1.00  0.00    -0.248 NA
ATOM     51  C   UNL A   1      45.557  30.492  30.703  1.00  0.00     0.031 C 
ATOM     52  C   UNL A   1      40.882  31.927  32.721  1.00  0.00     0.029 A 
ATOM     53  C   UNL A   1      41.459  32.523  31.611  1.00  0.00     0.049 A 
ATOM     54  H   UNL A   1      40.523  33.250  29.869  1.00  0.00     0.167 HD
ATOM     55  C   UNL A   1      43.721  31.873  31.130  1.00  0.00     0.074 A 
ATOM     56  C   UNL A   1      45.162  31.753  30.955  1.00  0.00     0.031 C 
ATOM     57  C   UNL A   1      42.831  32.912  31.270  1.00  0.00     0.034 A 
BRANCH  44  58
ATOM     58  C   UNL A   1      36.685  32.919  30.726  1.00  0.00     0.023 A 
ATOM     59  C   UNL A   1      36.104  32.539  31.959  1.00  0.00     0.012 A 
ATOM     60  C   UNL A   1      35.934  33.838  29.956  1.00  0.00     0.148 A 
ATOM     61  C   UNL A   1      34.836  32.967  32.366  1.00  0.00     0.002 A 
ATOM     62  C   UNL A   1      34.645  34.235  30.339  1.00  0.00     0.091 A 
ATOM     63  F   UNL A   1      36.476  34.403  28.875  1.00  0.00    -0.205 F 
ATOM     64  C   UNL A   1      34.093  33.795  31.544  1.00  0.00     0.022 A 
BRANCH  62  65
ATOM     65  S   UNL A   1      33.598  35.287  29.313  1.00  0.00     0.127 S 
ATOM     66  O   UNL A   1      32.565  34.349  28.867  1.00  0.00    -0.237 OA
ATOM     67  O   UNL A   1      33.132  36.292  30.266  1.00  0.00    -0.237 OA
ATOM     68  O   UNL A   1      34.446  35.791  28.240  1.00  0.00    -0.744 OA
ENDBRANCH  62  65
ENDBRANCH  44  58
BRANCH  45  69
ATOM     69  C   UNL A   1      44.740  27.490  29.431  1.00  0.00     0.023 A 
ATOM     70  C   UNL A   1      44.971  26.114  29.678  1.00  0.00     0.012 A 
ATOM     71  C   UNL A   1      44.573  27.914  28.098  1.00  0.00     0.148 A 
ATOM     72  C   UNL A   1      44.871  25.171  28.652  1.00  0.00     0.002 A 
ATOM     73  C   UNL A   1      44.458  26.963  27.081  1.00  0.00     0.091 A 
ATOM     74  F   UNL A   1      44.414  29.221  27.858  1.00  0.00    -0.205 F 
ATOM     75  C   UNL A   1      44.564  25.591  27.363  1.00  0.00     0.022 A 
BRANCH  73  76
ATOM     76  S   UNL A   1      44.010  27.441  25.403  1.00  0.00     0.127 S 
ATOM     77  O   UNL A   1      43.416  26.201  24.898  1.00  0.00    -0.237 OA
ATOM     78  O   UNL A   1      43.048  28.527  25.624  1.00  0.00    -0.237 OA
ATOM     79  O   UNL A   1      45.249  27.865  24.792  1.00  0.00    -0.744 OA
ENDBRANCH  73  76
ENDBRANCH  45  69
BRANCH  57  80
ATOM     80  C   UNL A   1      43.135  34.401  31.097  1.00  0.00     0.023 A 
ATOM     81  C   UNL A   1      43.603  35.213  32.144  1.00  0.00     0.012 A 
ATOM     82  C   UNL A   1      43.058  35.029  29.819  1.00  0.00     0.148 A 
ATOM     83  C   UNL A   1      43.947  36.558  31.960  1.00  0.00     0.002 A 
ATOM     84  C   UNL A   1      43.516  36.329  29.616  1.00  0.00     0.091 A 
ATOM     85  F   UNL A   1      42.499  34.392  28.782  1.00  0.00    -0.205 F 
ATOM     86  C   UNL A   1      43.933  37.108  30.690  1.00  0.00     0.022 A 
BRANCH  84  87
ATOM     87  S   UNL A   1      43.713  37.009  27.962  1.00  0.00     0.127 S 
ATOM     88  O   UNL A   1      44.547  35.996  27.320  1.00  0.00    -0.237 OA
ATOM     89  O   UNL A   1      42.331  37.054  27.482  1.00  0.00    -0.237 OA
ATOM     90  O   UNL A   1      44.322  38.317  28.151  1.00  0.00    -0.744 OA
ENDBRANCH  84  87
ENDBRANCH  57  80
ENDBRANCH  31  32
ENDBRANCH  23  26
ENDBRANCH  21  22
ENDBRANCH   1  21
TORSDOF 15
ENDMDL
MODEL 2
REMARK VINA RESULT:     -12.5      1.714      2.562
REMARK SMILES Cc1cccc(-c2cccnc2C(=O)NCCCCNC(=O)c2ccc(-c3c4nc(c(-c5cccc(S(=O)(=O)[O-])c5F)c5ccc([nH]5)c(-c5cccc(S(=O)(=O)[O-])c5F)c5nc(c(-c6cccc(S(=O)(=O)[O-])c6F)c6ccc3[nH]6)C=C5)C=C4)cc2)c1
REMARK SMILES IDX 18 1 17 2 16 3 15 4 13 5 14 6 12 8 7 9 8 10 9 11 11 12 10 13
REMARK SMILES IDX 6 14 1 15 2 16 3 17 86 18 4 19 5 20 19 21 20 22 21 23 22 25
REMARK SMILES IDX 23 26 24 27 85 28 25 29 84 30 26 31 27 32 28 33 78 34 29 35
REMARK SMILES IDX 83 36 77 37 79 38 30 39 82 40 76 41 75 42 31 44 63 45 43 46
REMARK SMILES IDX 62 47 44 48 47 49 61 50 80 51 45 52 46 53 60 55 81 56 48 57
REMARK SMILES IDX 32 58 33 59 41 60 34 61 36 62 42 63 35 64 37 65 38 66 39 67
REMARK SMILES IDX 40 68 64 69 65 70 73 71 66 72 68 73 74 74 67 75 69 76 70 77
REMARK SMILES IDX 71 78 72 79 49 80 50 81 58 82 51 83 53 84 59 85 52 86 54 87
REMARK SMILES IDX 55 88 56 89 57 90
REMARK H PARENT 15 7 20 24 79 43 47 54
REMARK Flexibility Score: inf
ROOT
ATOM      1  C   UNL A   1      36.372  23.539  25.963  1.00  0.00     0.023 C 
ENDROOT
BRANCH   1   2
ATOM      2  C   UNL A   1      35.354  24.060  24.943  1.00  0.00     0.023 C 
BRANCH   2   3
ATOM      3  C   UNL A   1      34.343  25.127  25.349  1.00  0.00     0.116 C 
BRANCH   3   4
ATOM      4  N   UNL A   1      33.280  24.777  26.258  1.00  0.00    -0.351 N 
ATOM      5  C   UNL A   1      32.512  23.620  26.313  1.00  0.00     0.270 C 
ATOM      6  O   UNL A   1      31.798  23.494  27.315  1.00  0.00    -0.267 OA
ATOM      7  H   UNL A   1      33.065  25.455  26.937  1.00  0.00     0.163 HD
BRANCH   5   8
ATOM      8  C   UNL A   1      32.396  22.565  25.215  1.00  0.00     0.135 A 
ATOM      9  C   UNL A   1      32.097  22.756  23.852  1.00  0.00     0.013 A 
ATOM     10  C   UNL A   1      32.093  21.606  23.029  1.00  0.00     0.013 A 
ATOM     11  C   UNL A   1      32.407  20.352  23.535  1.00  0.00     0.021 A 
ATOM     12  N   UNL A   1      32.705  21.320  25.709  1.00  0.00    -0.250 NA
ATOM     13  C   UNL A   1      32.719  20.265  24.873  1.00  0.00     0.112 A 
BRANCH   9  14
ATOM     14  C   UNL A   1      31.777  24.030  23.202  1.00  0.00    -0.016 A 
ATOM     15  C   UNL A   1      29.309  26.889  23.787  1.00  0.00     0.044 C 
ATOM     16  C   UNL A   1      30.390  26.052  23.168  1.00  0.00    -0.051 A 
ATOM     17  C   UNL A   1      31.269  26.613  22.243  1.00  0.00     0.003 A 
ATOM     18  C   UNL A   1      30.620  24.741  23.598  1.00  0.00     0.012 A 
ATOM     19  C   UNL A   1      32.358  25.880  21.763  1.00  0.00     0.001 A 
ATOM     20  C   UNL A   1      32.622  24.601  22.248  1.00  0.00     0.009 A 
ENDBRANCH   9  14
ENDBRANCH   5   8
ENDBRANCH   3   4
ENDBRANCH   2   3
ENDBRANCH   1   2
BRANCH   1  21
ATOM     21  C   UNL A   1      37.742  23.135  25.430  1.00  0.00     0.116 C 
BRANCH  21  22
ATOM     22  N   UNL A   1      38.607  22.498  26.427  1.00  0.00    -0.352 N 
ATOM     23  C   UNL A   1      39.663  23.040  27.149  1.00  0.00     0.251 C 
ATOM     24  H   UNL A   1      38.413  21.551  26.613  1.00  0.00     0.163 HD
ATOM     25  O   UNL A   1      40.491  22.286  27.655  1.00  0.00    -0.269 OA
BRANCH  23  26
ATOM     26  C   UNL A   1      39.739  24.502  27.354  1.00  0.00     0.039 A 
ATOM     27  C   UNL A   1      40.357  25.396  26.468  1.00  0.00     0.014 A 
ATOM     28  C   UNL A   1      39.258  24.966  28.565  1.00  0.00     0.014 A 
ATOM     29  C   UNL A   1      40.489  26.746  26.826  1.00  0.00     0.010 A 
ATOM     30  C   UNL A   1      39.180  26.296  28.819  1.00  0.00     0.010 A 
ATOM     31  C   UNL A   1      39.918  27.169  28.021  1.00  0.00    -0.014 A 
BRANCH  31  32
ATOM     32  C   UNL A   1      40.115  28.443  28.691  1.00  0.00     0.031 A 
ATOM     33  C   UNL A   1      39.193  29.556  28.490  1.00  0.00     0.074 A 
ATOM     34  C   UNL A   1      40.872  28.329  29.807  1.00  0.00     0.049 A 
ATOM     35  N   UNL A   1      39.363  30.715  29.017  1.00  0.00    -0.248 NA
ATOM     36  C   UNL A   1      37.992  29.450  27.677  1.00  0.00     0.031 C 
ATOM     37  C   UNL A   1      40.773  29.029  31.075  1.00  0.00     0.029 A 
ATOM     38  N   UNL A   1      41.950  27.457  29.991  1.00  0.00    -0.354 N 
ATOM     39  C   UNL A   1      38.169  31.392  28.895  1.00  0.00     0.074 A 
ATOM     40  C   UNL A   1      37.404  30.623  27.941  1.00  0.00     0.031 C 
ATOM     41  C   UNL A   1      41.882  28.767  31.793  1.00  0.00     0.029 A 
ATOM     42  C   UNL A   1      42.801  28.060  30.913  1.00  0.00     0.049 A 
ATOM     43  H   UNL A   1      42.081  26.586  29.551  1.00  0.00     0.167 HD
ATOM     44  C   UNL A   1      37.916  32.413  29.761  1.00  0.00     0.034 A 
ATOM     45  C   UNL A   1      44.051  28.476  30.552  1.00  0.00     0.034 A 
ATOM     46  C   UNL A   1      39.055  32.586  30.686  1.00  0.00     0.049 A 
ATOM     47  C   UNL A   1      44.169  29.985  30.643  1.00  0.00     0.074 A 
ATOM     48  C   UNL A   1      39.280  32.173  31.989  1.00  0.00     0.029 A 
ATOM     49  N   UNL A   1      40.292  32.979  30.184  1.00  0.00    -0.354 N 
ATOM     50  N   UNL A   1      43.163  30.797  30.826  1.00  0.00    -0.248 NA
ATOM     51  C   UNL A   1      45.433  30.697  30.553  1.00  0.00     0.031 C 
ATOM     52  C   UNL A   1      40.676  32.273  32.250  1.00  0.00     0.029 A 
ATOM     53  C   UNL A   1      41.298  32.776  31.118  1.00  0.00     0.049 A 
ATOM     54  H   UNL A   1      40.434  33.350  29.284  1.00  0.00     0.167 HD
ATOM     55  C   UNL A   1      43.579  32.100  30.786  1.00  0.00     0.074 A 
ATOM     56  C   UNL A   1      45.026  31.973  30.681  1.00  0.00     0.031 C 
ATOM     57  C   UNL A   1      42.682  33.143  30.802  1.00  0.00     0.034 A 
BRANCH  44  58
ATOM     58  C   UNL A   1      36.564  33.073  30.008  1.00  0.00     0.023 A 
ATOM     59  C   UNL A   1      35.929  33.665  28.890  1.00  0.00     0.012 A 
ATOM     60  C   UNL A   1      35.870  33.189  31.235  1.00  0.00     0.148 A 
ATOM     61  C   UNL A   1      34.738  34.391  28.988  1.00  0.00     0.002 A 
ATOM     62  C   UNL A   1      34.700  33.951  31.346  1.00  0.00     0.091 A 
ATOM     63  F   UNL A   1      36.286  32.506  32.304  1.00  0.00    -0.205 F 
ATOM     64  C   UNL A   1      34.134  34.558  30.222  1.00  0.00     0.022 A 
BRANCH  62  65
ATOM     65  S   UNL A   1      33.866  34.244  32.920  1.00  0.00     0.127 S 
ATOM     66  O   UNL A   1      32.796  35.167  32.533  1.00  0.00    -0.237 OA
ATOM     67  O   UNL A   1      33.407  32.906  33.287  1.00  0.00    -0.237 OA
ATOM     68  O   UNL A   1      34.862  34.828  33.810  1.00  0.00    -0.744 OA
ENDBRANCH  62  65
ENDBRANCH  44  58
BRANCH  45  69
ATOM     69  C   UNL A   1      44.674  27.595  29.506  1.00  0.00     0.023 A 
ATOM     70  C   UNL A   1      44.874  26.239  29.868  1.00  0.00     0.012 A 
ATOM     71  C   UNL A   1      44.582  27.917  28.138  1.00  0.00     0.148 A 
ATOM     72  C   UNL A   1      44.815  25.221  28.912  1.00  0.00     0.002 A 
ATOM     73  C   UNL A   1      44.508  26.892  27.190  1.00  0.00     0.091 A 
ATOM     74  F   UNL A   1      44.453  29.203  27.791  1.00  0.00    -0.205 F 
ATOM     75  C   UNL A   1      44.580  25.545  27.581  1.00  0.00     0.022 A 
BRANCH  73  76
ATOM     76  S   UNL A   1      44.153  27.245  25.460  1.00  0.00     0.127 S 
ATOM     77  O   UNL A   1      43.697  25.936  24.986  1.00  0.00    -0.237 OA
ATOM     78  O   UNL A   1      43.096  28.259  25.548  1.00  0.00    -0.237 OA
ATOM     79  O   UNL A   1      45.399  27.735  24.917  1.00  0.00    -0.744 OA
ENDBRANCH  73  76
ENDBRANCH  45  69
BRANCH  57  80
ATOM     80  C   UNL A   1      42.991  34.613  30.517  1.00  0.00     0.023 A 
ATOM     81  C   UNL A   1      43.352  35.527  31.522  1.00  0.00     0.012 A 
ATOM     82  C   UNL A   1      43.032  35.116  29.184  1.00  0.00     0.148 A 
ATOM     83  C   UNL A   1      43.702  36.854  31.243  1.00  0.00     0.002 A 
ATOM     84  C   UNL A   1      43.498  36.398  28.901  1.00  0.00     0.091 A 
ATOM     85  F   UNL A   1      42.579  34.375  28.164  1.00  0.00    -0.205 F 
ATOM     86  C   UNL A   1      43.805  37.282  29.931  1.00  0.00     0.022 A 
BRANCH  84  87
ATOM     87  S   UNL A   1      43.848  36.922  27.216  1.00  0.00     0.127 S 
ATOM     88  O   UNL A   1      44.329  38.286  27.420  1.00  0.00    -0.237 OA
ATOM     89  O   UNL A   1      44.880  35.968  26.806  1.00  0.00    -0.237 OA
ATOM     90  O   UNL A   1      42.589  36.785  26.498  1.00  0.00    -0.744 OA
ENDBRANCH  84  87
ENDBRANCH  57  80
ENDBRANCH  31  32
ENDBRANCH  23  26
ENDBRANCH  21  22
ENDBRANCH   1  21
TORSDOF 15
ENDMDL
MODEL 3
REMARK VINA RESULT:     -12.4      0.977      1.667
REMARK SMILES Cc1cccc(-c2cccnc2C(=O)NCCCCNC(=O)c2ccc(-c3c4nc(c(-c5cccc(S(=O)(=O)[O-])c5F)c5ccc([nH]5)c(-c5cccc(S(=O)(=O)[O-])c5F)c5nc(c(-c6cccc(S(=O)(=O)[O-])c6F)c6ccc3[nH]6)C=C5)C=C4)cc2)c1
REMARK SMILES IDX 18 1 17 2 16 3 15 4 13 5 14 6 12 8 7 9 8 10 9 11 11 12 10 13
REMARK SMILES IDX 6 14 1 15 2 16 3 17 86 18 4 19 5 20 19 21 20 22 21 23 22 25
REMARK SMILES IDX 23 26 24 27 85 28 25 29 84 30 26 31 27 32 28 33 78 34 29 35
REMARK SMILES IDX 83 36 77 37 79 38 30 39 82 40 76 41 75 42 31 44 63 45 43 46
REMARK SMILES IDX 62 47 44 48 47 49 61 50 80 51 45 52 46 53 60 55 81 56 48 57
REMARK SMILES IDX 32 58 33 59 41 60 34 61 36 62 42 63 35 64 37 65 38 66 39 67
REMARK SMILES IDX 40 68 64 69 65 70 73 71 66 72 68 73 74 74 67 75 69 76 70 77
REMARK SMILES IDX 71 78 72 79 49 80 50 81 58 82 51 83 53 84 59 85 52 86 54 87
REMARK SMILES IDX 55 88 56 89 57 90
REMARK H PARENT 15 7 20 24 79 43 47 54
REMARK Flexibility Score: inf
ROOT
ATOM      1  C   UNL A   1      37.085  22.341  24.391  1.00  0.00     0.023 C 
ENDROOT
BRANCH   1   2
ATOM      2  C   UNL A   1      36.159  23.027  23.382  1.00  0.00     0.023 C 
BRANCH   2   3
ATOM      3  C   UNL A   1      35.025  23.923  23.871  1.00  0.00     0.116 C 
BRANCH   3   4
ATOM      4  N   UNL A   1      33.967  24.278  22.958  1.00  0.00    -0.351 N 
ATOM      5  C   UNL A   1      32.629  24.547  23.220  1.00  0.00     0.270 C 
ATOM      6  O   UNL A   1      31.979  25.019  22.279  1.00  0.00    -0.267 OA
ATOM      7  H   UNL A   1      34.230  24.340  22.012  1.00  0.00     0.163 HD
BRANCH   5   8
ATOM      8  C   UNL A   1      31.882  24.215  24.510  1.00  0.00     0.135 A 
ATOM      9  C   UNL A   1      31.445  25.099  25.516  1.00  0.00     0.013 A 
ATOM     10  C   UNL A   1      30.730  24.536  26.598  1.00  0.00     0.013 A 
ATOM     11  C   UNL A   1      30.440  23.180  26.647  1.00  0.00     0.021 A 
ATOM     12  N   UNL A   1      31.591  22.873  24.565  1.00  0.00    -0.250 NA
ATOM     13  C   UNL A   1      30.877  22.396  25.604  1.00  0.00     0.112 A 
BRANCH   9  14
ATOM     14  C   UNL A   1      31.670  26.547  25.558  1.00  0.00    -0.016 A 
ATOM     15  C   UNL A   1      34.334  28.893  26.973  1.00  0.00     0.044 C 
ATOM     16  C   UNL A   1      33.087  28.408  26.293  1.00  0.00    -0.051 A 
ATOM     17  C   UNL A   1      32.370  29.258  25.452  1.00  0.00     0.003 A 
ATOM     18  C   UNL A   1      32.694  27.069  26.383  1.00  0.00     0.012 A 
ATOM     19  C   UNL A   1      31.287  28.776  24.712  1.00  0.00     0.001 A 
ATOM     20  C   UNL A   1      30.944  27.426  24.751  1.00  0.00     0.009 A 
ENDBRANCH   9  14
ENDBRANCH   5   8
ENDBRANCH   3   4
ENDBRANCH   2   3
ENDBRANCH   1   2
BRANCH   1  21
ATOM     21  C   UNL A   1      37.565  23.178  25.570  1.00  0.00     0.116 C 
BRANCH  21  22
ATOM     22  N   UNL A   1      38.552  22.504  26.420  1.00  0.00    -0.352 N 
ATOM     23  C   UNL A   1      39.684  23.025  27.034  1.00  0.00     0.251 C 
ATOM     24  H   UNL A   1      38.389  21.546  26.579  1.00  0.00     0.163 HD
ATOM     25  O   UNL A   1      40.574  22.258  27.394  1.00  0.00    -0.269 OA
BRANCH  23  26
ATOM     26  C   UNL A   1      39.774  24.475  27.302  1.00  0.00     0.039 A 
ATOM     27  C   UNL A   1      40.392  25.403  26.451  1.00  0.00     0.014 A 
ATOM     28  C   UNL A   1      39.306  24.889  28.536  1.00  0.00     0.014 A 
ATOM     29  C   UNL A   1      40.537  26.735  26.868  1.00  0.00     0.010 A 
ATOM     30  C   UNL A   1      39.240  26.207  28.850  1.00  0.00     0.010 A 
ATOM     31  C   UNL A   1      39.979  27.109  28.085  1.00  0.00    -0.014 A 
BRANCH  31  32
ATOM     32  C   UNL A   1      40.191  28.350  28.809  1.00  0.00     0.031 A 
ATOM     33  C   UNL A   1      39.249  29.460  28.705  1.00  0.00     0.074 A 
ATOM     34  C   UNL A   1      40.998  28.190  29.884  1.00  0.00     0.049 A 
ATOM     35  N   UNL A   1      39.429  30.593  29.281  1.00  0.00    -0.248 NA
ATOM     36  C   UNL A   1      38.015  29.379  27.940  1.00  0.00     0.031 C 
ATOM     37  C   UNL A   1      40.948  28.825  31.189  1.00  0.00     0.029 A 
ATOM     38  N   UNL A   1      42.092  27.325  29.976  1.00  0.00    -0.354 N 
ATOM     39  C   UNL A   1      38.224  31.259  29.245  1.00  0.00     0.074 A 
ATOM     40  C   UNL A   1      37.426  30.529  28.288  1.00  0.00     0.031 C 
ATOM     41  C   UNL A   1      42.090  28.542  31.844  1.00  0.00     0.029 A 
ATOM     42  C   UNL A   1      42.977  27.893  30.890  1.00  0.00     0.049 A 
ATOM     43  H   UNL A   1      42.214  26.479  29.488  1.00  0.00     0.167 HD
ATOM     44  C   UNL A   1      37.999  32.233  30.172  1.00  0.00     0.034 A 
ATOM     45  C   UNL A   1      44.205  28.343  30.496  1.00  0.00     0.034 A 
ATOM     46  C   UNL A   1      39.175  32.375  31.053  1.00  0.00     0.049 A 
ATOM     47  C   UNL A   1      44.310  29.847  30.657  1.00  0.00     0.074 A 
ATOM     48  C   UNL A   1      39.462  31.901  32.324  1.00  0.00     0.029 A 
ATOM     49  N   UNL A   1      40.384  32.808  30.519  1.00  0.00    -0.354 N 
ATOM     50  N   UNL A   1      43.304  30.635  30.925  1.00  0.00    -0.248 NA
ATOM     51  C   UNL A   1      45.562  30.578  30.549  1.00  0.00     0.031 C 
ATOM     52  C   UNL A   1      40.867  32.006  32.528  1.00  0.00     0.029 A 
ATOM     53  C   UNL A   1      41.433  32.573  31.397  1.00  0.00     0.049 A 
ATOM     54  H   UNL A   1      40.483  33.226  29.633  1.00  0.00     0.167 HD
ATOM     55  C   UNL A   1      43.704  31.943  30.932  1.00  0.00     0.074 A 
ATOM     56  C   UNL A   1      45.147  31.841  30.758  1.00  0.00     0.031 C 
ATOM     57  C   UNL A   1      42.798  32.972  31.040  1.00  0.00     0.034 A 
BRANCH  44  58
ATOM     58  C   UNL A   1      36.652  32.862  30.510  1.00  0.00     0.023 A 
ATOM     59  C   UNL A   1      36.101  32.551  31.776  1.00  0.00     0.012 A 
ATOM     60  C   UNL A   1      35.865  33.709  29.694  1.00  0.00     0.148 A 
ATOM     61  C   UNL A   1      34.829  32.974  32.176  1.00  0.00     0.002 A 
ATOM     62  C   UNL A   1      34.574  34.100  30.073  1.00  0.00     0.091 A 
ATOM     63  F   UNL A   1      36.375  34.214  28.568  1.00  0.00    -0.205 F 
ATOM     64  C   UNL A   1      34.052  33.728  31.315  1.00  0.00     0.022 A 
BRANCH  62  65
ATOM     65  S   UNL A   1      33.483  35.056  29.000  1.00  0.00     0.127 S 
ATOM     66  O   UNL A   1      32.875  34.012  28.172  1.00  0.00    -0.237 OA
ATOM     67  O   UNL A   1      32.569  35.680  29.954  1.00  0.00    -0.237 OA
ATOM     68  O   UNL A   1      34.338  35.977  28.261  1.00  0.00    -0.744 OA
ENDBRANCH  62  65
ENDBRANCH  44  58
BRANCH  45  69
ATOM     69  C   UNL A   1      44.790  27.522  29.381  1.00  0.00     0.023 A 
ATOM     70  C   UNL A   1      45.045  26.159  29.673  1.00  0.00     0.012 A 
ATOM     71  C   UNL A   1      44.615  27.898  28.035  1.00  0.00     0.148 A 
ATOM     72  C   UNL A   1      44.958  25.180  28.680  1.00  0.00     0.002 A 
ATOM     73  C   UNL A   1      44.514  26.911  27.050  1.00  0.00     0.091 A 
ATOM     74  F   UNL A   1      44.435  29.194  27.751  1.00  0.00    -0.205 F 
ATOM     75  C   UNL A   1      44.642  25.552  27.378  1.00  0.00     0.022 A 
BRANCH  73  76
ATOM     76  S   UNL A   1      44.055  27.325  25.358  1.00  0.00     0.127 S 
ATOM     77  O   UNL A   1      43.505  26.052  24.888  1.00  0.00    -0.237 OA
ATOM     78  O   UNL A   1      43.056  28.384  25.545  1.00  0.00    -0.237 OA
ATOM     79  O   UNL A   1      45.281  27.772  24.738  1.00  0.00    -0.744 OA
ENDBRANCH  73  76
ENDBRANCH  45  69
BRANCH  57  80
ATOM     80  C   UNL A   1      43.077  34.459  30.815  1.00  0.00     0.023 A 
ATOM     81  C   UNL A   1      43.481  35.325  31.846  1.00  0.00     0.012 A 
ATOM     82  C   UNL A   1      43.045  35.030  29.510  1.00  0.00     0.148 A 
ATOM     83  C   UNL A   1      43.804  36.668  31.619  1.00  0.00     0.002 A 
ATOM     84  C   UNL A   1      43.483  36.331  29.271  1.00  0.00     0.091 A 
ATOM     85  F   UNL A   1      42.546  34.337  28.478  1.00  0.00    -0.205 F 
ATOM     86  C   UNL A   1      43.835  37.164  30.328  1.00  0.00     0.022 A 
BRANCH  84  87
ATOM     87  S   UNL A   1      43.739  36.944  27.599  1.00  0.00     0.127 S 
ATOM     88  O   UNL A   1      44.495  35.852  26.992  1.00  0.00    -0.237 OA
ATOM     89  O   UNL A   1      42.366  37.082  27.109  1.00  0.00    -0.237 OA
ATOM     90  O   UNL A   1      44.447  38.207  27.754  1.00  0.00    -0.744 OA
ENDBRANCH  84  87
ENDBRANCH  57  80
ENDBRANCH  31  32
ENDBRANCH  23  26
ENDBRANCH  21  22
ENDBRANCH   1  21
TORSDOF 15
ENDMDL
