MODEL 1
REMARK VINA RESULT:     -12.3      0.000      0.000
REMARK SMILES C[C@@H](C(=O)NCCCCNC(=O)c1ccc(-c2c3nc(c(-c4cccc(S(=O)(=O)[O-])c4F)c4ccc([nH]4)c(-c4cccc(S(=O)(=O)[O-])c4F)c4nc(c(-c5cccc(S(=O)(=O)[O-])c5F)c5ccc2[nH]5)C=C4)C=C3)cc1)c1ccc(-c2ccn(C(F)F)c(=O)c2)cc1
REMARK SMILES IDX 7 1 6 2 5 3 3 4 4 5 2 7 1 8 76 9 77 10 91 11 78 12 90 13
REMARK SMILES IDX 79 14 80 15 81 16 89 17 82 18 87 19 83 20 88 21 84 22 85 23
REMARK SMILES IDX 86 24 8 25 9 26 10 27 11 28 12 30 13 31 14 32 75 33 15 34
REMARK SMILES IDX 74 35 16 36 17 37 18 38 68 39 19 40 73 41 67 42 69 43 20 44
REMARK SMILES IDX 72 45 66 46 65 47 21 49 53 50 33 51 52 52 34 53 37 54 51 55
REMARK SMILES IDX 70 56 35 57 36 58 50 60 71 61 38 62 22 63 23 64 31 65 24 66
REMARK SMILES IDX 26 67 32 68 25 69 27 70 28 71 29 72 30 73 54 74 55 75 63 76
REMARK SMILES IDX 56 77 58 78 64 79 57 80 59 81 60 82 61 83 62 84 39 85 40 86
REMARK SMILES IDX 48 87 41 88 43 89 49 90 42 91 44 92 45 93 46 94 47 95
REMARK H PARENT 5 6 10 29 69 48 37 59
REMARK Flexibility Score: inf
ROOT
ATOM      1  C   UNL A   1      31.985  30.362  25.860  1.00  0.00     0.023 C 
ENDROOT
BRANCH   1   2
ATOM      2  C   UNL A   1      32.214  28.850  25.789  1.00  0.00     0.116 C 
BRANCH   2   3
ATOM      3  N   UNL A   1      31.367  28.236  24.787  1.00  0.00    -0.356 N 
ATOM      4  C   UNL A   1      31.693  27.487  23.691  1.00  0.00     0.227 C 
ATOM      5  O   UNL A   1      30.769  27.169  22.941  1.00  0.00    -0.274 OA
ATOM      6  H   UNL A   1      30.402  28.381  24.916  1.00  0.00     0.163 HD
BRANCH   4   7
ATOM      7  C   UNL A   1      33.150  27.038  23.461  1.00  0.00     0.105 C 
ATOM      8  C   UNL A   1      33.654  27.519  22.094  1.00  0.00     0.023 C 
BRANCH   7   9
ATOM      9  C   UNL A   1      33.323  25.526  23.659  1.00  0.00    -0.036 A 
ATOM     10  C   UNL A   1      33.945  25.044  24.827  1.00  0.00     0.005 A 
ATOM     11  C   UNL A   1      32.866  24.585  22.725  1.00  0.00     0.005 A 
ATOM     12  C   UNL A   1      34.089  23.669  25.056  1.00  0.00     0.009 A 
ATOM     13  C   UNL A   1      33.024  23.218  22.942  1.00  0.00     0.009 A 
ATOM     14  C   UNL A   1      33.629  22.748  24.112  1.00  0.00    -0.018 A 
BRANCH  14  15
ATOM     15  C   UNL A   1      33.733  21.293  24.304  1.00  0.00    -0.011 A 
ATOM     16  C   UNL A   1      34.907  20.674  24.887  1.00  0.00     0.027 A 
ATOM     17  C   UNL A   1      32.756  20.514  23.807  1.00  0.00     0.080 A 
ATOM     18  C   UNL A   1      35.052  19.345  24.870  1.00  0.00     0.095 A 
ATOM     19  C   UNL A   1      32.889  19.030  23.815  1.00  0.00     0.255 A 
ATOM     20  N   UNL A   1      34.076  18.530  24.329  1.00  0.00    -0.258 N 
ATOM     21  O   UNL A   1      31.976  18.352  23.354  1.00  0.00    -0.269 OA
BRANCH  20  22
ATOM     22  C   UNL A   1      34.270  17.107  24.257  1.00  0.00     0.451 C 
ATOM     23  F   UNL A   1      34.489  16.698  22.984  1.00  0.00    -0.185 F 
ATOM     24  F   UNL A   1      35.327  16.719  25.013  1.00  0.00    -0.185 F 
ENDBRANCH  20  22
ENDBRANCH  14  15
ENDBRANCH   7   9
ENDBRANCH   4   7
ENDBRANCH   2   3
ENDBRANCH   1   2
BRANCH   1  25
ATOM     25  C   UNL A   1      32.245  30.989  27.230  1.00  0.00     0.023 C 
BRANCH  25  26
ATOM     26  C   UNL A   1      33.338  32.047  27.261  1.00  0.00     0.116 C 
BRANCH  26  27
ATOM     27  N   UNL A   1      32.829  33.388  27.524  1.00  0.00    -0.352 N 
ATOM     28  C   UNL A   1      33.252  34.282  28.480  1.00  0.00     0.251 C 
ATOM     29  H   UNL A   1      32.092  33.691  26.946  1.00  0.00     0.163 HD
ATOM     30  O   UNL A   1      32.651  35.338  28.657  1.00  0.00    -0.269 OA
BRANCH  28  31
ATOM     31  C   UNL A   1      34.417  33.931  29.316  1.00  0.00     0.039 A 
ATOM     32  C   UNL A   1      34.240  33.075  30.406  1.00  0.00     0.014 A 
ATOM     33  C   UNL A   1      35.688  34.392  28.970  1.00  0.00     0.014 A 
ATOM     34  C   UNL A   1      35.359  32.614  31.106  1.00  0.00     0.010 A 
ATOM     35  C   UNL A   1      36.802  33.880  29.624  1.00  0.00     0.010 A 
ATOM     36  C   UNL A   1      36.649  32.981  30.693  1.00  0.00    -0.014 A 
BRANCH  36  37
ATOM     37  C   UNL A   1      37.869  32.431  31.332  1.00  0.00     0.031 A 
ATOM     38  C   UNL A   1      38.602  31.293  30.682  1.00  0.00     0.074 A 
ATOM     39  C   UNL A   1      38.218  32.845  32.567  1.00  0.00     0.049 A 
ATOM     40  N   UNL A   1      39.572  30.558  31.156  1.00  0.00    -0.248 NA
ATOM     41  C   UNL A   1      38.153  30.903  29.335  1.00  0.00     0.031 C 
ATOM     42  C   UNL A   1      37.527  33.879  33.339  1.00  0.00     0.029 A 
ATOM     43  N   UNL A   1      39.207  32.405  33.410  1.00  0.00    -0.354 N 
ATOM     44  C   UNL A   1      39.811  29.584  30.195  1.00  0.00     0.074 A 
ATOM     45  C   UNL A   1      38.871  29.811  29.118  1.00  0.00     0.031 C 
ATOM     46  C   UNL A   1      38.095  33.975  34.551  1.00  0.00     0.029 A 
ATOM     47  C   UNL A   1      39.170  32.992  34.654  1.00  0.00     0.049 A 
ATOM     48  H   UNL A   1      39.880  31.733  33.151  1.00  0.00     0.167 HD
ATOM     49  C   UNL A   1      40.744  28.603  30.197  1.00  0.00     0.034 A 
ATOM     50  C   UNL A   1      39.901  32.751  35.760  1.00  0.00     0.034 A 
ATOM     51  C   UNL A   1      41.718  28.425  31.238  1.00  0.00     0.049 A 
ATOM     52  C   UNL A   1      40.987  31.712  35.709  1.00  0.00     0.074 A 
ATOM     53  C   UNL A   1      42.786  27.547  31.276  1.00  0.00     0.029 A 
ATOM     54  N   UNL A   1      41.743  29.137  32.427  1.00  0.00    -0.354 N 
ATOM     55  N   UNL A   1      41.320  30.919  34.720  1.00  0.00    -0.248 NA
ATOM     56  C   UNL A   1      41.824  31.559  36.909  1.00  0.00     0.031 C 
ATOM     57  C   UNL A   1      43.451  27.722  32.494  1.00  0.00     0.029 A 
ATOM     58  C   UNL A   1      42.803  28.716  33.209  1.00  0.00     0.049 A 
ATOM     59  H   UNL A   1      41.100  29.840  32.678  1.00  0.00     0.167 HD
ATOM     60  C   UNL A   1      42.420  30.195  35.163  1.00  0.00     0.074 A 
ATOM     61  C   UNL A   1      42.709  30.656  36.506  1.00  0.00     0.031 C 
ATOM     62  C   UNL A   1      43.118  29.227  34.519  1.00  0.00     0.034 A 
BRANCH  49  63
ATOM     63  C   UNL A   1      40.789  27.685  29.006  1.00  0.00     0.023 A 
ATOM     64  C   UNL A   1      39.875  26.616  28.919  1.00  0.00     0.012 A 
ATOM     65  C   UNL A   1      41.708  27.895  27.960  1.00  0.00     0.148 A 
ATOM     66  C   UNL A   1      39.901  25.745  27.831  1.00  0.00     0.002 A 
ATOM     67  C   UNL A   1      41.700  27.047  26.858  1.00  0.00     0.091 A 
ATOM     68  F   UNL A   1      42.590  28.899  28.070  1.00  0.00    -0.205 F 
ATOM     69  C   UNL A   1      40.806  25.966  26.797  1.00  0.00     0.022 A 
BRANCH  67  70
ATOM     70  S   UNL A   1      42.783  27.308  25.449  1.00  0.00     0.127 S 
ATOM     71  O   UNL A   1      42.641  26.045  24.727  1.00  0.00    -0.237 OA
ATOM     72  O   UNL A   1      42.168  28.460  24.787  1.00  0.00    -0.237 OA
ATOM     73  O   UNL A   1      44.100  27.574  26.012  1.00  0.00    -0.744 OA
ENDBRANCH  67  70
ENDBRANCH  49  63
BRANCH  50  74
ATOM     74  C   UNL A   1      39.659  33.563  36.986  1.00  0.00     0.023 A 
ATOM     75  C   UNL A   1      40.082  34.905  37.017  1.00  0.00     0.012 A 
ATOM     76  C   UNL A   1      38.948  33.040  38.083  1.00  0.00     0.148 A 
ATOM     77  C   UNL A   1      39.816  35.708  38.126  1.00  0.00     0.002 A 
ATOM     78  C   UNL A   1      38.640  33.861  39.162  1.00  0.00     0.091 A 
ATOM     79  F   UNL A   1      38.562  31.756  38.036  1.00  0.00    -0.205 F 
ATOM     80  C   UNL A   1      39.085  35.191  39.191  1.00  0.00     0.022 A 
BRANCH  78  81
ATOM     81  S   UNL A   1      37.584  33.324  40.514  1.00  0.00     0.127 S 
ATOM     82  O   UNL A   1      37.478  34.542  41.313  1.00  0.00    -0.237 OA
ATOM     83  O   UNL A   1      36.362  32.940  39.807  1.00  0.00    -0.237 OA
ATOM     84  O   UNL A   1      38.286  32.212  41.142  1.00  0.00    -0.744 OA
ENDBRANCH  78  81
ENDBRANCH  50  74
BRANCH  62  85
ATOM     85  C   UNL A   1      44.289  28.609  35.233  1.00  0.00     0.023 A 
ATOM     86  C   UNL A   1      45.585  29.111  35.008  1.00  0.00     0.012 A 
ATOM     87  C   UNL A   1      44.090  27.613  36.210  1.00  0.00     0.148 A 
ATOM     88  C   UNL A   1      46.670  28.620  35.734  1.00  0.00     0.002 A 
ATOM     89  C   UNL A   1      45.169  27.159  36.960  1.00  0.00     0.091 A 
ATOM     90  F   UNL A   1      42.851  27.137  36.395  1.00  0.00    -0.205 F 
ATOM     91  C   UNL A   1      46.461  27.657  36.718  1.00  0.00     0.022 A 
BRANCH  89  92
ATOM     92  S   UNL A   1      44.978  25.989  38.311  1.00  0.00     0.127 S 
ATOM     93  O   UNL A   1      43.938  26.630  39.115  1.00  0.00    -0.237 OA
ATOM     94  O   UNL A   1      44.550  24.776  37.614  1.00  0.00    -0.237 OA
ATOM     95  O   UNL A   1      46.287  25.892  38.944  1.00  0.00    -0.744 OA
ENDBRANCH  89  92
ENDBRANCH  62  85
ENDBRANCH  36  37
ENDBRANCH  28  31
ENDBRANCH  26  27
ENDBRANCH  25  26
ENDBRANCH   1  25
TORSDOF 17
ENDMDL
MODEL 2
REMARK VINA RESULT:     -12.2      6.329     11.400
REMARK SMILES C[C@@H](C(=O)NCCCCNC(=O)c1ccc(-c2c3nc(c(-c4cccc(S(=O)(=O)[O-])c4F)c4ccc([nH]4)c(-c4cccc(S(=O)(=O)[O-])c4F)c4nc(c(-c5cccc(S(=O)(=O)[O-])c5F)c5ccc2[nH]5)C=C4)C=C3)cc1)c1ccc(-c2ccn(C(F)F)c(=O)c2)cc1
REMARK SMILES IDX 7 1 6 2 5 3 3 4 4 5 2 7 1 8 76 9 77 10 91 11 78 12 90 13
REMARK SMILES IDX 79 14 80 15 81 16 89 17 82 18 87 19 83 20 88 21 84 22 85 23
REMARK SMILES IDX 86 24 8 25 9 26 10 27 11 28 12 30 13 31 14 32 75 33 15 34
REMARK SMILES IDX 74 35 16 36 17 37 18 38 68 39 19 40 73 41 67 42 69 43 20 44
REMARK SMILES IDX 72 45 66 46 65 47 21 49 53 50 33 51 52 52 34 53 37 54 51 55
REMARK SMILES IDX 70 56 35 57 36 58 50 60 71 61 38 62 22 63 23 64 31 65 24 66
REMARK SMILES IDX 26 67 32 68 25 69 27 70 28 71 29 72 30 73 54 74 55 75 63 76
REMARK SMILES IDX 56 77 58 78 64 79 57 80 59 81 60 82 61 83 62 84 39 85 40 86
REMARK SMILES IDX 48 87 41 88 43 89 49 90 42 91 44 92 45 93 46 94 47 95
REMARK H PARENT 5 6 10 29 69 48 37 59
REMARK Flexibility Score: inf
ROOT
ATOM      1  C   UNL A   1      34.955  21.663  24.494  1.00  0.00     0.023 C 
ENDROOT
BRANCH   1   2
ATOM      2  C   UNL A   1      34.335  22.951  25.043  1.00  0.00     0.116 C 
BRANCH   2   3
ATOM      3  N   UNL A   1      33.912  22.786  26.418  1.00  0.00    -0.356 N 
ATOM      4  C   UNL A   1      32.665  22.590  26.943  1.00  0.00     0.227 C 
ATOM      5  O   UNL A   1      32.574  22.582  28.172  1.00  0.00    -0.274 OA
ATOM      6  H   UNL A   1      34.638  22.820  27.082  1.00  0.00     0.163 HD
BRANCH   4   7
ATOM      7  C   UNL A   1      31.459  22.346  26.013  1.00  0.00     0.105 C 
ATOM      8  C   UNL A   1      31.771  21.231  25.005  1.00  0.00     0.023 C 
BRANCH   7   9
ATOM      9  C   UNL A   1      30.983  23.640  25.339  1.00  0.00    -0.036 A 
ATOM     10  C   UNL A   1      30.911  23.707  23.934  1.00  0.00     0.005 A 
ATOM     11  C   UNL A   1      30.593  24.772  26.069  1.00  0.00     0.005 A 
ATOM     12  C   UNL A   1      30.450  24.860  23.286  1.00  0.00     0.009 A 
ATOM     13  C   UNL A   1      30.150  25.926  25.426  1.00  0.00     0.009 A 
ATOM     14  C   UNL A   1      30.067  25.979  24.032  1.00  0.00    -0.018 A 
BRANCH  14  15
ATOM     15  C   UNL A   1      29.555  27.211  23.412  1.00  0.00    -0.011 A 
ATOM     16  C   UNL A   1      30.436  28.205  22.831  1.00  0.00     0.027 A 
ATOM     17  C   UNL A   1      28.238  27.470  23.502  1.00  0.00     0.080 A 
ATOM     18  C   UNL A   1      29.959  29.395  22.453  1.00  0.00     0.095 A 
ATOM     19  C   UNL A   1      27.688  28.778  23.051  1.00  0.00     0.255 A 
ATOM     20  N   UNL A   1      28.615  29.694  22.574  1.00  0.00    -0.258 N 
ATOM     21  O   UNL A   1      26.482  28.978  23.148  1.00  0.00    -0.269 OA
BRANCH  20  22
ATOM     22  C   UNL A   1      28.122  30.999  22.225  1.00  0.00     0.451 C 
ATOM     23  F   UNL A   1      27.384  31.537  23.225  1.00  0.00    -0.185 F 
ATOM     24  F   UNL A   1      29.142  31.849  21.950  1.00  0.00    -0.185 F 
ENDBRANCH  20  22
ENDBRANCH  14  15
ENDBRANCH   7   9
ENDBRANCH   4   7
ENDBRANCH   2   3
ENDBRANCH   1   2
BRANCH   1  25
ATOM     25  C   UNL A   1      36.465  21.723  24.263  1.00  0.00     0.023 C 
BRANCH  25  26
ATOM     26  C   UNL A   1      37.308  21.840  25.525  1.00  0.00     0.116 C 
BRANCH  26  27
ATOM     27  N   UNL A   1      38.278  20.761  25.667  1.00  0.00    -0.352 N 
ATOM     28  C   UNL A   1      39.552  20.828  26.180  1.00  0.00     0.251 C 
ATOM     29  H   UNL A   1      37.984  19.874  25.357  1.00  0.00     0.163 HD
ATOM     30  O   UNL A   1      40.297  19.853  26.135  1.00  0.00    -0.269 OA
BRANCH  28  31
ATOM     31  C   UNL A   1      40.021  22.105  26.753  1.00  0.00     0.039 A 
ATOM     32  C   UNL A   1      40.934  22.083  27.811  1.00  0.00     0.014 A 
ATOM     33  C   UNL A   1      39.612  23.315  26.190  1.00  0.00     0.014 A 
ATOM     34  C   UNL A   1      41.502  23.280  28.254  1.00  0.00     0.010 A 
ATOM     35  C   UNL A   1      40.228  24.496  26.587  1.00  0.00     0.010 A 
ATOM     36  C   UNL A   1      41.183  24.489  27.617  1.00  0.00    -0.014 A 
BRANCH  36  37
ATOM     37  C   UNL A   1      41.842  25.769  27.976  1.00  0.00     0.031 A 
ATOM     38  C   UNL A   1      41.052  26.847  28.661  1.00  0.00     0.074 A 
ATOM     39  C   UNL A   1      43.094  26.017  27.543  1.00  0.00     0.049 A 
ATOM     40  N   UNL A   1      41.382  28.088  28.898  1.00  0.00    -0.248 NA
ATOM     41  C   UNL A   1      39.692  26.491  29.098  1.00  0.00     0.031 C 
ATOM     42  C   UNL A   1      43.928  25.082  26.786  1.00  0.00     0.029 A 
ATOM     43  N   UNL A   1      43.860  27.153  27.628  1.00  0.00    -0.354 N 
ATOM     44  C   UNL A   1      40.256  28.677  29.458  1.00  0.00     0.074 A 
ATOM     45  C   UNL A   1      39.227  27.662  29.507  1.00  0.00     0.031 C 
ATOM     46  C   UNL A   1      45.078  25.690  26.454  1.00  0.00     0.029 A 
ATOM     47  C   UNL A   1      45.051  27.064  26.946  1.00  0.00     0.049 A 
ATOM     48  H   UNL A   1      43.584  27.955  28.129  1.00  0.00     0.167 HD
ATOM     49  C   UNL A   1      40.100  29.944  29.911  1.00  0.00     0.034 A 
ATOM     50  C   UNL A   1      46.005  27.991  26.721  1.00  0.00     0.034 A 
ATOM     51  C   UNL A   1      41.147  30.927  29.921  1.00  0.00     0.049 A 
ATOM     52  C   UNL A   1      45.844  29.366  27.307  1.00  0.00     0.074 A 
ATOM     53  C   UNL A   1      41.131  32.194  30.474  1.00  0.00     0.029 A 
ATOM     54  N   UNL A   1      42.398  30.755  29.348  1.00  0.00    -0.354 N 
ATOM     55  N   UNL A   1      44.840  29.853  27.994  1.00  0.00    -0.248 NA
ATOM     56  C   UNL A   1      46.958  30.308  27.121  1.00  0.00     0.031 C 
ATOM     57  C   UNL A   1      42.372  32.793  30.227  1.00  0.00     0.029 A 
ATOM     58  C   UNL A   1      43.162  31.894  29.529  1.00  0.00     0.049 A 
ATOM     59  H   UNL A   1      42.699  29.941  28.882  1.00  0.00     0.167 HD
ATOM     60  C   UNL A   1      45.211  31.145  28.350  1.00  0.00     0.074 A 
ATOM     61  C   UNL A   1      46.540  31.358  27.815  1.00  0.00     0.031 C 
ATOM     62  C   UNL A   1      44.508  32.072  29.045  1.00  0.00     0.034 A 
BRANCH  49  63
ATOM     63  C   UNL A   1      38.760  30.314  30.488  1.00  0.00     0.023 A 
ATOM     64  C   UNL A   1      38.466  29.982  31.826  1.00  0.00     0.012 A 
ATOM     65  C   UNL A   1      37.807  31.014  29.724  1.00  0.00     0.148 A 
ATOM     66  C   UNL A   1      37.230  30.304  32.382  1.00  0.00     0.002 A 
ATOM     67  C   UNL A   1      36.592  31.369  30.299  1.00  0.00     0.091 A 
ATOM     68  F   UNL A   1      38.091  31.297  28.444  1.00  0.00    -0.205 F 
ATOM     69  C   UNL A   1      36.297  31.005  31.623  1.00  0.00     0.022 A 
BRANCH  67  70
ATOM     70  S   UNL A   1      35.366  32.337  29.412  1.00  0.00     0.127 S 
ATOM     71  O   UNL A   1      34.903  31.382  28.407  1.00  0.00    -0.237 OA
ATOM     72  O   UNL A   1      34.388  32.642  30.458  1.00  0.00    -0.237 OA
ATOM     73  O   UNL A   1      36.081  33.500  28.904  1.00  0.00    -0.744 OA
ENDBRANCH  67  70
ENDBRANCH  49  63
BRANCH  50  74
ATOM     74  C   UNL A   1      47.224  27.611  25.953  1.00  0.00     0.023 A 
ATOM     75  C   UNL A   1      48.263  26.922  26.607  1.00  0.00     0.012 A 
ATOM     76  C   UNL A   1      47.325  27.856  24.570  1.00  0.00     0.148 A 
ATOM     77  C   UNL A   1      49.390  26.499  25.901  1.00  0.00     0.002 A 
ATOM     78  C   UNL A   1      48.427  27.386  23.863  1.00  0.00     0.091 A 
ATOM     79  F   UNL A   1      46.328  28.522  23.969  1.00  0.00    -0.205 F 
ATOM     80  C   UNL A   1      49.466  26.719  24.529  1.00  0.00     0.022 A 
BRANCH  78  81
ATOM     81  S   UNL A   1      48.545  27.499  22.073  1.00  0.00     0.127 S 
ATOM     82  O   UNL A   1      47.314  28.210  21.737  1.00  0.00    -0.237 OA
ATOM     83  O   UNL A   1      49.773  28.276  21.901  1.00  0.00    -0.237 OA
ATOM     84  O   UNL A   1      48.633  26.125  21.598  1.00  0.00    -0.744 OA
ENDBRANCH  78  81
ENDBRANCH  50  74
BRANCH  62  85
ATOM     85  C   UNL A   1      45.160  33.403  29.305  1.00  0.00     0.023 A 
ATOM     86  C   UNL A   1      46.062  33.538  30.377  1.00  0.00     0.012 A 
ATOM     87  C   UNL A   1      44.968  34.481  28.419  1.00  0.00     0.148 A 
ATOM     88  C   UNL A   1      46.752  34.733  30.574  1.00  0.00     0.002 A 
ATOM     89  C   UNL A   1      45.691  35.655  28.596  1.00  0.00     0.091 A 
ATOM     90  F   UNL A   1      44.090  34.336  27.415  1.00  0.00    -0.205 F 
ATOM     91  C   UNL A   1      46.579  35.785  29.677  1.00  0.00     0.022 A 
BRANCH  89  92
ATOM     92  S   UNL A   1      45.601  37.025  27.436  1.00  0.00     0.127 S 
ATOM     93  O   UNL A   1      46.155  38.123  28.228  1.00  0.00    -0.237 OA
ATOM     94  O   UNL A   1      46.462  36.566  26.345  1.00  0.00    -0.237 OA
ATOM     95  O   UNL A   1      44.195  37.157  27.080  1.00  0.00    -0.744 OA
ENDBRANCH  89  92
ENDBRANCH  62  85
ENDBRANCH  36  37
ENDBRANCH  28  31
ENDBRANCH  26  27
ENDBRANCH  25  26
ENDBRANCH   1  25
TORSDOF 17
ENDMDL
MODEL 3
REMARK VINA RESULT:     -12.1      1.876      2.416
REMARK SMILES C[C@@H](C(=O)NCCCCNC(=O)c1ccc(-c2c3nc(c(-c4cccc(S(=O)(=O)[O-])c4F)c4ccc([nH]4)c(-c4cccc(S(=O)(=O)[O-])c4F)c4nc(c(-c5cccc(S(=O)(=O)[O-])c5F)c5ccc2[nH]5)C=C4)C=C3)cc1)c1ccc(-c2ccn(C(F)F)c(=O)c2)cc1
REMARK SMILES IDX 7 1 6 2 5 3 3 4 4 5 2 7 1 8 76 9 77 10 91 11 78 12 90 13
REMARK SMILES IDX 79 14 80 15 81 16 89 17 82 18 87 19 83 20 88 21 84 22 85 23
REMARK SMILES IDX 86 24 8 25 9 26 10 27 11 28 12 30 13 31 14 32 75 33 15 34
REMARK SMILES IDX 74 35 16 36 17 37 18 38 68 39 19 40 73 41 67 42 69 43 20 44
REMARK SMILES IDX 72 45 66 46 65 47 21 49 53 50 33 51 52 52 34 53 37 54 51 55
REMARK SMILES IDX 70 56 35 57 36 58 50 60 71 61 38 62 22 63 23 64 31 65 24 66
REMARK SMILES IDX 26 67 32 68 25 69 27 70 28 71 29 72 30 73 54 74 55 75 63 76
REMARK SMILES IDX 56 77 58 78 64 79 57 80 59 81 60 82 61 83 62 84 39 85 40 86
REMARK SMILES IDX 48 87 41 88 43 89 49 90 42 91 44 92 45 93 46 94 47 95
REMARK H PARENT 5 6 10 29 69 48 37 59
REMARK Flexibility Score: inf
ROOT
ATOM      1  C   UNL A   1      32.457  27.808  27.084  1.00  0.00     0.023 C 
ENDROOT
BRANCH   1   2
ATOM      2  C   UNL A   1      32.669  26.778  25.971  1.00  0.00     0.116 C 
BRANCH   2   3
ATOM      3  N   UNL A   1      33.049  27.418  24.728  1.00  0.00    -0.356 N 
ATOM      4  C   UNL A   1      32.556  27.256  23.463  1.00  0.00     0.227 C 
ATOM      5  O   UNL A   1      33.137  27.860  22.559  1.00  0.00    -0.274 OA
ATOM      6  H   UNL A   1      33.779  28.074  24.807  1.00  0.00     0.163 HD
BRANCH   4   7
ATOM      7  C   UNL A   1      31.303  26.392  23.221  1.00  0.00     0.105 C 
ATOM      8  C   UNL A   1      30.154  26.838  24.134  1.00  0.00     0.023 C 
BRANCH   7   9
ATOM      9  C   UNL A   1      31.609  24.892  23.341  1.00  0.00    -0.036 A 
ATOM     10  C   UNL A   1      32.515  24.293  22.445  1.00  0.00     0.005 A 
ATOM     11  C   UNL A   1      31.033  24.081  24.329  1.00  0.00     0.005 A 
ATOM     12  C   UNL A   1      32.843  22.935  22.546  1.00  0.00     0.009 A 
ATOM     13  C   UNL A   1      31.344  22.726  24.421  1.00  0.00     0.009 A 
ATOM     14  C   UNL A   1      32.256  22.143  23.536  1.00  0.00    -0.018 A 
BRANCH  14  15
ATOM     15  C   UNL A   1      32.575  20.716  23.708  1.00  0.00    -0.011 A 
ATOM     16  C   UNL A   1      33.429  20.241  24.778  1.00  0.00     0.027 A 
ATOM     17  C   UNL A   1      32.156  19.853  22.766  1.00  0.00     0.080 A 
ATOM     18  C   UNL A   1      33.856  18.974  24.792  1.00  0.00     0.095 A 
ATOM     19  C   UNL A   1      32.594  18.429  22.791  1.00  0.00     0.255 A 
ATOM     20  N   UNL A   1      33.467  18.081  23.812  1.00  0.00    -0.258 N 
ATOM     21  O   UNL A   1      32.190  17.670  21.916  1.00  0.00    -0.269 OA
BRANCH  20  22
ATOM     22  C   UNL A   1      33.982  16.739  23.800  1.00  0.00     0.451 C 
ATOM     23  F   UNL A   1      34.432  16.388  22.572  1.00  0.00    -0.185 F 
ATOM     24  F   UNL A   1      35.005  16.600  24.680  1.00  0.00    -0.185 F 
ENDBRANCH  20  22
ENDBRANCH  14  15
ENDBRANCH   7   9
ENDBRANCH   4   7
ENDBRANCH   2   3
ENDBRANCH   1   2
BRANCH   1  25
ATOM     25  C   UNL A   1      31.786  29.108  26.638  1.00  0.00     0.023 C 
BRANCH  25  26
ATOM     26  C   UNL A   1      32.736  30.192  26.152  1.00  0.00     0.116 C 
BRANCH  26  27
ATOM     27  N   UNL A   1      32.358  31.527  26.600  1.00  0.00    -0.352 N 
ATOM     28  C   UNL A   1      33.061  32.376  27.422  1.00  0.00     0.251 C 
ATOM     29  H   UNL A   1      31.492  31.863  26.272  1.00  0.00     0.163 HD
ATOM     30  O   UNL A   1      32.563  33.432  27.804  1.00  0.00    -0.269 OA
BRANCH  28  31
ATOM     31  C   UNL A   1      34.410  31.977  27.870  1.00  0.00     0.039 A 
ATOM     32  C   UNL A   1      35.416  32.945  27.948  1.00  0.00     0.014 A 
ATOM     33  C   UNL A   1      34.650  30.665  28.281  1.00  0.00     0.014 A 
ATOM     34  C   UNL A   1      36.647  32.611  28.518  1.00  0.00     0.010 A 
ATOM     35  C   UNL A   1      35.850  30.354  28.908  1.00  0.00     0.010 A 
ATOM     36  C   UNL A   1      36.857  31.325  29.039  1.00  0.00    -0.014 A 
BRANCH  36  37
ATOM     37  C   UNL A   1      38.104  30.956  29.752  1.00  0.00     0.031 A 
ATOM     38  C   UNL A   1      39.042  29.953  29.143  1.00  0.00     0.074 A 
ATOM     39  C   UNL A   1      38.308  31.398  31.009  1.00  0.00     0.049 A 
ATOM     40  N   UNL A   1      40.080  29.366  29.673  1.00  0.00    -0.248 NA
ATOM     41  C   UNL A   1      38.743  29.522  27.767  1.00  0.00     0.031 C 
ATOM     42  C   UNL A   1      37.420  32.302  31.742  1.00  0.00     0.029 A 
ATOM     43  N   UNL A   1      39.298  31.099  31.912  1.00  0.00    -0.354 N 
ATOM     44  C   UNL A   1      40.525  28.456  28.723  1.00  0.00     0.074 A 
ATOM     45  C   UNL A   1      39.631  28.556  27.590  1.00  0.00     0.031 C 
ATOM     46  C   UNL A   1      37.890  32.464  32.988  1.00  0.00     0.029 A 
ATOM     47  C   UNL A   1      39.093  31.653  33.154  1.00  0.00     0.049 A 
ATOM     48  H   UNL A   1      40.080  30.542  31.692  1.00  0.00     0.167 HD
ATOM     49  C   UNL A   1      41.595  27.628  28.779  1.00  0.00     0.034 A 
ATOM     50  C   UNL A   1      39.782  31.508  34.304  1.00  0.00     0.034 A 
ATOM     51  C   UNL A   1      42.518  27.583  29.880  1.00  0.00     0.049 A 
ATOM     52  C   UNL A   1      41.015  30.647  34.316  1.00  0.00     0.074 A 
ATOM     53  C   UNL A   1      43.702  26.876  29.980  1.00  0.00     0.029 A 
ATOM     54  N   UNL A   1      42.359  28.271  31.072  1.00  0.00    -0.354 N 
ATOM     55  N   UNL A   1      41.526  29.929  33.346  1.00  0.00    -0.248 NA
ATOM     56  C   UNL A   1      41.788  30.603  35.566  1.00  0.00     0.031 C 
ATOM     57  C   UNL A   1      44.255  27.130  31.241  1.00  0.00     0.029 A 
ATOM     58  C   UNL A   1      43.420  28.003  31.919  1.00  0.00     0.049 A 
ATOM     59  H   UNL A   1      41.602  28.864  31.286  1.00  0.00     0.167 HD
ATOM     60  C   UNL A   1      42.694  29.373  33.853  1.00  0.00     0.074 A 
ATOM     61  C   UNL A   1      42.824  29.851  35.215  1.00  0.00     0.031 C 
ATOM     62  C   UNL A   1      43.570  28.533  33.250  1.00  0.00     0.034 A 
BRANCH  49  63
ATOM     63  C   UNL A   1      41.854  26.747  27.587  1.00  0.00     0.023 A 
ATOM     64  C   UNL A   1      42.438  27.301  26.429  1.00  0.00     0.012 A 
ATOM     65  C   UNL A   1      41.553  25.372  27.619  1.00  0.00     0.148 A 
ATOM     66  C   UNL A   1      42.679  26.511  25.308  1.00  0.00     0.002 A 
ATOM     67  C   UNL A   1      41.836  24.581  26.510  1.00  0.00     0.091 A 
ATOM     68  F   UNL A   1      40.973  24.866  28.716  1.00  0.00    -0.205 F 
ATOM     69  C   UNL A   1      42.388  25.150  25.351  1.00  0.00     0.022 A 
BRANCH  67  70
ATOM     70  S   UNL A   1      41.561  22.806  26.513  1.00  0.00     0.127 S 
ATOM     71  O   UNL A   1      40.101  22.732  26.485  1.00  0.00    -0.237 OA
ATOM     72  O   UNL A   1      42.215  22.384  25.274  1.00  0.00    -0.237 OA
ATOM     73  O   UNL A   1      42.200  22.314  27.726  1.00  0.00    -0.744 OA
ENDBRANCH  67  70
ENDBRANCH  49  63
BRANCH  50  74
ATOM     74  C   UNL A   1      39.342  32.253  35.517  1.00  0.00     0.023 A 
ATOM     75  C   UNL A   1      39.590  33.636  35.602  1.00  0.00     0.012 A 
ATOM     76  C   UNL A   1      38.616  31.620  36.543  1.00  0.00     0.148 A 
ATOM     77  C   UNL A   1      39.138  34.373  36.697  1.00  0.00     0.002 A 
ATOM     78  C   UNL A   1      38.122  32.370  37.605  1.00  0.00     0.091 A 
ATOM     79  F   UNL A   1      38.399  30.300  36.446  1.00  0.00    -0.205 F 
ATOM     80  C   UNL A   1      38.393  33.744  37.690  1.00  0.00     0.022 A 
BRANCH  78  81
ATOM     81  S   UNL A   1      37.036  31.674  38.857  1.00  0.00     0.127 S 
ATOM     82  O   UNL A   1      37.921  31.609  40.017  1.00  0.00    -0.237 OA
ATOM     83  O   UNL A   1      35.983  32.687  38.939  1.00  0.00    -0.237 OA
ATOM     84  O   UNL A   1      36.594  30.392  38.324  1.00  0.00    -0.744 OA
ENDBRANCH  78  81
ENDBRANCH  50  74
BRANCH  62  85
ATOM     85  C   UNL A   1      44.775  28.089  34.034  1.00  0.00     0.023 A 
ATOM     86  C   UNL A   1      45.936  28.885  34.036  1.00  0.00     0.012 A 
ATOM     87  C   UNL A   1      44.713  26.947  34.858  1.00  0.00     0.148 A 
ATOM     88  C   UNL A   1      47.026  28.542  34.835  1.00  0.00     0.002 A 
ATOM     89  C   UNL A   1      45.787  26.636  35.684  1.00  0.00     0.091 A 
ATOM     90  F   UNL A   1      43.605  26.194  34.825  1.00  0.00    -0.205 F 
ATOM     91  C   UNL A   1      46.947  27.429  35.668  1.00  0.00     0.022 A 
BRANCH  89  92
ATOM     92  S   UNL A   1      45.737  25.276  36.857  1.00  0.00     0.127 S 
ATOM     93  O   UNL A   1      44.628  25.672  37.725  1.00  0.00    -0.237 OA
ATOM     94  O   UNL A   1      45.455  24.129  35.992  1.00  0.00    -0.237 OA
ATOM     95  O   UNL A   1      47.048  25.245  37.492  1.00  0.00    -0.744 OA
ENDBRANCH  89  92
ENDBRANCH  62  85
ENDBRANCH  36  37
ENDBRANCH  28  31
ENDBRANCH  26  27
ENDBRANCH  25  26
ENDBRANCH   1  25
TORSDOF 17
ENDMDL
