MODEL 1
REMARK VINA RESULT:     -11.6      0.000      0.000
REMARK SMILES Cc1ccc(NC(=O)C[C@@H](C(=O)NCCCCNC(=O)c2ccc(-c3c4nc(c(-c5cccc(S(=O)(=O)[O-])c5F)c5ccc([nH]5)c(-c5cccc(S(=O)(=O)[O-])c5F)c5nc(c(-c6cccc(S(=O)(=O)[O-])c6F)c6ccc3[nH]6)C=C5)C=C4)cc2)[NH+](C)C)cc1Cl
REMARK SMILES IDX 15 1 14 2 13 3 11 4 12 5 10 7 9 8 7 9 6 10 8 12 5 13 1 14
REMARK SMILES IDX 2 15 3 16 88 17 4 18 87 19 89 20 84 21 85 22 86 23 16 25
REMARK SMILES IDX 17 26 18 27 19 28 20 30 21 31 22 32 83 33 23 34 82 35 24 36
REMARK SMILES IDX 25 37 26 38 76 39 27 40 81 41 75 42 77 43 28 44 80 45 74 46
REMARK SMILES IDX 73 47 29 49 61 50 41 51 60 52 42 53 45 54 59 55 78 56 43 57
REMARK SMILES IDX 44 58 58 60 79 61 46 62 30 63 31 64 39 65 32 66 34 67 40 68
REMARK SMILES IDX 33 69 35 70 36 71 37 72 38 73 62 74 63 75 71 76 64 77 66 78
REMARK SMILES IDX 72 79 65 80 67 81 68 82 69 83 70 84 47 85 48 86 56 87 49 88
REMARK SMILES IDX 51 89 57 90 50 91 52 92 53 93 54 94 55 95
REMARK H PARENT 13 6 6 11 84 24 18 29 77 48 45 59
REMARK Flexibility Score: inf
ROOT
ATOM      1  C   UNL A   1      31.797  27.485  26.902  1.00  0.00     0.023 C 
ENDROOT
BRANCH   1   2
ATOM      2  C   UNL A   1      32.114  26.094  26.342  1.00  0.00     0.116 C 
BRANCH   2   3
ATOM      3  N   UNL A   1      31.278  25.031  26.876  1.00  0.00    -0.351 N 
ATOM      4  C   UNL A   1      31.413  23.670  26.871  1.00  0.00     0.278 C 
ATOM      5  O   UNL A   1      30.618  23.045  27.578  1.00  0.00    -0.268 OA
ATOM      6  H   UNL A   1      30.461  25.350  27.325  1.00  0.00     0.163 HD
BRANCH   4   7
ATOM      7  C   UNL A   1      32.531  22.977  26.048  1.00  0.00     0.283 C 
BRANCH   7   8
ATOM      8  C   UNL A   1      32.178  21.601  25.443  1.00  0.00     0.175 C 
BRANCH   8   9
ATOM      9  C   UNL A   1      32.310  21.360  23.960  1.00  0.00     0.230 C 
ATOM     10  N   UNL A   1      32.143  22.325  23.010  1.00  0.00    -0.326 N 
ATOM     11  H   UNL A   1      32.216  21.987  22.088  1.00  0.00     0.169 HD
ATOM     12  O   UNL A   1      32.595  20.219  23.570  1.00  0.00    -0.274 OA
BRANCH  10  13
ATOM     13  C   UNL A   1      31.888  23.705  23.081  1.00  0.00     0.042 A 
ATOM     14  C   UNL A   1      30.598  27.790  22.553  1.00  0.00     0.046 C 
ATOM     15  C   UNL A   1      31.079  26.398  22.844  1.00  0.00    -0.032 A 
ATOM     16  C   UNL A   1      30.157  25.407  23.197  1.00  0.00     0.007 A 
ATOM     17  C   UNL A   1      32.429  26.040  22.741  1.00  0.00     0.046 A 
ATOM     18  C   UNL A   1      30.567  24.079  23.350  1.00  0.00     0.026 A 
ATOM     19  C   UNL A   1      32.830  24.700  22.857  1.00  0.00     0.047 A 
ATOM     20  Cl  UNL A   1      33.651  27.228  22.443  1.00  0.00    -0.084 Cl
ENDBRANCH  10  13
ENDBRANCH   8   9
ENDBRANCH   7   8
BRANCH   7  21
ATOM     21  N   UNL A   1      33.883  22.944  26.731  1.00  0.00    -0.329 N 
ATOM     22  C   UNL A   1      34.329  21.595  27.093  1.00  0.00     0.333 C 
ATOM     23  C   UNL A   1      34.966  23.611  26.006  1.00  0.00     0.333 C 
ATOM     24  H   UNL A   1      33.699  23.482  27.578  1.00  0.00     0.348 HD
ENDBRANCH   7  21
ENDBRANCH   4   7
ENDBRANCH   2   3
ENDBRANCH   1   2
BRANCH   1  25
ATOM     25  C   UNL A   1      31.794  28.631  25.895  1.00  0.00     0.023 C 
BRANCH  25  26
ATOM     26  C   UNL A   1      33.079  29.437  25.871  1.00  0.00     0.116 C 
BRANCH  26  27
ATOM     27  N   UNL A   1      32.858  30.821  26.272  1.00  0.00    -0.352 N 
ATOM     28  C   UNL A   1      33.477  31.563  27.243  1.00  0.00     0.251 C 
ATOM     29  H   UNL A   1      32.155  31.293  25.769  1.00  0.00     0.163 HD
ATOM     30  O   UNL A   1      32.984  32.643  27.589  1.00  0.00    -0.269 OA
BRANCH  28  31
ATOM     31  C   UNL A   1      34.721  31.083  27.878  1.00  0.00     0.039 A 
ATOM     32  C   UNL A   1      35.811  31.950  28.004  1.00  0.00     0.014 A 
ATOM     33  C   UNL A   1      34.822  29.768  28.333  1.00  0.00     0.014 A 
ATOM     34  C   UNL A   1      36.978  31.508  28.633  1.00  0.00     0.010 A 
ATOM     35  C   UNL A   1      35.935  29.369  29.061  1.00  0.00     0.010 A 
ATOM     36  C   UNL A   1      37.039  30.222  29.192  1.00  0.00    -0.014 A 
BRANCH  36  37
ATOM     37  C   UNL A   1      38.257  29.718  29.878  1.00  0.00     0.031 A 
ATOM     38  C   UNL A   1      38.607  30.237  31.250  1.00  0.00     0.074 A 
ATOM     39  C   UNL A   1      39.092  28.879  29.236  1.00  0.00     0.049 A 
ATOM     40  N   UNL A   1      39.670  30.004  31.974  1.00  0.00    -0.248 NA
ATOM     41  C   UNL A   1      37.658  31.178  31.873  1.00  0.00     0.031 C 
ATOM     42  C   UNL A   1      38.907  28.377  27.872  1.00  0.00     0.029 A 
ATOM     43  N   UNL A   1      40.281  28.321  29.635  1.00  0.00    -0.354 N 
ATOM     44  C   UNL A   1      39.542  30.805  33.105  1.00  0.00     0.074 A 
ATOM     45  C   UNL A   1      38.323  31.565  32.950  1.00  0.00     0.031 C 
ATOM     46  C   UNL A   1      39.939  27.578  27.553  1.00  0.00     0.029 A 
ATOM     47  C   UNL A   1      40.872  27.536  28.674  1.00  0.00     0.049 A 
ATOM     48  H   UNL A   1      40.673  28.471  30.525  1.00  0.00     0.167 HD
ATOM     49  C   UNL A   1      40.344  30.873  34.193  1.00  0.00     0.034 A 
ATOM     50  C   UNL A   1      42.038  26.860  28.693  1.00  0.00     0.034 A 
ATOM     51  C   UNL A   1      41.514  30.059  34.371  1.00  0.00     0.049 A 
ATOM     52  C   UNL A   1      42.876  26.895  29.943  1.00  0.00     0.074 A 
ATOM     53  C   UNL A   1      42.341  29.972  35.476  1.00  0.00     0.029 A 
ATOM     54  N   UNL A   1      42.022  29.190  33.418  1.00  0.00    -0.354 N 
ATOM     55  N   UNL A   1      42.658  27.540  31.064  1.00  0.00    -0.248 NA
ATOM     56  C   UNL A   1      44.100  26.081  29.948  1.00  0.00     0.031 C 
ATOM     57  C   UNL A   1      43.362  29.063  35.183  1.00  0.00     0.029 A 
ATOM     58  C   UNL A   1      43.153  28.563  33.906  1.00  0.00     0.049 A 
ATOM     59  H   UNL A   1      41.634  29.041  32.525  1.00  0.00     0.167 HD
ATOM     60  C   UNL A   1      43.691  27.179  31.919  1.00  0.00     0.074 A 
ATOM     61  C   UNL A   1      44.527  26.245  31.192  1.00  0.00     0.031 C 
ATOM     62  C   UNL A   1      43.936  27.591  33.188  1.00  0.00     0.034 A 
BRANCH  49  63
ATOM     63  C   UNL A   1      39.946  31.814  35.301  1.00  0.00     0.023 A 
ATOM     64  C   UNL A   1      40.463  33.127  35.322  1.00  0.00     0.012 A 
ATOM     65  C   UNL A   1      39.027  31.419  36.293  1.00  0.00     0.148 A 
ATOM     66  C   UNL A   1      40.105  34.018  36.333  1.00  0.00     0.002 A 
ATOM     67  C   UNL A   1      38.636  32.329  37.269  1.00  0.00     0.091 A 
ATOM     68  F   UNL A   1      38.562  30.163  36.271  1.00  0.00    -0.205 F 
ATOM     69  C   UNL A   1      39.185  33.623  37.299  1.00  0.00     0.022 A 
BRANCH  67  70
ATOM     70  S   UNL A   1      37.394  31.947  38.510  1.00  0.00     0.127 S 
ATOM     71  O   UNL A   1      38.122  32.222  39.749  1.00  0.00    -0.237 OA
ATOM     72  O   UNL A   1      36.340  32.912  38.196  1.00  0.00    -0.237 OA
ATOM     73  O   UNL A   1      37.027  30.555  38.297  1.00  0.00    -0.744 OA
ENDBRANCH  67  70
ENDBRANCH  49  63
BRANCH  50  74
ATOM     74  C   UNL A   1      42.441  26.033  27.520  1.00  0.00     0.023 A 
ATOM     75  C   UNL A   1      43.250  26.603  26.517  1.00  0.00     0.012 A 
ATOM     76  C   UNL A   1      42.057  24.683  27.406  1.00  0.00     0.148 A 
ATOM     77  C   UNL A   1      43.641  25.855  25.407  1.00  0.00     0.002 A 
ATOM     78  C   UNL A   1      42.497  23.927  26.326  1.00  0.00     0.091 A 
ATOM     79  F   UNL A   1      41.279  24.161  28.365  1.00  0.00    -0.205 F 
ATOM     80  C   UNL A   1      43.273  24.515  25.315  1.00  0.00     0.022 A 
BRANCH  78  81
ATOM     81  S   UNL A   1      42.185  22.162  26.196  1.00  0.00     0.127 S 
ATOM     82  O   UNL A   1      42.687  21.675  27.479  1.00  0.00    -0.237 OA
ATOM     83  O   UNL A   1      40.729  22.123  26.048  1.00  0.00    -0.237 OA
ATOM     84  O   UNL A   1      42.918  21.720  25.019  1.00  0.00    -0.744 OA
ENDBRANCH  78  81
ENDBRANCH  50  74
BRANCH  62  85
ATOM     85  C   UNL A   1      45.126  27.004  33.898  1.00  0.00     0.023 A 
ATOM     86  C   UNL A   1      46.362  27.680  33.876  1.00  0.00     0.012 A 
ATOM     87  C   UNL A   1      44.992  25.827  34.660  1.00  0.00     0.148 A 
ATOM     88  C   UNL A   1      47.455  27.176  34.579  1.00  0.00     0.002 A 
ATOM     89  C   UNL A   1      46.071  25.360  35.399  1.00  0.00     0.091 A 
ATOM     90  F   UNL A   1      43.811  25.191  34.652  1.00  0.00    -0.205 F 
ATOM     91  C   UNL A   1      47.306  26.025  35.350  1.00  0.00     0.022 A 
BRANCH  89  92
ATOM     92  S   UNL A   1      45.941  23.946  36.500  1.00  0.00     0.127 S 
ATOM     93  O   UNL A   1      47.315  23.818  36.982  1.00  0.00    -0.237 OA
ATOM     94  O   UNL A   1      44.985  24.419  37.501  1.00  0.00    -0.237 OA
ATOM     95  O   UNL A   1      45.461  22.841  35.680  1.00  0.00    -0.744 OA
ENDBRANCH  89  92
ENDBRANCH  62  85
ENDBRANCH  36  37
ENDBRANCH  28  31
ENDBRANCH  26  27
ENDBRANCH  25  26
ENDBRANCH   1  25
TORSDOF 18
ENDMDL
MODEL 2
REMARK VINA RESULT:     -11.5      5.447      8.331
REMARK SMILES Cc1ccc(NC(=O)C[C@@H](C(=O)NCCCCNC(=O)c2ccc(-c3c4nc(c(-c5cccc(S(=O)(=O)[O-])c5F)c5ccc([nH]5)c(-c5cccc(S(=O)(=O)[O-])c5F)c5nc(c(-c6cccc(S(=O)(=O)[O-])c6F)c6ccc3[nH]6)C=C5)C=C4)cc2)[NH+](C)C)cc1Cl
REMARK SMILES IDX 15 1 14 2 13 3 11 4 12 5 10 7 9 8 7 9 6 10 8 12 5 13 1 14
REMARK SMILES IDX 2 15 3 16 88 17 4 18 87 19 89 20 84 21 85 22 86 23 16 25
REMARK SMILES IDX 17 26 18 27 19 28 20 30 21 31 22 32 83 33 23 34 82 35 24 36
REMARK SMILES IDX 25 37 26 38 76 39 27 40 81 41 75 42 77 43 28 44 80 45 74 46
REMARK SMILES IDX 73 47 29 49 61 50 41 51 60 52 42 53 45 54 59 55 78 56 43 57
REMARK SMILES IDX 44 58 58 60 79 61 46 62 30 63 31 64 39 65 32 66 34 67 40 68
REMARK SMILES IDX 33 69 35 70 36 71 37 72 38 73 62 74 63 75 71 76 64 77 66 78
REMARK SMILES IDX 72 79 65 80 67 81 68 82 69 83 70 84 47 85 48 86 56 87 49 88
REMARK SMILES IDX 51 89 57 90 50 91 52 92 53 93 54 94 55 95
REMARK H PARENT 13 6 6 11 84 24 18 29 77 48 45 59
REMARK Flexibility Score: inf
ROOT
ATOM      1  C   UNL A   1      36.364  20.421  24.861  1.00  0.00     0.023 C 
ENDROOT
BRANCH   1   2
ATOM      2  C   UNL A   1      36.223  21.744  25.621  1.00  0.00     0.116 C 
BRANCH   2   3
ATOM      3  N   UNL A   1      35.327  21.683  26.765  1.00  0.00    -0.351 N 
ATOM      4  C   UNL A   1      34.040  22.108  26.943  1.00  0.00     0.278 C 
ATOM      5  O   UNL A   1      33.488  21.738  27.983  1.00  0.00    -0.268 OA
ATOM      6  H   UNL A   1      35.721  21.255  27.560  1.00  0.00     0.163 HD
BRANCH   4   7
ATOM      7  C   UNL A   1      33.323  22.973  25.872  1.00  0.00     0.283 C 
BRANCH   7   8
ATOM      8  C   UNL A   1      32.487  24.157  26.401  1.00  0.00     0.175 C 
BRANCH   8   9
ATOM      9  C   UNL A   1      31.005  24.002  26.638  1.00  0.00     0.230 C 
ATOM     10  N   UNL A   1      30.067  24.908  26.235  1.00  0.00    -0.326 N 
ATOM     11  H   UNL A   1      29.151  24.676  26.513  1.00  0.00     0.169 HD
ATOM     12  O   UNL A   1      30.605  22.990  27.229  1.00  0.00    -0.274 OA
BRANCH  10  13
ATOM     13  C   UNL A   1      30.143  26.104  25.501  1.00  0.00     0.042 A 
ATOM     14  C   UNL A   1      30.618  29.225  22.558  1.00  0.00     0.046 C 
ATOM     15  C   UNL A   1      30.396  28.215  23.646  1.00  0.00    -0.032 A 
ATOM     16  C   UNL A   1      29.363  27.279  23.522  1.00  0.00     0.007 A 
ATOM     17  C   UNL A   1      31.214  28.152  24.781  1.00  0.00     0.046 A 
ATOM     18  C   UNL A   1      29.218  26.256  24.463  1.00  0.00     0.026 A 
ATOM     19  C   UNL A   1      31.089  27.100  25.702  1.00  0.00     0.047 A 
ATOM     20  Cl  UNL A   1      32.425  29.351  25.082  1.00  0.00    -0.084 Cl
ENDBRANCH  10  13
ENDBRANCH   8   9
ENDBRANCH   7   8
BRANCH   7  21
ATOM     21  N   UNL A   1      32.553  22.177  24.839  1.00  0.00    -0.329 N 
ATOM     22  C   UNL A   1      33.122  22.254  23.489  1.00  0.00     0.333 C 
ATOM     23  C   UNL A   1      32.335  20.767  25.169  1.00  0.00     0.333 C 
ATOM     24  H   UNL A   1      31.645  22.642  24.854  1.00  0.00     0.348 HD
ENDBRANCH   7  21
ENDBRANCH   4   7
ENDBRANCH   2   3
ENDBRANCH   1   2
BRANCH   1  25
ATOM     25  C   UNL A   1      37.781  19.871  24.726  1.00  0.00     0.023 C 
BRANCH  25  26
ATOM     26  C   UNL A   1      38.719  20.296  25.839  1.00  0.00     0.116 C 
BRANCH  26  27
ATOM     27  N   UNL A   1      39.807  19.344  26.024  1.00  0.00    -0.352 N 
ATOM     28  C   UNL A   1      41.150  19.566  26.176  1.00  0.00     0.251 C 
ATOM     29  H   UNL A   1      39.534  18.398  26.040  1.00  0.00     0.163 HD
ATOM     30  O   UNL A   1      41.937  18.616  26.080  1.00  0.00    -0.269 OA
BRANCH  28  31
ATOM     31  C   UNL A   1      41.662  20.924  26.447  1.00  0.00     0.039 A 
ATOM     32  C   UNL A   1      41.855  21.814  25.386  1.00  0.00     0.014 A 
ATOM     33  C   UNL A   1      41.972  21.318  27.750  1.00  0.00     0.014 A 
ATOM     34  C   UNL A   1      42.308  23.111  25.643  1.00  0.00     0.010 A 
ATOM     35  C   UNL A   1      42.307  22.638  28.014  1.00  0.00     0.010 A 
ATOM     36  C   UNL A   1      42.512  23.542  26.963  1.00  0.00    -0.014 A 
BRANCH  36  37
ATOM     37  C   UNL A   1      42.983  24.915  27.279  1.00  0.00     0.031 A 
ATOM     38  C   UNL A   1      42.042  25.893  27.936  1.00  0.00     0.074 A 
ATOM     39  C   UNL A   1      44.210  25.311  26.890  1.00  0.00     0.049 A 
ATOM     40  N   UNL A   1      42.222  27.160  28.204  1.00  0.00    -0.248 NA
ATOM     41  C   UNL A   1      40.704  25.392  28.302  1.00  0.00     0.031 C 
ATOM     42  C   UNL A   1      45.179  24.484  26.166  1.00  0.00     0.029 A 
ATOM     43  N   UNL A   1      44.844  26.521  27.023  1.00  0.00    -0.354 N 
ATOM     44  C   UNL A   1      41.011  27.615  28.716  1.00  0.00     0.074 A 
ATOM     45  C   UNL A   1      40.090  26.503  28.679  1.00  0.00     0.031 C 
ATOM     46  C   UNL A   1      46.287  25.206  25.931  1.00  0.00     0.029 A 
ATOM     47  C   UNL A   1      46.096  26.554  26.455  1.00  0.00     0.049 A 
ATOM     48  H   UNL A   1      44.440  27.292  27.482  1.00  0.00     0.167 HD
ATOM     49  C   UNL A   1      40.704  28.837  29.210  1.00  0.00     0.034 A 
ATOM     50  C   UNL A   1      46.989  27.560  26.366  1.00  0.00     0.034 A 
ATOM     51  C   UNL A   1      41.648  29.915  29.310  1.00  0.00     0.049 A 
ATOM     52  C   UNL A   1      46.650  28.889  26.987  1.00  0.00     0.074 A 
ATOM     53  C   UNL A   1      41.473  31.160  29.888  1.00  0.00     0.029 A 
ATOM     54  N   UNL A   1      42.945  29.875  28.824  1.00  0.00    -0.354 N 
ATOM     55  N   UNL A   1      45.552  29.253  27.606  1.00  0.00    -0.248 NA
ATOM     56  C   UNL A   1      47.683  29.932  26.934  1.00  0.00     0.031 C 
ATOM     57  C   UNL A   1      42.661  31.880  29.732  1.00  0.00     0.029 A 
ATOM     58  C   UNL A   1      43.584  31.073  29.083  1.00  0.00     0.049 A 
ATOM     59  H   UNL A   1      43.351  29.106  28.362  1.00  0.00     0.167 HD
ATOM     60  C   UNL A   1      45.778  30.549  28.051  1.00  0.00     0.074 A 
ATOM     61  C   UNL A   1      47.123  30.901  27.645  1.00  0.00     0.031 C 
ATOM     62  C   UNL A   1      44.944  31.381  28.724  1.00  0.00     0.034 A 
BRANCH  49  63
ATOM     63  C   UNL A   1      39.308  29.051  29.737  1.00  0.00     0.023 A 
ATOM     64  C   UNL A   1      38.984  28.638  31.047  1.00  0.00     0.012 A 
ATOM     65  C   UNL A   1      38.331  29.703  28.959  1.00  0.00     0.148 A 
ATOM     66  C   UNL A   1      37.702  28.831  31.559  1.00  0.00     0.002 A 
ATOM     67  C   UNL A   1      37.070  29.937  29.494  1.00  0.00     0.091 A 
ATOM     68  F   UNL A   1      38.648  30.071  27.710  1.00  0.00    -0.205 F 
ATOM     69  C   UNL A   1      36.749  29.490  30.788  1.00  0.00     0.022 A 
BRANCH  67  70
ATOM     70  S   UNL A   1      35.797  30.851  28.616  1.00  0.00     0.127 S 
ATOM     71  O   UNL A   1      35.222  29.809  27.765  1.00  0.00    -0.237 OA
ATOM     72  O   UNL A   1      34.928  31.294  29.706  1.00  0.00    -0.237 OA
ATOM     73  O   UNL A   1      36.484  31.923  27.912  1.00  0.00    -0.744 OA
ENDBRANCH  67  70
ENDBRANCH  49  63
BRANCH  50  74
ATOM     74  C   UNL A   1      48.316  27.326  25.728  1.00  0.00     0.023 A 
ATOM     75  C   UNL A   1      49.393  26.877  26.518  1.00  0.00     0.012 A 
ATOM     76  C   UNL A   1      48.511  27.513  24.346  1.00  0.00     0.148 A 
ATOM     77  C   UNL A   1      50.647  26.652  25.951  1.00  0.00     0.002 A 
ATOM     78  C   UNL A   1      49.747  27.231  23.777  1.00  0.00     0.091 A 
ATOM     79  F   UNL A   1      47.477  27.948  23.612  1.00  0.00    -0.205 F 
ATOM     80  C   UNL A   1      50.822  26.818  24.580  1.00  0.00     0.022 A 
BRANCH  78  81
ATOM     81  S   UNL A   1      50.025  27.288  22.003  1.00  0.00     0.127 S 
ATOM     82  O   UNL A   1      51.406  26.822  21.901  1.00  0.00    -0.237 OA
ATOM     83  O   UNL A   1      49.018  26.347  21.509  1.00  0.00    -0.237 OA
ATOM     84  O   UNL A   1      49.791  28.671  21.614  1.00  0.00    -0.744 OA
ENDBRANCH  78  81
ENDBRANCH  50  74
BRANCH  62  85
ATOM     85  C   UNL A   1      45.469  32.737  29.111  1.00  0.00     0.023 A 
ATOM     86  C   UNL A   1      46.131  32.910  30.342  1.00  0.00     0.012 A 
ATOM     87  C   UNL A   1      45.381  33.818  28.212  1.00  0.00     0.148 A 
ATOM     88  C   UNL A   1      46.673  34.147  30.684  1.00  0.00     0.002 A 
ATOM     89  C   UNL A   1      45.969  35.033  28.538  1.00  0.00     0.091 A 
ATOM     90  F   UNL A   1      44.731  33.635  27.053  1.00  0.00    -0.205 F 
ATOM     91  C   UNL A   1      46.604  35.204  29.778  1.00  0.00     0.022 A 
BRANCH  89  92
ATOM     92  S   UNL A   1      46.018  36.416  27.391  1.00  0.00     0.127 S 
ATOM     93  O   UNL A   1      46.585  35.790  26.198  1.00  0.00    -0.237 OA
ATOM     94  O   UNL A   1      44.605  36.775  27.279  1.00  0.00    -0.237 OA
ATOM     95  O   UNL A   1      46.852  37.430  28.021  1.00  0.00    -0.744 OA
ENDBRANCH  89  92
ENDBRANCH  62  85
ENDBRANCH  36  37
ENDBRANCH  28  31
ENDBRANCH  26  27
ENDBRANCH  25  26
ENDBRANCH   1  25
TORSDOF 18
ENDMDL
MODEL 3
REMARK VINA RESULT:     -11.4      2.563      8.347
REMARK SMILES Cc1ccc(NC(=O)C[C@@H](C(=O)NCCCCNC(=O)c2ccc(-c3c4nc(c(-c5cccc(S(=O)(=O)[O-])c5F)c5ccc([nH]5)c(-c5cccc(S(=O)(=O)[O-])c5F)c5nc(c(-c6cccc(S(=O)(=O)[O-])c6F)c6ccc3[nH]6)C=C5)C=C4)cc2)[NH+](C)C)cc1Cl
REMARK SMILES IDX 15 1 14 2 13 3 11 4 12 5 10 7 9 8 7 9 6 10 8 12 5 13 1 14
REMARK SMILES IDX 2 15 3 16 88 17 4 18 87 19 89 20 84 21 85 22 86 23 16 25
REMARK SMILES IDX 17 26 18 27 19 28 20 30 21 31 22 32 83 33 23 34 82 35 24 36
REMARK SMILES IDX 25 37 26 38 76 39 27 40 81 41 75 42 77 43 28 44 80 45 74 46
REMARK SMILES IDX 73 47 29 49 61 50 41 51 60 52 42 53 45 54 59 55 78 56 43 57
REMARK SMILES IDX 44 58 58 60 79 61 46 62 30 63 31 64 39 65 32 66 34 67 40 68
REMARK SMILES IDX 33 69 35 70 36 71 37 72 38 73 62 74 63 75 71 76 64 77 66 78
REMARK SMILES IDX 72 79 65 80 67 81 68 82 69 83 70 84 47 85 48 86 56 87 49 88
REMARK SMILES IDX 51 89 57 90 50 91 52 92 53 93 54 94 55 95
REMARK H PARENT 13 6 6 11 84 24 18 29 77 48 45 59
REMARK Flexibility Score: inf
ROOT
ATOM      1  C   UNL A   1      31.687  30.364  26.633  1.00  0.00     0.023 C 
ENDROOT
BRANCH   1   2
ATOM      2  C   UNL A   1      32.192  29.866  25.275  1.00  0.00     0.116 C 
BRANCH   2   3
ATOM      3  N   UNL A   1      31.139  29.586  24.312  1.00  0.00    -0.351 N 
ATOM      4  C   UNL A   1      30.637  28.413  23.820  1.00  0.00     0.278 C 
ATOM      5  O   UNL A   1      29.607  28.506  23.147  1.00  0.00    -0.268 OA
ATOM      6  H   UNL A   1      30.706  30.392  23.946  1.00  0.00     0.163 HD
BRANCH   4   7
ATOM      7  C   UNL A   1      31.318  27.054  24.131  1.00  0.00     0.283 C 
BRANCH   7   8
ATOM      8  C   UNL A   1      30.954  25.880  23.198  1.00  0.00     0.175 C 
BRANCH   8   9
ATOM      9  C   UNL A   1      31.711  25.664  21.911  1.00  0.00     0.230 C 
ATOM     10  N   UNL A   1      32.764  24.806  21.777  1.00  0.00    -0.326 N 
ATOM     11  H   UNL A   1      33.174  24.823  20.881  1.00  0.00     0.169 HD
ATOM     12  O   UNL A   1      31.357  26.295  20.905  1.00  0.00    -0.274 OA
BRANCH  10  13
ATOM     13  C   UNL A   1      33.382  23.903  22.658  1.00  0.00     0.042 A 
ATOM     14  C   UNL A   1      34.493  21.197  25.833  1.00  0.00     0.046 C 
ATOM     15  C   UNL A   1      34.194  22.096  24.668  1.00  0.00    -0.032 A 
ATOM     16  C   UNL A   1      33.179  21.751  23.769  1.00  0.00     0.007 A 
ATOM     17  C   UNL A   1      34.880  23.300  24.462  1.00  0.00     0.046 A 
ATOM     18  C   UNL A   1      32.803  22.632  22.752  1.00  0.00     0.026 A 
ATOM     19  C   UNL A   1      34.474  24.199  23.464  1.00  0.00     0.047 A 
ATOM     20  Cl  UNL A   1      36.237  23.738  25.442  1.00  0.00    -0.084 Cl
ENDBRANCH  10  13
ENDBRANCH   8   9
ENDBRANCH   7   8
BRANCH   7  21
ATOM     21  N   UNL A   1      31.247  26.638  25.587  1.00  0.00    -0.329 N 
ATOM     22  C   UNL A   1      30.177  25.678  25.875  1.00  0.00     0.333 C 
ATOM     23  C   UNL A   1      32.496  26.123  26.152  1.00  0.00     0.333 C 
ATOM     24  H   UNL A   1      31.042  27.526  26.045  1.00  0.00     0.348 HD
ENDBRANCH   7  21
ENDBRANCH   4   7
ENDBRANCH   2   3
ENDBRANCH   1   2
BRANCH   1  25
ATOM     25  C   UNL A   1      31.524  31.874  26.778  1.00  0.00     0.023 C 
BRANCH  25  26
ATOM     26  C   UNL A   1      32.829  32.620  26.988  1.00  0.00     0.116 C 
BRANCH  26  27
ATOM     27  N   UNL A   1      32.611  33.941  27.561  1.00  0.00    -0.352 N 
ATOM     28  C   UNL A   1      33.165  34.518  28.674  1.00  0.00     0.251 C 
ATOM     29  H   UNL A   1      31.966  34.505  27.076  1.00  0.00     0.163 HD
ATOM     30  O   UNL A   1      32.673  35.557  29.128  1.00  0.00    -0.269 OA
BRANCH  28  31
ATOM     31  C   UNL A   1      34.338  33.908  29.332  1.00  0.00     0.039 A 
ATOM     32  C   UNL A   1      35.618  34.393  29.048  1.00  0.00     0.014 A 
ATOM     33  C   UNL A   1      34.179  32.841  30.217  1.00  0.00     0.014 A 
ATOM     34  C   UNL A   1      36.728  33.839  29.693  1.00  0.00     0.010 A 
ATOM     35  C   UNL A   1      35.265  32.374  30.943  1.00  0.00     0.010 A 
ATOM     36  C   UNL A   1      36.557  32.843  30.667  1.00  0.00    -0.014 A 
BRANCH  36  37
ATOM     37  C   UNL A   1      37.709  32.236  31.383  1.00  0.00     0.031 A 
ATOM     38  C   UNL A   1      38.478  31.111  30.737  1.00  0.00     0.074 A 
ATOM     39  C   UNL A   1      38.000  32.624  32.639  1.00  0.00     0.049 A 
ATOM     40  N   UNL A   1      39.445  30.382  31.231  1.00  0.00    -0.248 NA
ATOM     41  C   UNL A   1      38.077  30.722  29.373  1.00  0.00     0.031 C 
ATOM     42  C   UNL A   1      37.272  33.640  33.404  1.00  0.00     0.029 A 
ATOM     43  N   UNL A   1      38.969  32.189  33.508  1.00  0.00    -0.354 N 
ATOM     44  C   UNL A   1      39.729  29.423  30.264  1.00  0.00     0.074 A 
ATOM     45  C   UNL A   1      38.802  29.632  29.175  1.00  0.00     0.031 C 
ATOM     46  C   UNL A   1      37.827  33.759  34.621  1.00  0.00     0.029 A 
ATOM     47  C   UNL A   1      38.927  32.806  34.737  1.00  0.00     0.049 A 
ATOM     48  H   UNL A   1      39.631  31.500  33.274  1.00  0.00     0.167 HD
ATOM     49  C   UNL A   1      40.699  28.480  30.262  1.00  0.00     0.034 A 
ATOM     50  C   UNL A   1      39.688  32.622  35.834  1.00  0.00     0.034 A 
ATOM     51  C   UNL A   1      41.662  28.328  31.316  1.00  0.00     0.049 A 
ATOM     52  C   UNL A   1      40.806  31.616  35.780  1.00  0.00     0.074 A 
ATOM     53  C   UNL A   1      42.751  27.475  31.371  1.00  0.00     0.029 A 
ATOM     54  N   UNL A   1      41.656  29.049  32.500  1.00  0.00    -0.354 N 
ATOM     55  N   UNL A   1      41.156  30.824  34.795  1.00  0.00    -0.248 NA
ATOM     56  C   UNL A   1      41.659  31.504  36.972  1.00  0.00     0.031 C 
ATOM     57  C   UNL A   1      43.390  27.667  32.599  1.00  0.00     0.029 A 
ATOM     58  C   UNL A   1      42.718  28.660  33.296  1.00  0.00     0.049 A 
ATOM     59  H   UNL A   1      40.993  29.737  32.739  1.00  0.00     0.167 HD
ATOM     60  C   UNL A   1      42.291  30.152  35.231  1.00  0.00     0.074 A 
ATOM     61  C   UNL A   1      42.579  30.642  36.564  1.00  0.00     0.031 C 
ATOM     62  C   UNL A   1      43.022  29.204  34.594  1.00  0.00     0.034 A 
BRANCH  49  63
ATOM     63  C   UNL A   1      40.804  27.582  29.056  1.00  0.00     0.023 A 
ATOM     64  C   UNL A   1      39.958  26.458  28.946  1.00  0.00     0.012 A 
ATOM     65  C   UNL A   1      41.702  27.874  28.010  1.00  0.00     0.148 A 
ATOM     66  C   UNL A   1      40.033  25.616  27.837  1.00  0.00     0.002 A 
ATOM     67  C   UNL A   1      41.735  27.059  26.885  1.00  0.00     0.091 A 
ATOM     68  F   UNL A   1      42.513  28.933  28.140  1.00  0.00    -0.205 F 
ATOM     69  C   UNL A   1      40.912  25.923  26.803  1.00  0.00     0.022 A 
BRANCH  67  70
ATOM     70  S   UNL A   1      42.772  27.412  25.461  1.00  0.00     0.127 S 
ATOM     71  O   UNL A   1      44.053  27.717  26.098  1.00  0.00    -0.237 OA
ATOM     72  O   UNL A   1      42.741  26.141  24.736  1.00  0.00    -0.237 OA
ATOM     73  O   UNL A   1      42.138  28.524  24.768  1.00  0.00    -0.744 OA
ENDBRANCH  67  70
ENDBRANCH  49  63
BRANCH  50  74
ATOM     74  C   UNL A   1      39.465  33.461  37.046  1.00  0.00     0.023 A 
ATOM     75  C   UNL A   1      39.960  34.780  37.074  1.00  0.00     0.012 A 
ATOM     76  C   UNL A   1      38.743  32.976  38.153  1.00  0.00     0.148 A 
ATOM     77  C   UNL A   1      39.770  35.589  38.194  1.00  0.00     0.002 A 
ATOM     78  C   UNL A   1      38.508  33.806  39.243  1.00  0.00     0.091 A 
ATOM     79  F   UNL A   1      38.288  31.716  38.112  1.00  0.00    -0.205 F 
ATOM     80  C   UNL A   1      39.036  35.106  39.275  1.00  0.00     0.022 A 
BRANCH  78  81
ATOM     81  S   UNL A   1      37.460  33.315  40.617  1.00  0.00     0.127 S 
ATOM     82  O   UNL A   1      37.370  34.555  41.384  1.00  0.00    -0.237 OA
ATOM     83  O   UNL A   1      36.227  32.923  39.932  1.00  0.00    -0.237 OA
ATOM     84  O   UNL A   1      38.157  32.215  41.268  1.00  0.00    -0.744 OA
ENDBRANCH  78  81
ENDBRANCH  50  74
BRANCH  62  85
ATOM     85  C   UNL A   1      44.236  28.663  35.300  1.00  0.00     0.023 A 
ATOM     86  C   UNL A   1      45.502  29.232  35.059  1.00  0.00     0.012 A 
ATOM     87  C   UNL A   1      44.103  27.649  36.269  1.00  0.00     0.148 A 
ATOM     88  C   UNL A   1      46.623  28.779  35.752  1.00  0.00     0.002 A 
ATOM     89  C   UNL A   1      45.216  27.238  36.991  1.00  0.00     0.091 A 
ATOM     90  F   UNL A   1      42.892  27.110  36.469  1.00  0.00    -0.205 F 
ATOM     91  C   UNL A   1      46.478  27.792  36.725  1.00  0.00     0.022 A 
BRANCH  89  92
ATOM     92  S   UNL A   1      45.105  26.049  38.334  1.00  0.00     0.127 S 
ATOM     93  O   UNL A   1      46.486  26.015  38.813  1.00  0.00    -0.237 OA
ATOM     94  O   UNL A   1      44.159  26.696  39.243  1.00  0.00    -0.237 OA
ATOM     95  O   UNL A   1      44.620  24.813  37.736  1.00  0.00    -0.744 OA
ENDBRANCH  89  92
ENDBRANCH  62  85
ENDBRANCH  36  37
ENDBRANCH  28  31
ENDBRANCH  26  27
ENDBRANCH  25  26
ENDBRANCH   1  25
TORSDOF 18
ENDMDL
