MODEL 1
REMARK VINA RESULT:     -13.1      0.000      0.000
REMARK SMILES N#C/C(=C\c1ccc(-c2ccc(C(=O)NCCCCNC(=O)c3ccc(-c4c5nc(c(-c6cccc(S(=O)(=O)[O-])c6F)c6ccc([nH]6)c(-c6cccc(S(=O)(=O)[O-])c6F)c6nc(c(-c7cccc(S(=O)(=O)[O-])c7F)c7ccc4[nH]7)C=C6)C=C5)cc3)cc2)o1)[C@@H]1N=c2cc(Br)cnc2=N1
REMARK SMILES IDX 17 1 16 2 15 3 13 4 14 5 12 7 9 8 10 9 87 10 11 11 86 12
REMARK SMILES IDX 8 13 5 14 6 15 88 16 7 17 4 18 3 19 2 20 1 21 89 22 90 23
REMARK SMILES IDX 98 24 91 25 97 26 92 27 96 28 93 29 95 30 94 31 18 32 19 33
REMARK SMILES IDX 20 34 21 35 22 37 23 38 24 39 85 40 25 41 84 42 26 43 27 44
REMARK SMILES IDX 28 45 78 46 29 47 83 48 77 49 79 50 30 51 82 52 76 53 75 54
REMARK SMILES IDX 31 56 63 57 43 58 62 59 44 60 47 61 61 62 80 63 45 64 46 65
REMARK SMILES IDX 60 67 81 68 48 69 32 70 33 71 41 72 34 73 36 74 42 75 35 76
REMARK SMILES IDX 37 77 38 78 39 79 40 80 64 81 65 82 73 83 66 84 68 85 74 86
REMARK SMILES IDX 67 87 69 88 70 89 71 90 72 91 49 92 50 93 58 94 51 95 53 96
REMARK SMILES IDX 59 97 52 98 54 99 55 100 56 101 57 102
REMARK H PARENT 15 6 20 36 79 55 47 66
REMARK Flexibility Score: inf
ROOT
ATOM      1  C   UNL A   1      37.327  21.463  24.721  1.00  0.00     0.023 C 
ENDROOT
BRANCH   1   2
ATOM      2  C   UNL A   1      35.993  21.528  25.470  1.00  0.00     0.116 C 
BRANCH   2   3
ATOM      3  N   UNL A   1      34.896  21.088  24.626  1.00  0.00    -0.352 N 
ATOM      4  C   UNL A   1      33.713  21.695  24.281  1.00  0.00     0.251 C 
ATOM      5  O   UNL A   1      32.983  21.135  23.465  1.00  0.00    -0.269 OA
ATOM      6  H   UNL A   1      35.024  20.196  24.230  1.00  0.00     0.163 HD
BRANCH   4   7
ATOM      7  C   UNL A   1      33.307  23.026  24.812  1.00  0.00     0.039 A 
ATOM      8  C   UNL A   1      32.722  25.580  25.826  1.00  0.00     0.017 A 
ATOM      9  C   UNL A   1      33.709  25.429  24.850  1.00  0.00     0.013 A 
ATOM     10  C   UNL A   1      31.988  24.469  26.241  1.00  0.00     0.013 A 
ATOM     11  C   UNL A   1      34.004  24.155  24.350  1.00  0.00     0.014 A 
ATOM     12  C   UNL A   1      32.259  23.210  25.714  1.00  0.00     0.014 A 
BRANCH   8  13
ATOM     13  C   UNL A   1      32.471  26.843  26.474  1.00  0.00     0.134 A 
ATOM     14  C   UNL A   1      33.096  28.811  27.260  1.00  0.00     0.128 A 
ATOM     15  C   UNL A   1      31.706  28.746  27.316  1.00  0.00     0.051 A 
ATOM     16  O   UNL A   1      33.548  27.636  26.707  1.00  0.00    -0.457 OA
ATOM     17  C   UNL A   1      31.311  27.480  26.841  1.00  0.00     0.051 A 
BRANCH  14  18
ATOM     18  C   UNL A   1      33.975  29.847  27.681  1.00  0.00     0.066 C 
ATOM     19  C   UNL A   1      33.678  31.150  27.505  1.00  0.00     0.080 C 
BRANCH  19  20
ATOM     20  C   UNL A   1      32.341  31.521  26.885  1.00  0.00     0.099 C 
ATOM     21  N   UNL A   1      31.233  31.830  26.369  1.00  0.00    -0.193 NA
ENDBRANCH  19  20
BRANCH  19  22
ATOM     22  C   UNL A   1      34.587  32.260  27.953  1.00  0.00     0.265 C 
ATOM     23  N   UNL A   1      35.160  31.944  29.292  1.00  0.00    -0.249 NA
ATOM     24  N   UNL A   1      33.862  33.557  27.981  1.00  0.00    -0.232 NA
ATOM     25  C   UNL A   1      34.804  32.966  29.986  1.00  0.00     0.106 A 
ATOM     26  C   UNL A   1      34.021  33.945  29.199  1.00  0.00     0.175 A 
ATOM     27  C   UNL A   1      35.058  33.272  31.391  1.00  0.00     0.049 A 
ATOM     28  N   UNL A   1      33.519  35.112  29.693  1.00  0.00    -0.234 NA
ATOM     29  C   UNL A   1      34.551  34.418  31.865  1.00  0.00     0.038 A 
ATOM     30  C   UNL A   1      33.771  35.312  30.949  1.00  0.00     0.129 A 
ATOM     31  Br  UNL A   1      34.776  34.968  33.626  1.00  0.00    -0.049 Br
ENDBRANCH  19  22
ENDBRANCH  14  18
ENDBRANCH   8  13
ENDBRANCH   4   7
ENDBRANCH   2   3
ENDBRANCH   1   2
BRANCH   1  32
ATOM     32  C   UNL A   1      38.157  20.212  25.006  1.00  0.00     0.023 C 
BRANCH  32  33
ATOM     33  C   UNL A   1      39.315  20.421  25.974  1.00  0.00     0.116 C 
BRANCH  33  34
ATOM     34  N   UNL A   1      40.249  19.304  26.001  1.00  0.00    -0.352 N 
ATOM     35  C   UNL A   1      41.613  19.340  26.178  1.00  0.00     0.251 C 
ATOM     36  H   UNL A   1      39.856  18.411  25.878  1.00  0.00     0.163 HD
ATOM     37  O   UNL A   1      42.278  18.319  26.074  1.00  0.00    -0.269 OA
BRANCH  35  38
ATOM     38  C   UNL A   1      42.267  20.638  26.453  1.00  0.00     0.039 A 
ATOM     39  C   UNL A   1      42.657  21.436  25.376  1.00  0.00     0.014 A 
ATOM     40  C   UNL A   1      42.448  21.081  27.765  1.00  0.00     0.014 A 
ATOM     41  C   UNL A   1      43.171  22.712  25.615  1.00  0.00     0.010 A 
ATOM     42  C   UNL A   1      42.895  22.377  27.999  1.00  0.00     0.010 A 
ATOM     43  C   UNL A   1      43.262  23.205  26.927  1.00  0.00    -0.014 A 
BRANCH  43  44
ATOM     44  C   UNL A   1      43.716  24.591  27.202  1.00  0.00     0.031 A 
ATOM     45  C   UNL A   1      42.742  25.619  27.707  1.00  0.00     0.074 A 
ATOM     46  C   UNL A   1      44.979  24.949  26.895  1.00  0.00     0.049 A 
ATOM     47  N   UNL A   1      42.936  26.891  27.943  1.00  0.00    -0.248 NA
ATOM     48  C   UNL A   1      41.361  25.169  27.950  1.00  0.00     0.031 C 
ATOM     49  C   UNL A   1      45.989  24.065  26.307  1.00  0.00     0.029 A 
ATOM     50  N   UNL A   1      45.618  26.158  27.002  1.00  0.00    -0.354 N 
ATOM     51  C   UNL A   1      41.700  27.400  28.318  1.00  0.00     0.074 A 
ATOM     52  C   UNL A   1      40.754  26.307  28.254  1.00  0.00     0.031 C 
ATOM     53  C   UNL A   1      47.117  24.763  26.098  1.00  0.00     0.029 A 
ATOM     54  C   UNL A   1      46.906  26.145  26.518  1.00  0.00     0.049 A 
ATOM     55  H   UNL A   1      45.195  26.959  27.386  1.00  0.00     0.167 HD
ATOM     56  C   UNL A   1      41.385  28.657  28.710  1.00  0.00     0.034 A 
ATOM     57  C   UNL A   1      47.813  27.137  26.418  1.00  0.00     0.034 A 
ATOM     58  C   UNL A   1      42.341  29.725  28.832  1.00  0.00     0.049 A 
ATOM     59  C   UNL A   1      47.459  28.506  26.934  1.00  0.00     0.074 A 
ATOM     60  C   UNL A   1      42.145  31.000  29.332  1.00  0.00     0.029 A 
ATOM     61  N   UNL A   1      43.670  29.644  28.447  1.00  0.00    -0.354 N 
ATOM     62  N   UNL A   1      46.334  28.920  27.465  1.00  0.00    -0.248 NA
ATOM     63  C   UNL A   1      48.509  29.533  26.875  1.00  0.00     0.031 C 
ATOM     64  C   UNL A   1      43.355  31.696  29.234  1.00  0.00     0.029 A 
ATOM     65  C   UNL A   1      44.306  30.849  28.689  1.00  0.00     0.049 A 
ATOM     66  H   UNL A   1      44.098  28.848  28.057  1.00  0.00     0.167 HD
ATOM     67  C   UNL A   1      46.551  30.243  27.834  1.00  0.00     0.074 A 
ATOM     68  C   UNL A   1      47.923  30.554  27.486  1.00  0.00     0.031 C 
ATOM     69  C   UNL A   1      45.688  31.126  28.393  1.00  0.00     0.034 A 
BRANCH  56  70
ATOM     70  C   UNL A   1      39.958  28.935  29.102  1.00  0.00     0.023 A 
ATOM     71  C   UNL A   1      38.972  29.036  28.100  1.00  0.00     0.012 A 
ATOM     72  C   UNL A   1      39.581  29.026  30.456  1.00  0.00     0.148 A 
ATOM     73  C   UNL A   1      37.638  29.255  28.436  1.00  0.00     0.002 A 
ATOM     74  C   UNL A   1      38.243  29.203  30.786  1.00  0.00     0.091 A 
ATOM     75  F   UNL A   1      40.537  28.949  31.393  1.00  0.00    -0.205 F 
ATOM     76  C   UNL A   1      37.271  29.328  29.778  1.00  0.00     0.022 A 
BRANCH  74  77
ATOM     77  S   UNL A   1      37.658  29.232  32.484  1.00  0.00     0.127 S 
ATOM     78  O   UNL A   1      36.285  29.703  32.315  1.00  0.00    -0.237 OA
ATOM     79  O   UNL A   1      37.778  27.828  32.876  1.00  0.00    -0.237 OA
ATOM     80  O   UNL A   1      38.548  30.138  33.197  1.00  0.00    -0.744 OA
ENDBRANCH  74  77
ENDBRANCH  56  70
BRANCH  57  81
ATOM     81  C   UNL A   1      49.171  26.850  25.875  1.00  0.00     0.023 A 
ATOM     82  C   UNL A   1      50.100  26.153  26.673  1.00  0.00     0.012 A 
ATOM     83  C   UNL A   1      49.537  27.233  24.570  1.00  0.00     0.148 A 
ATOM     84  C   UNL A   1      51.379  25.870  26.193  1.00  0.00     0.002 A 
ATOM     85  C   UNL A   1      50.794  26.899  24.079  1.00  0.00     0.091 A 
ATOM     86  F   UNL A   1      48.645  27.907  23.831  1.00  0.00    -0.205 F 
ATOM     87  C   UNL A   1      51.722  26.234  24.893  1.00  0.00     0.022 A 
BRANCH  85  88
ATOM     88  S   UNL A   1      51.267  27.210  22.373  1.00  0.00     0.127 S 
ATOM     89  O   UNL A   1      50.109  26.702  21.644  1.00  0.00    -0.237 OA
ATOM     90  O   UNL A   1      51.417  28.665  22.358  1.00  0.00    -0.237 OA
ATOM     91  O   UNL A   1      52.514  26.481  22.180  1.00  0.00    -0.744 OA
ENDBRANCH  85  88
ENDBRANCH  57  81
BRANCH  69  92
ATOM     92  C   UNL A   1      46.200  32.508  28.697  1.00  0.00     0.023 A 
ATOM     93  C   UNL A   1      46.898  32.746  29.897  1.00  0.00     0.012 A 
ATOM     94  C   UNL A   1      46.063  33.550  27.758  1.00  0.00     0.148 A 
ATOM     95  C   UNL A   1      47.429  34.005  30.171  1.00  0.00     0.002 A 
ATOM     96  C   UNL A   1      46.635  34.790  28.017  1.00  0.00     0.091 A 
ATOM     97  F   UNL A   1      45.378  33.310  26.631  1.00  0.00    -0.205 F 
ATOM     98  C   UNL A   1      47.309  35.023  29.227  1.00  0.00     0.022 A 
BRANCH  96  99
ATOM     99  S   UNL A   1      46.611  36.127  26.817  1.00  0.00     0.127 S 
ATOM    100  O   UNL A   1      47.540  37.083  27.416  1.00  0.00    -0.237 OA
ATOM    101  O   UNL A   1      47.107  35.470  25.607  1.00  0.00    -0.237 OA
ATOM    102  O   UNL A   1      45.223  36.566  26.737  1.00  0.00    -0.744 OA
ENDBRANCH  96  99
ENDBRANCH  69  92
ENDBRANCH  43  44
ENDBRANCH  35  38
ENDBRANCH  33  34
ENDBRANCH  32  33
ENDBRANCH   1  32
TORSDOF 18
ENDMDL
MODEL 2
REMARK VINA RESULT:     -12.6      5.121     10.813
REMARK SMILES N#C/C(=C\c1ccc(-c2ccc(C(=O)NCCCCNC(=O)c3ccc(-c4c5nc(c(-c6cccc(S(=O)(=O)[O-])c6F)c6ccc([nH]6)c(-c6cccc(S(=O)(=O)[O-])c6F)c6nc(c(-c7cccc(S(=O)(=O)[O-])c7F)c7ccc4[nH]7)C=C6)C=C5)cc3)cc2)o1)[C@@H]1N=c2cc(Br)cnc2=N1
REMARK SMILES IDX 17 1 16 2 15 3 13 4 14 5 12 7 9 8 10 9 87 10 11 11 86 12
REMARK SMILES IDX 8 13 5 14 6 15 88 16 7 17 4 18 3 19 2 20 1 21 89 22 90 23
REMARK SMILES IDX 98 24 91 25 97 26 92 27 96 28 93 29 95 30 94 31 18 32 19 33
REMARK SMILES IDX 20 34 21 35 22 37 23 38 24 39 85 40 25 41 84 42 26 43 27 44
REMARK SMILES IDX 28 45 78 46 29 47 83 48 77 49 79 50 30 51 82 52 76 53 75 54
REMARK SMILES IDX 31 56 63 57 43 58 62 59 44 60 47 61 61 62 80 63 45 64 46 65
REMARK SMILES IDX 60 67 81 68 48 69 32 70 33 71 41 72 34 73 36 74 42 75 35 76
REMARK SMILES IDX 37 77 38 78 39 79 40 80 64 81 65 82 73 83 66 84 68 85 74 86
REMARK SMILES IDX 67 87 69 88 70 89 71 90 72 91 49 92 50 93 58 94 51 95 53 96
REMARK SMILES IDX 59 97 52 98 54 99 55 100 56 101 57 102
REMARK H PARENT 15 6 20 36 79 55 47 66
REMARK Flexibility Score: inf
ROOT
ATOM      1  C   UNL A   1      34.610  32.646  30.564  1.00  0.00     0.023 C 
ENDROOT
BRANCH   1   2
ATOM      2  C   UNL A   1      36.018  32.766  31.153  1.00  0.00     0.116 C 
BRANCH   2   3
ATOM      3  N   UNL A   1      36.021  33.609  32.335  1.00  0.00    -0.352 N 
ATOM      4  C   UNL A   1      37.006  34.384  32.900  1.00  0.00     0.251 C 
ATOM      5  O   UNL A   1      36.719  35.082  33.870  1.00  0.00    -0.269 OA
ATOM      6  H   UNL A   1      35.163  33.630  32.819  1.00  0.00     0.163 HD
BRANCH   4   7
ATOM      7  C   UNL A   1      38.388  34.451  32.350  1.00  0.00     0.039 A 
ATOM      8  C   UNL A   1      40.940  34.469  31.175  1.00  0.00     0.017 A 
ATOM      9  C   UNL A   1      39.805  34.602  30.374  1.00  0.00     0.013 A 
ATOM     10  C   UNL A   1      40.800  34.396  32.561  1.00  0.00     0.013 A 
ATOM     11  C   UNL A   1      38.533  34.587  30.960  1.00  0.00     0.014 A 
ATOM     12  C   UNL A   1      39.535  34.420  33.142  1.00  0.00     0.014 A 
BRANCH   8  13
ATOM     13  C   UNL A   1      42.263  34.342  30.617  1.00  0.00     0.134 A 
ATOM     14  C   UNL A   1      43.765  33.380  29.312  1.00  0.00     0.128 A 
ATOM     15  C   UNL A   1      44.322  34.550  29.822  1.00  0.00     0.051 A 
ATOM     16  O   UNL A   1      42.480  33.286  29.792  1.00  0.00    -0.457 OA
ATOM     17  C   UNL A   1      43.374  35.147  30.676  1.00  0.00     0.051 A 
BRANCH  14  18
ATOM     18  C   UNL A   1      44.338  32.396  28.461  1.00  0.00     0.066 C 
ATOM     19  C   UNL A   1      44.437  32.577  27.128  1.00  0.00     0.080 C 
BRANCH  19  20
ATOM     20  C   UNL A   1      43.967  33.892  26.528  1.00  0.00     0.099 C 
ATOM     21  N   UNL A   1      43.577  34.983  26.031  1.00  0.00    -0.193 NA
ENDBRANCH  19  20
BRANCH  19  22
ATOM     22  C   UNL A   1      45.049  31.555  26.212  1.00  0.00     0.265 C 
ATOM     23  N   UNL A   1      44.665  30.182  26.644  1.00  0.00    -0.249 NA
ATOM     24  N   UNL A   1      46.527  31.702  26.171  1.00  0.00    -0.232 NA
ATOM     25  C   UNL A   1      45.810  29.621  26.810  1.00  0.00     0.106 A 
ATOM     26  C   UNL A   1      46.940  30.534  26.524  1.00  0.00     0.175 A 
ATOM     27  C   UNL A   1      46.128  28.259  27.232  1.00  0.00     0.049 A 
ATOM     28  N   UNL A   1      48.255  30.195  26.626  1.00  0.00    -0.234 NA
ATOM     29  C   UNL A   1      47.425  27.942  27.336  1.00  0.00     0.038 A 
ATOM     30  C   UNL A   1      48.463  28.976  27.016  1.00  0.00     0.129 A 
ATOM     31  Br  UNL A   1      48.013  26.258  27.856  1.00  0.00    -0.049 Br
ENDBRANCH  19  22
ENDBRANCH  14  18
ENDBRANCH   8  13
ENDBRANCH   4   7
ENDBRANCH   2   3
ENDBRANCH   1   2
BRANCH   1  32
ATOM     32  C   UNL A   1      34.373  33.479  29.305  1.00  0.00     0.023 C 
BRANCH  32  33
ATOM     33  C   UNL A   1      34.963  32.891  28.029  1.00  0.00     0.116 C 
BRANCH  33  34
ATOM     34  N   UNL A   1      34.241  31.723  27.548  1.00  0.00    -0.352 N 
ATOM     35  C   UNL A   1      34.665  30.415  27.513  1.00  0.00     0.251 C 
ATOM     36  H   UNL A   1      33.334  31.889  27.203  1.00  0.00     0.163 HD
ATOM     37  O   UNL A   1      33.978  29.554  26.981  1.00  0.00    -0.269 OA
BRANCH  35  38
ATOM     38  C   UNL A   1      35.983  30.073  28.091  1.00  0.00     0.039 A 
ATOM     39  C   UNL A   1      36.036  29.548  29.384  1.00  0.00     0.014 A 
ATOM     40  C   UNL A   1      37.152  30.229  27.341  1.00  0.00     0.014 A 
ATOM     41  C   UNL A   1      37.257  29.115  29.901  1.00  0.00     0.010 A 
ATOM     42  C   UNL A   1      38.356  29.733  27.832  1.00  0.00     0.010 A 
ATOM     43  C   UNL A   1      38.421  29.173  29.116  1.00  0.00    -0.014 A 
BRANCH  43  44
ATOM     44  C   UNL A   1      39.712  28.633  29.609  1.00  0.00     0.031 A 
ATOM     45  C   UNL A   1      40.444  29.325  30.726  1.00  0.00     0.074 A 
ATOM     46  C   UNL A   1      40.276  27.583  28.979  1.00  0.00     0.049 A 
ATOM     47  N   UNL A   1      41.609  29.041  31.247  1.00  0.00    -0.248 NA
ATOM     48  C   UNL A   1      39.797  30.510  31.315  1.00  0.00     0.031 C 
ATOM     49  C   UNL A   1      39.710  26.889  27.820  1.00  0.00     0.029 A 
ATOM     50  N   UNL A   1      41.467  26.939  29.202  1.00  0.00    -0.354 N 
ATOM     51  C   UNL A   1      41.856  30.030  32.189  1.00  0.00     0.074 A 
ATOM     52  C   UNL A   1      40.731  30.939  32.153  1.00  0.00     0.031 C 
ATOM     53  C   UNL A   1      40.556  25.921  27.430  1.00  0.00     0.029 A 
ATOM     54  C   UNL A   1      41.731  25.938  28.296  1.00  0.00     0.049 A 
ATOM     55  H   UNL A   1      42.076  27.172  29.940  1.00  0.00     0.167 HD
ATOM     56  C   UNL A   1      42.908  30.155  33.031  1.00  0.00     0.034 A 
ATOM     57  C   UNL A   1      42.802  25.130  28.172  1.00  0.00     0.034 A 
ATOM     58  C   UNL A   1      43.994  29.215  33.107  1.00  0.00     0.049 A 
ATOM     59  C   UNL A   1      43.922  25.242  29.171  1.00  0.00     0.074 A 
ATOM     60  C   UNL A   1      45.046  29.188  34.005  1.00  0.00     0.029 A 
ATOM     61  N   UNL A   1      44.169  28.139  32.251  1.00  0.00    -0.354 N 
ATOM     62  N   UNL A   1      44.044  26.069  30.181  1.00  0.00    -0.248 NA
ATOM     63  C   UNL A   1      45.030  24.285  29.041  1.00  0.00     0.031 C 
ATOM     64  C   UNL A   1      45.867  28.103  33.682  1.00  0.00     0.029 A 
ATOM     65  C   UNL A   1      45.317  27.446  32.593  1.00  0.00     0.049 A 
ATOM     66  H   UNL A   1      43.567  27.904  31.509  1.00  0.00     0.167 HD
ATOM     67  C   UNL A   1      45.224  25.713  30.825  1.00  0.00     0.074 A 
ATOM     68  C   UNL A   1      45.766  24.578  30.105  1.00  0.00     0.031 C 
ATOM     69  C   UNL A   1      45.813  26.282  31.904  1.00  0.00     0.034 A 
BRANCH  56  70
ATOM     70  C   UNL A   1      42.908  31.317  33.989  1.00  0.00     0.023 A 
ATOM     71  C   UNL A   1      43.650  32.474  33.676  1.00  0.00     0.012 A 
ATOM     72  C   UNL A   1      42.124  31.293  35.160  1.00  0.00     0.148 A 
ATOM     73  C   UNL A   1      43.638  33.577  34.526  1.00  0.00     0.002 A 
ATOM     74  C   UNL A   1      42.084  32.413  35.982  1.00  0.00     0.091 A 
ATOM     75  F   UNL A   1      41.443  30.176  35.452  1.00  0.00    -0.205 F 
ATOM     76  C   UNL A   1      42.847  33.552  35.672  1.00  0.00     0.022 A 
BRANCH  74  77
ATOM     77  S   UNL A   1      41.038  32.509  37.438  1.00  0.00     0.127 S 
ATOM     78  O   UNL A   1      41.862  31.833  38.438  1.00  0.00    -0.237 OA
ATOM     79  O   UNL A   1      40.907  33.953  37.631  1.00  0.00    -0.237 OA
ATOM     80  O   UNL A   1      39.798  31.830  37.085  1.00  0.00    -0.744 OA
ENDBRANCH  74  77
ENDBRANCH  56  70
BRANCH  57  81
ATOM     81  C   UNL A   1      42.828  24.090  27.104  1.00  0.00     0.023 A 
ATOM     82  C   UNL A   1      43.517  24.353  25.903  1.00  0.00     0.012 A 
ATOM     83  C   UNL A   1      42.208  22.839  27.281  1.00  0.00     0.148 A 
ATOM     84  C   UNL A   1      43.558  23.400  24.885  1.00  0.00     0.002 A 
ATOM     85  C   UNL A   1      42.301  21.874  26.284  1.00  0.00     0.091 A 
ATOM     86  F   UNL A   1      41.546  22.612  28.425  1.00  0.00    -0.205 F 
ATOM     87  C   UNL A   1      42.960  22.158  25.079  1.00  0.00     0.022 A 
BRANCH  85  88
ATOM     88  S   UNL A   1      41.676  20.204  26.508  1.00  0.00     0.127 S 
ATOM     89  O   UNL A   1      42.162  19.538  25.303  1.00  0.00    -0.237 OA
ATOM     90  O   UNL A   1      42.336  19.795  27.748  1.00  0.00    -0.237 OA
ATOM     91  O   UNL A   1      40.230  20.345  26.621  1.00  0.00    -0.744 OA
ENDBRANCH  85  88
ENDBRANCH  57  81
BRANCH  69  92
ATOM     92  C   UNL A   1      47.099  25.678  32.400  1.00  0.00     0.023 A 
ATOM     93  C   UNL A   1      48.326  26.099  31.850  1.00  0.00     0.012 A 
ATOM     94  C   UNL A   1      47.098  24.757  33.467  1.00  0.00     0.148 A 
ATOM     95  C   UNL A   1      49.530  25.593  32.336  1.00  0.00     0.002 A 
ATOM     96  C   UNL A   1      48.306  24.293  33.976  1.00  0.00     0.091 A 
ATOM     97  F   UNL A   1      45.920  24.353  33.964  1.00  0.00    -0.205 F 
ATOM     98  C   UNL A   1      49.522  24.701  33.405  1.00  0.00     0.022 A 
BRANCH  96  99
ATOM     99  S   UNL A   1      48.389  23.217  35.413  1.00  0.00     0.127 S 
ATOM    100  O   UNL A   1      49.833  23.093  35.609  1.00  0.00    -0.237 OA
ATOM    101  O   UNL A   1      47.700  24.004  36.435  1.00  0.00    -0.237 OA
ATOM    102  O   UNL A   1      47.700  21.990  35.033  1.00  0.00    -0.744 OA
ENDBRANCH  96  99
ENDBRANCH  69  92
ENDBRANCH  43  44
ENDBRANCH  35  38
ENDBRANCH  33  34
ENDBRANCH  32  33
ENDBRANCH   1  32
TORSDOF 18
ENDMDL
MODEL 3
REMARK VINA RESULT:     -12.2      4.090     10.393
REMARK SMILES N#C/C(=C\c1ccc(-c2ccc(C(=O)NCCCCNC(=O)c3ccc(-c4c5nc(c(-c6cccc(S(=O)(=O)[O-])c6F)c6ccc([nH]6)c(-c6cccc(S(=O)(=O)[O-])c6F)c6nc(c(-c7cccc(S(=O)(=O)[O-])c7F)c7ccc4[nH]7)C=C6)C=C5)cc3)cc2)o1)[C@@H]1N=c2cc(Br)cnc2=N1
REMARK SMILES IDX 17 1 16 2 15 3 13 4 14 5 12 7 9 8 10 9 87 10 11 11 86 12
REMARK SMILES IDX 8 13 5 14 6 15 88 16 7 17 4 18 3 19 2 20 1 21 89 22 90 23
REMARK SMILES IDX 98 24 91 25 97 26 92 27 96 28 93 29 95 30 94 31 18 32 19 33
REMARK SMILES IDX 20 34 21 35 22 37 23 38 24 39 85 40 25 41 84 42 26 43 27 44
REMARK SMILES IDX 28 45 78 46 29 47 83 48 77 49 79 50 30 51 82 52 76 53 75 54
REMARK SMILES IDX 31 56 63 57 43 58 62 59 44 60 47 61 61 62 80 63 45 64 46 65
REMARK SMILES IDX 60 67 81 68 48 69 32 70 33 71 41 72 34 73 36 74 42 75 35 76
REMARK SMILES IDX 37 77 38 78 39 79 40 80 64 81 65 82 73 83 66 84 68 85 74 86
REMARK SMILES IDX 67 87 69 88 70 89 71 90 72 91 49 92 50 93 58 94 51 95 53 96
REMARK SMILES IDX 59 97 52 98 54 99 55 100 56 101 57 102
REMARK H PARENT 15 6 20 36 79 55 47 66
REMARK Flexibility Score: inf
ROOT
ATOM      1  C   UNL A   1      43.010  20.940  26.272  1.00  0.00     0.023 C 
ENDROOT
BRANCH   1   2
ATOM      2  C   UNL A   1      43.268  22.421  25.978  1.00  0.00     0.116 C 
BRANCH   2   3
ATOM      3  N   UNL A   1      44.661  22.653  25.641  1.00  0.00    -0.352 N 
ATOM      4  C   UNL A   1      45.690  23.214  26.359  1.00  0.00     0.251 C 
ATOM      5  O   UNL A   1      46.817  23.213  25.867  1.00  0.00    -0.269 OA
ATOM      6  H   UNL A   1      44.914  22.354  24.737  1.00  0.00     0.163 HD
BRANCH   4   7
ATOM      7  C   UNL A   1      45.505  23.771  27.728  1.00  0.00     0.039 A 
ATOM      8  C   UNL A   1      45.337  24.801  30.336  1.00  0.00     0.017 A 
ATOM      9  C   UNL A   1      46.386  25.190  29.501  1.00  0.00     0.013 A 
ATOM     10  C   UNL A   1      44.343  23.955  29.845  1.00  0.00     0.013 A 
ATOM     11  C   UNL A   1      46.472  24.671  28.203  1.00  0.00     0.014 A 
ATOM     12  C   UNL A   1      44.412  23.472  28.541  1.00  0.00     0.014 A 
BRANCH   8  13
ATOM     13  C   UNL A   1      45.273  25.194  31.722  1.00  0.00     0.134 A 
ATOM     14  C   UNL A   1      44.188  25.810  33.545  1.00  0.00     0.128 A 
ATOM     15  C   UNL A   1      45.516  25.575  33.892  1.00  0.00     0.051 A 
ATOM     16  O   UNL A   1      44.053  25.540  32.204  1.00  0.00    -0.457 OA
ATOM     17  C   UNL A   1      46.212  25.210  32.723  1.00  0.00     0.051 A 
BRANCH  14  18
ATOM     18  C   UNL A   1      43.105  26.260  34.348  1.00  0.00     0.066 C 
ATOM     19  C   UNL A   1      42.839  27.571  34.517  1.00  0.00     0.080 C 
BRANCH  19  20
ATOM     20  C   UNL A   1      43.693  28.594  33.786  1.00  0.00     0.099 C 
ATOM     21  N   UNL A   1      44.401  29.444  33.180  1.00  0.00    -0.193 NA
ENDBRANCH  19  20
BRANCH  19  22
ATOM     22  C   UNL A   1      41.692  28.069  35.351  1.00  0.00     0.265 C 
ATOM     23  N   UNL A   1      40.672  28.722  34.484  1.00  0.00    -0.249 NA
ATOM     24  N   UNL A   1      42.170  29.005  36.401  1.00  0.00    -0.232 NA
ATOM     25  C   UNL A   1      40.582  29.893  35.007  1.00  0.00     0.106 A 
ATOM     26  C   UNL A   1      41.484  30.070  36.167  1.00  0.00     0.175 A 
ATOM     27  C   UNL A   1      39.745  31.025  34.619  1.00  0.00     0.049 A 
ATOM     28  N   UNL A   1      41.589  31.214  36.900  1.00  0.00    -0.234 NA
ATOM     29  C   UNL A   1      39.865  32.146  35.342  1.00  0.00     0.038 A 
ATOM     30  C   UNL A   1      40.827  32.180  36.492  1.00  0.00     0.129 A 
ATOM     31  Br  UNL A   1      38.878  33.682  34.993  1.00  0.00    -0.049 Br
ENDBRANCH  19  22
ENDBRANCH  14  18
ENDBRANCH   8  13
ENDBRANCH   4   7
ENDBRANCH   2   3
ENDBRANCH   1   2
BRANCH   1  32
ATOM     32  C   UNL A   1      42.040  20.680  27.424  1.00  0.00     0.023 C 
BRANCH  32  33
ATOM     33  C   UNL A   1      41.021  21.787  27.664  1.00  0.00     0.116 C 
BRANCH  33  34
ATOM     34  N   UNL A   1      39.883  21.726  26.758  1.00  0.00    -0.352 N 
ATOM     35  C   UNL A   1      39.048  22.749  26.372  1.00  0.00     0.251 C 
ATOM     36  H   UNL A   1      39.685  20.842  26.374  1.00  0.00     0.163 HD
ATOM     37  O   UNL A   1      38.066  22.519  25.679  1.00  0.00    -0.269 OA
BRANCH  35  38
ATOM     38  C   UNL A   1      39.332  24.123  26.842  1.00  0.00     0.039 A 
ATOM     39  C   UNL A   1      38.944  24.485  28.133  1.00  0.00     0.014 A 
ATOM     40  C   UNL A   1      40.016  25.027  26.027  1.00  0.00     0.014 A 
ATOM     41  C   UNL A   1      39.304  25.737  28.633  1.00  0.00     0.010 A 
ATOM     42  C   UNL A   1      40.432  26.247  26.550  1.00  0.00     0.010 A 
ATOM     43  C   UNL A   1      40.080  26.615  27.858  1.00  0.00    -0.014 A 
BRANCH  43  44
ATOM     44  C   UNL A   1      40.554  27.912  28.400  1.00  0.00     0.031 A 
ATOM     45  C   UNL A   1      42.025  28.153  28.605  1.00  0.00     0.074 A 
ATOM     46  C   UNL A   1      39.655  28.830  28.808  1.00  0.00     0.049 A 
ATOM     47  N   UNL A   1      42.623  29.193  29.125  1.00  0.00    -0.248 NA
ATOM     48  C   UNL A   1      42.941  27.073  28.203  1.00  0.00     0.031 C 
ATOM     49  C   UNL A   1      38.200  28.670  28.751  1.00  0.00     0.029 A 
ATOM     50  N   UNL A   1      39.832  30.064  29.381  1.00  0.00    -0.354 N 
ATOM     51  C   UNL A   1      43.975  28.879  29.153  1.00  0.00     0.074 A 
ATOM     52  C   UNL A   1      44.109  27.539  28.622  1.00  0.00     0.031 C 
ATOM     53  C   UNL A   1      37.617  29.761  29.275  1.00  0.00     0.029 A 
ATOM     54  C   UNL A   1      38.653  30.687  29.722  1.00  0.00     0.049 A 
ATOM     55  H   UNL A   1      40.717  30.464  29.535  1.00  0.00     0.167 HD
ATOM     56  C   UNL A   1      45.016  29.645  29.555  1.00  0.00     0.034 A 
ATOM     57  C   UNL A   1      38.433  31.868  30.332  1.00  0.00     0.034 A 
ATOM     58  C   UNL A   1      44.884  30.998  30.024  1.00  0.00     0.049 A 
ATOM     59  C   UNL A   1      39.609  32.733  30.698  1.00  0.00     0.074 A 
ATOM     60  C   UNL A   1      45.885  31.898  30.343  1.00  0.00     0.029 A 
ATOM     61  N   UNL A   1      43.678  31.645  30.244  1.00  0.00    -0.354 N 
ATOM     62  N   UNL A   1      40.888  32.493  30.538  1.00  0.00    -0.248 NA
ATOM     63  C   UNL A   1      39.314  34.046  31.288  1.00  0.00     0.031 C 
ATOM     64  C   UNL A   1      45.283  33.086  30.772  1.00  0.00     0.029 A 
ATOM     65  C   UNL A   1      43.907  32.930  30.704  1.00  0.00     0.049 A 
ATOM     66  H   UNL A   1      42.789  31.248  30.096  1.00  0.00     0.167 HD
ATOM     67  C   UNL A   1      41.549  33.635  30.977  1.00  0.00     0.074 A 
ATOM     68  C   UNL A   1      40.526  34.577  31.387  1.00  0.00     0.031 C 
ATOM     69  C   UNL A   1      42.880  33.877  31.051  1.00  0.00     0.034 A 
BRANCH  56  70
ATOM     70  C   UNL A   1      46.401  29.065  29.445  1.00  0.00     0.023 A 
ATOM     71  C   UNL A   1      47.066  28.634  30.611  1.00  0.00     0.012 A 
ATOM     72  C   UNL A   1      47.015  28.882  28.190  1.00  0.00     0.148 A 
ATOM     73  C   UNL A   1      48.333  28.059  30.534  1.00  0.00     0.002 A 
ATOM     74  C   UNL A   1      48.260  28.270  28.118  1.00  0.00     0.091 A 
ATOM     75  F   UNL A   1      46.375  29.319  27.096  1.00  0.00    -0.205 F 
ATOM     76  C   UNL A   1      48.925  27.867  29.288  1.00  0.00     0.022 A 
BRANCH  74  77
ATOM     77  S   UNL A   1      49.072  27.907  26.557  1.00  0.00     0.127 S 
ATOM     78  O   UNL A   1      50.252  27.168  27.004  1.00  0.00    -0.237 OA
ATOM     79  O   UNL A   1      48.069  27.096  25.868  1.00  0.00    -0.237 OA
ATOM     80  O   UNL A   1      49.339  29.198  25.936  1.00  0.00    -0.744 OA
ENDBRANCH  74  77
ENDBRANCH  56  70
BRANCH  57  81
ATOM     81  C   UNL A   1      37.037  32.336  30.564  1.00  0.00     0.023 A 
ATOM     82  C   UNL A   1      36.458  32.172  31.837  1.00  0.00     0.012 A 
ATOM     83  C   UNL A   1      36.294  32.965  29.547  1.00  0.00     0.148 A 
ATOM     84  C   UNL A   1      35.152  32.599  32.085  1.00  0.00     0.002 A 
ATOM     85  C   UNL A   1      35.014  33.437  29.816  1.00  0.00     0.091 A 
ATOM     86  F   UNL A   1      36.857  33.100  28.338  1.00  0.00    -0.205 F 
ATOM     87  C   UNL A   1      34.435  33.240  31.079  1.00  0.00     0.022 A 
BRANCH  85  88
ATOM     88  S   UNL A   1      34.075  34.393  28.619  1.00  0.00     0.127 S 
ATOM     89  O   UNL A   1      34.885  35.601  28.498  1.00  0.00    -0.237 OA
ATOM     90  O   UNL A   1      34.095  33.518  27.446  1.00  0.00    -0.237 OA
ATOM     91  O   UNL A   1      32.755  34.565  29.212  1.00  0.00    -0.744 OA
ENDBRANCH  85  88
ENDBRANCH  57  81
BRANCH  69  92
ATOM     92  C   UNL A   1      43.320  35.222  31.565  1.00  0.00     0.023 A 
ATOM     93  C   UNL A   1      43.607  35.385  32.935  1.00  0.00     0.012 A 
ATOM     94  C   UNL A   1      43.531  36.298  30.680  1.00  0.00     0.148 A 
ATOM     95  C   UNL A   1      44.070  36.606  33.420  1.00  0.00     0.002 A 
ATOM     96  C   UNL A   1      44.038  37.498  31.165  1.00  0.00     0.091 A 
ATOM     97  F   UNL A   1      43.233  36.129  29.384  1.00  0.00    -0.205 F 
ATOM     98  C   UNL A   1      44.297  37.658  32.536  1.00  0.00     0.022 A 
BRANCH  96  99
ATOM     99  S   UNL A   1      44.450  38.871  30.082  1.00  0.00     0.127 S 
ATOM    100  O   UNL A   1      43.187  39.608  30.041  1.00  0.00    -0.237 OA
ATOM    101  O   UNL A   1      45.523  39.540  30.818  1.00  0.00    -0.237 OA
ATOM    102  O   UNL A   1      44.868  38.273  28.821  1.00  0.00    -0.744 OA
ENDBRANCH  96  99
ENDBRANCH  69  92
ENDBRANCH  43  44
ENDBRANCH  35  38
ENDBRANCH  33  34
ENDBRANCH  32  33
ENDBRANCH   1  32
TORSDOF 18
ENDMDL
