MODEL 1
REMARK VINA RESULT:     -13.4      0.000      0.000
REMARK SMILES Cc1ccccc1/[NH+]=C1\S[C@@H](CC(=O)Nc2ccc(C(=O)NCCCCNC(=O)c3ccc(-c4c5nc(c(-c6cccc(S(=O)(=O)[O-])c6F)c6ccc([nH]6)c(-c6cccc(S(=O)(=O)[O-])c6F)c6nc(c(-c7cccc(S(=O)(=O)[O-])c7F)c7ccc4[nH]7)C=C6)C=C5)cc3)cc2)C(=O)N1C
REMARK SMILES IDX 24 1 23 2 22 3 20 4 21 5 19 7 16 8 17 9 94 10 18 11 93 12
REMARK SMILES IDX 15 13 13 14 14 15 12 17 11 18 8 19 9 20 10 22 97 23 95 24
REMARK SMILES IDX 98 25 96 26 7 27 1 28 2 29 3 30 4 31 6 32 5 33 25 34 26 35
REMARK SMILES IDX 27 36 28 37 29 39 30 40 31 41 92 42 32 43 91 44 33 45 34 46
REMARK SMILES IDX 35 47 85 48 36 49 90 50 84 51 86 52 37 53 89 54 83 55 82 56
REMARK SMILES IDX 38 58 70 59 50 60 69 61 51 62 54 63 68 64 87 65 52 66 53 67
REMARK SMILES IDX 67 69 88 70 55 71 39 72 40 73 48 74 41 75 43 76 49 77 42 78
REMARK SMILES IDX 44 79 45 80 46 81 47 82 71 83 72 84 80 85 73 86 75 87 81 88
REMARK SMILES IDX 74 89 76 90 77 91 78 92 79 93 56 94 57 95 65 96 58 97 60 98
REMARK SMILES IDX 66 99 59 100 61 101 62 102 63 103 64 104
REMARK H PARENT 22 6 15 16 8 21 27 38 86 57 54 68
REMARK Flexibility Score: inf
ROOT
ATOM      1  C   UNL A   1      32.304  30.597  26.683  1.00  0.00     0.023 C 
ENDROOT
BRANCH   1   2
ATOM      2  C   UNL A   1      31.578  30.566  25.323  1.00  0.00     0.116 C 
BRANCH   2   3
ATOM      3  N   UNL A   1      32.265  29.783  24.300  1.00  0.00    -0.352 N 
ATOM      4  C   UNL A   1      32.148  28.476  23.876  1.00  0.00     0.251 C 
ATOM      5  O   UNL A   1      32.710  28.152  22.830  1.00  0.00    -0.269 OA
ATOM      6  H   UNL A   1      32.951  30.292  23.812  1.00  0.00     0.163 HD
BRANCH   4   7
ATOM      7  C   UNL A   1      31.384  27.432  24.614  1.00  0.00     0.039 A 
ATOM      8  C   UNL A   1      30.018  25.414  26.026  1.00  0.00     0.041 A 
ATOM      9  C   UNL A   1      29.451  26.037  24.924  1.00  0.00     0.027 A 
ATOM     10  C   UNL A   1      31.201  25.920  26.542  1.00  0.00     0.027 A 
ATOM     11  C   UNL A   1      30.127  27.014  24.213  1.00  0.00     0.016 A 
ATOM     12  C   UNL A   1      31.889  26.918  25.826  1.00  0.00     0.016 A 
BRANCH   8  13
ATOM     13  N   UNL A   1      29.385  24.294  26.582  1.00  0.00    -0.326 N 
ATOM     14  C   UNL A   1      29.998  23.089  26.871  1.00  0.00     0.226 C 
ATOM     15  O   UNL A   1      29.331  22.073  27.070  1.00  0.00    -0.275 OA
ATOM     16  H   UNL A   1      28.425  24.372  26.784  1.00  0.00     0.169 HD
BRANCH  14  17
ATOM     17  C   UNL A   1      31.493  23.119  27.166  1.00  0.00     0.128 C 
BRANCH  17  18
ATOM     18  C   UNL A   1      32.401  22.475  26.141  1.00  0.00     0.183 C 
ATOM     19  N   UNL A   1      35.411  22.162  24.107  1.00  0.00    -0.234 N 
ATOM     20  C   UNL A   1      34.428  22.732  24.700  1.00  0.00     0.319 C 
ATOM     21  H   UNL A   1      35.310  22.080  23.131  1.00  0.00     0.313 HD
ATOM     22  S   UNL A   1      34.115  23.105  26.358  1.00  0.00    -0.022 SA
ATOM     23  N   UNL A   1      33.307  23.073  24.008  1.00  0.00    -0.193 N 
ATOM     24  C   UNL A   1      32.141  22.749  24.666  1.00  0.00     0.324 C 
ATOM     25  C   UNL A   1      33.318  23.517  22.631  1.00  0.00     0.301 C 
ATOM     26  O   UNL A   1      31.056  22.594  24.115  1.00  0.00    -0.245 OA
BRANCH  19  27
ATOM     27  C   UNL A   1      36.607  21.636  24.619  1.00  0.00     0.128 A 
ATOM     28  C   UNL A   1      37.764  23.750  25.573  1.00  0.00     0.049 C 
ATOM     29  C   UNL A   1      37.683  22.287  25.256  1.00  0.00    -0.004 A 
ATOM     30  C   UNL A   1      38.801  21.529  25.674  1.00  0.00     0.008 A 
ATOM     31  C   UNL A   1      38.821  20.142  25.579  1.00  0.00     0.001 A 
ATOM     32  C   UNL A   1      36.635  20.228  24.599  1.00  0.00     0.052 A 
ATOM     33  C   UNL A   1      37.720  19.484  25.062  1.00  0.00     0.004 A 
ENDBRANCH  19  27
ENDBRANCH  17  18
ENDBRANCH  14  17
ENDBRANCH   8  13
ENDBRANCH   4   7
ENDBRANCH   2   3
ENDBRANCH   1   2
BRANCH   1  34
ATOM     34  C   UNL A   1      33.803  30.291  26.667  1.00  0.00     0.023 C 
BRANCH  34  35
ATOM     35  C   UNL A   1      34.423  30.246  28.056  1.00  0.00     0.116 C 
BRANCH  35  36
ATOM     36  N   UNL A   1      35.286  31.373  28.387  1.00  0.00    -0.352 N 
ATOM     37  C   UNL A   1      36.638  31.337  28.702  1.00  0.00     0.251 C 
ATOM     38  H   UNL A   1      34.862  32.262  28.386  1.00  0.00     0.163 HD
ATOM     39  O   UNL A   1      37.225  32.376  28.994  1.00  0.00    -0.269 OA
BRANCH  37  40
ATOM     40  C   UNL A   1      37.356  30.043  28.592  1.00  0.00     0.039 A 
ATOM     41  C   UNL A   1      37.478  29.238  29.727  1.00  0.00     0.014 A 
ATOM     42  C   UNL A   1      38.113  29.776  27.453  1.00  0.00     0.014 A 
ATOM     43  C   UNL A   1      38.540  28.337  29.809  1.00  0.00     0.010 A 
ATOM     44  C   UNL A   1      39.222  28.965  27.568  1.00  0.00     0.010 A 
ATOM     45  C   UNL A   1      39.470  28.296  28.770  1.00  0.00    -0.014 A 
BRANCH  45  46
ATOM     46  C   UNL A   1      40.741  27.588  28.844  1.00  0.00     0.031 A 
ATOM     47  C   UNL A   1      40.772  26.127  28.694  1.00  0.00     0.074 A 
ATOM     48  C   UNL A   1      41.891  28.289  28.930  1.00  0.00     0.049 A 
ATOM     49  N   UNL A   1      41.716  25.366  29.127  1.00  0.00    -0.248 NA
ATOM     50  C   UNL A   1      39.700  25.413  28.017  1.00  0.00     0.031 C 
ATOM     51  C   UNL A   1      43.264  27.817  28.784  1.00  0.00     0.029 A 
ATOM     52  N   UNL A   1      42.032  29.584  29.428  1.00  0.00    -0.354 N 
ATOM     53  C   UNL A   1      41.546  24.137  28.527  1.00  0.00     0.074 A 
ATOM     54  C   UNL A   1      40.234  24.194  27.922  1.00  0.00     0.031 C 
ATOM     55  C   UNL A   1      44.075  28.642  29.473  1.00  0.00     0.029 A 
ATOM     56  C   UNL A   1      43.213  29.557  30.201  1.00  0.00     0.049 A 
ATOM     57  H   UNL A   1      41.437  30.352  29.273  1.00  0.00     0.167 HD
ATOM     58  C   UNL A   1      42.612  23.290  28.443  1.00  0.00     0.034 A 
ATOM     59  C   UNL A   1      43.151  29.695  31.562  1.00  0.00     0.034 A 
ATOM     60  C   UNL A   1      43.767  23.811  29.191  1.00  0.00     0.049 A 
ATOM     61  C   UNL A   1      43.776  28.536  32.314  1.00  0.00     0.074 A 
ATOM     62  C   UNL A   1      44.909  24.496  28.803  1.00  0.00     0.029 A 
ATOM     63  N   UNL A   1      43.691  23.937  30.577  1.00  0.00    -0.354 N 
ATOM     64  N   UNL A   1      44.044  27.381  31.768  1.00  0.00    -0.248 NA
ATOM     65  C   UNL A   1      44.143  28.572  33.728  1.00  0.00     0.031 C 
ATOM     66  C   UNL A   1      45.457  25.127  29.952  1.00  0.00     0.029 A 
ATOM     67  C   UNL A   1      44.664  24.809  31.041  1.00  0.00     0.049 A 
ATOM     68  H   UNL A   1      43.038  23.470  31.147  1.00  0.00     0.167 HD
ATOM     69  C   UNL A   1      44.502  26.510  32.720  1.00  0.00     0.074 A 
ATOM     70  C   UNL A   1      44.603  27.322  33.921  1.00  0.00     0.031 C 
ATOM     71  C   UNL A   1      44.716  25.185  32.448  1.00  0.00     0.034 A 
BRANCH  58  72
ATOM     72  C   UNL A   1      42.717  22.228  27.358  1.00  0.00     0.023 A 
ATOM     73  C   UNL A   1      42.027  21.012  27.559  1.00  0.00     0.012 A 
ATOM     74  C   UNL A   1      43.531  22.289  26.204  1.00  0.00     0.148 A 
ATOM     75  C   UNL A   1      42.235  19.885  26.757  1.00  0.00     0.002 A 
ATOM     76  C   UNL A   1      43.808  21.143  25.453  1.00  0.00     0.091 A 
ATOM     77  F   UNL A   1      43.970  23.475  25.767  1.00  0.00    -0.205 F 
ATOM     78  C   UNL A   1      43.165  19.935  25.731  1.00  0.00     0.022 A 
BRANCH  76  79
ATOM     79  S   UNL A   1      45.089  21.118  24.185  1.00  0.00     0.127 S 
ATOM     80  O   UNL A   1      44.941  19.776  23.617  1.00  0.00    -0.237 OA
ATOM     81  O   UNL A   1      44.675  22.203  23.300  1.00  0.00    -0.237 OA
ATOM     82  O   UNL A   1      46.347  21.319  24.897  1.00  0.00    -0.744 OA
ENDBRANCH  76  79
ENDBRANCH  58  72
BRANCH  59  83
ATOM     83  C   UNL A   1      41.961  30.500  32.007  1.00  0.00     0.023 A 
ATOM     84  C   UNL A   1      41.799  31.782  31.412  1.00  0.00     0.012 A 
ATOM     85  C   UNL A   1      40.867  29.954  32.692  1.00  0.00     0.148 A 
ATOM     86  C   UNL A   1      40.554  32.405  31.333  1.00  0.00     0.002 A 
ATOM     87  C   UNL A   1      39.633  30.611  32.656  1.00  0.00     0.091 A 
ATOM     88  F   UNL A   1      41.015  28.791  33.341  1.00  0.00    -0.205 F 
ATOM     89  C   UNL A   1      39.462  31.804  31.936  1.00  0.00     0.022 A 
BRANCH  87  90
ATOM     90  S   UNL A   1      38.199  29.891  33.464  1.00  0.00     0.127 S 
ATOM     91  O   UNL A   1      38.463  30.203  34.865  1.00  0.00    -0.237 OA
ATOM     92  O   UNL A   1      37.081  30.632  32.878  1.00  0.00    -0.237 OA
ATOM     93  O   UNL A   1      38.244  28.486  33.083  1.00  0.00    -0.744 OA
ENDBRANCH  87  90
ENDBRANCH  59  83
BRANCH  71  94
ATOM     94  C   UNL A   1      45.007  24.127  33.489  1.00  0.00     0.023 A 
ATOM     95  C   UNL A   1      44.068  23.130  33.818  1.00  0.00     0.012 A 
ATOM     96  C   UNL A   1      46.299  24.009  34.063  1.00  0.00     0.148 A 
ATOM     97  C   UNL A   1      44.366  22.107  34.724  1.00  0.00     0.002 A 
ATOM     98  C   UNL A   1      46.620  22.933  34.888  1.00  0.00     0.091 A 
ATOM     99  F   UNL A   1      47.220  24.954  33.827  1.00  0.00    -0.205 F 
ATOM    100  C   UNL A   1      45.648  21.997  35.245  1.00  0.00     0.022 A 
BRANCH  98 101
ATOM    101  S   UNL A   1      48.318  22.635  35.405  1.00  0.00     0.127 S 
ATOM    102  O   UNL A   1      48.554  23.741  36.330  1.00  0.00    -0.237 OA
ATOM    103  O   UNL A   1      48.231  21.318  36.042  1.00  0.00    -0.237 OA
ATOM    104  O   UNL A   1      49.099  22.649  34.175  1.00  0.00    -0.744 OA
ENDBRANCH  98 101
ENDBRANCH  71  94
ENDBRANCH  45  46
ENDBRANCH  37  40
ENDBRANCH  35  36
ENDBRANCH  34  35
ENDBRANCH   1  34
TORSDOF 18
ENDMDL
MODEL 2
REMARK VINA RESULT:     -12.6      1.607      2.430
REMARK SMILES Cc1ccccc1/[NH+]=C1\S[C@@H](CC(=O)Nc2ccc(C(=O)NCCCCNC(=O)c3ccc(-c4c5nc(c(-c6cccc(S(=O)(=O)[O-])c6F)c6ccc([nH]6)c(-c6cccc(S(=O)(=O)[O-])c6F)c6nc(c(-c7cccc(S(=O)(=O)[O-])c7F)c7ccc4[nH]7)C=C6)C=C5)cc3)cc2)C(=O)N1C
REMARK SMILES IDX 24 1 23 2 22 3 20 4 21 5 19 7 16 8 17 9 94 10 18 11 93 12
REMARK SMILES IDX 15 13 13 14 14 15 12 17 11 18 8 19 9 20 10 22 97 23 95 24
REMARK SMILES IDX 98 25 96 26 7 27 1 28 2 29 3 30 4 31 6 32 5 33 25 34 26 35
REMARK SMILES IDX 27 36 28 37 29 39 30 40 31 41 92 42 32 43 91 44 33 45 34 46
REMARK SMILES IDX 35 47 85 48 36 49 90 50 84 51 86 52 37 53 89 54 83 55 82 56
REMARK SMILES IDX 38 58 70 59 50 60 69 61 51 62 54 63 68 64 87 65 52 66 53 67
REMARK SMILES IDX 67 69 88 70 55 71 39 72 40 73 48 74 41 75 43 76 49 77 42 78
REMARK SMILES IDX 44 79 45 80 46 81 47 82 71 83 72 84 80 85 73 86 75 87 81 88
REMARK SMILES IDX 74 89 76 90 77 91 78 92 79 93 56 94 57 95 65 96 58 97 60 98
REMARK SMILES IDX 66 99 59 100 61 101 62 102 63 103 64 104
REMARK H PARENT 22 6 15 16 8 21 27 38 86 57 54 68
REMARK Flexibility Score: inf
ROOT
ATOM      1  C   UNL A   1      33.276  30.833  26.135  1.00  0.00     0.023 C 
ENDROOT
BRANCH   1   2
ATOM      2  C   UNL A   1      31.844  30.302  25.922  1.00  0.00     0.116 C 
BRANCH   2   3
ATOM      3  N   UNL A   1      31.397  29.367  26.951  1.00  0.00    -0.352 N 
ATOM      4  C   UNL A   1      31.280  27.994  26.991  1.00  0.00     0.251 C 
ATOM      5  O   UNL A   1      31.084  27.460  28.082  1.00  0.00    -0.269 OA
ATOM      6  H   UNL A   1      31.123  29.808  27.788  1.00  0.00     0.163 HD
BRANCH   4   7
ATOM      7  C   UNL A   1      31.374  27.120  25.789  1.00  0.00     0.039 A 
ATOM      8  C   UNL A   1      31.571  25.397  23.570  1.00  0.00     0.041 A 
ATOM      9  C   UNL A   1      31.961  26.725  23.492  1.00  0.00     0.027 A 
ATOM     10  C   UNL A   1      30.909  24.962  24.709  1.00  0.00     0.027 A 
ATOM     11  C   UNL A   1      31.887  27.571  24.585  1.00  0.00     0.016 A 
ATOM     12  C   UNL A   1      30.826  25.822  25.821  1.00  0.00     0.016 A 
BRANCH   8  13
ATOM     13  N   UNL A   1      31.857  24.533  22.504  1.00  0.00    -0.326 N 
ATOM     14  C   UNL A   1      33.122  24.240  22.028  1.00  0.00     0.226 C 
ATOM     15  O   UNL A   1      33.275  23.724  20.920  1.00  0.00    -0.275 OA
ATOM     16  H   UNL A   1      31.095  24.099  22.057  1.00  0.00     0.169 HD
BRANCH  14  17
ATOM     17  C   UNL A   1      34.282  24.358  23.009  1.00  0.00     0.128 C 
BRANCH  17  18
ATOM     18  C   UNL A   1      34.431  23.244  24.022  1.00  0.00     0.183 C 
ATOM     19  N   UNL A   1      33.448  20.202  25.775  1.00  0.00    -0.234 N 
ATOM     20  C   UNL A   1      33.319  21.343  25.206  1.00  0.00     0.319 C 
ATOM     21  H   UNL A   1      33.394  20.225  26.758  1.00  0.00     0.313 HD
ATOM     22  S   UNL A   1      33.343  21.837  23.550  1.00  0.00    -0.022 SA
ATOM     23  N   UNL A   1      33.235  22.481  25.949  1.00  0.00    -0.193 N 
ATOM     24  C   UNL A   1      34.011  23.509  25.461  1.00  0.00     0.324 C 
ATOM     25  C   UNL A   1      32.589  22.549  27.241  1.00  0.00     0.301 C 
ATOM     26  O   UNL A   1      34.403  24.458  26.132  1.00  0.00    -0.245 OA
BRANCH  19  27
ATOM     27  C   UNL A   1      33.652  18.925  25.229  1.00  0.00     0.128 A 
ATOM     28  C   UNL A   1      36.173  18.989  24.631  1.00  0.00     0.049 C 
ATOM     29  C   UNL A   1      34.820  18.345  24.695  1.00  0.00    -0.004 A 
ATOM     30  C   UNL A   1      34.768  17.029  24.183  1.00  0.00     0.008 A 
ATOM     31  C   UNL A   1      33.624  16.245  24.294  1.00  0.00     0.001 A 
ATOM     32  C   UNL A   1      32.534  18.082  25.383  1.00  0.00     0.052 A 
ATOM     33  C   UNL A   1      32.507  16.766  24.922  1.00  0.00     0.004 A 
ENDBRANCH  19  27
ENDBRANCH  17  18
ENDBRANCH  14  17
ENDBRANCH   8  13
ENDBRANCH   4   7
ENDBRANCH   2   3
ENDBRANCH   1   2
BRANCH   1  34
ATOM     34  C   UNL A   1      34.281  29.863  26.761  1.00  0.00     0.023 C 
BRANCH  34  35
ATOM     35  C   UNL A   1      34.604  30.185  28.212  1.00  0.00     0.116 C 
BRANCH  35  36
ATOM     36  N   UNL A   1      35.524  31.298  28.410  1.00  0.00    -0.352 N 
ATOM     37  C   UNL A   1      36.904  31.238  28.556  1.00  0.00     0.251 C 
ATOM     38  H   UNL A   1      35.121  32.197  28.443  1.00  0.00     0.163 HD
ATOM     39  O   UNL A   1      37.543  32.269  28.752  1.00  0.00    -0.269 OA
BRANCH  37  40
ATOM     40  C   UNL A   1      37.576  29.927  28.384  1.00  0.00     0.039 A 
ATOM     41  C   UNL A   1      37.590  29.028  29.454  1.00  0.00     0.014 A 
ATOM     42  C   UNL A   1      38.398  29.718  27.278  1.00  0.00     0.014 A 
ATOM     43  C   UNL A   1      38.608  28.077  29.529  1.00  0.00     0.010 A 
ATOM     44  C   UNL A   1      39.465  28.852  27.397  1.00  0.00     0.010 A 
ATOM     45  C   UNL A   1      39.604  28.078  28.552  1.00  0.00    -0.014 A 
BRANCH  45  46
ATOM     46  C   UNL A   1      40.838  27.311  28.648  1.00  0.00     0.031 A 
ATOM     47  C   UNL A   1      40.798  25.847  28.533  1.00  0.00     0.074 A 
ATOM     48  C   UNL A   1      42.021  27.957  28.722  1.00  0.00     0.049 A 
ATOM     49  N   UNL A   1      41.703  25.052  28.988  1.00  0.00    -0.248 NA
ATOM     50  C   UNL A   1      39.694  25.170  27.870  1.00  0.00     0.031 C 
ATOM     51  C   UNL A   1      43.370  27.415  28.594  1.00  0.00     0.029 A 
ATOM     52  N   UNL A   1      42.224  29.255  29.190  1.00  0.00    -0.354 N 
ATOM     53  C   UNL A   1      41.474  23.818  28.417  1.00  0.00     0.074 A 
ATOM     54  C   UNL A   1      40.168  23.925  27.805  1.00  0.00     0.031 C 
ATOM     55  C   UNL A   1      44.218  28.215  29.266  1.00  0.00     0.029 A 
ATOM     56  C   UNL A   1      43.399  29.189  29.968  1.00  0.00     0.049 A 
ATOM     57  H   UNL A   1      41.668  30.047  29.014  1.00  0.00     0.167 HD
ATOM     58  C   UNL A   1      42.497  22.918  28.358  1.00  0.00     0.034 A 
ATOM     59  C   UNL A   1      43.341  29.363  31.326  1.00  0.00     0.034 A 
ATOM     60  C   UNL A   1      43.674  23.400  29.099  1.00  0.00     0.049 A 
ATOM     61  C   UNL A   1      43.905  28.193  32.108  1.00  0.00     0.074 A 
ATOM     62  C   UNL A   1      44.850  24.019  28.700  1.00  0.00     0.029 A 
ATOM     63  N   UNL A   1      43.600  23.563  30.481  1.00  0.00    -0.354 N 
ATOM     64  N   UNL A   1      44.118  27.013  31.591  1.00  0.00    -0.248 NA
ATOM     65  C   UNL A   1      44.270  28.245  33.522  1.00  0.00     0.031 C 
ATOM     66  C   UNL A   1      45.424  24.650  29.835  1.00  0.00     0.029 A 
ATOM     67  C   UNL A   1      44.613  24.397  30.928  1.00  0.00     0.049 A 
ATOM     68  H   UNL A   1      42.923  23.143  31.059  1.00  0.00     0.167 HD
ATOM     69  C   UNL A   1      44.530  26.144  32.565  1.00  0.00     0.074 A 
ATOM     70  C   UNL A   1      44.667  26.979  33.747  1.00  0.00     0.031 C 
ATOM     71  C   UNL A   1      44.680  24.804  32.326  1.00  0.00     0.034 A 
BRANCH  58  72
ATOM     72  C   UNL A   1      42.554  21.827  27.299  1.00  0.00     0.023 A 
ATOM     73  C   UNL A   1      41.655  20.743  27.423  1.00  0.00     0.012 A 
ATOM     74  C   UNL A   1      43.496  21.727  26.251  1.00  0.00     0.148 A 
ATOM     75  C   UNL A   1      41.769  19.578  26.658  1.00  0.00     0.002 A 
ATOM     76  C   UNL A   1      43.668  20.533  25.544  1.00  0.00     0.091 A 
ATOM     77  F   UNL A   1      44.171  22.815  25.862  1.00  0.00    -0.205 F 
ATOM     78  C   UNL A   1      42.808  19.452  25.750  1.00  0.00     0.022 A 
BRANCH  76  79
ATOM     79  S   UNL A   1      45.067  20.269  24.439  1.00  0.00     0.127 S 
ATOM     80  O   UNL A   1      44.681  21.041  23.255  1.00  0.00    -0.237 OA
ATOM     81  O   UNL A   1      46.178  20.835  25.199  1.00  0.00    -0.237 OA
ATOM     82  O   UNL A   1      45.118  18.828  24.211  1.00  0.00    -0.744 OA
ENDBRANCH  76  79
ENDBRANCH  58  72
BRANCH  59  83
ATOM     83  C   UNL A   1      42.190  30.235  31.746  1.00  0.00     0.023 A 
ATOM     84  C   UNL A   1      42.062  31.486  31.082  1.00  0.00     0.012 A 
ATOM     85  C   UNL A   1      41.092  29.770  32.482  1.00  0.00     0.148 A 
ATOM     86  C   UNL A   1      40.838  32.149  30.990  1.00  0.00     0.002 A 
ATOM     87  C   UNL A   1      39.882  30.470  32.432  1.00  0.00     0.091 A 
ATOM     88  F   UNL A   1      41.211  28.642  33.194  1.00  0.00    -0.205 F 
ATOM     89  C   UNL A   1      39.738  31.625  31.648  1.00  0.00     0.022 A 
BRANCH  87  90
ATOM     90  S   UNL A   1      38.440  29.851  33.308  1.00  0.00     0.127 S 
ATOM     91  O   UNL A   1      38.407  28.458  32.872  1.00  0.00    -0.237 OA
ATOM     92  O   UNL A   1      38.800  30.038  34.714  1.00  0.00    -0.237 OA
ATOM     93  O   UNL A   1      37.354  30.709  32.854  1.00  0.00    -0.744 OA
ENDBRANCH  87  90
ENDBRANCH  59  83
BRANCH  71  94
ATOM     94  C   UNL A   1      44.915  23.758  33.393  1.00  0.00     0.023 A 
ATOM     95  C   UNL A   1      43.913  22.844  33.771  1.00  0.00     0.012 A 
ATOM     96  C   UNL A   1      46.207  23.562  33.945  1.00  0.00     0.148 A 
ATOM     97  C   UNL A   1      44.155  21.829  34.703  1.00  0.00     0.002 A 
ATOM     98  C   UNL A   1      46.467  22.490  34.796  1.00  0.00     0.091 A 
ATOM     99  F   UNL A   1      47.189  24.429  33.662  1.00  0.00    -0.205 F 
ATOM    100  C   UNL A   1      45.436  21.639  35.201  1.00  0.00     0.022 A 
BRANCH  98 101
ATOM    101  S   UNL A   1      48.149  22.082  35.288  1.00  0.00     0.127 S 
ATOM    102  O   UNL A   1      48.834  22.008  34.000  1.00  0.00    -0.237 OA
ATOM    103  O   UNL A   1      48.528  23.232  36.113  1.00  0.00    -0.237 OA
ATOM    104  O   UNL A   1      48.037  20.832  36.028  1.00  0.00    -0.744 OA
ENDBRANCH  98 101
ENDBRANCH  71  94
ENDBRANCH  45  46
ENDBRANCH  37  40
ENDBRANCH  35  36
ENDBRANCH  34  35
ENDBRANCH   1  34
TORSDOF 18
ENDMDL
MODEL 3
REMARK VINA RESULT:     -12.5      3.954     10.430
REMARK SMILES Cc1ccccc1/[NH+]=C1\S[C@@H](CC(=O)Nc2ccc(C(=O)NCCCCNC(=O)c3ccc(-c4c5nc(c(-c6cccc(S(=O)(=O)[O-])c6F)c6ccc([nH]6)c(-c6cccc(S(=O)(=O)[O-])c6F)c6nc(c(-c7cccc(S(=O)(=O)[O-])c7F)c7ccc4[nH]7)C=C6)C=C5)cc3)cc2)C(=O)N1C
REMARK SMILES IDX 24 1 23 2 22 3 20 4 21 5 19 7 16 8 17 9 94 10 18 11 93 12
REMARK SMILES IDX 15 13 13 14 14 15 12 17 11 18 8 19 9 20 10 22 97 23 95 24
REMARK SMILES IDX 98 25 96 26 7 27 1 28 2 29 3 30 4 31 6 32 5 33 25 34 26 35
REMARK SMILES IDX 27 36 28 37 29 39 30 40 31 41 92 42 32 43 91 44 33 45 34 46
REMARK SMILES IDX 35 47 85 48 36 49 90 50 84 51 86 52 37 53 89 54 83 55 82 56
REMARK SMILES IDX 38 58 70 59 50 60 69 61 51 62 54 63 68 64 87 65 52 66 53 67
REMARK SMILES IDX 67 69 88 70 55 71 39 72 40 73 48 74 41 75 43 76 49 77 42 78
REMARK SMILES IDX 44 79 45 80 46 81 47 82 71 83 72 84 80 85 73 86 75 87 81 88
REMARK SMILES IDX 74 89 76 90 77 91 78 92 79 93 56 94 57 95 65 96 58 97 60 98
REMARK SMILES IDX 66 99 59 100 61 101 62 102 63 103 64 104
REMARK H PARENT 22 6 15 16 8 21 27 38 86 57 54 68
REMARK Flexibility Score: inf
ROOT
ATOM      1  C   UNL A   1      35.643  21.782  26.487  1.00  0.00     0.023 C 
ENDROOT
BRANCH   1   2
ATOM      2  C   UNL A   1      34.331  21.732  27.294  1.00  0.00     0.116 C 
BRANCH   2   3
ATOM      3  N   UNL A   1      33.364  20.757  26.799  1.00  0.00    -0.352 N 
ATOM      4  C   UNL A   1      32.775  20.554  25.569  1.00  0.00     0.251 C 
ATOM      5  O   UNL A   1      32.160  19.504  25.386  1.00  0.00    -0.269 OA
ATOM      6  H   UNL A   1      33.073  20.112  27.483  1.00  0.00     0.163 HD
BRANCH   4   7
ATOM      7  C   UNL A   1      32.837  21.535  24.450  1.00  0.00     0.039 A 
ATOM      8  C   UNL A   1      32.870  23.362  22.307  1.00  0.00     0.041 A 
ATOM      9  C   UNL A   1      34.027  22.729  22.736  1.00  0.00     0.027 A 
ATOM     10  C   UNL A   1      31.715  23.225  23.063  1.00  0.00     0.027 A 
ATOM     11  C   UNL A   1      34.013  21.813  23.775  1.00  0.00     0.016 A 
ATOM     12  C   UNL A   1      31.698  22.299  24.124  1.00  0.00     0.016 A 
BRANCH   8  13
ATOM     13  N   UNL A   1      32.898  24.117  21.127  1.00  0.00    -0.326 N 
ATOM     14  C   UNL A   1      32.770  25.492  21.052  1.00  0.00     0.226 C 
ATOM     15  O   UNL A   1      32.504  26.044  19.984  1.00  0.00    -0.275 OA
ATOM     16  H   UNL A   1      33.018  23.629  20.281  1.00  0.00     0.169 HD
BRANCH  14  17
ATOM     17  C   UNL A   1      33.201  26.301  22.270  1.00  0.00     0.128 C 
BRANCH  17  18
ATOM     18  C   UNL A   1      32.107  27.017  23.031  1.00  0.00     0.183 C 
ATOM     19  N   UNL A   1      30.362  29.917  24.389  1.00  0.00    -0.234 N 
ATOM     20  C   UNL A   1      31.347  29.167  24.058  1.00  0.00     0.319 C 
ATOM     21  H   UNL A   1      30.167  29.936  25.354  1.00  0.00     0.313 HD
ATOM     22  S   UNL A   1      32.075  28.788  22.537  1.00  0.00    -0.022 SA
ATOM     23  N   UNL A   1      31.967  28.388  24.987  1.00  0.00    -0.193 N 
ATOM     24  C   UNL A   1      32.215  27.107  24.547  1.00  0.00     0.324 C 
ATOM     25  C   UNL A   1      32.144  28.776  26.369  1.00  0.00     0.301 C 
ATOM     26  O   UNL A   1      32.390  26.144  25.286  1.00  0.00    -0.245 OA
BRANCH  19  27
ATOM     27  C   UNL A   1      29.517  30.716  23.603  1.00  0.00     0.128 A 
ATOM     28  C   UNL A   1      27.880  28.965  22.617  1.00  0.00     0.049 C 
ATOM     29  C   UNL A   1      28.424  30.351  22.791  1.00  0.00    -0.004 A 
ATOM     30  C   UNL A   1      27.730  31.352  22.075  1.00  0.00     0.008 A 
ATOM     31  C   UNL A   1      28.021  32.703  22.236  1.00  0.00     0.001 A 
ATOM     32  C   UNL A   1      29.740  32.094  23.793  1.00  0.00     0.052 A 
ATOM     33  C   UNL A   1      29.016  33.078  23.121  1.00  0.00     0.004 A 
ENDBRANCH  19  27
ENDBRANCH  17  18
ENDBRANCH  14  17
ENDBRANCH   8  13
ENDBRANCH   4   7
ENDBRANCH   2   3
ENDBRANCH   1   2
BRANCH   1  34
ATOM     34  C   UNL A   1      36.271  23.163  26.283  1.00  0.00     0.023 C 
BRANCH  34  35
ATOM     35  C   UNL A   1      37.532  23.132  25.432  1.00  0.00     0.116 C 
BRANCH  35  36
ATOM     36  N   UNL A   1      38.684  22.492  26.053  1.00  0.00    -0.352 N 
ATOM     37  C   UNL A   1      39.649  23.086  26.856  1.00  0.00     0.251 C 
ATOM     38  H   UNL A   1      38.791  21.527  25.885  1.00  0.00     0.163 HD
ATOM     39  O   UNL A   1      40.587  22.416  27.281  1.00  0.00    -0.269 OA
BRANCH  37  40
ATOM     40  C   UNL A   1      39.466  24.505  27.249  1.00  0.00     0.039 A 
ATOM     41  C   UNL A   1      40.104  25.501  26.505  1.00  0.00     0.014 A 
ATOM     42  C   UNL A   1      38.893  24.806  28.483  1.00  0.00     0.014 A 
ATOM     43  C   UNL A   1      40.395  26.722  27.113  1.00  0.00     0.010 A 
ATOM     44  C   UNL A   1      39.267  25.968  29.123  1.00  0.00     0.010 A 
ATOM     45  C   UNL A   1      40.073  26.897  28.459  1.00  0.00    -0.014 A 
BRANCH  45  46
ATOM     46  C   UNL A   1      40.538  28.016  29.267  1.00  0.00     0.031 A 
ATOM     47  C   UNL A   1      39.671  29.187  29.459  1.00  0.00     0.074 A 
ATOM     48  C   UNL A   1      41.708  27.918  29.931  1.00  0.00     0.049 A 
ATOM     49  N   UNL A   1      40.089  30.361  29.785  1.00  0.00    -0.248 NA
ATOM     50  C   UNL A   1      38.229  29.097  29.291  1.00  0.00     0.031 C 
ATOM     51  C   UNL A   1      42.253  28.796  30.963  1.00  0.00     0.029 A 
ATOM     52  N   UNL A   1      42.779  27.088  29.598  1.00  0.00    -0.354 N 
ATOM     53  C   UNL A   1      38.983  31.085  30.173  1.00  0.00     0.074 A 
ATOM     54  C   UNL A   1      37.849  30.286  29.763  1.00  0.00     0.031 C 
ATOM     55  C   UNL A   1      43.595  28.695  30.945  1.00  0.00     0.029 A 
ATOM     56  C   UNL A   1      43.934  27.876  29.794  1.00  0.00     0.049 A 
ATOM     57  H   UNL A   1      42.738  26.154  29.292  1.00  0.00     0.167 HD
ATOM     58  C   UNL A   1      39.155  32.178  30.971  1.00  0.00     0.034 A 
ATOM     59  C   UNL A   1      44.695  28.265  28.724  1.00  0.00     0.034 A 
ATOM     60  C   UNL A   1      40.583  32.489  31.147  1.00  0.00     0.049 A 
ATOM     61  C   UNL A   1      44.857  29.769  28.615  1.00  0.00     0.074 A 
ATOM     62  C   UNL A   1      41.488  32.217  32.162  1.00  0.00     0.029 A 
ATOM     63  N   UNL A   1      41.341  32.893  30.050  1.00  0.00    -0.354 N 
ATOM     64  N   UNL A   1      44.101  30.625  29.249  1.00  0.00    -0.248 NA
ATOM     65  C   UNL A   1      45.865  30.433  27.792  1.00  0.00     0.031 C 
ATOM     66  C   UNL A   1      42.799  32.353  31.633  1.00  0.00     0.029 A 
ATOM     67  C   UNL A   1      42.693  32.730  30.306  1.00  0.00     0.049 A 
ATOM     68  H   UNL A   1      40.968  33.246  29.210  1.00  0.00     0.167 HD
ATOM     69  C   UNL A   1      44.421  31.901  28.868  1.00  0.00     0.074 A 
ATOM     70  C   UNL A   1      45.574  31.730  27.999  1.00  0.00     0.031 C 
ATOM     71  C   UNL A   1      43.684  32.983  29.266  1.00  0.00     0.034 A 
BRANCH  58  72
ATOM     72  C   UNL A   1      38.060  32.683  31.899  1.00  0.00     0.023 A 
ATOM     73  C   UNL A   1      38.110  32.283  33.253  1.00  0.00     0.012 A 
ATOM     74  C   UNL A   1      36.922  33.430  31.521  1.00  0.00     0.148 A 
ATOM     75  C   UNL A   1      37.046  32.484  34.139  1.00  0.00     0.002 A 
ATOM     76  C   UNL A   1      35.822  33.557  32.375  1.00  0.00     0.091 A 
ATOM     77  F   UNL A   1      36.929  34.107  30.366  1.00  0.00    -0.205 F 
ATOM     78  C   UNL A   1      35.879  33.079  33.686  1.00  0.00     0.022 A 
BRANCH  76  79
ATOM     79  S   UNL A   1      34.243  34.214  31.809  1.00  0.00     0.127 S 
ATOM     80  O   UNL A   1      33.325  33.778  32.865  1.00  0.00    -0.237 OA
ATOM     81  O   UNL A   1      34.495  35.653  31.779  1.00  0.00    -0.237 OA
ATOM     82  O   UNL A   1      33.997  33.582  30.518  1.00  0.00    -0.744 OA
ENDBRANCH  76  79
ENDBRANCH  58  72
BRANCH  59  83
ATOM     83  C   UNL A   1      44.611  27.299  27.575  1.00  0.00     0.023 A 
ATOM     84  C   UNL A   1      43.790  27.680  26.478  1.00  0.00     0.012 A 
ATOM     85  C   UNL A   1      45.515  26.245  27.380  1.00  0.00     0.148 A 
ATOM     86  C   UNL A   1      43.993  27.173  25.195  1.00  0.00     0.002 A 
ATOM     87  C   UNL A   1      45.674  25.701  26.101  1.00  0.00     0.091 A 
ATOM     88  F   UNL A   1      46.236  25.800  28.417  1.00  0.00    -0.205 F 
ATOM     89  C   UNL A   1      44.956  26.198  25.001  1.00  0.00     0.022 A 
BRANCH  87  90
ATOM     90  S   UNL A   1      46.881  24.401  25.813  1.00  0.00     0.127 S 
ATOM     91  O   UNL A   1      46.147  23.217  26.249  1.00  0.00    -0.237 OA
ATOM     92  O   UNL A   1      47.110  24.476  24.370  1.00  0.00    -0.237 OA
ATOM     93  O   UNL A   1      48.029  24.797  26.618  1.00  0.00    -0.744 OA
ENDBRANCH  87  90
ENDBRANCH  59  83
BRANCH  71  94
ATOM     94  C   UNL A   1      43.840  34.383  28.717  1.00  0.00     0.023 A 
ATOM     95  C   UNL A   1      43.314  34.754  27.464  1.00  0.00     0.012 A 
ATOM     96  C   UNL A   1      44.393  35.418  29.514  1.00  0.00     0.148 A 
ATOM     97  C   UNL A   1      43.393  36.068  26.991  1.00  0.00     0.002 A 
ATOM     98  C   UNL A   1      44.380  36.742  29.080  1.00  0.00     0.091 A 
ATOM     99  F   UNL A   1      44.954  35.120  30.695  1.00  0.00    -0.205 F 
ATOM    100  C   UNL A   1      43.908  37.066  27.806  1.00  0.00     0.022 A 
BRANCH  98 101
ATOM    101  S   UNL A   1      44.835  38.087  30.185  1.00  0.00     0.127 S 
ATOM    102  O   UNL A   1      46.229  37.771  30.491  1.00  0.00    -0.237 OA
ATOM    103  O   UNL A   1      44.651  39.270  29.341  1.00  0.00    -0.237 OA
ATOM    104  O   UNL A   1      43.899  37.999  31.298  1.00  0.00    -0.744 OA
ENDBRANCH  98 101
ENDBRANCH  71  94
ENDBRANCH  45  46
ENDBRANCH  37  40
ENDBRANCH  35  36
ENDBRANCH  34  35
ENDBRANCH   1  34
TORSDOF 18
ENDMDL
