MODEL 1
REMARK VINA RESULT:     -12.7      0.000      0.000
REMARK SMILES O=C(NCCCCNC(=O)[C@@H]1CCC[N@@H+](Cc2cccc3ccccc23)C1)c1ccc(-c2c3nc(c(-c4cccc(S(=O)(=O)[O-])c4F)c4ccc([nH]4)c(-c4cccc(S(=O)(=O)[O-])c4F)c4nc(c(-c5cccc(S(=O)(=O)[O-])c5F)c5ccc2[nH]5)C=C4)C=C3)cc1
REMARK SMILES IDX 5 1 4 2 3 3 1 4 2 5 28 7 29 8 90 9 30 10 89 11 31 12 32 13
REMARK SMILES IDX 33 14 83 15 34 16 88 17 82 18 84 19 35 20 87 21 81 22 80 23
REMARK SMILES IDX 36 25 68 26 48 27 67 28 49 29 52 30 66 31 85 32 50 33 51 34
REMARK SMILES IDX 65 36 86 37 53 38 37 39 38 40 46 41 39 42 41 43 47 44 40 45
REMARK SMILES IDX 42 46 43 47 44 48 45 49 69 50 70 51 78 52 71 53 73 54 79 55
REMARK SMILES IDX 72 56 74 57 75 58 76 59 77 60 54 61 55 62 63 63 56 64 58 65
REMARK SMILES IDX 64 66 57 67 59 68 60 69 61 70 62 71 6 72 7 73 8 74 9 75
REMARK SMILES IDX 10 77 11 78 12 79 27 80 13 81 15 82 14 83 16 85 17 86 18 87
REMARK SMILES IDX 26 88 19 89 21 90 25 91 20 92 22 93 24 94 23 95
REMARK H PARENT 3 6 84 24 52 35 8 76 15 84
REMARK Flexibility Score: inf
ROOT
ATOM      1  C   UNL A   1      35.166  21.550  26.088  1.00  0.00     0.023 C 
ENDROOT
BRANCH   1   2
ATOM      2  C   UNL A   1      36.529  22.018  25.618  1.00  0.00     0.116 C 
BRANCH   2   3
ATOM      3  N   UNL A   1      37.516  20.948  25.546  1.00  0.00    -0.352 N 
ATOM      4  O   UNL A   1      39.579  20.037  25.717  1.00  0.00    -0.269 OA
ATOM      5  C   UNL A   1      38.838  20.994  25.923  1.00  0.00     0.251 C 
ATOM      6  H   UNL A   1      37.198  20.089  25.185  1.00  0.00     0.163 HD
BRANCH   5   7
ATOM      7  C   UNL A   1      39.347  22.238  26.529  1.00  0.00     0.039 A 
ATOM      8  C   UNL A   1      38.868  23.470  26.081  1.00  0.00     0.014 A 
ATOM      9  C   UNL A   1      40.383  22.170  27.461  1.00  0.00     0.014 A 
ATOM     10  C   UNL A   1      39.547  24.628  26.426  1.00  0.00     0.010 A 
ATOM     11  C   UNL A   1      40.998  23.347  27.885  1.00  0.00     0.010 A 
ATOM     12  C   UNL A   1      40.619  24.581  27.333  1.00  0.00    -0.014 A 
BRANCH  12  13
ATOM     13  C   UNL A   1      41.294  25.846  27.710  1.00  0.00     0.031 A 
ATOM     14  C   UNL A   1      42.687  26.160  27.240  1.00  0.00     0.074 A 
ATOM     15  C   UNL A   1      40.614  26.730  28.466  1.00  0.00     0.049 A 
ATOM     16  N   UNL A   1      43.395  27.241  27.444  1.00  0.00    -0.248 NA
ATOM     17  C   UNL A   1      43.384  25.133  26.449  1.00  0.00     0.031 C 
ATOM     18  C   UNL A   1      39.270  26.508  29.009  1.00  0.00     0.029 A 
ATOM     19  N   UNL A   1      40.940  27.990  28.892  1.00  0.00    -0.354 N 
ATOM     20  C   UNL A   1      44.635  27.005  26.862  1.00  0.00     0.074 A 
ATOM     21  C   UNL A   1      44.583  25.677  26.289  1.00  0.00     0.031 C 
ATOM     22  C   UNL A   1      38.867  27.613  29.652  1.00  0.00     0.029 A 
ATOM     23  C   UNL A   1      39.940  28.600  29.613  1.00  0.00     0.049 A 
ATOM     24  H   UNL A   1      41.806  28.417  28.702  1.00  0.00     0.167 HD
ATOM     25  C   UNL A   1      45.711  27.825  26.801  1.00  0.00     0.034 A 
ATOM     26  C   UNL A   1      39.891  29.818  30.180  1.00  0.00     0.034 A 
ATOM     27  C   UNL A   1      45.728  29.169  27.316  1.00  0.00     0.049 A 
ATOM     28  C   UNL A   1      41.071  30.731  30.031  1.00  0.00     0.074 A 
ATOM     29  C   UNL A   1      46.746  30.105  27.247  1.00  0.00     0.029 A 
ATOM     30  N   UNL A   1      44.677  29.773  27.989  1.00  0.00    -0.354 N 
ATOM     31  N   UNL A   1      42.191  30.529  29.379  1.00  0.00    -0.248 NA
ATOM     32  C   UNL A   1      40.975  32.049  30.672  1.00  0.00     0.031 C 
ATOM     33  C   UNL A   1      46.310  31.273  27.883  1.00  0.00     0.029 A 
ATOM     34  C   UNL A   1      45.019  31.068  28.341  1.00  0.00     0.049 A 
ATOM     35  H   UNL A   1      43.814  29.344  28.189  1.00  0.00     0.167 HD
ATOM     36  C   UNL A   1      42.924  31.700  29.511  1.00  0.00     0.074 A 
ATOM     37  C   UNL A   1      42.107  32.618  30.281  1.00  0.00     0.031 C 
ATOM     38  C   UNL A   1      44.169  31.983  29.057  1.00  0.00     0.034 A 
BRANCH  25  39
ATOM     39  C   UNL A   1      46.951  27.313  26.116  1.00  0.00     0.023 A 
ATOM     40  C   UNL A   1      47.132  27.549  24.739  1.00  0.00     0.012 A 
ATOM     41  C   UNL A   1      47.965  26.663  26.845  1.00  0.00     0.148 A 
ATOM     42  C   UNL A   1      48.294  27.124  24.093  1.00  0.00     0.002 A 
ATOM     43  C   UNL A   1      49.136  26.275  26.202  1.00  0.00     0.091 A 
ATOM     44  F   UNL A   1      47.766  26.422  28.149  1.00  0.00    -0.205 F 
ATOM     45  C   UNL A   1      49.300  26.499  24.825  1.00  0.00     0.022 A 
BRANCH  43  46
ATOM     46  S   UNL A   1      50.512  25.527  27.084  1.00  0.00     0.127 S 
ATOM     47  O   UNL A   1      49.891  24.324  27.636  1.00  0.00    -0.237 OA
ATOM     48  O   UNL A   1      51.475  25.276  26.011  1.00  0.00    -0.237 OA
ATOM     49  O   UNL A   1      50.943  26.520  28.058  1.00  0.00    -0.744 OA
ENDBRANCH  43  46
ENDBRANCH  25  39
BRANCH  26  50
ATOM     50  C   UNL A   1      38.645  30.257  30.868  1.00  0.00     0.023 A 
ATOM     51  C   UNL A   1      38.532  30.084  32.261  1.00  0.00     0.012 A 
ATOM     52  C   UNL A   1      37.612  30.913  30.171  1.00  0.00     0.148 A 
ATOM     53  C   UNL A   1      37.405  30.542  32.943  1.00  0.00     0.002 A 
ATOM     54  C   UNL A   1      36.521  31.420  30.866  1.00  0.00     0.091 A 
ATOM     55  F   UNL A   1      37.728  31.052  28.842  1.00  0.00    -0.205 F 
ATOM     56  C   UNL A   1      36.408  31.223  32.250  1.00  0.00     0.022 A 
BRANCH  54  57
ATOM     57  S   UNL A   1      35.282  32.444  30.063  1.00  0.00     0.127 S 
ATOM     58  O   UNL A   1      34.334  32.675  31.148  1.00  0.00    -0.237 OA
ATOM     59  O   UNL A   1      36.061  33.618  29.664  1.00  0.00    -0.237 OA
ATOM     60  O   UNL A   1      34.797  31.647  28.944  1.00  0.00    -0.744 OA
ENDBRANCH  54  57
ENDBRANCH  26  50
BRANCH  38  61
ATOM     61  C   UNL A   1      44.717  33.349  29.365  1.00  0.00     0.023 A 
ATOM     62  C   UNL A   1      45.368  33.574  30.595  1.00  0.00     0.012 A 
ATOM     63  C   UNL A   1      44.640  34.390  28.420  1.00  0.00     0.148 A 
ATOM     64  C   UNL A   1      45.907  34.824  30.891  1.00  0.00     0.002 A 
ATOM     65  C   UNL A   1      45.217  35.621  28.706  1.00  0.00     0.091 A 
ATOM     66  F   UNL A   1      43.994  34.164  27.266  1.00  0.00    -0.205 F 
ATOM     67  C   UNL A   1      45.842  35.843  29.943  1.00  0.00     0.022 A 
BRANCH  65  68
ATOM     68  S   UNL A   1      45.245  36.951  27.499  1.00  0.00     0.127 S 
ATOM     69  O   UNL A   1      43.823  37.253  27.351  1.00  0.00    -0.237 OA
ATOM     70  O   UNL A   1      46.019  37.988  28.184  1.00  0.00    -0.237 OA
ATOM     71  O   UNL A   1      45.903  36.395  26.324  1.00  0.00    -0.744 OA
ENDBRANCH  65  68
ENDBRANCH  38  61
ENDBRANCH  12  13
ENDBRANCH   5   7
ENDBRANCH   2   3
ENDBRANCH   1   2
BRANCH   1  72
ATOM     72  C   UNL A   1      34.619  20.356  25.318  1.00  0.00     0.023 C 
BRANCH  72  73
ATOM     73  C   UNL A   1      33.566  20.687  24.258  1.00  0.00     0.116 C 
BRANCH  73  74
ATOM     74  N   UNL A   1      32.595  21.649  24.736  1.00  0.00    -0.356 N 
ATOM     75  C   UNL A   1      32.356  22.940  24.363  1.00  0.00     0.228 C 
ATOM     76  H   UNL A   1      32.008  21.316  25.451  1.00  0.00     0.163 HD
ATOM     77  O   UNL A   1      31.387  23.487  24.896  1.00  0.00    -0.275 OA
BRANCH  75  78
ATOM     78  C   UNL A   1      33.165  23.620  23.245  1.00  0.00     0.133 C 
ATOM     79  C   UNL A   1      34.516  24.223  23.620  1.00  0.00     0.025 C 
ATOM     80  C   UNL A   1      32.350  24.748  22.566  1.00  0.00     0.276 C 
ATOM     81  C   UNL A   1      34.307  25.364  24.604  1.00  0.00     0.062 C 
ATOM     82  N   UNL A   1      32.279  26.021  23.309  1.00  0.00    -0.331 N 
ATOM     83  C   UNL A   1      33.536  26.474  23.912  1.00  0.00     0.262 C 
ATOM     84  H   UNL A   1      31.690  25.792  24.109  1.00  0.00     0.348 HD
BRANCH  82  85
ATOM     85  C   UNL A   1      31.592  27.095  22.556  1.00  0.00     0.299 C 
BRANCH  85  86
ATOM     86  C   UNL A   1      30.176  27.423  23.033  1.00  0.00     0.014 A 
ATOM     87  C   UNL A   1      29.485  26.431  23.756  1.00  0.00     0.010 A 
ATOM     88  C   UNL A   1      29.497  28.629  22.671  1.00  0.00    -0.010 A 
ATOM     89  C   UNL A   1      28.133  26.567  24.048  1.00  0.00     0.001 A 
ATOM     90  C   UNL A   1      28.115  28.747  22.977  1.00  0.00    -0.018 A 
ATOM     91  C   UNL A   1      30.099  29.717  21.990  1.00  0.00     0.009 A 
ATOM     92  C   UNL A   1      27.453  27.710  23.648  1.00  0.00     0.009 A 
ATOM     93  C   UNL A   1      27.400  29.895  22.594  1.00  0.00     0.009 A 
ATOM     94  C   UNL A   1      29.377  30.856  21.626  1.00  0.00     0.001 A 
ATOM     95  C   UNL A   1      28.025  30.943  21.923  1.00  0.00     0.001 A 
ENDBRANCH  85  86
ENDBRANCH  82  85
ENDBRANCH  75  78
ENDBRANCH  73  74
ENDBRANCH  72  73
ENDBRANCH   1  72
TORSDOF 16
ENDMDL
MODEL 2
REMARK VINA RESULT:     -12.6      4.739     10.428
REMARK SMILES O=C(NCCCCNC(=O)[C@@H]1CCC[N@@H+](Cc2cccc3ccccc23)C1)c1ccc(-c2c3nc(c(-c4cccc(S(=O)(=O)[O-])c4F)c4ccc([nH]4)c(-c4cccc(S(=O)(=O)[O-])c4F)c4nc(c(-c5cccc(S(=O)(=O)[O-])c5F)c5ccc2[nH]5)C=C4)C=C3)cc1
REMARK SMILES IDX 5 1 4 2 3 3 1 4 2 5 28 7 29 8 90 9 30 10 89 11 31 12 32 13
REMARK SMILES IDX 33 14 83 15 34 16 88 17 82 18 84 19 35 20 87 21 81 22 80 23
REMARK SMILES IDX 36 25 68 26 48 27 67 28 49 29 52 30 66 31 85 32 50 33 51 34
REMARK SMILES IDX 65 36 86 37 53 38 37 39 38 40 46 41 39 42 41 43 47 44 40 45
REMARK SMILES IDX 42 46 43 47 44 48 45 49 69 50 70 51 78 52 71 53 73 54 79 55
REMARK SMILES IDX 72 56 74 57 75 58 76 59 77 60 54 61 55 62 63 63 56 64 58 65
REMARK SMILES IDX 64 66 57 67 59 68 60 69 61 70 62 71 6 72 7 73 8 74 9 75
REMARK SMILES IDX 10 77 11 78 12 79 27 80 13 81 15 82 14 83 16 85 17 86 18 87
REMARK SMILES IDX 26 88 19 89 21 90 25 91 20 92 22 93 24 94 23 95
REMARK H PARENT 3 6 84 24 52 35 8 76 15 84
REMARK Flexibility Score: inf
ROOT
ATOM      1  C   UNL A   1      31.507  28.807  25.518  1.00  0.00     0.023 C 
ENDROOT
BRANCH   1   2
ATOM      2  C   UNL A   1      32.627  29.547  26.222  1.00  0.00     0.116 C 
BRANCH   2   3
ATOM      3  N   UNL A   1      32.312  30.943  26.503  1.00  0.00    -0.352 N 
ATOM      4  O   UNL A   1      32.637  32.978  27.433  1.00  0.00    -0.269 OA
ATOM      5  C   UNL A   1      33.074  31.857  27.191  1.00  0.00     0.251 C 
ATOM      6  H   UNL A   1      31.449  31.270  26.158  1.00  0.00     0.163 HD
BRANCH   5   7
ATOM      7  C   UNL A   1      34.402  31.434  27.673  1.00  0.00     0.039 A 
ATOM      8  C   UNL A   1      34.624  30.096  28.001  1.00  0.00     0.014 A 
ATOM      9  C   UNL A   1      35.384  32.399  27.904  1.00  0.00     0.014 A 
ATOM     10  C   UNL A   1      35.755  29.753  28.725  1.00  0.00     0.010 A 
ATOM     11  C   UNL A   1      36.567  32.030  28.543  1.00  0.00     0.010 A 
ATOM     12  C   UNL A   1      36.740  30.714  29.004  1.00  0.00    -0.014 A 
BRANCH  12  13
ATOM     13  C   UNL A   1      37.955  30.300  29.745  1.00  0.00     0.031 A 
ATOM     14  C   UNL A   1      38.183  30.719  31.172  1.00  0.00     0.074 A 
ATOM     15  C   UNL A   1      38.846  29.508  29.117  1.00  0.00     0.049 A 
ATOM     16  N   UNL A   1      39.169  30.401  31.970  1.00  0.00    -0.248 NA
ATOM     17  C   UNL A   1      37.187  31.615  31.783  1.00  0.00     0.031 C 
ATOM     18  C   UNL A   1      38.742  29.075  27.720  1.00  0.00     0.029 A 
ATOM     19  N   UNL A   1      39.995  28.913  29.565  1.00  0.00    -0.354 N 
ATOM     20  C   UNL A   1      38.948  31.100  33.151  1.00  0.00     0.074 A 
ATOM     21  C   UNL A   1      37.728  31.856  32.970  1.00  0.00     0.031 C 
ATOM     22  C   UNL A   1      39.754  28.243  27.441  1.00  0.00     0.029 A 
ATOM     23  C   UNL A   1      40.607  28.125  28.618  1.00  0.00     0.049 A 
ATOM     24  H   UNL A   1      40.348  29.036  30.475  1.00  0.00     0.167 HD
ATOM     25  C   UNL A   1      39.688  31.099  34.286  1.00  0.00     0.034 A 
ATOM     26  C   UNL A   1      41.730  27.388  28.688  1.00  0.00     0.034 A 
ATOM     27  C   UNL A   1      40.864  30.291  34.479  1.00  0.00     0.049 A 
ATOM     28  C   UNL A   1      42.487  27.350  29.983  1.00  0.00     0.074 A 
ATOM     29  C   UNL A   1      41.648  30.168  35.613  1.00  0.00     0.029 A 
ATOM     30  N   UNL A   1      41.421  29.462  33.517  1.00  0.00    -0.354 N 
ATOM     31  N   UNL A   1      42.198  27.929  31.123  1.00  0.00    -0.248 NA
ATOM     32  C   UNL A   1      43.711  26.537  30.010  1.00  0.00     0.031 C 
ATOM     33  C   UNL A   1      42.682  29.267  35.334  1.00  0.00     0.029 A 
ATOM     34  C   UNL A   1      42.538  28.823  34.030  1.00  0.00     0.049 A 
ATOM     35  H   UNL A   1      41.075  29.344  32.603  1.00  0.00     0.167 HD
ATOM     36  C   UNL A   1      43.188  27.535  32.012  1.00  0.00     0.074 A 
ATOM     37  C   UNL A   1      44.070  26.643  31.283  1.00  0.00     0.031 C 
ATOM     38  C   UNL A   1      43.367  27.896  33.305  1.00  0.00     0.034 A 
BRANCH  25  39
ATOM     39  C   UNL A   1      39.229  31.965  35.429  1.00  0.00     0.023 A 
ATOM     40  C   UNL A   1      38.358  31.432  36.399  1.00  0.00     0.012 A 
ATOM     41  C   UNL A   1      39.713  33.279  35.581  1.00  0.00     0.148 A 
ATOM     42  C   UNL A   1      37.957  32.202  37.492  1.00  0.00     0.002 A 
ATOM     43  C   UNL A   1      39.336  34.029  36.691  1.00  0.00     0.091 A 
ATOM     44  F   UNL A   1      40.519  33.781  34.634  1.00  0.00    -0.205 F 
ATOM     45  C   UNL A   1      38.454  33.494  37.644  1.00  0.00     0.022 A 
BRANCH  43  46
ATOM     46  S   UNL A   1      39.986  35.675  37.002  1.00  0.00     0.127 S 
ATOM     47  O   UNL A   1      41.423  35.416  37.083  1.00  0.00    -0.237 OA
ATOM     48  O   UNL A   1      39.567  36.410  35.807  1.00  0.00    -0.237 OA
ATOM     49  O   UNL A   1      39.354  36.123  38.234  1.00  0.00    -0.744 OA
ENDBRANCH  43  46
ENDBRANCH  25  39
BRANCH  26  50
ATOM     50  C   UNL A   1      42.147  26.574  27.514  1.00  0.00     0.023 A 
ATOM     51  C   UNL A   1      42.973  27.155  26.533  1.00  0.00     0.012 A 
ATOM     52  C   UNL A   1      41.801  25.213  27.402  1.00  0.00     0.148 A 
ATOM     53  C   UNL A   1      43.433  26.399  25.454  1.00  0.00     0.002 A 
ATOM     54  C   UNL A   1      42.312  24.451  26.359  1.00  0.00     0.091 A 
ATOM     55  F   UNL A   1      40.999  24.681  28.336  1.00  0.00    -0.205 F 
ATOM     56  C   UNL A   1      43.116  25.045  25.375  1.00  0.00     0.022 A 
BRANCH  54  57
ATOM     57  S   UNL A   1      42.076  22.672  26.284  1.00  0.00     0.127 S 
ATOM     58  O   UNL A   1      42.725  22.336  25.021  1.00  0.00    -0.237 OA
ATOM     59  O   UNL A   1      42.785  22.215  27.481  1.00  0.00    -0.237 OA
ATOM     60  O   UNL A   1      40.634  22.477  26.338  1.00  0.00    -0.744 OA
ENDBRANCH  54  57
ENDBRANCH  26  50
BRANCH  38  61
ATOM     61  C   UNL A   1      44.552  27.310  34.023  1.00  0.00     0.023 A 
ATOM     62  C   UNL A   1      45.794  27.971  33.965  1.00  0.00     0.012 A 
ATOM     63  C   UNL A   1      44.422  26.143  34.799  1.00  0.00     0.148 A 
ATOM     64  C   UNL A   1      46.899  27.461  34.644  1.00  0.00     0.002 A 
ATOM     65  C   UNL A   1      45.518  25.663  35.507  1.00  0.00     0.091 A 
ATOM     66  F   UNL A   1      43.238  25.513  34.821  1.00  0.00    -0.205 F 
ATOM     67  C   UNL A   1      46.759  26.316  35.424  1.00  0.00     0.022 A 
BRANCH  65  68
ATOM     68  S   UNL A   1      45.387  24.242  36.598  1.00  0.00     0.127 S 
ATOM     69  O   UNL A   1      44.420  24.711  37.589  1.00  0.00    -0.237 OA
ATOM     70  O   UNL A   1      44.884  23.198  35.703  1.00  0.00    -0.237 OA
ATOM     71  O   UNL A   1      46.738  24.006  37.090  1.00  0.00    -0.744 OA
ENDBRANCH  65  68
ENDBRANCH  38  61
ENDBRANCH  12  13
ENDBRANCH   5   7
ENDBRANCH   2   3
ENDBRANCH   1   2
BRANCH   1  72
ATOM     72  C   UNL A   1      31.212  29.315  24.113  1.00  0.00     0.023 C 
BRANCH  72  73
ATOM     73  C   UNL A   1      31.196  28.243  23.021  1.00  0.00     0.116 C 
BRANCH  73  74
ATOM     74  N   UNL A   1      32.270  27.286  23.180  1.00  0.00    -0.356 N 
ATOM     75  C   UNL A   1      32.244  25.951  23.465  1.00  0.00     0.228 C 
ATOM     76  H   UNL A   1      33.172  27.660  23.062  1.00  0.00     0.163 HD
ATOM     77  O   UNL A   1      33.334  25.373  23.447  1.00  0.00    -0.275 OA
BRANCH  75  78
ATOM     78  C   UNL A   1      30.920  25.194  23.662  1.00  0.00     0.133 C 
ATOM     79  C   UNL A   1      30.116  25.495  24.924  1.00  0.00     0.025 C 
ATOM     80  C   UNL A   1      31.139  23.661  23.631  1.00  0.00     0.276 C 
ATOM     81  C   UNL A   1      30.915  25.069  26.147  1.00  0.00     0.062 C 
ATOM     82  N   UNL A   1      31.679  23.068  24.870  1.00  0.00    -0.331 N 
ATOM     83  C   UNL A   1      31.090  23.561  26.118  1.00  0.00     0.262 C 
ATOM     84  H   UNL A   1      32.638  23.414  24.896  1.00  0.00     0.348 HD
BRANCH  82  85
ATOM     85  C   UNL A   1      31.751  21.589  24.822  1.00  0.00     0.299 C 
BRANCH  85  86
ATOM     86  C   UNL A   1      33.150  20.999  24.998  1.00  0.00     0.014 A 
ATOM     87  C   UNL A   1      34.194  21.882  25.339  1.00  0.00     0.010 A 
ATOM     88  C   UNL A   1      33.455  19.630  24.711  1.00  0.00    -0.010 A 
ATOM     89  C   UNL A   1      35.520  21.467  25.319  1.00  0.00     0.001 A 
ATOM     90  C   UNL A   1      34.817  19.228  24.694  1.00  0.00    -0.018 A 
ATOM     91  C   UNL A   1      32.489  18.638  24.406  1.00  0.00     0.009 A 
ATOM     92  C   UNL A   1      35.828  20.154  24.984  1.00  0.00     0.009 A 
ATOM     93  C   UNL A   1      35.161  17.904  24.368  1.00  0.00     0.009 A 
ATOM     94  C   UNL A   1      32.846  17.325  24.095  1.00  0.00     0.001 A 
ATOM     95  C   UNL A   1      34.183  16.958  24.071  1.00  0.00     0.001 A 
ENDBRANCH  85  86
ENDBRANCH  82  85
ENDBRANCH  75  78
ENDBRANCH  73  74
ENDBRANCH  72  73
ENDBRANCH   1  72
TORSDOF 16
ENDMDL
MODEL 3
REMARK VINA RESULT:     -12.5      5.124     10.584
REMARK SMILES O=C(NCCCCNC(=O)[C@@H]1CCC[N@@H+](Cc2cccc3ccccc23)C1)c1ccc(-c2c3nc(c(-c4cccc(S(=O)(=O)[O-])c4F)c4ccc([nH]4)c(-c4cccc(S(=O)(=O)[O-])c4F)c4nc(c(-c5cccc(S(=O)(=O)[O-])c5F)c5ccc2[nH]5)C=C4)C=C3)cc1
REMARK SMILES IDX 5 1 4 2 3 3 1 4 2 5 28 7 29 8 90 9 30 10 89 11 31 12 32 13
REMARK SMILES IDX 33 14 83 15 34 16 88 17 82 18 84 19 35 20 87 21 81 22 80 23
REMARK SMILES IDX 36 25 68 26 48 27 67 28 49 29 52 30 66 31 85 32 50 33 51 34
REMARK SMILES IDX 65 36 86 37 53 38 37 39 38 40 46 41 39 42 41 43 47 44 40 45
REMARK SMILES IDX 42 46 43 47 44 48 45 49 69 50 70 51 78 52 71 53 73 54 79 55
REMARK SMILES IDX 72 56 74 57 75 58 76 59 77 60 54 61 55 62 63 63 56 64 58 65
REMARK SMILES IDX 64 66 57 67 59 68 60 69 61 70 62 71 6 72 7 73 8 74 9 75
REMARK SMILES IDX 10 77 11 78 12 79 27 80 13 81 15 82 14 83 16 85 17 86 18 87
REMARK SMILES IDX 26 88 19 89 21 90 25 91 20 92 22 93 24 94 23 95
REMARK H PARENT 3 6 84 24 52 35 8 76 15 84
REMARK Flexibility Score: inf
ROOT
ATOM      1  C   UNL A   1      31.357  31.508  26.235  1.00  0.00     0.023 C 
ENDROOT
BRANCH   1   2
ATOM      2  C   UNL A   1      32.639  31.948  26.913  1.00  0.00     0.116 C 
BRANCH   2   3
ATOM      3  N   UNL A   1      32.586  33.316  27.417  1.00  0.00    -0.352 N 
ATOM      4  O   UNL A   1      33.273  35.079  28.654  1.00  0.00    -0.269 OA
ATOM      5  C   UNL A   1      33.496  33.949  28.231  1.00  0.00     0.251 C 
ATOM      6  H   UNL A   1      31.806  33.849  27.143  1.00  0.00     0.163 HD
BRANCH   5   7
ATOM      7  C   UNL A   1      34.714  33.214  28.619  1.00  0.00     0.039 A 
ATOM      8  C   UNL A   1      34.601  32.002  29.303  1.00  0.00     0.014 A 
ATOM      9  C   UNL A   1      35.963  33.797  28.399  1.00  0.00     0.014 A 
ATOM     10  C   UNL A   1      35.718  31.466  29.924  1.00  0.00     0.010 A 
ATOM     11  C   UNL A   1      37.100  33.198  28.941  1.00  0.00     0.010 A 
ATOM     12  C   UNL A   1      36.981  32.057  29.749  1.00  0.00    -0.014 A 
BRANCH  12  13
ATOM     13  C   UNL A   1      38.159  31.431  30.396  1.00  0.00     0.031 A 
ATOM     14  C   UNL A   1      38.538  31.755  31.815  1.00  0.00     0.074 A 
ATOM     15  C   UNL A   1      38.873  30.534  29.687  1.00  0.00     0.049 A 
ATOM     16  N   UNL A   1      39.509  31.258  32.535  1.00  0.00    -0.248 NA
ATOM     17  C   UNL A   1      37.736  32.772  32.515  1.00  0.00     0.031 C 
ATOM     18  C   UNL A   1      38.615  30.175  28.289  1.00  0.00     0.029 A 
ATOM     19  N   UNL A   1      39.939  29.750  30.040  1.00  0.00    -0.354 N 
ATOM     20  C   UNL A   1      39.475  31.937  33.748  1.00  0.00     0.074 A 
ATOM     21  C   UNL A   1      38.381  32.881  33.670  1.00  0.00     0.031 C 
ATOM     22  C   UNL A   1      39.464  29.207  27.920  1.00  0.00     0.029 A 
ATOM     23  C   UNL A   1      40.359  28.913  29.033  1.00  0.00     0.049 A 
ATOM     24  H   UNL A   1      40.363  29.783  30.928  1.00  0.00     0.167 HD
ATOM     25  C   UNL A   1      40.275  31.779  34.829  1.00  0.00     0.034 A 
ATOM     26  C   UNL A   1      41.354  28.009  29.007  1.00  0.00     0.034 A 
ATOM     27  C   UNL A   1      41.318  30.791  34.920  1.00  0.00     0.049 A 
ATOM     28  C   UNL A   1      42.175  27.804  30.247  1.00  0.00     0.074 A 
ATOM     29  C   UNL A   1      42.142  30.505  35.996  1.00  0.00     0.029 A 
ATOM     30  N   UNL A   1      41.677  29.922  33.901  1.00  0.00    -0.354 N 
ATOM     31  N   UNL A   1      42.051  28.378  31.419  1.00  0.00    -0.248 NA
ATOM     32  C   UNL A   1      43.254  26.811  30.170  1.00  0.00     0.031 C 
ATOM     33  C   UNL A   1      43.001  29.465  35.623  1.00  0.00     0.029 A 
ATOM     34  C   UNL A   1      42.708  29.098  34.320  1.00  0.00     0.049 A 
ATOM     35  H   UNL A   1      41.260  29.894  33.010  1.00  0.00     0.167 HD
ATOM     36  C   UNL A   1      43.021  27.801  32.228  1.00  0.00     0.074 A 
ATOM     37  C   UNL A   1      43.704  26.811  31.417  1.00  0.00     0.031 C 
ATOM     38  C   UNL A   1      43.335  28.081  33.516  1.00  0.00     0.034 A 
BRANCH  25  39
ATOM     39  C   UNL A   1      40.031  32.662  36.024  1.00  0.00     0.023 A 
ATOM     40  C   UNL A   1      40.693  33.903  36.119  1.00  0.00     0.012 A 
ATOM     41  C   UNL A   1      39.098  32.299  37.015  1.00  0.00     0.148 A 
ATOM     42  C   UNL A   1      40.447  34.758  37.194  1.00  0.00     0.002 A 
ATOM     43  C   UNL A   1      38.832  33.172  38.065  1.00  0.00     0.091 A 
ATOM     44  F   UNL A   1      38.497  31.104  36.925  1.00  0.00    -0.205 F 
ATOM     45  C   UNL A   1      39.510  34.399  38.159  1.00  0.00     0.022 A 
BRANCH  43  46
ATOM     46  S   UNL A   1      37.587  32.821  39.313  1.00  0.00     0.127 S 
ATOM     47  O   UNL A   1      37.714  33.981  40.193  1.00  0.00    -0.237 OA
ATOM     48  O   UNL A   1      36.353  32.786  38.526  1.00  0.00    -0.237 OA
ATOM     49  O   UNL A   1      37.963  31.541  39.895  1.00  0.00    -0.744 OA
ENDBRANCH  43  46
ENDBRANCH  25  39
BRANCH  26  50
ATOM     50  C   UNL A   1      41.563  27.184  27.786  1.00  0.00     0.023 A 
ATOM     51  C   UNL A   1      42.186  27.763  26.664  1.00  0.00     0.012 A 
ATOM     52  C   UNL A   1      41.226  25.816  27.755  1.00  0.00     0.148 A 
ATOM     53  C   UNL A   1      42.455  26.999  25.528  1.00  0.00     0.002 A 
ATOM     54  C   UNL A   1      41.551  25.048  26.644  1.00  0.00     0.091 A 
ATOM     55  F   UNL A   1      40.616  25.287  28.825  1.00  0.00    -0.205 F 
ATOM     56  C   UNL A   1      42.152  25.640  25.523  1.00  0.00     0.022 A 
BRANCH  54  57
ATOM     57  S   UNL A   1      41.335  23.265  26.633  1.00  0.00     0.127 S 
ATOM     58  O   UNL A   1      39.885  23.138  26.529  1.00  0.00    -0.237 OA
ATOM     59  O   UNL A   1      42.076  22.870  25.433  1.00  0.00    -0.237 OA
ATOM     60  O   UNL A   1      41.933  22.801  27.878  1.00  0.00    -0.744 OA
ENDBRANCH  54  57
ENDBRANCH  26  50
BRANCH  38  61
ATOM     61  C   UNL A   1      44.454  27.291  34.136  1.00  0.00     0.023 A 
ATOM     62  C   UNL A   1      45.779  27.753  34.012  1.00  0.00     0.012 A 
ATOM     63  C   UNL A   1      44.191  26.130  34.887  1.00  0.00     0.148 A 
ATOM     64  C   UNL A   1      46.830  27.052  34.601  1.00  0.00     0.002 A 
ATOM     65  C   UNL A   1      45.238  25.460  35.507  1.00  0.00     0.091 A 
ATOM     66  F   UNL A   1      42.925  25.693  34.973  1.00  0.00    -0.205 F 
ATOM     67  C   UNL A   1      46.559  25.914  35.357  1.00  0.00     0.022 A 
BRANCH  65  68
ATOM     68  S   UNL A   1      44.953  24.038  36.565  1.00  0.00     0.127 S 
ATOM     69  O   UNL A   1      44.167  24.622  37.649  1.00  0.00    -0.237 OA
ATOM     70  O   UNL A   1      44.206  23.133  35.690  1.00  0.00    -0.237 OA
ATOM     71  O   UNL A   1      46.278  23.554  36.931  1.00  0.00    -0.744 OA
ENDBRANCH  65  68
ENDBRANCH  38  61
ENDBRANCH  12  13
ENDBRANCH   5   7
ENDBRANCH   2   3
ENDBRANCH   1   2
BRANCH   1  72
ATOM     72  C   UNL A   1      31.440  30.136  25.579  1.00  0.00     0.023 C 
BRANCH  72  73
ATOM     73  C   UNL A   1      32.857  29.600  25.360  1.00  0.00     0.116 C 
BRANCH  73  74
ATOM     74  N   UNL A   1      33.009  28.246  25.851  1.00  0.00    -0.356 N 
ATOM     75  C   UNL A   1      32.741  27.045  25.262  1.00  0.00     0.228 C 
ATOM     76  H   UNL A   1      33.368  28.181  26.765  1.00  0.00     0.163 HD
ATOM     77  O   UNL A   1      33.064  26.043  25.905  1.00  0.00    -0.275 OA
BRANCH  75  78
ATOM     78  C   UNL A   1      32.194  26.954  23.827  1.00  0.00     0.133 C 
ATOM     79  C   UNL A   1      30.679  27.006  23.646  1.00  0.00     0.025 C 
ATOM     80  C   UNL A   1      32.680  25.665  23.120  1.00  0.00     0.276 C 
ATOM     81  C   UNL A   1      30.047  25.791  24.308  1.00  0.00     0.062 C 
ATOM     82  N   UNL A   1      31.966  24.427  23.487  1.00  0.00    -0.331 N 
ATOM     83  C   UNL A   1      30.508  24.540  23.581  1.00  0.00     0.262 C 
ATOM     84  H   UNL A   1      32.264  24.261  24.448  1.00  0.00     0.348 HD
BRANCH  82  85
ATOM     85  C   UNL A   1      32.393  23.253  22.691  1.00  0.00     0.299 C 
BRANCH  85  86
ATOM     86  C   UNL A   1      33.047  22.126  23.490  1.00  0.00     0.014 A 
ATOM     87  C   UNL A   1      32.204  21.146  24.047  1.00  0.00     0.010 A 
ATOM     88  C   UNL A   1      34.446  22.102  23.791  1.00  0.00    -0.010 A 
ATOM     89  C   UNL A   1      32.691  20.208  24.949  1.00  0.00     0.001 A 
ATOM     90  C   UNL A   1      34.923  21.137  24.718  1.00  0.00    -0.018 A 
ATOM     91  C   UNL A   1      35.401  23.001  23.253  1.00  0.00     0.009 A 
ATOM     92  C   UNL A   1      34.038  20.215  25.292  1.00  0.00     0.009 A 
ATOM     93  C   UNL A   1      36.282  21.112  25.079  1.00  0.00     0.009 A 
ATOM     94  C   UNL A   1      36.749  22.956  23.613  1.00  0.00     0.001 A 
ATOM     95  C   UNL A   1      37.190  22.014  24.530  1.00  0.00     0.001 A 
ENDBRANCH  85  86
ENDBRANCH  82  85
ENDBRANCH  75  78
ENDBRANCH  73  74
ENDBRANCH  72  73
ENDBRANCH   1  72
TORSDOF 16
ENDMDL
