MODEL 1
REMARK VINA RESULT:     -11.9      0.000      0.000
REMARK SMILES C[C@H](Oc1ccc(C(=O)NCc2ccccc2)cc1)C(=O)NCCCCNC(=O)c1ccc(-c2c3nc(c(-c4cccc(S(=O)(=O)[O-])c4F)c4ccc([nH]4)c(-c4cccc(S(=O)(=O)[O-])c4F)c4nc(c(-c5cccc(S(=O)(=O)[O-])c5F)c5ccc2[nH]5)C=C4)C=C3)cc1
REMARK SMILES IDX 23 1 22 2 20 3 21 4 2 6 1 7 3 8 4 9 5 10 19 11 6 12 18 13
REMARK SMILES IDX 7 14 8 15 9 16 10 17 11 19 12 20 13 21 17 22 14 23 16 24
REMARK SMILES IDX 15 25 24 26 25 27 26 28 27 29 28 30 29 32 30 33 31 34 92 35
REMARK SMILES IDX 32 36 91 37 33 38 34 39 35 40 85 41 36 42 90 43 84 44 86 45
REMARK SMILES IDX 37 46 89 47 83 48 82 49 38 51 70 52 50 53 69 54 51 55 54 56
REMARK SMILES IDX 68 57 87 58 52 59 53 60 67 62 88 63 55 64 39 65 40 66 48 67
REMARK SMILES IDX 41 68 43 69 49 70 42 71 44 72 45 73 46 74 47 75 71 76 72 77
REMARK SMILES IDX 80 78 73 79 75 80 81 81 74 82 76 83 77 84 78 85 79 86 56 87
REMARK SMILES IDX 57 88 65 89 58 90 60 91 66 92 59 93 61 94 62 95 63 96 64 97
REMARK H PARENT 22 5 10 18 27 31 86 50 54 61
REMARK Flexibility Score: inf
ROOT
ATOM      1  C   UNL A   1      36.048  21.456  25.544  1.00  0.00     0.116 C 
ENDROOT
BRANCH   1   2
ATOM      2  N   UNL A   1      35.037  20.422  25.395  1.00  0.00    -0.353 N 
ATOM      3  C   UNL A   1      33.687  20.555  25.195  1.00  0.00     0.260 C 
ATOM      4  O   UNL A   1      33.009  19.534  25.067  1.00  0.00    -0.271 OA
ATOM      5  H   UNL A   1      35.368  19.497  25.445  1.00  0.00     0.163 HD
BRANCH   3   6
ATOM      6  C   UNL A   1      33.053  21.952  25.071  1.00  0.00     0.258 C 
ATOM      7  C   UNL A   1      31.580  21.840  25.469  1.00  0.00     0.064 C 
BRANCH   6   8
ATOM      8  O   UNL A   1      33.430  22.399  23.765  1.00  0.00    -0.481 OA
BRANCH   8   9
ATOM      9  C   UNL A   1      33.362  23.682  23.340  1.00  0.00     0.120 A 
ATOM     10  C   UNL A   1      32.842  24.137  22.140  1.00  0.00     0.047 A 
ATOM     11  C   UNL A   1      33.894  24.607  24.247  1.00  0.00     0.047 A 
ATOM     12  C   UNL A   1      32.906  25.501  21.831  1.00  0.00     0.017 A 
ATOM     13  C   UNL A   1      33.972  25.970  23.937  1.00  0.00     0.017 A 
ATOM     14  C   UNL A   1      33.457  26.434  22.729  1.00  0.00     0.040 A 
BRANCH  14  15
ATOM     15  C   UNL A   1      33.489  27.852  22.282  1.00  0.00     0.251 C 
ATOM     16  O   UNL A   1      34.467  28.250  21.648  1.00  0.00    -0.269 OA
ATOM     17  N   UNL A   1      32.472  28.743  22.482  1.00  0.00    -0.348 N 
ATOM     18  H   UNL A   1      32.647  29.624  22.077  1.00  0.00     0.164 HD
BRANCH  17  19
ATOM     19  C   UNL A   1      31.193  28.674  23.160  1.00  0.00     0.152 C 
BRANCH  19  20
ATOM     20  C   UNL A   1      31.332  28.572  24.664  1.00  0.00    -0.029 A 
ATOM     21  C   UNL A   1      31.823  29.668  25.391  1.00  0.00     0.005 A 
ATOM     22  C   UNL A   1      31.057  27.383  25.362  1.00  0.00     0.005 A 
ATOM     23  C   UNL A   1      32.015  29.581  26.773  1.00  0.00     0.000 A 
ATOM     24  C   UNL A   1      31.249  27.298  26.742  1.00  0.00     0.000 A 
ATOM     25  C   UNL A   1      31.728  28.396  27.448  1.00  0.00     0.000 A 
ENDBRANCH  19  20
ENDBRANCH  17  19
ENDBRANCH  14  15
ENDBRANCH   8   9
ENDBRANCH   6   8
ENDBRANCH   3   6
ENDBRANCH   1   2
BRANCH   1  26
ATOM     26  C   UNL A   1      37.239  21.245  24.616  1.00  0.00     0.023 C 
BRANCH  26  27
ATOM     27  C   UNL A   1      38.096  20.026  24.951  1.00  0.00     0.023 C 
BRANCH  27  28
ATOM     28  C   UNL A   1      39.261  20.293  25.901  1.00  0.00     0.116 C 
BRANCH  28  29
ATOM     29  N   UNL A   1      40.244  19.219  25.917  1.00  0.00    -0.352 N 
ATOM     30  C   UNL A   1      41.609  19.298  26.084  1.00  0.00     0.251 C 
ATOM     31  H   UNL A   1      39.883  18.312  25.791  1.00  0.00     0.163 HD
ATOM     32  O   UNL A   1      42.304  18.305  25.941  1.00  0.00    -0.269 OA
BRANCH  30  33
ATOM     33  C   UNL A   1      42.227  20.605  26.406  1.00  0.00     0.039 A 
ATOM     34  C   UNL A   1      42.684  21.411  25.359  1.00  0.00     0.014 A 
ATOM     35  C   UNL A   1      42.328  21.044  27.728  1.00  0.00     0.014 A 
ATOM     36  C   UNL A   1      43.175  22.689  25.636  1.00  0.00     0.010 A 
ATOM     37  C   UNL A   1      42.745  22.345  27.994  1.00  0.00     0.010 A 
ATOM     38  C   UNL A   1      43.174  23.182  26.952  1.00  0.00    -0.014 A 
BRANCH  38  39
ATOM     39  C   UNL A   1      43.596  24.573  27.257  1.00  0.00     0.031 A 
ATOM     40  C   UNL A   1      42.616  25.556  27.837  1.00  0.00     0.074 A 
ATOM     41  C   UNL A   1      44.838  24.980  26.925  1.00  0.00     0.049 A 
ATOM     42  N   UNL A   1      42.781  26.825  28.106  1.00  0.00    -0.248 NA
ATOM     43  C   UNL A   1      41.261  25.054  28.128  1.00  0.00     0.031 C 
ATOM     44  C   UNL A   1      45.857  24.149  26.278  1.00  0.00     0.029 A 
ATOM     45  N   UNL A   1      45.446  26.205  27.055  1.00  0.00    -0.354 N 
ATOM     46  C   UNL A   1      41.550  27.281  28.563  1.00  0.00     0.074 A 
ATOM     47  C   UNL A   1      40.636  26.161  28.500  1.00  0.00     0.031 C 
ATOM     48  C   UNL A   1      46.960  24.887  26.070  1.00  0.00     0.029 A 
ATOM     49  C   UNL A   1      46.720  26.247  26.538  1.00  0.00     0.049 A 
ATOM     50  H   UNL A   1      45.010  26.980  27.480  1.00  0.00     0.167 HD
ATOM     51  C   UNL A   1      41.217  28.511  29.024  1.00  0.00     0.034 A 
ATOM     52  C   UNL A   1      47.594  27.269  26.442  1.00  0.00     0.034 A 
ATOM     53  C   UNL A   1      42.137  29.610  29.124  1.00  0.00     0.049 A 
ATOM     54  C   UNL A   1      47.212  28.614  26.999  1.00  0.00     0.074 A 
ATOM     55  C   UNL A   1      41.919  30.869  29.658  1.00  0.00     0.029 A 
ATOM     56  N   UNL A   1      43.450  29.588  28.679  1.00  0.00    -0.354 N 
ATOM     57  N   UNL A   1      46.094  28.981  27.576  1.00  0.00    -0.248 NA
ATOM     58  C   UNL A   1      48.227  29.676  26.928  1.00  0.00     0.031 C 
ATOM     59  C   UNL A   1      43.092  31.615  29.513  1.00  0.00     0.029 A 
ATOM     60  C   UNL A   1      44.052  30.813  28.917  1.00  0.00     0.049 A 
ATOM     61  H   UNL A   1      43.889  28.816  28.255  1.00  0.00     0.167 HD
ATOM     62  C   UNL A   1      46.282  30.302  27.967  1.00  0.00     0.074 A 
ATOM     63  C   UNL A   1      47.631  30.664  27.581  1.00  0.00     0.031 C 
ATOM     64  C   UNL A   1      45.411  31.144  28.578  1.00  0.00     0.034 A 
BRANCH  51  65
ATOM     65  C   UNL A   1      39.805  28.715  29.511  1.00  0.00     0.023 A 
ATOM     66  C   UNL A   1      39.475  28.378  30.841  1.00  0.00     0.012 A 
ATOM     67  C   UNL A   1      38.823  29.290  28.681  1.00  0.00     0.148 A 
ATOM     68  C   UNL A   1      38.183  28.575  31.325  1.00  0.00     0.002 A 
ATOM     69  C   UNL A   1      37.549  29.527  29.185  1.00  0.00     0.091 A 
ATOM     70  F   UNL A   1      39.148  29.586  27.415  1.00  0.00    -0.205 F 
ATOM     71  C   UNL A   1      37.224  29.158  30.502  1.00  0.00     0.022 A 
BRANCH  69  72
ATOM     72  S   UNL A   1      36.266  30.346  28.233  1.00  0.00     0.127 S 
ATOM     73  O   UNL A   1      36.634  29.979  26.866  1.00  0.00    -0.237 OA
ATOM     74  O   UNL A   1      35.052  29.698  28.731  1.00  0.00    -0.237 OA
ATOM     75  O   UNL A   1      36.373  31.763  28.550  1.00  0.00    -0.744 OA
ENDBRANCH  69  72
ENDBRANCH  51  65
BRANCH  52  76
ATOM     76  C   UNL A   1      48.941  27.042  25.847  1.00  0.00     0.023 A 
ATOM     77  C   UNL A   1      49.943  26.419  26.617  1.00  0.00     0.012 A 
ATOM     78  C   UNL A   1      49.228  27.412  24.519  1.00  0.00     0.148 A 
ATOM     79  C   UNL A   1      51.214  26.199  26.089  1.00  0.00     0.002 A 
ATOM     80  C   UNL A   1      50.480  27.138  23.979  1.00  0.00     0.091 A 
ATOM     81  F   UNL A   1      48.266  28.013  23.805  1.00  0.00    -0.205 F 
ATOM     82  C   UNL A   1      51.480  26.549  24.767  1.00  0.00     0.022 A 
BRANCH  80  83
ATOM     83  S   UNL A   1      50.868  27.431  22.250  1.00  0.00     0.127 S 
ATOM     84  O   UNL A   1      50.542  28.848  22.106  1.00  0.00    -0.237 OA
ATOM     85  O   UNL A   1      52.296  27.119  22.203  1.00  0.00    -0.237 OA
ATOM     86  O   UNL A   1      50.028  26.508  21.499  1.00  0.00    -0.744 OA
ENDBRANCH  80  83
ENDBRANCH  52  76
BRANCH  64  87
ATOM     87  C   UNL A   1      45.894  32.532  28.906  1.00  0.00     0.023 A 
ATOM     88  C   UNL A   1      46.534  32.781  30.136  1.00  0.00     0.012 A 
ATOM     89  C   UNL A   1      45.782  33.573  27.962  1.00  0.00     0.148 A 
ATOM     90  C   UNL A   1      47.025  34.051  30.436  1.00  0.00     0.002 A 
ATOM     91  C   UNL A   1      46.317  34.823  28.248  1.00  0.00     0.091 A 
ATOM     92  F   UNL A   1      45.153  33.322  26.805  1.00  0.00    -0.205 F 
ATOM     93  C   UNL A   1      46.928  35.067  29.488  1.00  0.00     0.022 A 
BRANCH  91  94
ATOM     94  S   UNL A   1      46.324  36.164  27.051  1.00  0.00     0.127 S 
ATOM     95  O   UNL A   1      46.655  35.457  25.815  1.00  0.00    -0.237 OA
ATOM     96  O   UNL A   1      44.947  36.652  27.125  1.00  0.00    -0.237 OA
ATOM     97  O   UNL A   1      47.327  37.113  27.516  1.00  0.00    -0.744 OA
ENDBRANCH  91  94
ENDBRANCH  64  87
ENDBRANCH  38  39
ENDBRANCH  30  33
ENDBRANCH  28  29
ENDBRANCH  27  28
ENDBRANCH  26  27
ENDBRANCH   1  26
TORSDOF 19
ENDMDL
MODEL 2
REMARK VINA RESULT:     -11.8      0.794      7.441
REMARK SMILES C[C@H](Oc1ccc(C(=O)NCc2ccccc2)cc1)C(=O)NCCCCNC(=O)c1ccc(-c2c3nc(c(-c4cccc(S(=O)(=O)[O-])c4F)c4ccc([nH]4)c(-c4cccc(S(=O)(=O)[O-])c4F)c4nc(c(-c5cccc(S(=O)(=O)[O-])c5F)c5ccc2[nH]5)C=C4)C=C3)cc1
REMARK SMILES IDX 23 1 22 2 20 3 21 4 2 6 1 7 3 8 4 9 5 10 19 11 6 12 18 13
REMARK SMILES IDX 7 14 8 15 9 16 10 17 11 19 12 20 13 21 17 22 14 23 16 24
REMARK SMILES IDX 15 25 24 26 25 27 26 28 27 29 28 30 29 32 30 33 31 34 92 35
REMARK SMILES IDX 32 36 91 37 33 38 34 39 35 40 85 41 36 42 90 43 84 44 86 45
REMARK SMILES IDX 37 46 89 47 83 48 82 49 38 51 70 52 50 53 69 54 51 55 54 56
REMARK SMILES IDX 68 57 87 58 52 59 53 60 67 62 88 63 55 64 39 65 40 66 48 67
REMARK SMILES IDX 41 68 43 69 49 70 42 71 44 72 45 73 46 74 47 75 71 76 72 77
REMARK SMILES IDX 80 78 73 79 75 80 81 81 74 82 76 83 77 84 78 85 79 86 56 87
REMARK SMILES IDX 57 88 65 89 58 90 60 91 66 92 59 93 61 94 62 95 63 96 64 97
REMARK H PARENT 22 5 10 18 27 31 86 50 54 61
REMARK Flexibility Score: inf
ROOT
ATOM      1  C   UNL A   1      35.775  21.289  25.694  1.00  0.00     0.116 C 
ENDROOT
BRANCH   1   2
ATOM      2  N   UNL A   1      34.675  20.352  25.535  1.00  0.00    -0.353 N 
ATOM      3  C   UNL A   1      33.342  20.608  25.343  1.00  0.00     0.260 C 
ATOM      4  O   UNL A   1      32.574  19.653  25.205  1.00  0.00    -0.271 OA
ATOM      5  H   UNL A   1      34.923  19.401  25.570  1.00  0.00     0.163 HD
BRANCH   3   6
ATOM      6  C   UNL A   1      32.834  22.057  25.244  1.00  0.00     0.258 C 
ATOM      7  C   UNL A   1      31.374  22.080  25.703  1.00  0.00     0.064 C 
BRANCH   6   8
ATOM      8  O   UNL A   1      33.196  22.470  23.922  1.00  0.00    -0.481 OA
BRANCH   8   9
ATOM      9  C   UNL A   1      33.165  23.748  23.478  1.00  0.00     0.120 A 
ATOM     10  C   UNL A   1      32.523  24.223  22.348  1.00  0.00     0.047 A 
ATOM     11  C   UNL A   1      33.881  24.644  24.283  1.00  0.00     0.047 A 
ATOM     12  C   UNL A   1      32.644  25.575  21.999  1.00  0.00     0.017 A 
ATOM     13  C   UNL A   1      34.015  25.991  23.932  1.00  0.00     0.017 A 
ATOM     14  C   UNL A   1      33.378  26.476  22.793  1.00  0.00     0.040 A 
BRANCH  14  15
ATOM     15  C   UNL A   1      33.452  27.881  22.310  1.00  0.00     0.251 C 
ATOM     16  O   UNL A   1      34.439  28.231  21.661  1.00  0.00    -0.269 OA
ATOM     17  N   UNL A   1      32.466  28.809  22.495  1.00  0.00    -0.348 N 
ATOM     18  H   UNL A   1      32.667  29.673  22.068  1.00  0.00     0.164 HD
BRANCH  17  19
ATOM     19  C   UNL A   1      31.191  28.798  23.181  1.00  0.00     0.152 C 
BRANCH  19  20
ATOM     20  C   UNL A   1      31.335  28.694  24.685  1.00  0.00    -0.029 A 
ATOM     21  C   UNL A   1      31.761  29.813  25.420  1.00  0.00     0.005 A 
ATOM     22  C   UNL A   1      31.131  27.487  25.374  1.00  0.00     0.005 A 
ATOM     23  C   UNL A   1      31.957  29.728  26.801  1.00  0.00     0.000 A 
ATOM     24  C   UNL A   1      31.328  27.404  26.754  1.00  0.00     0.000 A 
ATOM     25  C   UNL A   1      31.741  28.524  27.467  1.00  0.00     0.000 A 
ENDBRANCH  19  20
ENDBRANCH  17  19
ENDBRANCH  14  15
ENDBRANCH   8   9
ENDBRANCH   6   8
ENDBRANCH   3   6
ENDBRANCH   1   2
BRANCH   1  26
ATOM     26  C   UNL A   1      36.854  21.108  24.633  1.00  0.00     0.023 C 
BRANCH  26  27
ATOM     27  C   UNL A   1      37.872  20.012  24.944  1.00  0.00     0.023 C 
BRANCH  27  28
ATOM     28  C   UNL A   1      39.061  20.454  25.793  1.00  0.00     0.116 C 
BRANCH  28  29
ATOM     29  N   UNL A   1      40.101  19.440  25.893  1.00  0.00    -0.352 N 
ATOM     30  C   UNL A   1      41.451  19.603  26.110  1.00  0.00     0.251 C 
ATOM     31  H   UNL A   1      39.797  18.509  25.789  1.00  0.00     0.163 HD
ATOM     32  O   UNL A   1      42.206  18.647  26.036  1.00  0.00    -0.269 OA
BRANCH  30  33
ATOM     33  C   UNL A   1      41.981  20.955  26.404  1.00  0.00     0.039 A 
ATOM     34  C   UNL A   1      42.274  21.810  25.338  1.00  0.00     0.014 A 
ATOM     35  C   UNL A   1      42.159  21.385  27.721  1.00  0.00     0.014 A 
ATOM     36  C   UNL A   1      42.677  23.123  25.597  1.00  0.00     0.010 A 
ATOM     37  C   UNL A   1      42.485  22.714  27.976  1.00  0.00     0.010 A 
ATOM     38  C   UNL A   1      42.748  23.597  26.917  1.00  0.00    -0.014 A 
BRANCH  38  39
ATOM     39  C   UNL A   1      43.075  25.016  27.212  1.00  0.00     0.031 A 
ATOM     40  C   UNL A   1      44.441  25.563  26.896  1.00  0.00     0.074 A 
ATOM     41  C   UNL A   1      42.173  25.790  27.850  1.00  0.00     0.049 A 
ATOM     42  N   UNL A   1      44.931  26.752  27.140  1.00  0.00    -0.248 NA
ATOM     43  C   UNL A   1      45.392  24.647  26.244  1.00  0.00     0.031 C 
ATOM     44  C   UNL A   1      40.845  25.354  28.288  1.00  0.00     0.029 A 
ATOM     45  N   UNL A   1      42.247  27.095  28.270  1.00  0.00    -0.354 N 
ATOM     46  C   UNL A   1      46.250  26.716  26.706  1.00  0.00     0.074 A 
ATOM     47  C   UNL A   1      46.497  25.377  26.218  1.00  0.00     0.031 C 
ATOM     48  C   UNL A   1      40.232  26.372  28.913  1.00  0.00     0.029 A 
ATOM     49  C   UNL A   1      41.130  27.522  28.948  1.00  0.00     0.049 A 
ATOM     50  H   UNL A   1      43.028  27.671  28.101  1.00  0.00     0.167 HD
ATOM     51  C   UNL A   1      47.165  27.715  26.686  1.00  0.00     0.034 A 
ATOM     52  C   UNL A   1      40.861  28.702  29.541  1.00  0.00     0.034 A 
ATOM     53  C   UNL A   1      46.905  29.056  27.134  1.00  0.00     0.049 A 
ATOM     54  C   UNL A   1      41.880  29.807  29.467  1.00  0.00     0.074 A 
ATOM     55  C   UNL A   1      47.738  30.159  27.075  1.00  0.00     0.029 A 
ATOM     56  N   UNL A   1      45.726  29.477  27.728  1.00  0.00    -0.354 N 
ATOM     57  N   UNL A   1      43.065  29.801  28.907  1.00  0.00    -0.248 NA
ATOM     58  C   UNL A   1      41.509  31.095  30.073  1.00  0.00     0.031 C 
ATOM     59  C   UNL A   1      47.071  31.242  27.655  1.00  0.00     0.029 A 
ATOM     60  C   UNL A   1      45.811  30.822  28.049  1.00  0.00     0.049 A 
ATOM     61  H   UNL A   1      44.943  28.905  27.898  1.00  0.00     0.167 HD
ATOM     62  C   UNL A   1      43.567  31.088  29.062  1.00  0.00     0.074 A 
ATOM     63  C   UNL A   1      42.546  31.855  29.748  1.00  0.00     0.031 C 
ATOM     64  C   UNL A   1      44.769  31.587  28.683  1.00  0.00     0.034 A 
BRANCH  51  65
ATOM     65  C   UNL A   1      48.522  27.407  26.105  1.00  0.00     0.023 A 
ATOM     66  C   UNL A   1      49.536  26.898  26.944  1.00  0.00     0.012 A 
ATOM     67  C   UNL A   1      48.779  27.565  24.729  1.00  0.00     0.148 A 
ATOM     68  C   UNL A   1      50.793  26.585  26.430  1.00  0.00     0.002 A 
ATOM     69  C   UNL A   1      50.021  27.207  24.216  1.00  0.00     0.091 A 
ATOM     70  F   UNL A   1      47.811  28.069  23.951  1.00  0.00    -0.205 F 
ATOM     71  C   UNL A   1      51.032  26.729  25.067  1.00  0.00     0.022 A 
BRANCH  69  72
ATOM     72  S   UNL A   1      50.403  27.279  22.464  1.00  0.00     0.127 S 
ATOM     73  O   UNL A   1      50.275  28.711  22.192  1.00  0.00    -0.237 OA
ATOM     74  O   UNL A   1      51.776  26.773  22.427  1.00  0.00    -0.237 OA
ATOM     75  O   UNL A   1      49.424  26.428  21.803  1.00  0.00    -0.744 OA
ENDBRANCH  69  72
ENDBRANCH  51  65
BRANCH  52  76
ATOM     76  C   UNL A   1      39.543  28.919  30.202  1.00  0.00     0.023 A 
ATOM     77  C   UNL A   1      39.286  28.317  31.449  1.00  0.00     0.012 A 
ATOM     78  C   UNL A   1      38.556  29.737  29.619  1.00  0.00     0.148 A 
ATOM     79  C   UNL A   1      38.059  28.497  32.088  1.00  0.00     0.002 A 
ATOM     80  C   UNL A   1      37.358  29.960  30.288  1.00  0.00     0.091 A 
ATOM     81  F   UNL A   1      38.815  30.293  28.428  1.00  0.00    -0.205 F 
ATOM     82  C   UNL A   1      37.100  29.326  31.513  1.00  0.00     0.022 A 
BRANCH  80  83
ATOM     83  S   UNL A   1      36.121  31.116  29.689  1.00  0.00     0.127 S 
ATOM     84  O   UNL A   1      35.487  30.349  28.620  1.00  0.00    -0.237 OA
ATOM     85  O   UNL A   1      35.294  31.318  30.878  1.00  0.00    -0.237 OA
ATOM     86  O   UNL A   1      36.862  32.298  29.268  1.00  0.00    -0.744 OA
ENDBRANCH  80  83
ENDBRANCH  52  76
BRANCH  64  87
ATOM     87  C   UNL A   1      45.044  33.042  28.963  1.00  0.00     0.023 A 
ATOM     88  C   UNL A   1      45.879  33.403  30.039  1.00  0.00     0.012 A 
ATOM     89  C   UNL A   1      44.536  34.045  28.115  1.00  0.00     0.148 A 
ATOM     90  C   UNL A   1      46.178  34.743  30.285  1.00  0.00     0.002 A 
ATOM     91  C   UNL A   1      44.878  35.374  28.337  1.00  0.00     0.091 A 
ATOM     92  F   UNL A   1      43.727  33.683  27.108  1.00  0.00    -0.205 F 
ATOM     93  C   UNL A   1      45.689  35.725  29.428  1.00  0.00     0.022 A 
BRANCH  91  94
ATOM     94  S   UNL A   1      44.373  36.696  27.229  1.00  0.00     0.127 S 
ATOM     95  O   UNL A   1      43.831  37.678  28.166  1.00  0.00    -0.237 OA
ATOM     96  O   UNL A   1      45.640  37.079  26.606  1.00  0.00    -0.237 OA
ATOM     97  O   UNL A   1      43.405  36.105  26.314  1.00  0.00    -0.744 OA
ENDBRANCH  91  94
ENDBRANCH  64  87
ENDBRANCH  38  39
ENDBRANCH  30  33
ENDBRANCH  28  29
ENDBRANCH  27  28
ENDBRANCH  26  27
ENDBRANCH   1  26
TORSDOF 19
ENDMDL
MODEL 3
REMARK VINA RESULT:     -11.6      3.037      8.443
REMARK SMILES C[C@H](Oc1ccc(C(=O)NCc2ccccc2)cc1)C(=O)NCCCCNC(=O)c1ccc(-c2c3nc(c(-c4cccc(S(=O)(=O)[O-])c4F)c4ccc([nH]4)c(-c4cccc(S(=O)(=O)[O-])c4F)c4nc(c(-c5cccc(S(=O)(=O)[O-])c5F)c5ccc2[nH]5)C=C4)C=C3)cc1
REMARK SMILES IDX 23 1 22 2 20 3 21 4 2 6 1 7 3 8 4 9 5 10 19 11 6 12 18 13
REMARK SMILES IDX 7 14 8 15 9 16 10 17 11 19 12 20 13 21 17 22 14 23 16 24
REMARK SMILES IDX 15 25 24 26 25 27 26 28 27 29 28 30 29 32 30 33 31 34 92 35
REMARK SMILES IDX 32 36 91 37 33 38 34 39 35 40 85 41 36 42 90 43 84 44 86 45
REMARK SMILES IDX 37 46 89 47 83 48 82 49 38 51 70 52 50 53 69 54 51 55 54 56
REMARK SMILES IDX 68 57 87 58 52 59 53 60 67 62 88 63 55 64 39 65 40 66 48 67
REMARK SMILES IDX 41 68 43 69 49 70 42 71 44 72 45 73 46 74 47 75 71 76 72 77
REMARK SMILES IDX 80 78 73 79 75 80 81 81 74 82 76 83 77 84 78 85 79 86 56 87
REMARK SMILES IDX 57 88 65 89 58 90 60 91 66 92 59 93 61 94 62 95 63 96 64 97
REMARK H PARENT 22 5 10 18 27 31 86 50 54 61
REMARK Flexibility Score: inf
ROOT
ATOM      1  C   UNL A   1      34.205  20.869  25.305  1.00  0.00     0.116 C 
ENDROOT
BRANCH   1   2
ATOM      2  N   UNL A   1      33.297  21.574  24.417  1.00  0.00    -0.353 N 
ATOM      3  C   UNL A   1      32.225  22.370  24.730  1.00  0.00     0.260 C 
ATOM      4  O   UNL A   1      31.597  22.899  23.810  1.00  0.00    -0.271 OA
ATOM      5  H   UNL A   1      33.476  21.465  23.456  1.00  0.00     0.163 HD
BRANCH   3   6
ATOM      6  C   UNL A   1      31.860  22.640  26.200  1.00  0.00     0.258 C 
ATOM      7  C   UNL A   1      30.354  22.907  26.273  1.00  0.00     0.064 C 
BRANCH   6   8
ATOM      8  O   UNL A   1      32.803  23.629  26.625  1.00  0.00    -0.481 OA
BRANCH   8   9
ATOM      9  C   UNL A   1      32.725  24.947  26.328  1.00  0.00     0.120 A 
ATOM     10  C   UNL A   1      31.744  25.836  26.733  1.00  0.00     0.047 A 
ATOM     11  C   UNL A   1      33.771  25.407  25.518  1.00  0.00     0.047 A 
ATOM     12  C   UNL A   1      31.783  27.161  26.282  1.00  0.00     0.017 A 
ATOM     13  C   UNL A   1      33.808  26.727  25.055  1.00  0.00     0.017 A 
ATOM     14  C   UNL A   1      32.820  27.626  25.451  1.00  0.00     0.040 A 
BRANCH  14  15
ATOM     15  C   UNL A   1      32.744  29.047  25.021  1.00  0.00     0.251 C 
ATOM     16  O   UNL A   1      33.337  29.899  25.686  1.00  0.00    -0.269 OA
ATOM     17  N   UNL A   1      32.098  29.475  23.896  1.00  0.00    -0.348 N 
ATOM     18  H   UNL A   1      32.190  30.444  23.744  1.00  0.00     0.164 HD
BRANCH  17  19
ATOM     19  C   UNL A   1      31.305  28.815  22.879  1.00  0.00     0.152 C 
BRANCH  19  20
ATOM     20  C   UNL A   1      29.817  29.005  23.080  1.00  0.00    -0.029 A 
ATOM     21  C   UNL A   1      28.985  27.880  23.209  1.00  0.00     0.005 A 
ATOM     22  C   UNL A   1      29.215  30.275  23.067  1.00  0.00     0.005 A 
ATOM     23  C   UNL A   1      27.600  28.025  23.339  1.00  0.00     0.000 A 
ATOM     24  C   UNL A   1      27.832  30.418  23.196  1.00  0.00     0.000 A 
ATOM     25  C   UNL A   1      27.025  29.294  23.332  1.00  0.00     0.000 A 
ENDBRANCH  19  20
ENDBRANCH  17  19
ENDBRANCH  14  15
ENDBRANCH   8   9
ENDBRANCH   6   8
ENDBRANCH   3   6
ENDBRANCH   1   2
BRANCH   1  26
ATOM     26  C   UNL A   1      35.669  21.104  24.950  1.00  0.00     0.023 C 
BRANCH  26  27
ATOM     27  C   UNL A   1      36.031  22.564  24.684  1.00  0.00     0.023 C 
BRANCH  27  28
ATOM     28  C   UNL A   1      37.021  23.177  25.671  1.00  0.00     0.116 C 
BRANCH  28  29
ATOM     29  N   UNL A   1      38.174  22.326  25.927  1.00  0.00    -0.352 N 
ATOM     30  C   UNL A   1      39.406  22.669  26.439  1.00  0.00     0.251 C 
ATOM     31  H   UNL A   1      38.056  21.374  25.703  1.00  0.00     0.163 HD
ATOM     32  O   UNL A   1      40.309  21.848  26.469  1.00  0.00    -0.269 OA
BRANCH  30  33
ATOM     33  C   UNL A   1      39.632  24.050  26.922  1.00  0.00     0.039 A 
ATOM     34  C   UNL A   1      39.377  24.345  28.264  1.00  0.00     0.014 A 
ATOM     35  C   UNL A   1      40.120  25.039  26.064  1.00  0.00     0.014 A 
ATOM     36  C   UNL A   1      39.683  25.615  28.761  1.00  0.00     0.010 A 
ATOM     37  C   UNL A   1      40.495  26.277  26.578  1.00  0.00     0.010 A 
ATOM     38  C   UNL A   1      40.280  26.579  27.932  1.00  0.00    -0.014 A 
BRANCH  38  39
ATOM     39  C   UNL A   1      40.705  27.899  28.464  1.00  0.00     0.031 A 
ATOM     40  C   UNL A   1      42.165  28.206  28.657  1.00  0.00     0.074 A 
ATOM     41  C   UNL A   1      39.773  28.789  28.862  1.00  0.00     0.049 A 
ATOM     42  N   UNL A   1      42.724  29.273  29.169  1.00  0.00    -0.248 NA
ATOM     43  C   UNL A   1      43.126  27.167  28.247  1.00  0.00     0.031 C 
ATOM     44  C   UNL A   1      38.324  28.579  28.808  1.00  0.00     0.029 A 
ATOM     45  N   UNL A   1      39.904  30.037  29.421  1.00  0.00    -0.354 N 
ATOM     46  C   UNL A   1      44.090  29.023  29.175  1.00  0.00     0.074 A 
ATOM     47  C   UNL A   1      44.276  27.687  28.650  1.00  0.00     0.031 C 
ATOM     48  C   UNL A   1      37.703  29.658  29.311  1.00  0.00     0.029 A 
ATOM     49  C   UNL A   1      38.705  30.623  29.751  1.00  0.00     0.049 A 
ATOM     50  H   UNL A   1      40.776  30.471  29.570  1.00  0.00     0.167 HD
ATOM     51  C   UNL A   1      45.103  29.840  29.552  1.00  0.00     0.034 A 
ATOM     52  C   UNL A   1      38.440  31.801  30.350  1.00  0.00     0.034 A 
ATOM     53  C   UNL A   1      44.918  31.181  30.035  1.00  0.00     0.049 A 
ATOM     54  C   UNL A   1      39.583  32.707  30.722  1.00  0.00     0.074 A 
ATOM     55  C   UNL A   1      45.884  32.118  30.361  1.00  0.00     0.029 A 
ATOM     56  N   UNL A   1      43.689  31.778  30.267  1.00  0.00    -0.354 N 
ATOM     57  N   UNL A   1      40.871  32.516  30.569  1.00  0.00    -0.248 NA
ATOM     58  C   UNL A   1      39.236  34.008  31.313  1.00  0.00     0.031 C 
ATOM     59  C   UNL A   1      45.237  33.273  30.812  1.00  0.00     0.029 A 
ATOM     60  C   UNL A   1      43.869  33.067  30.739  1.00  0.00     0.049 A 
ATOM     61  H   UNL A   1      42.816  31.348  30.118  1.00  0.00     0.167 HD
ATOM     62  C   UNL A   1      41.485  33.682  31.011  1.00  0.00     0.074 A 
ATOM     63  C   UNL A   1      40.426  34.584  31.416  1.00  0.00     0.031 C 
ATOM     64  C   UNL A   1      42.807  33.975  31.088  1.00  0.00     0.034 A 
BRANCH  51  65
ATOM     65  C   UNL A   1      46.511  29.322  29.402  1.00  0.00     0.023 A 
ATOM     66  C   UNL A   1      47.126  28.662  30.486  1.00  0.00     0.012 A 
ATOM     67  C   UNL A   1      47.203  29.435  28.180  1.00  0.00     0.148 A 
ATOM     68  C   UNL A   1      48.419  28.155  30.370  1.00  0.00     0.002 A 
ATOM     69  C   UNL A   1      48.474  28.887  28.057  1.00  0.00     0.091 A 
ATOM     70  F   UNL A   1      46.611  30.084  27.167  1.00  0.00    -0.205 F 
ATOM     71  C   UNL A   1      49.088  28.258  29.154  1.00  0.00     0.022 A 
BRANCH  69  72
ATOM     72  S   UNL A   1      49.388  28.895  26.512  1.00  0.00     0.127 S 
ATOM     73  O   UNL A   1      48.338  28.571  25.547  1.00  0.00    -0.237 OA
ATOM     74  O   UNL A   1      49.871  30.275  26.447  1.00  0.00    -0.237 OA
ATOM     75  O   UNL A   1      50.433  27.892  26.658  1.00  0.00    -0.744 OA
ENDBRANCH  69  72
ENDBRANCH  51  65
BRANCH  52  76
ATOM     76  C   UNL A   1      37.028  32.218  30.579  1.00  0.00     0.023 A 
ATOM     77  C   UNL A   1      36.458  32.062  31.857  1.00  0.00     0.012 A 
ATOM     78  C   UNL A   1      36.257  32.792  29.549  1.00  0.00     0.148 A 
ATOM     79  C   UNL A   1      35.136  32.438  32.099  1.00  0.00     0.002 A 
ATOM     80  C   UNL A   1      34.959  33.217  29.811  1.00  0.00     0.091 A 
ATOM     81  F   UNL A   1      36.813  32.922  28.337  1.00  0.00    -0.205 F 
ATOM     82  C   UNL A   1      34.391  33.025  31.080  1.00  0.00     0.022 A 
BRANCH  80  83
ATOM     83  S   UNL A   1      33.974  34.103  28.599  1.00  0.00     0.127 S 
ATOM     84  O   UNL A   1      32.861  34.587  29.413  1.00  0.00    -0.237 OA
ATOM     85  O   UNL A   1      34.905  35.138  28.150  1.00  0.00    -0.237 OA
ATOM     86  O   UNL A   1      33.632  33.121  27.579  1.00  0.00    -0.744 OA
ENDBRANCH  80  83
ENDBRANCH  52  76
BRANCH  64  87
ATOM     87  C   UNL A   1      43.193  35.340  31.594  1.00  0.00     0.023 A 
ATOM     88  C   UNL A   1      43.351  35.556  32.978  1.00  0.00     0.012 A 
ATOM     89  C   UNL A   1      43.475  36.386  30.694  1.00  0.00     0.148 A 
ATOM     90  C   UNL A   1      43.752  36.802  33.459  1.00  0.00     0.002 A 
ATOM     91  C   UNL A   1      43.921  37.611  31.179  1.00  0.00     0.091 A 
ATOM     92  F   UNL A   1      43.301  36.167  29.383  1.00  0.00    -0.205 F 
ATOM     93  C   UNL A   1      44.048  37.824  32.560  1.00  0.00     0.022 A 
BRANCH  91  94
ATOM     94  S   UNL A   1      44.418  38.952  30.091  1.00  0.00     0.127 S 
ATOM     95  O   UNL A   1      43.131  39.396  29.558  1.00  0.00    -0.237 OA
ATOM     96  O   UNL A   1      45.049  39.888  31.023  1.00  0.00    -0.237 OA
ATOM     97  O   UNL A   1      45.329  38.364  29.118  1.00  0.00    -0.744 OA
ENDBRANCH  91  94
ENDBRANCH  64  87
ENDBRANCH  38  39
ENDBRANCH  30  33
ENDBRANCH  28  29
ENDBRANCH  27  28
ENDBRANCH  26  27
ENDBRANCH   1  26
TORSDOF 19
ENDMDL
