MODEL 1
REMARK VINA RESULT:     -13.3      0.000      0.000
REMARK SMILES Cc1c(CC(=O)NCCCCNC(=O)c2ccc(-c3c4nc(c(-c5cccc(S(=O)(=O)[O-])c5F)c5ccc([nH]5)c(-c5cccc(S(=O)(=O)[O-])c5F)c5nc(c(-c6cccc(S(=O)(=O)[O-])c6F)c6ccc3[nH]6)C=C5)C=C4)cc2)c2ccccc2n1C(=O)c1ccc(Cl)cc1
REMARK SMILES IDX 9 1 8 2 7 3 5 4 6 5 4 7 3 8 1 9 2 10 84 11 78 12 83 13 79 14
REMARK SMILES IDX 82 15 80 16 81 17 85 18 86 19 87 20 88 21 93 22 89 23 92 24
REMARK SMILES IDX 90 25 91 26 10 27 11 28 12 29 13 30 14 32 15 33 16 34 77 35
REMARK SMILES IDX 17 36 76 37 18 38 19 39 20 40 70 41 21 42 75 43 69 44 71 45
REMARK SMILES IDX 22 46 74 47 68 48 67 49 23 51 55 52 35 53 54 54 36 55 39 56
REMARK SMILES IDX 53 57 72 58 37 59 38 60 52 62 73 63 40 64 24 65 25 66 33 67
REMARK SMILES IDX 26 68 28 69 34 70 27 71 29 72 30 73 31 74 32 75 56 76 57 77
REMARK SMILES IDX 65 78 58 79 60 80 66 81 59 82 61 83 62 84 63 85 64 86 41 87
REMARK SMILES IDX 42 88 50 89 43 90 45 91 51 92 44 93 46 94 47 95 48 96 49 97
REMARK H PARENT 7 6 12 31 71 50 39 61
REMARK Flexibility Score: inf
ROOT
ATOM      1  C   UNL A   1      31.894  28.359  27.613  1.00  0.00     0.023 C 
ENDROOT
BRANCH   1   2
ATOM      2  C   UNL A   1      31.343  27.478  26.493  1.00  0.00     0.116 C 
BRANCH   2   3
ATOM      3  N   UNL A   1      32.281  27.333  25.399  1.00  0.00    -0.356 N 
ATOM      4  C   UNL A   1      33.180  26.329  25.183  1.00  0.00     0.224 C 
ATOM      5  O   UNL A   1      33.885  26.377  24.171  1.00  0.00    -0.275 OA
ATOM      6  H   UNL A   1      32.269  28.051  24.726  1.00  0.00     0.163 HD
BRANCH   4   7
ATOM      7  C   UNL A   1      33.251  25.149  26.141  1.00  0.00     0.138 C 
BRANCH   7   8
ATOM      8  C   UNL A   1      33.554  23.843  25.461  1.00  0.00    -0.010 A 
ATOM      9  C   UNL A   1      31.211  23.234  24.507  1.00  0.00     0.065 C 
ATOM     10  C   UNL A   1      32.673  23.024  24.765  1.00  0.00     0.028 A 
ATOM     11  N   UNL A   1      33.355  21.868  24.354  1.00  0.00    -0.280 N 
ATOM     12  C   UNL A   1      34.834  23.224  25.409  1.00  0.00     0.004 A 
ATOM     13  C   UNL A   1      34.714  22.045  24.668  1.00  0.00     0.056 A 
ATOM     14  C   UNL A   1      36.098  23.594  25.925  1.00  0.00     0.010 A 
ATOM     15  C   UNL A   1      35.867  21.286  24.371  1.00  0.00     0.027 A 
ATOM     16  C   UNL A   1      37.215  22.795  25.693  1.00  0.00     0.001 A 
ATOM     17  C   UNL A   1      37.100  21.658  24.912  1.00  0.00     0.002 A 
BRANCH  11  18
ATOM     18  C   UNL A   1      32.758  20.740  23.715  1.00  0.00     0.262 C 
ATOM     19  O   UNL A   1      32.099  20.918  22.694  1.00  0.00    -0.268 OA
BRANCH  18  20
ATOM     20  C   UNL A   1      32.909  19.337  24.145  1.00  0.00     0.040 A 
ATOM     21  C   UNL A   1      33.193  18.314  23.233  1.00  0.00     0.015 A 
ATOM     22  C   UNL A   1      32.707  19.052  25.501  1.00  0.00     0.015 A 
ATOM     23  C   UNL A   1      33.165  16.985  23.669  1.00  0.00     0.021 A 
ATOM     24  C   UNL A   1      32.691  17.726  25.930  1.00  0.00     0.021 A 
ATOM     25  C   UNL A   1      32.893  16.698  25.009  1.00  0.00     0.041 A 
ATOM     26  Cl  UNL A   1      32.769  15.063  25.528  1.00  0.00    -0.084 Cl
ENDBRANCH  18  20
ENDBRANCH  11  18
ENDBRANCH   7   8
ENDBRANCH   4   7
ENDBRANCH   2   3
ENDBRANCH   1   2
BRANCH   1  27
ATOM     27  C   UNL A   1      32.425  29.719  27.137  1.00  0.00     0.023 C 
BRANCH  27  28
ATOM     28  C   UNL A   1      33.945  29.866  27.239  1.00  0.00     0.116 C 
BRANCH  28  29
ATOM     29  N   UNL A   1      34.378  31.238  27.412  1.00  0.00    -0.352 N 
ATOM     30  C   UNL A   1      35.558  31.842  27.741  1.00  0.00     0.251 C 
ATOM     31  H   UNL A   1      33.653  31.886  27.255  1.00  0.00     0.163 HD
ATOM     32  O   UNL A   1      35.574  33.071  27.640  1.00  0.00    -0.269 OA
BRANCH  30  33
ATOM     33  C   UNL A   1      36.756  31.139  28.273  1.00  0.00     0.039 A 
ATOM     34  C   UNL A   1      37.763  31.727  29.038  1.00  0.00     0.014 A 
ATOM     35  C   UNL A   1      36.897  29.794  27.883  1.00  0.00     0.014 A 
ATOM     36  C   UNL A   1      38.937  31.038  29.299  1.00  0.00     0.010 A 
ATOM     37  C   UNL A   1      38.061  29.092  28.159  1.00  0.00     0.010 A 
ATOM     38  C   UNL A   1      39.102  29.743  28.809  1.00  0.00    -0.014 A 
BRANCH  38  39
ATOM     39  C   UNL A   1      40.371  29.084  29.079  1.00  0.00     0.031 A 
ATOM     40  C   UNL A   1      40.613  28.785  30.520  1.00  0.00     0.074 A 
ATOM     41  C   UNL A   1      41.203  28.705  28.087  1.00  0.00     0.049 A 
ATOM     42  N   UNL A   1      41.565  29.222  31.280  1.00  0.00    -0.248 NA
ATOM     43  C   UNL A   1      39.579  28.019  31.237  1.00  0.00     0.031 C 
ATOM     44  C   UNL A   1      40.943  28.711  26.644  1.00  0.00     0.029 A 
ATOM     45  N   UNL A   1      42.413  28.088  28.173  1.00  0.00    -0.354 N 
ATOM     46  C   UNL A   1      41.370  28.605  32.516  1.00  0.00     0.074 A 
ATOM     47  C   UNL A   1      40.059  28.011  32.480  1.00  0.00     0.031 C 
ATOM     48  C   UNL A   1      41.818  27.881  26.033  1.00  0.00     0.029 A 
ATOM     49  C   UNL A   1      42.772  27.399  27.015  1.00  0.00     0.049 A 
ATOM     50  H   UNL A   1      42.980  28.124  28.976  1.00  0.00     0.167 HD
ATOM     51  C   UNL A   1      42.381  28.423  33.408  1.00  0.00     0.034 A 
ATOM     52  C   UNL A   1      43.714  26.426  26.923  1.00  0.00     0.034 A 
ATOM     53  C   UNL A   1      43.517  29.250  33.124  1.00  0.00     0.049 A 
ATOM     54  C   UNL A   1      44.599  26.572  28.103  1.00  0.00     0.074 A 
ATOM     55  C   UNL A   1      43.743  30.609  33.065  1.00  0.00     0.029 A 
ATOM     56  N   UNL A   1      44.565  28.660  32.465  1.00  0.00    -0.354 N 
ATOM     57  N   UNL A   1      45.374  27.599  28.304  1.00  0.00    -0.248 NA
ATOM     58  C   UNL A   1      44.298  25.768  29.276  1.00  0.00     0.031 C 
ATOM     59  C   UNL A   1      44.632  30.781  31.966  1.00  0.00     0.029 A 
ATOM     60  C   UNL A   1      44.941  29.515  31.465  1.00  0.00     0.049 A 
ATOM     61  H   UNL A   1      44.970  27.786  32.671  1.00  0.00     0.167 HD
ATOM     62  C   UNL A   1      45.292  27.828  29.670  1.00  0.00     0.074 A 
ATOM     63  C   UNL A   1      44.693  26.617  30.227  1.00  0.00     0.031 C 
ATOM     64  C   UNL A   1      45.446  29.080  30.185  1.00  0.00     0.034 A 
BRANCH  51  65
ATOM     65  C   UNL A   1      42.476  27.240  34.330  1.00  0.00     0.023 A 
ATOM     66  C   UNL A   1      42.097  27.401  35.679  1.00  0.00     0.012 A 
ATOM     67  C   UNL A   1      43.179  26.061  33.988  1.00  0.00     0.148 A 
ATOM     68  C   UNL A   1      42.408  26.434  36.643  1.00  0.00     0.002 A 
ATOM     69  C   UNL A   1      43.423  25.073  34.934  1.00  0.00     0.091 A 
ATOM     70  F   UNL A   1      43.731  25.950  32.776  1.00  0.00    -0.205 F 
ATOM     71  C   UNL A   1      43.059  25.264  36.268  1.00  0.00     0.022 A 
BRANCH  69  72
ATOM     72  S   UNL A   1      44.239  23.535  34.490  1.00  0.00     0.127 S 
ATOM     73  O   UNL A   1      45.535  24.023  34.012  1.00  0.00    -0.237 OA
ATOM     74  O   UNL A   1      44.281  22.839  35.780  1.00  0.00    -0.237 OA
ATOM     75  O   UNL A   1      43.382  22.911  33.501  1.00  0.00    -0.744 OA
ENDBRANCH  69  72
ENDBRANCH  51  65
BRANCH  52  76
ATOM     76  C   UNL A   1      43.727  25.180  26.107  1.00  0.00     0.023 A 
ATOM     77  C   UNL A   1      44.807  24.958  25.225  1.00  0.00     0.012 A 
ATOM     78  C   UNL A   1      42.886  24.086  26.407  1.00  0.00     0.148 A 
ATOM     79  C   UNL A   1      45.078  23.683  24.713  1.00  0.00     0.002 A 
ATOM     80  C   UNL A   1      43.152  22.821  25.886  1.00  0.00     0.091 A 
ATOM     81  F   UNL A   1      41.886  24.253  27.281  1.00  0.00    -0.205 F 
ATOM     82  C   UNL A   1      44.260  22.611  25.055  1.00  0.00     0.022 A 
BRANCH  80  83
ATOM     83  S   UNL A   1      42.140  21.392  26.292  1.00  0.00     0.127 S 
ATOM     84  O   UNL A   1      42.719  20.353  25.438  1.00  0.00    -0.237 OA
ATOM     85  O   UNL A   1      42.404  21.228  27.719  1.00  0.00    -0.237 OA
ATOM     86  O   UNL A   1      40.776  21.761  25.936  1.00  0.00    -0.744 OA
ENDBRANCH  80  83
ENDBRANCH  52  76
BRANCH  64  87
ATOM     87  C   UNL A   1      45.961  30.162  29.276  1.00  0.00     0.023 A 
ATOM     88  C   UNL A   1      47.337  30.404  29.083  1.00  0.00     0.012 A 
ATOM     89  C   UNL A   1      45.028  30.809  28.452  1.00  0.00     0.148 A 
ATOM     90  C   UNL A   1      47.770  31.281  28.083  1.00  0.00     0.002 A 
ATOM     91  C   UNL A   1      45.462  31.647  27.436  1.00  0.00     0.091 A 
ATOM     92  F   UNL A   1      43.726  30.554  28.653  1.00  0.00    -0.205 F 
ATOM     93  C   UNL A   1      46.833  31.889  27.250  1.00  0.00     0.022 A 
BRANCH  91  94
ATOM     94  S   UNL A   1      44.315  32.370  26.263  1.00  0.00     0.127 S 
ATOM     95  O   UNL A   1      43.736  33.465  27.038  1.00  0.00    -0.237 OA
ATOM     96  O   UNL A   1      45.203  32.790  25.178  1.00  0.00    -0.237 OA
ATOM     97  O   UNL A   1      43.386  31.307  25.896  1.00  0.00    -0.744 OA
ENDBRANCH  91  94
ENDBRANCH  64  87
ENDBRANCH  38  39
ENDBRANCH  30  33
ENDBRANCH  28  29
ENDBRANCH  27  28
ENDBRANCH   1  27
TORSDOF 17
ENDMDL
MODEL 2
REMARK VINA RESULT:     -13.0      3.743      7.342
REMARK SMILES Cc1c(CC(=O)NCCCCNC(=O)c2ccc(-c3c4nc(c(-c5cccc(S(=O)(=O)[O-])c5F)c5ccc([nH]5)c(-c5cccc(S(=O)(=O)[O-])c5F)c5nc(c(-c6cccc(S(=O)(=O)[O-])c6F)c6ccc3[nH]6)C=C5)C=C4)cc2)c2ccccc2n1C(=O)c1ccc(Cl)cc1
REMARK SMILES IDX 9 1 8 2 7 3 5 4 6 5 4 7 3 8 1 9 2 10 84 11 78 12 83 13 79 14
REMARK SMILES IDX 82 15 80 16 81 17 85 18 86 19 87 20 88 21 93 22 89 23 92 24
REMARK SMILES IDX 90 25 91 26 10 27 11 28 12 29 13 30 14 32 15 33 16 34 77 35
REMARK SMILES IDX 17 36 76 37 18 38 19 39 20 40 70 41 21 42 75 43 69 44 71 45
REMARK SMILES IDX 22 46 74 47 68 48 67 49 23 51 55 52 35 53 54 54 36 55 39 56
REMARK SMILES IDX 53 57 72 58 37 59 38 60 52 62 73 63 40 64 24 65 25 66 33 67
REMARK SMILES IDX 26 68 28 69 34 70 27 71 29 72 30 73 31 74 32 75 56 76 57 77
REMARK SMILES IDX 65 78 58 79 60 80 66 81 59 82 61 83 62 84 63 85 64 86 41 87
REMARK SMILES IDX 42 88 50 89 43 90 45 91 51 92 44 93 46 94 47 95 48 96 49 97
REMARK H PARENT 7 6 12 31 71 50 39 61
REMARK Flexibility Score: inf
ROOT
ATOM      1  C   UNL A   1      33.714  30.641  26.570  1.00  0.00     0.023 C 
ENDROOT
BRANCH   1   2
ATOM      2  C   UNL A   1      33.861  29.179  26.989  1.00  0.00     0.116 C 
BRANCH   2   3
ATOM      3  N   UNL A   1      32.734  28.720  27.776  1.00  0.00    -0.356 N 
ATOM      4  C   UNL A   1      31.583  28.131  27.340  1.00  0.00     0.224 C 
ATOM      5  O   UNL A   1      30.743  27.790  28.177  1.00  0.00    -0.275 OA
ATOM      6  H   UNL A   1      32.808  28.851  28.748  1.00  0.00     0.163 HD
BRANCH   4   7
ATOM      7  C   UNL A   1      31.384  27.845  25.859  1.00  0.00     0.138 C 
BRANCH   7   8
ATOM      8  C   UNL A   1      31.951  26.522  25.424  1.00  0.00    -0.010 A 
ATOM      9  C   UNL A   1      34.060  27.300  24.113  1.00  0.00     0.065 C 
ATOM     10  C   UNL A   1      33.097  26.295  24.671  1.00  0.00     0.028 A 
ATOM     11  N   UNL A   1      33.220  24.917  24.433  1.00  0.00    -0.280 N 
ATOM     12  C   UNL A   1      31.393  25.250  25.735  1.00  0.00     0.004 A 
ATOM     13  C   UNL A   1      32.218  24.269  25.178  1.00  0.00     0.056 A 
ATOM     14  C   UNL A   1      30.250  24.860  26.470  1.00  0.00     0.010 A 
ATOM     15  C   UNL A   1      31.950  22.906  25.430  1.00  0.00     0.027 A 
ATOM     16  C   UNL A   1      29.951  23.511  26.645  1.00  0.00     0.001 A 
ATOM     17  C   UNL A   1      30.802  22.544  26.138  1.00  0.00     0.002 A 
BRANCH  11  18
ATOM     18  C   UNL A   1      34.204  24.307  23.599  1.00  0.00     0.262 C 
ATOM     19  O   UNL A   1      34.047  24.331  22.382  1.00  0.00    -0.268 OA
BRANCH  18  20
ATOM     20  C   UNL A   1      35.455  23.685  24.072  1.00  0.00     0.040 A 
ATOM     21  C   UNL A   1      36.090  22.668  23.350  1.00  0.00     0.015 A 
ATOM     22  C   UNL A   1      35.965  24.113  25.303  1.00  0.00     0.015 A 
ATOM     23  C   UNL A   1      37.180  22.003  23.921  1.00  0.00     0.021 A 
ATOM     24  C   UNL A   1      37.057  23.453  25.863  1.00  0.00     0.021 A 
ATOM     25  C   UNL A   1      37.643  22.385  25.184  1.00  0.00     0.041 A 
ATOM     26  Cl  UNL A   1      38.923  21.511  25.928  1.00  0.00    -0.084 Cl
ENDBRANCH  18  20
ENDBRANCH  11  18
ENDBRANCH   7   8
ENDBRANCH   4   7
ENDBRANCH   2   3
ENDBRANCH   1   2
BRANCH   1  27
ATOM     27  C   UNL A   1      32.878  31.491  27.538  1.00  0.00     0.023 C 
BRANCH  27  28
ATOM     28  C   UNL A   1      32.158  32.667  26.874  1.00  0.00     0.116 C 
BRANCH  28  29
ATOM     29  N   UNL A   1      32.074  33.839  27.721  1.00  0.00    -0.352 N 
ATOM     30  C   UNL A   1      32.975  34.578  28.435  1.00  0.00     0.251 C 
ATOM     31  H   UNL A   1      31.156  34.185  27.799  1.00  0.00     0.163 HD
ATOM     32  O   UNL A   1      32.538  35.622  28.925  1.00  0.00    -0.269 OA
BRANCH  30  33
ATOM     33  C   UNL A   1      34.377  34.173  28.716  1.00  0.00     0.039 A 
ATOM     34  C   UNL A   1      35.429  34.214  27.802  1.00  0.00     0.014 A 
ATOM     35  C   UNL A   1      34.610  33.630  29.994  1.00  0.00     0.014 A 
ATOM     36  C   UNL A   1      36.642  33.614  28.101  1.00  0.00     0.010 A 
ATOM     37  C   UNL A   1      35.829  33.046  30.308  1.00  0.00     0.010 A 
ATOM     38  C   UNL A   1      36.816  32.983  29.332  1.00  0.00    -0.014 A 
BRANCH  38  39
ATOM     39  C   UNL A   1      38.096  32.335  29.576  1.00  0.00     0.031 A 
ATOM     40  C   UNL A   1      38.160  30.914  29.128  1.00  0.00     0.074 A 
ATOM     41  C   UNL A   1      39.150  33.007  30.084  1.00  0.00     0.049 A 
ATOM     42  N   UNL A   1      38.367  29.856  29.845  1.00  0.00    -0.248 NA
ATOM     43  C   UNL A   1      37.801  30.627  27.728  1.00  0.00     0.031 C 
ATOM     44  C   UNL A   1      39.274  34.451  30.306  1.00  0.00     0.029 A 
ATOM     45  N   UNL A   1      40.400  32.549  30.369  1.00  0.00    -0.354 N 
ATOM     46  C   UNL A   1      38.384  28.792  28.944  1.00  0.00     0.074 A 
ATOM     47  C   UNL A   1      37.876  29.297  27.695  1.00  0.00     0.031 C 
ATOM     48  C   UNL A   1      40.583  34.772  30.410  1.00  0.00     0.029 A 
ATOM     49  C   UNL A   1      41.369  33.552  30.397  1.00  0.00     0.049 A 
ATOM     50  H   UNL A   1      40.601  31.601  30.540  1.00  0.00     0.167 HD
ATOM     51  C   UNL A   1      39.024  27.621  29.211  1.00  0.00     0.034 A 
ATOM     52  C   UNL A   1      42.710  33.370  30.301  1.00  0.00     0.034 A 
ATOM     53  C   UNL A   1      39.320  27.464  30.604  1.00  0.00     0.049 A 
ATOM     54  C   UNL A   1      42.978  31.955  30.652  1.00  0.00     0.074 A 
ATOM     55  C   UNL A   1      38.567  27.374  31.756  1.00  0.00     0.029 A 
ATOM     56  N   UNL A   1      40.598  27.760  31.006  1.00  0.00    -0.354 N 
ATOM     57  N   UNL A   1      42.780  31.453  31.838  1.00  0.00    -0.248 NA
ATOM     58  C   UNL A   1      43.062  30.994  29.565  1.00  0.00     0.031 C 
ATOM     59  C   UNL A   1      39.310  28.100  32.732  1.00  0.00     0.029 A 
ATOM     60  C   UNL A   1      40.495  28.531  32.132  1.00  0.00     0.049 A 
ATOM     61  H   UNL A   1      41.431  27.474  30.566  1.00  0.00     0.167 HD
ATOM     62  C   UNL A   1      42.274  30.184  31.592  1.00  0.00     0.074 A 
ATOM     63  C   UNL A   1      42.557  29.924  30.183  1.00  0.00     0.031 C 
ATOM     64  C   UNL A   1      41.420  29.586  32.470  1.00  0.00     0.034 A 
BRANCH  51  65
ATOM     65  C   UNL A   1      39.698  26.782  28.161  1.00  0.00     0.023 A 
ATOM     66  C   UNL A   1      39.401  25.404  28.104  1.00  0.00     0.012 A 
ATOM     67  C   UNL A   1      40.809  27.240  27.414  1.00  0.00     0.148 A 
ATOM     68  C   UNL A   1      40.179  24.524  27.342  1.00  0.00     0.002 A 
ATOM     69  C   UNL A   1      41.533  26.374  26.605  1.00  0.00     0.091 A 
ATOM     70  F   UNL A   1      41.250  28.490  27.588  1.00  0.00    -0.205 F 
ATOM     71  C   UNL A   1      41.236  25.011  26.581  1.00  0.00     0.022 A 
BRANCH  69  72
ATOM     72  S   UNL A   1      42.892  26.963  25.587  1.00  0.00     0.127 S 
ATOM     73  O   UNL A   1      42.209  27.932  24.727  1.00  0.00    -0.237 OA
ATOM     74  O   UNL A   1      43.781  27.552  26.593  1.00  0.00    -0.237 OA
ATOM     75  O   UNL A   1      43.426  25.786  24.932  1.00  0.00    -0.744 OA
ENDBRANCH  69  72
ENDBRANCH  51  65
BRANCH  52  76
ATOM     76  C   UNL A   1      43.742  34.195  29.614  1.00  0.00     0.023 A 
ATOM     77  C   UNL A   1      44.659  34.927  30.399  1.00  0.00     0.012 A 
ATOM     78  C   UNL A   1      44.035  34.028  28.243  1.00  0.00     0.148 A 
ATOM     79  C   UNL A   1      45.854  35.416  29.856  1.00  0.00     0.002 A 
ATOM     80  C   UNL A   1      45.219  34.527  27.703  1.00  0.00     0.091 A 
ATOM     81  F   UNL A   1      43.211  33.295  27.484  1.00  0.00    -0.205 F 
ATOM     82  C   UNL A   1      46.141  35.205  28.511  1.00  0.00     0.022 A 
BRANCH  80  83
ATOM     83  S   UNL A   1      45.655  34.284  25.976  1.00  0.00     0.127 S 
ATOM     84  O   UNL A   1      46.822  35.156  25.829  1.00  0.00    -0.237 OA
ATOM     85  O   UNL A   1      45.951  32.855  25.936  1.00  0.00    -0.237 OA
ATOM     86  O   UNL A   1      44.492  34.714  25.211  1.00  0.00    -0.744 OA
ENDBRANCH  80  83
ENDBRANCH  52  76
BRANCH  64  87
ATOM     87  C   UNL A   1      41.240  30.212  33.825  1.00  0.00     0.023 A 
ATOM     88  C   UNL A   1      42.134  29.988  34.893  1.00  0.00     0.012 A 
ATOM     89  C   UNL A   1      40.257  31.205  33.950  1.00  0.00     0.148 A 
ATOM     90  C   UNL A   1      42.042  30.742  36.066  1.00  0.00     0.002 A 
ATOM     91  C   UNL A   1      40.193  31.978  35.099  1.00  0.00     0.091 A 
ATOM     92  F   UNL A   1      39.425  31.403  32.916  1.00  0.00    -0.205 F 
ATOM     93  C   UNL A   1      41.082  31.748  36.163  1.00  0.00     0.022 A 
BRANCH  91  94
ATOM     94  S   UNL A   1      39.057  33.357  35.239  1.00  0.00     0.127 S 
ATOM     95  O   UNL A   1      39.489  34.221  34.142  1.00  0.00    -0.237 OA
ATOM     96  O   UNL A   1      37.758  32.713  35.035  1.00  0.00    -0.237 OA
ATOM     97  O   UNL A   1      39.247  33.906  36.577  1.00  0.00    -0.744 OA
ENDBRANCH  91  94
ENDBRANCH  64  87
ENDBRANCH  38  39
ENDBRANCH  30  33
ENDBRANCH  28  29
ENDBRANCH  27  28
ENDBRANCH   1  27
TORSDOF 17
ENDMDL
MODEL 3
REMARK VINA RESULT:     -12.7      1.574      1.919
REMARK SMILES Cc1c(CC(=O)NCCCCNC(=O)c2ccc(-c3c4nc(c(-c5cccc(S(=O)(=O)[O-])c5F)c5ccc([nH]5)c(-c5cccc(S(=O)(=O)[O-])c5F)c5nc(c(-c6cccc(S(=O)(=O)[O-])c6F)c6ccc3[nH]6)C=C5)C=C4)cc2)c2ccccc2n1C(=O)c1ccc(Cl)cc1
REMARK SMILES IDX 9 1 8 2 7 3 5 4 6 5 4 7 3 8 1 9 2 10 84 11 78 12 83 13 79 14
REMARK SMILES IDX 82 15 80 16 81 17 85 18 86 19 87 20 88 21 93 22 89 23 92 24
REMARK SMILES IDX 90 25 91 26 10 27 11 28 12 29 13 30 14 32 15 33 16 34 77 35
REMARK SMILES IDX 17 36 76 37 18 38 19 39 20 40 70 41 21 42 75 43 69 44 71 45
REMARK SMILES IDX 22 46 74 47 68 48 67 49 23 51 55 52 35 53 54 54 36 55 39 56
REMARK SMILES IDX 53 57 72 58 37 59 38 60 52 62 73 63 40 64 24 65 25 66 33 67
REMARK SMILES IDX 26 68 28 69 34 70 27 71 29 72 30 73 31 74 32 75 56 76 57 77
REMARK SMILES IDX 65 78 58 79 60 80 66 81 59 82 61 83 62 84 63 85 64 86 41 87
REMARK SMILES IDX 42 88 50 89 43 90 45 91 51 92 44 93 46 94 47 95 48 96 49 97
REMARK H PARENT 7 6 12 31 71 50 39 61
REMARK Flexibility Score: inf
ROOT
ATOM      1  C   UNL A   1      32.805  29.911  27.257  1.00  0.00     0.023 C 
ENDROOT
BRANCH   1   2
ATOM      2  C   UNL A   1      32.380  28.477  26.947  1.00  0.00     0.116 C 
BRANCH   2   3
ATOM      3  N   UNL A   1      32.575  28.139  25.552  1.00  0.00    -0.356 N 
ATOM      4  C   UNL A   1      32.802  26.909  25.004  1.00  0.00     0.224 C 
ATOM      5  O   UNL A   1      32.923  26.824  23.779  1.00  0.00    -0.275 OA
ATOM      6  H   UNL A   1      32.541  28.891  24.918  1.00  0.00     0.163 HD
BRANCH   4   7
ATOM      7  C   UNL A   1      32.832  25.672  25.889  1.00  0.00     0.138 C 
BRANCH   7   8
ATOM      8  C   UNL A   1      33.207  24.417  25.152  1.00  0.00    -0.010 A 
ATOM      9  C   UNL A   1      30.890  23.686  24.220  1.00  0.00     0.065 C 
ATOM     10  C   UNL A   1      32.368  23.567  24.441  1.00  0.00     0.028 A 
ATOM     11  N   UNL A   1      33.117  22.477  23.971  1.00  0.00    -0.280 N 
ATOM     12  C   UNL A   1      34.525  23.890  25.051  1.00  0.00     0.004 A 
ATOM     13  C   UNL A   1      34.468  22.734  24.266  1.00  0.00     0.056 A 
ATOM     14  C   UNL A   1      35.772  24.324  25.556  1.00  0.00     0.010 A 
ATOM     15  C   UNL A   1      35.663  22.068  23.916  1.00  0.00     0.027 A 
ATOM     16  C   UNL A   1      36.935  23.613  25.270  1.00  0.00     0.001 A 
ATOM     17  C   UNL A   1      36.880  22.502  24.448  1.00  0.00     0.002 A 
BRANCH  11  18
ATOM     18  C   UNL A   1      32.584  21.336  23.299  1.00  0.00     0.262 C 
ATOM     19  O   UNL A   1      32.153  21.469  22.158  1.00  0.00    -0.268 OA
BRANCH  18  20
ATOM     20  C   UNL A   1      32.553  19.965  23.841  1.00  0.00     0.040 A 
ATOM     21  C   UNL A   1      32.661  19.712  25.214  1.00  0.00     0.015 A 
ATOM     22  C   UNL A   1      32.462  18.910  22.924  1.00  0.00     0.015 A 
ATOM     23  C   UNL A   1      32.788  18.392  25.656  1.00  0.00     0.021 A 
ATOM     24  C   UNL A   1      32.580  17.596  23.374  1.00  0.00     0.021 A 
ATOM     25  C   UNL A   1      32.769  17.343  24.732  1.00  0.00     0.041 A 
ATOM     26  Cl  UNL A   1      33.017  15.727  25.263  1.00  0.00    -0.084 Cl
ENDBRANCH  18  20
ENDBRANCH  11  18
ENDBRANCH   7   8
ENDBRANCH   4   7
ENDBRANCH   2   3
ENDBRANCH   1   2
BRANCH   1  27
ATOM     27  C   UNL A   1      34.325  30.127  27.269  1.00  0.00     0.023 C 
BRANCH  27  28
ATOM     28  C   UNL A   1      34.754  31.536  27.686  1.00  0.00     0.116 C 
BRANCH  28  29
ATOM     29  N   UNL A   1      34.488  31.827  29.080  1.00  0.00    -0.352 N 
ATOM     30  C   UNL A   1      35.229  31.802  30.227  1.00  0.00     0.251 C 
ATOM     31  H   UNL A   1      33.558  32.110  29.237  1.00  0.00     0.163 HD
ATOM     32  O   UNL A   1      34.680  32.272  31.226  1.00  0.00    -0.269 OA
BRANCH  30  33
ATOM     33  C   UNL A   1      36.577  31.189  30.358  1.00  0.00     0.039 A 
ATOM     34  C   UNL A   1      37.776  31.891  30.469  1.00  0.00     0.014 A 
ATOM     35  C   UNL A   1      36.619  29.784  30.276  1.00  0.00     0.014 A 
ATOM     36  C   UNL A   1      38.989  31.228  30.370  1.00  0.00     0.010 A 
ATOM     37  C   UNL A   1      37.829  29.112  30.196  1.00  0.00     0.010 A 
ATOM     38  C   UNL A   1      39.008  29.847  30.177  1.00  0.00    -0.014 A 
BRANCH  38  39
ATOM     39  C   UNL A   1      40.309  29.210  30.039  1.00  0.00     0.031 A 
ATOM     40  C   UNL A   1      41.023  28.987  31.329  1.00  0.00     0.074 A 
ATOM     41  C   UNL A   1      40.771  28.785  28.845  1.00  0.00     0.049 A 
ATOM     42  N   UNL A   1      42.164  29.467  31.707  1.00  0.00    -0.248 NA
ATOM     43  C   UNL A   1      40.304  28.253  32.385  1.00  0.00     0.031 C 
ATOM     44  C   UNL A   1      40.047  28.716  27.572  1.00  0.00     0.029 A 
ATOM     45  N   UNL A   1      41.955  28.180  28.551  1.00  0.00    -0.354 N 
ATOM     46  C   UNL A   1      42.405  28.914  32.965  1.00  0.00     0.074 A 
ATOM     47  C   UNL A   1      41.170  28.311  33.396  1.00  0.00     0.031 C 
ATOM     48  C   UNL A   1      40.687  27.860  26.744  1.00  0.00     0.029 A 
ATOM     49  C   UNL A   1      41.923  27.434  27.374  1.00  0.00     0.049 A 
ATOM     50  H   UNL A   1      42.756  28.260  29.117  1.00  0.00     0.167 HD
ATOM     51  C   UNL A   1      43.659  28.784  33.476  1.00  0.00     0.034 A 
ATOM     52  C   UNL A   1      42.802  26.463  27.018  1.00  0.00     0.034 A 
ATOM     53  C   UNL A   1      44.617  29.601  32.792  1.00  0.00     0.049 A 
ATOM     54  C   UNL A   1      44.026  26.675  27.827  1.00  0.00     0.074 A 
ATOM     55  C   UNL A   1      44.780  30.956  32.597  1.00  0.00     0.029 A 
ATOM     56  N   UNL A   1      45.399  28.984  31.848  1.00  0.00    -0.354 N 
ATOM     57  N   UNL A   1      44.801  27.715  27.710  1.00  0.00    -0.248 NA
ATOM     58  C   UNL A   1      44.151  25.930  29.070  1.00  0.00     0.031 C 
ATOM     59  C   UNL A   1      45.249  31.077  31.258  1.00  0.00     0.029 A 
ATOM     60  C   UNL A   1      45.402  29.789  30.742  1.00  0.00     0.049 A 
ATOM     61  H   UNL A   1      45.868  28.124  31.948  1.00  0.00     0.167 HD
ATOM     62  C   UNL A   1      45.173  28.013  29.014  1.00  0.00     0.074 A 
ATOM     63  C   UNL A   1      44.821  26.830  29.794  1.00  0.00     0.031 C 
ATOM     64  C   UNL A   1      45.462  29.291  29.388  1.00  0.00     0.034 A 
BRANCH  51  65
ATOM     65  C   UNL A   1      44.082  27.649  34.368  1.00  0.00     0.023 A 
ATOM     66  C   UNL A   1      44.840  27.942  35.520  1.00  0.00     0.012 A 
ATOM     67  C   UNL A   1      43.997  26.294  33.971  1.00  0.00     0.148 A 
ATOM     68  C   UNL A   1      45.489  26.932  36.240  1.00  0.00     0.002 A 
ATOM     69  C   UNL A   1      44.584  25.289  34.729  1.00  0.00     0.091 A 
ATOM     70  F   UNL A   1      43.462  25.986  32.785  1.00  0.00    -0.205 F 
ATOM     71  C   UNL A   1      45.349  25.603  35.853  1.00  0.00     0.022 A 
BRANCH  69  72
ATOM     72  S   UNL A   1      44.410  23.558  34.279  1.00  0.00     0.127 S 
ATOM     73  O   UNL A   1      45.052  23.534  32.964  1.00  0.00    -0.237 OA
ATOM     74  O   UNL A   1      45.168  22.897  35.346  1.00  0.00    -0.237 OA
ATOM     75  O   UNL A   1      42.985  23.291  34.305  1.00  0.00    -0.744 OA
ENDBRANCH  69  72
ENDBRANCH  51  65
BRANCH  52  76
ATOM     76  C   UNL A   1      42.572  25.178  26.304  1.00  0.00     0.023 A 
ATOM     77  C   UNL A   1      43.375  24.869  25.184  1.00  0.00     0.012 A 
ATOM     78  C   UNL A   1      41.814  24.134  26.878  1.00  0.00     0.148 A 
ATOM     79  C   UNL A   1      43.473  23.559  24.697  1.00  0.00     0.002 A 
ATOM     80  C   UNL A   1      41.904  22.834  26.382  1.00  0.00     0.091 A 
ATOM     81  F   UNL A   1      41.083  24.383  27.971  1.00  0.00    -0.205 F 
ATOM     82  C   UNL A   1      42.748  22.539  25.305  1.00  0.00     0.022 A 
BRANCH  80  83
ATOM     83  S   UNL A   1      41.001  21.467  27.124  1.00  0.00     0.127 S 
ATOM     84  O   UNL A   1      39.939  21.234  26.143  1.00  0.00    -0.237 OA
ATOM     85  O   UNL A   1      42.021  20.424  27.179  1.00  0.00    -0.237 OA
ATOM     86  O   UNL A   1      40.525  21.961  28.409  1.00  0.00    -0.744 OA
ENDBRANCH  80  83
ENDBRANCH  52  76
BRANCH  64  87
ATOM     87  C   UNL A   1      45.620  30.328  28.311  1.00  0.00     0.023 A 
ATOM     88  C   UNL A   1      44.521  30.976  27.709  1.00  0.00     0.012 A 
ATOM     89  C   UNL A   1      46.917  30.795  28.052  1.00  0.00     0.148 A 
ATOM     90  C   UNL A   1      44.718  32.070  26.861  1.00  0.00     0.002 A 
ATOM     91  C   UNL A   1      47.108  31.904  27.242  1.00  0.00     0.091 A 
ATOM     92  F   UNL A   1      47.944  30.165  28.644  1.00  0.00    -0.205 F 
ATOM     93  C   UNL A   1      46.011  32.543  26.640  1.00  0.00     0.022 A 
BRANCH  91  94
ATOM     94  S   UNL A   1      48.731  32.628  27.010  1.00  0.00     0.127 S 
ATOM     95  O   UNL A   1      49.470  31.527  26.395  1.00  0.00    -0.237 OA
ATOM     96  O   UNL A   1      48.446  33.750  26.113  1.00  0.00    -0.237 OA
ATOM     97  O   UNL A   1      49.192  33.025  28.335  1.00  0.00    -0.744 OA
ENDBRANCH  91  94
ENDBRANCH  64  87
ENDBRANCH  38  39
ENDBRANCH  30  33
ENDBRANCH  28  29
ENDBRANCH  27  28
ENDBRANCH   1  27
TORSDOF 17
ENDMDL
