MODEL 1
REMARK VINA RESULT:     -13.2      0.000      0.000
REMARK SMILES O=C(NCCCCNC(=O)c1ccccc1Nc1cccc(S(F)(F)(F)(F)F)c1)c1ccc(-c2c3nc(c(-c4cccc(S(=O)(=O)[O-])c4F)c4ccc([nH]4)c(-c4cccc(S(=O)(=O)[O-])c4F)c4nc(c(-c5cccc(S(=O)(=O)[O-])c5F)c5ccc2[nH]5)C=C4)C=C3)cc1
REMARK SMILES IDX 5 1 4 2 3 3 1 4 2 5 30 7 31 8 92 9 32 10 91 11 33 12 34 13
REMARK SMILES IDX 35 14 85 15 36 16 90 17 84 18 86 19 37 20 89 21 83 22 82 23
REMARK SMILES IDX 38 25 70 26 50 27 69 28 51 29 54 30 68 31 87 32 52 33 53 34
REMARK SMILES IDX 67 36 88 37 55 38 39 39 40 40 48 41 41 42 43 43 49 44 42 45
REMARK SMILES IDX 44 46 45 47 46 48 47 49 71 50 72 51 80 52 73 53 75 54 81 55
REMARK SMILES IDX 74 56 76 57 77 58 78 59 79 60 56 61 57 62 65 63 58 64 60 65
REMARK SMILES IDX 66 66 59 67 61 68 62 69 63 70 64 71 6 72 7 73 8 74 9 75
REMARK SMILES IDX 10 77 11 78 12 79 16 80 13 81 15 82 14 83 17 84 18 86 19 87
REMARK SMILES IDX 29 88 20 89 22 90 21 91 23 92 24 93 25 94 26 95 27 96 28 97
REMARK H PARENT 3 6 86 24 54 35 8 76 17 85
REMARK Flexibility Score: inf
ROOT
ATOM      1  C   UNL A   1      31.708  31.526  26.849  1.00  0.00     0.023 C 
ENDROOT
BRANCH   1   2
ATOM      2  C   UNL A   1      32.867  32.500  26.979  1.00  0.00     0.116 C 
BRANCH   2   3
ATOM      3  N   UNL A   1      32.358  33.817  27.387  1.00  0.00    -0.352 N 
ATOM      4  O   UNL A   1      32.570  35.690  28.833  1.00  0.00    -0.269 OA
ATOM      5  C   UNL A   1      33.010  34.551  28.480  1.00  0.00     0.251 C 
ATOM      6  H   UNL A   1      31.580  34.208  26.928  1.00  0.00     0.163 HD
BRANCH   5   7
ATOM      7  C   UNL A   1      34.213  33.948  29.189  1.00  0.00     0.039 A 
ATOM      8  C   UNL A   1      35.489  34.332  28.809  1.00  0.00     0.014 A 
ATOM      9  C   UNL A   1      34.020  33.066  30.163  1.00  0.00     0.014 A 
ATOM     10  C   UNL A   1      36.514  33.505  29.325  1.00  0.00     0.010 A 
ATOM     11  C   UNL A   1      35.083  32.393  30.716  1.00  0.00     0.010 A 
ATOM     12  C   UNL A   1      36.367  32.679  30.345  1.00  0.00    -0.014 A 
BRANCH  12  13
ATOM     13  C   UNL A   1      37.562  32.078  31.068  1.00  0.00     0.031 A 
ATOM     14  C   UNL A   1      37.930  32.629  32.297  1.00  0.00     0.074 A 
ATOM     15  C   UNL A   1      38.220  31.018  30.467  1.00  0.00     0.049 A 
ATOM     16  N   UNL A   1      38.917  32.235  33.102  1.00  0.00    -0.248 NA
ATOM     17  C   UNL A   1      37.254  33.776  32.921  1.00  0.00     0.031 C 
ATOM     18  C   UNL A   1      37.849  30.452  29.232  1.00  0.00     0.029 A 
ATOM     19  N   UNL A   1      39.321  30.334  30.931  1.00  0.00    -0.354 N 
ATOM     20  C   UNL A   1      38.949  32.994  34.199  1.00  0.00     0.074 A 
ATOM     21  C   UNL A   1      37.883  34.000  34.095  1.00  0.00     0.031 C 
ATOM     22  C   UNL A   1      38.722  29.448  28.950  1.00  0.00     0.029 A 
ATOM     23  C   UNL A   1      39.651  29.370  30.004  1.00  0.00     0.049 A 
ATOM     24  H   UNL A   1      39.790  30.504  31.779  1.00  0.00     0.167 HD
ATOM     25  C   UNL A   1      39.822  32.886  35.282  1.00  0.00     0.034 A 
ATOM     26  C   UNL A   1      40.700  28.466  30.057  1.00  0.00     0.034 A 
ATOM     27  C   UNL A   1      40.845  31.953  35.355  1.00  0.00     0.049 A 
ATOM     28  C   UNL A   1      41.611  28.396  31.114  1.00  0.00     0.074 A 
ATOM     29  C   UNL A   1      41.729  31.826  36.442  1.00  0.00     0.029 A 
ATOM     30  N   UNL A   1      41.189  31.005  34.416  1.00  0.00    -0.354 N 
ATOM     31  N   UNL A   1      41.617  29.129  32.228  1.00  0.00    -0.248 NA
ATOM     32  C   UNL A   1      42.745  27.464  31.165  1.00  0.00     0.031 C 
ATOM     33  C   UNL A   1      42.601  30.821  36.161  1.00  0.00     0.029 A 
ATOM     34  C   UNL A   1      42.277  30.306  34.892  1.00  0.00     0.049 A 
ATOM     35  H   UNL A   1      40.737  30.854  33.555  1.00  0.00     0.167 HD
ATOM     36  C   UNL A   1      42.631  28.761  33.014  1.00  0.00     0.074 A 
ATOM     37  C   UNL A   1      43.375  27.690  32.338  1.00  0.00     0.031 C 
ATOM     38  C   UNL A   1      42.963  29.274  34.270  1.00  0.00     0.034 A 
BRANCH  25  39
ATOM     39  C   UNL A   1      39.642  33.845  36.447  1.00  0.00     0.023 A 
ATOM     40  C   UNL A   1      40.065  35.154  36.293  1.00  0.00     0.012 A 
ATOM     41  C   UNL A   1      39.077  33.432  37.576  1.00  0.00     0.148 A 
ATOM     42  C   UNL A   1      40.111  35.889  37.501  1.00  0.00     0.002 A 
ATOM     43  C   UNL A   1      39.036  34.252  38.678  1.00  0.00     0.091 A 
ATOM     44  F   UNL A   1      38.547  32.214  37.641  1.00  0.00    -0.205 F 
ATOM     45  C   UNL A   1      39.490  35.540  38.613  1.00  0.00     0.022 A 
BRANCH  43  46
ATOM     46  S   UNL A   1      38.370  33.619  40.237  1.00  0.00     0.127 S 
ATOM     47  O   UNL A   1      39.219  32.437  40.712  1.00  0.00    -0.237 OA
ATOM     48  O   UNL A   1      38.400  34.726  41.293  1.00  0.00    -0.237 OA
ATOM     49  O   UNL A   1      36.757  33.102  39.999  1.00  0.00    -0.744 OA
ENDBRANCH  43  46
ENDBRANCH  25  39
BRANCH  26  50
ATOM     50  C   UNL A   1      40.869  27.496  28.899  1.00  0.00     0.023 A 
ATOM     51  C   UNL A   1      40.165  26.304  28.939  1.00  0.00     0.012 A 
ATOM     52  C   UNL A   1      41.664  27.793  27.877  1.00  0.00     0.148 A 
ATOM     53  C   UNL A   1      40.593  25.353  27.982  1.00  0.00     0.002 A 
ATOM     54  C   UNL A   1      41.929  26.859  26.904  1.00  0.00     0.091 A 
ATOM     55  F   UNL A   1      42.206  29.004  27.795  1.00  0.00    -0.205 F 
ATOM     56  C   UNL A   1      41.315  25.639  26.915  1.00  0.00     0.022 A 
BRANCH  54  57
ATOM     57  S   UNL A   1      43.112  27.253  25.592  1.00  0.00     0.127 S 
ATOM     58  O   UNL A   1      43.570  25.960  24.912  1.00  0.00    -0.237 OA
ATOM     59  O   UNL A   1      42.443  28.162  24.558  1.00  0.00    -0.237 OA
ATOM     60  O   UNL A   1      44.465  28.054  26.263  1.00  0.00    -0.744 OA
ENDBRANCH  54  57
ENDBRANCH  26  50
BRANCH  38  61
ATOM     61  C   UNL A   1      44.148  28.663  35.000  1.00  0.00     0.023 A 
ATOM     62  C   UNL A   1      45.430  29.077  34.677  1.00  0.00     0.012 A 
ATOM     63  C   UNL A   1      43.935  27.746  35.935  1.00  0.00     0.148 A 
ATOM     64  C   UNL A   1      46.449  28.247  35.202  1.00  0.00     0.002 A 
ATOM     65  C   UNL A   1      44.987  27.068  36.502  1.00  0.00     0.091 A 
ATOM     66  F   UNL A   1      42.692  27.480  36.326  1.00  0.00    -0.205 F 
ATOM     67  C   UNL A   1      46.279  27.384  36.187  1.00  0.00     0.022 A 
BRANCH  65  68
ATOM     68  S   UNL A   1      44.657  25.739  37.685  1.00  0.00     0.127 S 
ATOM     69  O   UNL A   1      43.501  24.876  37.173  1.00  0.00    -0.237 OA
ATOM     70  O   UNL A   1      45.910  24.873  37.843  1.00  0.00    -0.237 OA
ATOM     71  O   UNL A   1      44.236  26.413  39.199  1.00  0.00    -0.744 OA
ENDBRANCH  65  68
ENDBRANCH  38  61
ENDBRANCH  12  13
ENDBRANCH   5   7
ENDBRANCH   2   3
ENDBRANCH   1   2
BRANCH   1  72
ATOM     72  C   UNL A   1      32.231  30.102  26.942  1.00  0.00     0.023 C 
BRANCH  72  73
ATOM     73  C   UNL A   1      31.918  29.361  25.651  1.00  0.00     0.116 C 
BRANCH  73  74
ATOM     74  N   UNL A   1      32.918  29.710  24.631  1.00  0.00    -0.352 N 
ATOM     75  C   UNL A   1      33.451  28.671  23.739  1.00  0.00     0.253 C 
ATOM     76  H   UNL A   1      33.230  30.639  24.546  1.00  0.00     0.163 HD
ATOM     77  O   UNL A   1      34.315  28.973  22.857  1.00  0.00    -0.269 OA
BRANCH  75  78
ATOM     78  C   UNL A   1      32.969  27.235  23.870  1.00  0.00     0.063 A 
ATOM     79  C   UNL A   1      33.540  26.412  24.827  1.00  0.00     0.016 A 
ATOM     80  C   UNL A   1      32.010  26.794  23.066  1.00  0.00     0.051 A 
ATOM     81  C   UNL A   1      33.229  25.041  24.663  1.00  0.00     0.001 A 
ATOM     82  C   UNL A   1      31.663  25.465  23.054  1.00  0.00     0.027 A 
ATOM     83  C   UNL A   1      32.229  24.582  23.932  1.00  0.00     0.002 A 
BRANCH  80  84
ATOM     84  N   UNL A   1      31.312  27.736  22.178  1.00  0.00    -0.355 N 
ATOM     85  H   UNL A   1      31.680  27.938  21.287  1.00  0.00     0.167 HD
BRANCH  84  86
ATOM     86  C   UNL A   1      30.065  28.375  22.620  1.00  0.00     0.040 A 
ATOM     87  C   UNL A   1      29.009  27.589  23.051  1.00  0.00     0.026 A 
ATOM     88  C   UNL A   1      29.971  29.700  22.595  1.00  0.00     0.050 A 
ATOM     89  C   UNL A   1      27.783  28.287  23.166  1.00  0.00     0.004 A 
ATOM     90  C   UNL A   1      28.773  30.322  22.850  1.00  0.00     0.109 A 
ATOM     91  C   UNL A   1      27.673  29.601  23.225  1.00  0.00     0.024 A 
BRANCH  90  92
ATOM     92  S   UNL A   1      28.649  32.120  22.689  1.00  0.00     0.310 S 
ATOM     93  F   UNL A   1      27.247  32.145  23.430  1.00  0.00    -0.094 F 
ATOM     94  F   UNL A   1      27.856  31.930  21.341  1.00  0.00    -0.094 F 
ATOM     95  F   UNL A   1      28.542  33.667  22.567  1.00  0.00    -0.094 F 
ATOM     96  F   UNL A   1      29.319  32.287  24.110  1.00  0.00    -0.094 F 
ATOM     97  F   UNL A   1      28.665  30.551  22.883  1.00  0.00    -0.094 F 
ENDBRANCH  90  92
ENDBRANCH  84  86
ENDBRANCH  80  84
ENDBRANCH  75  78
ENDBRANCH  73  74
ENDBRANCH  72  73
ENDBRANCH   1  72
TORSDOF 17
ENDMDL
MODEL 2
REMARK VINA RESULT:     -13.0      0.514      7.582
REMARK SMILES O=C(NCCCCNC(=O)c1ccccc1Nc1cccc(S(F)(F)(F)(F)F)c1)c1ccc(-c2c3nc(c(-c4cccc(S(=O)(=O)[O-])c4F)c4ccc([nH]4)c(-c4cccc(S(=O)(=O)[O-])c4F)c4nc(c(-c5cccc(S(=O)(=O)[O-])c5F)c5ccc2[nH]5)C=C4)C=C3)cc1
REMARK SMILES IDX 5 1 4 2 3 3 1 4 2 5 30 7 31 8 92 9 32 10 91 11 33 12 34 13
REMARK SMILES IDX 35 14 85 15 36 16 90 17 84 18 86 19 37 20 89 21 83 22 82 23
REMARK SMILES IDX 38 25 70 26 50 27 69 28 51 29 54 30 68 31 87 32 52 33 53 34
REMARK SMILES IDX 67 36 88 37 55 38 39 39 40 40 48 41 41 42 43 43 49 44 42 45
REMARK SMILES IDX 44 46 45 47 46 48 47 49 71 50 72 51 80 52 73 53 75 54 81 55
REMARK SMILES IDX 74 56 76 57 77 58 78 59 79 60 56 61 57 62 65 63 58 64 60 65
REMARK SMILES IDX 66 66 59 67 61 68 62 69 63 70 64 71 6 72 7 73 8 74 9 75
REMARK SMILES IDX 10 77 11 78 12 79 16 80 13 81 15 82 14 83 17 84 18 86 19 87
REMARK SMILES IDX 29 88 20 89 22 90 21 91 23 92 24 93 25 94 26 95 27 96 28 97
REMARK H PARENT 3 6 86 24 54 35 8 76 17 85
REMARK Flexibility Score: inf
ROOT
ATOM      1  C   UNL A   1      31.573  31.409  26.931  1.00  0.00     0.023 C 
ENDROOT
BRANCH   1   2
ATOM      2  C   UNL A   1      32.786  32.325  26.931  1.00  0.00     0.116 C 
BRANCH   2   3
ATOM      3  N   UNL A   1      32.380  33.675  27.347  1.00  0.00    -0.352 N 
ATOM      4  O   UNL A   1      32.772  35.539  28.767  1.00  0.00    -0.269 OA
ATOM      5  C   UNL A   1      33.122  34.371  28.408  1.00  0.00     0.251 C 
ATOM      6  H   UNL A   1      31.613  34.113  26.915  1.00  0.00     0.163 HD
BRANCH   5   7
ATOM      7  C   UNL A   1      34.309  33.695  29.075  1.00  0.00     0.039 A 
ATOM      8  C   UNL A   1      34.084  32.721  30.035  1.00  0.00     0.014 A 
ATOM      9  C   UNL A   1      35.541  34.047  28.726  1.00  0.00     0.014 A 
ATOM     10  C   UNL A   1      35.235  32.378  30.784  1.00  0.00     0.010 A 
ATOM     11  C   UNL A   1      36.627  33.566  29.416  1.00  0.00     0.010 A 
ATOM     12  C   UNL A   1      36.474  32.646  30.416  1.00  0.00    -0.014 A 
BRANCH  12  13
ATOM     13  C   UNL A   1      37.668  31.968  31.069  1.00  0.00     0.031 A 
ATOM     14  C   UNL A   1      38.250  30.885  30.408  1.00  0.00     0.074 A 
ATOM     15  C   UNL A   1      38.112  32.463  32.284  1.00  0.00     0.049 A 
ATOM     16  N   UNL A   1      39.314  30.176  30.788  1.00  0.00    -0.248 NA
ATOM     17  C   UNL A   1      37.760  30.337  29.134  1.00  0.00     0.031 C 
ATOM     18  C   UNL A   1      37.536  33.560  32.952  1.00  0.00     0.029 A 
ATOM     19  N   UNL A   1      39.158  32.003  33.053  1.00  0.00    -0.354 N 
ATOM     20  C   UNL A   1      39.583  29.229  29.887  1.00  0.00     0.074 A 
ATOM     21  C   UNL A   1      38.584  29.315  28.813  1.00  0.00     0.031 C 
ATOM     22  C   UNL A   1      38.217  33.752  34.113  1.00  0.00     0.029 A 
ATOM     23  C   UNL A   1      39.230  32.778  34.189  1.00  0.00     0.049 A 
ATOM     24  H   UNL A   1      39.751  31.250  32.829  1.00  0.00     0.167 HD
ATOM     25  C   UNL A   1      40.624  28.300  29.916  1.00  0.00     0.034 A 
ATOM     26  C   UNL A   1      40.122  32.657  35.242  1.00  0.00     0.034 A 
ATOM     27  C   UNL A   1      41.542  28.207  30.950  1.00  0.00     0.049 A 
ATOM     28  C   UNL A   1      41.127  31.689  35.301  1.00  0.00     0.074 A 
ATOM     29  C   UNL A   1      42.601  27.281  30.993  1.00  0.00     0.029 A 
ATOM     30  N   UNL A   1      41.600  28.967  32.098  1.00  0.00    -0.354 N 
ATOM     31  N   UNL A   1      41.421  30.769  34.381  1.00  0.00    -0.248 NA
ATOM     32  C   UNL A   1      42.056  31.531  36.428  1.00  0.00     0.031 C 
ATOM     33  C   UNL A   1      43.284  27.473  32.153  1.00  0.00     0.029 A 
ATOM     34  C   UNL A   1      42.660  28.522  32.856  1.00  0.00     0.049 A 
ATOM     35  H   UNL A   1      40.989  29.702  32.336  1.00  0.00     0.167 HD
ATOM     36  C   UNL A   1      42.460  30.034  34.781  1.00  0.00     0.074 A 
ATOM     37  C   UNL A   1      42.879  30.510  36.107  1.00  0.00     0.031 C 
ATOM     38  C   UNL A   1      43.077  28.988  34.093  1.00  0.00     0.034 A 
BRANCH  25  39
ATOM     39  C   UNL A   1      40.758  27.335  28.750  1.00  0.00     0.023 A 
ATOM     40  C   UNL A   1      39.969  26.197  28.744  1.00  0.00     0.012 A 
ATOM     41  C   UNL A   1      41.600  27.594  27.757  1.00  0.00     0.148 A 
ATOM     42  C   UNL A   1      40.354  25.237  27.778  1.00  0.00     0.002 A 
ATOM     43  C   UNL A   1      41.828  26.664  26.771  1.00  0.00     0.091 A 
ATOM     44  F   UNL A   1      42.232  28.765  27.716  1.00  0.00    -0.205 F 
ATOM     45  C   UNL A   1      41.126  25.491  26.737  1.00  0.00     0.022 A 
BRANCH  43  46
ATOM     46  S   UNL A   1      43.071  26.996  25.499  1.00  0.00     0.127 S 
ATOM     47  O   UNL A   1      43.377  25.705  24.735  1.00  0.00    -0.237 OA
ATOM     48  O   UNL A   1      42.539  28.051  24.527  1.00  0.00    -0.237 OA
ATOM     49  O   UNL A   1      44.501  27.573  26.239  1.00  0.00    -0.744 OA
ENDBRANCH  43  46
ENDBRANCH  25  39
BRANCH  26  50
ATOM     50  C   UNL A   1      39.998  33.633  36.402  1.00  0.00     0.023 A 
ATOM     51  C   UNL A   1      40.580  34.883  36.266  1.00  0.00     0.012 A 
ATOM     52  C   UNL A   1      39.342  33.295  37.506  1.00  0.00     0.148 A 
ATOM     53  C   UNL A   1      40.664  35.611  37.477  1.00  0.00     0.002 A 
ATOM     54  C   UNL A   1      39.354  34.118  38.605  1.00  0.00     0.091 A 
ATOM     55  F   UNL A   1      38.669  32.149  37.546  1.00  0.00    -0.205 F 
ATOM     56  C   UNL A   1      39.961  35.342  38.561  1.00  0.00     0.022 A 
BRANCH  54  57
ATOM     57  S   UNL A   1      38.554  33.573  40.135  1.00  0.00     0.127 S 
ATOM     58  O   UNL A   1      38.629  34.691  41.178  1.00  0.00    -0.237 OA
ATOM     59  O   UNL A   1      37.087  33.238  39.852  1.00  0.00    -0.237 OA
ATOM     60  O   UNL A   1      39.350  32.182  40.731  1.00  0.00    -0.744 OA
ENDBRANCH  54  57
ENDBRANCH  26  50
BRANCH  38  61
ATOM     61  C   UNL A   1      44.280  28.320  34.739  1.00  0.00     0.023 A 
ATOM     62  C   UNL A   1      45.539  28.871  34.561  1.00  0.00     0.012 A 
ATOM     63  C   UNL A   1      44.105  27.222  35.464  1.00  0.00     0.148 A 
ATOM     64  C   UNL A   1      46.598  28.020  34.955  1.00  0.00     0.002 A 
ATOM     65  C   UNL A   1      45.186  26.513  35.932  1.00  0.00     0.091 A 
ATOM     66  F   UNL A   1      42.873  26.805  35.740  1.00  0.00    -0.205 F 
ATOM     67  C   UNL A   1      46.461  26.968  35.742  1.00  0.00     0.022 A 
BRANCH  65  68
ATOM     68  S   UNL A   1      44.916  24.955  36.813  1.00  0.00     0.127 S 
ATOM     69  O   UNL A   1      46.263  24.273  37.066  1.00  0.00    -0.237 OA
ATOM     70  O   UNL A   1      44.228  25.239  38.150  1.00  0.00    -0.237 OA
ATOM     71  O   UNL A   1      43.927  23.930  35.868  1.00  0.00    -0.744 OA
ENDBRANCH  65  68
ENDBRANCH  38  61
ENDBRANCH  12  13
ENDBRANCH   5   7
ENDBRANCH   2   3
ENDBRANCH   1   2
BRANCH   1  72
ATOM     72  C   UNL A   1      31.606  30.525  25.695  1.00  0.00     0.023 C 
BRANCH  72  73
ATOM     73  C   UNL A   1      32.877  29.692  25.701  1.00  0.00     0.116 C 
BRANCH  73  74
ATOM     74  N   UNL A   1      33.499  29.736  24.370  1.00  0.00    -0.352 N 
ATOM     75  C   UNL A   1      33.632  28.504  23.580  1.00  0.00     0.253 C 
ATOM     76  H   UNL A   1      33.827  30.590  24.008  1.00  0.00     0.163 HD
ATOM     77  O   UNL A   1      34.170  28.542  22.429  1.00  0.00    -0.269 OA
BRANCH  75  78
ATOM     78  C   UNL A   1      33.126  27.183  24.139  1.00  0.00     0.063 A 
ATOM     79  C   UNL A   1      33.778  26.608  25.217  1.00  0.00     0.016 A 
ATOM     80  C   UNL A   1      32.070  26.603  23.584  1.00  0.00     0.051 A 
ATOM     81  C   UNL A   1      33.411  25.263  25.458  1.00  0.00     0.001 A 
ATOM     82  C   UNL A   1      31.685  25.340  23.962  1.00  0.00     0.027 A 
ATOM     83  C   UNL A   1      32.321  24.687  24.982  1.00  0.00     0.002 A 
BRANCH  80  84
ATOM     84  N   UNL A   1      31.303  27.318  22.553  1.00  0.00    -0.355 N 
ATOM     85  H   UNL A   1      31.622  27.329  21.621  1.00  0.00     0.167 HD
BRANCH  84  86
ATOM     86  C   UNL A   1      30.060  28.015  22.912  1.00  0.00     0.040 A 
ATOM     87  C   UNL A   1      28.975  27.286  23.369  1.00  0.00     0.026 A 
ATOM     88  C   UNL A   1      29.999  29.336  22.788  1.00  0.00     0.050 A 
ATOM     89  C   UNL A   1      27.764  28.018  23.398  1.00  0.00     0.004 A 
ATOM     90  C   UNL A   1      28.810  30.002  22.964  1.00  0.00     0.109 A 
ATOM     91  C   UNL A   1      27.684  29.335  23.360  1.00  0.00     0.024 A 
BRANCH  90  92
ATOM     92  S   UNL A   1      28.734  31.786  22.670  1.00  0.00     0.310 S 
ATOM     93  F   UNL A   1      27.232  31.861  23.175  1.00  0.00    -0.094 F 
ATOM     94  F   UNL A   1      28.163  31.509  21.228  1.00  0.00    -0.094 F 
ATOM     95  F   UNL A   1      28.665  33.321  22.433  1.00  0.00    -0.094 F 
ATOM     96  F   UNL A   1      29.172  32.044  24.166  1.00  0.00    -0.094 F 
ATOM     97  F   UNL A   1      28.701  30.233  22.964  1.00  0.00    -0.094 F 
ENDBRANCH  90  92
ENDBRANCH  84  86
ENDBRANCH  80  84
ENDBRANCH  75  78
ENDBRANCH  73  74
ENDBRANCH  72  73
ENDBRANCH   1  72
TORSDOF 17
ENDMDL
MODEL 3
REMARK VINA RESULT:     -13.0      6.887     10.613
REMARK SMILES O=C(NCCCCNC(=O)c1ccccc1Nc1cccc(S(F)(F)(F)(F)F)c1)c1ccc(-c2c3nc(c(-c4cccc(S(=O)(=O)[O-])c4F)c4ccc([nH]4)c(-c4cccc(S(=O)(=O)[O-])c4F)c4nc(c(-c5cccc(S(=O)(=O)[O-])c5F)c5ccc2[nH]5)C=C4)C=C3)cc1
REMARK SMILES IDX 5 1 4 2 3 3 1 4 2 5 30 7 31 8 92 9 32 10 91 11 33 12 34 13
REMARK SMILES IDX 35 14 85 15 36 16 90 17 84 18 86 19 37 20 89 21 83 22 82 23
REMARK SMILES IDX 38 25 70 26 50 27 69 28 51 29 54 30 68 31 87 32 52 33 53 34
REMARK SMILES IDX 67 36 88 37 55 38 39 39 40 40 48 41 41 42 43 43 49 44 42 45
REMARK SMILES IDX 44 46 45 47 46 48 47 49 71 50 72 51 80 52 73 53 75 54 81 55
REMARK SMILES IDX 74 56 76 57 77 58 78 59 79 60 56 61 57 62 65 63 58 64 60 65
REMARK SMILES IDX 66 66 59 67 61 68 62 69 63 70 64 71 6 72 7 73 8 74 9 75
REMARK SMILES IDX 10 77 11 78 12 79 16 80 13 81 15 82 14 83 17 84 18 86 19 87
REMARK SMILES IDX 29 88 20 89 22 90 21 91 23 92 24 93 25 94 26 95 27 96 28 97
REMARK H PARENT 3 6 86 24 54 35 8 76 17 85
REMARK Flexibility Score: inf
ROOT
ATOM      1  C   UNL A   1      37.998  20.124  25.004  1.00  0.00     0.023 C 
ENDROOT
BRANCH   1   2
ATOM      2  C   UNL A   1      39.131  20.329  25.996  1.00  0.00     0.116 C 
BRANCH   2   3
ATOM      3  N   UNL A   1      40.079  19.210  25.895  1.00  0.00    -0.352 N 
ATOM      4  O   UNL A   1      42.337  18.477  26.000  1.00  0.00    -0.269 OA
ATOM      5  C   UNL A   1      41.517  19.445  26.087  1.00  0.00     0.251 C 
ATOM      6  H   UNL A   1      39.751  18.303  25.701  1.00  0.00     0.163 HD
BRANCH   5   7
ATOM      7  C   UNL A   1      42.025  20.846  26.389  1.00  0.00     0.039 A 
ATOM      8  C   UNL A   1      42.259  21.215  27.704  1.00  0.00     0.014 A 
ATOM      9  C   UNL A   1      42.237  21.692  25.388  1.00  0.00     0.014 A 
ATOM     10  C   UNL A   1      42.444  22.606  27.885  1.00  0.00     0.010 A 
ATOM     11  C   UNL A   1      42.548  23.007  25.638  1.00  0.00     0.010 A 
ATOM     12  C   UNL A   1      42.736  23.454  26.917  1.00  0.00    -0.014 A 
BRANCH  12  13
ATOM     13  C   UNL A   1      43.254  24.854  27.206  1.00  0.00     0.031 A 
ATOM     14  C   UNL A   1      42.353  25.797  27.704  1.00  0.00     0.074 A 
ATOM     15  C   UNL A   1      44.592  25.116  26.960  1.00  0.00     0.049 A 
ATOM     16  N   UNL A   1      42.606  27.060  28.051  1.00  0.00    -0.248 NA
ATOM     17  C   UNL A   1      40.925  25.531  27.934  1.00  0.00     0.031 C 
ATOM     18  C   UNL A   1      45.509  24.167  26.468  1.00  0.00     0.029 A 
ATOM     19  N   UNL A   1      45.267  26.303  27.138  1.00  0.00    -0.354 N 
ATOM     20  C   UNL A   1      41.494  27.645  28.501  1.00  0.00     0.074 A 
ATOM     21  C   UNL A   1      40.396  26.672  28.426  1.00  0.00     0.031 C 
ATOM     22  C   UNL A   1      46.717  24.777  26.338  1.00  0.00     0.029 A 
ATOM     23  C   UNL A   1      46.575  26.116  26.749  1.00  0.00     0.049 A 
ATOM     24  H   UNL A   1      44.881  27.140  27.482  1.00  0.00     0.167 HD
ATOM     25  C   UNL A   1      41.353  28.951  28.973  1.00  0.00     0.034 A 
ATOM     26  C   UNL A   1      47.600  27.048  26.744  1.00  0.00     0.034 A 
ATOM     27  C   UNL A   1      42.389  29.871  29.008  1.00  0.00     0.049 A 
ATOM     28  C   UNL A   1      47.446  28.372  27.161  1.00  0.00     0.074 A 
ATOM     29  C   UNL A   1      42.267  31.189  29.487  1.00  0.00     0.029 A 
ATOM     30  N   UNL A   1      43.692  29.691  28.597  1.00  0.00    -0.354 N 
ATOM     31  N   UNL A   1      46.344  28.946  27.648  1.00  0.00    -0.248 NA
ATOM     32  C   UNL A   1      48.516  29.378  27.129  1.00  0.00     0.031 C 
ATOM     33  C   UNL A   1      43.475  31.799  29.359  1.00  0.00     0.029 A 
ATOM     34  C   UNL A   1      44.373  30.872  28.796  1.00  0.00     0.049 A 
ATOM     35  H   UNL A   1      44.071  28.862  28.225  1.00  0.00     0.167 HD
ATOM     36  C   UNL A   1      46.588  30.221  27.957  1.00  0.00     0.074 A 
ATOM     37  C   UNL A   1      47.987  30.519  27.621  1.00  0.00     0.031 C 
ATOM     38  C   UNL A   1      45.700  31.147  28.508  1.00  0.00     0.034 A 
BRANCH  25  39
ATOM     39  C   UNL A   1      39.988  29.389  29.475  1.00  0.00     0.023 A 
ATOM     40  C   UNL A   1      39.109  29.964  28.573  1.00  0.00     0.012 A 
ATOM     41  C   UNL A   1      39.649  29.206  30.746  1.00  0.00     0.148 A 
ATOM     42  C   UNL A   1      37.988  30.582  29.178  1.00  0.00     0.002 A 
ATOM     43  C   UNL A   1      38.474  29.721  31.238  1.00  0.00     0.091 A 
ATOM     44  F   UNL A   1      40.454  28.517  31.550  1.00  0.00    -0.205 F 
ATOM     45  C   UNL A   1      37.584  30.353  30.414  1.00  0.00     0.022 A 
BRANCH  43  46
ATOM     46  S   UNL A   1      38.097  29.561  33.001  1.00  0.00     0.127 S 
ATOM     47  O   UNL A   1      37.150  30.686  33.425  1.00  0.00    -0.237 OA
ATOM     48  O   UNL A   1      37.431  28.207  33.260  1.00  0.00    -0.237 OA
ATOM     49  O   UNL A   1      39.546  29.665  33.904  1.00  0.00    -0.744 OA
ENDBRANCH  43  46
ENDBRANCH  25  39
BRANCH  26  50
ATOM     50  C   UNL A   1      48.970  26.605  26.257  1.00  0.00     0.023 A 
ATOM     51  C   UNL A   1      49.730  25.802  27.092  1.00  0.00     0.012 A 
ATOM     52  C   UNL A   1      49.416  26.973  25.061  1.00  0.00     0.148 A 
ATOM     53  C   UNL A   1      51.081  25.674  26.690  1.00  0.00     0.002 A 
ATOM     54  C   UNL A   1      50.707  26.695  24.681  1.00  0.00     0.091 A 
ATOM     55  F   UNL A   1      48.606  27.615  24.226  1.00  0.00    -0.205 F 
ATOM     56  C   UNL A   1      51.533  25.957  25.482  1.00  0.00     0.022 A 
BRANCH  54  57
ATOM     57  S   UNL A   1      51.322  27.316  23.096  1.00  0.00     0.127 S 
ATOM     58  O   UNL A   1      50.435  26.793  21.963  1.00  0.00    -0.237 OA
ATOM     59  O   UNL A   1      51.291  28.847  23.102  1.00  0.00    -0.237 OA
ATOM     60  O   UNL A   1      52.928  26.780  22.857  1.00  0.00    -0.744 OA
ENDBRANCH  54  57
ENDBRANCH  26  50
BRANCH  38  61
ATOM     61  C   UNL A   1      46.222  32.542  28.812  1.00  0.00     0.023 A 
ATOM     62  C   UNL A   1      46.848  32.784  30.024  1.00  0.00     0.012 A 
ATOM     63  C   UNL A   1      46.071  33.505  27.911  1.00  0.00     0.148 A 
ATOM     64  C   UNL A   1      47.027  34.157  30.313  1.00  0.00     0.002 A 
ATOM     65  C   UNL A   1      46.394  34.806  28.217  1.00  0.00     0.091 A 
ATOM     66  F   UNL A   1      45.604  33.209  26.701  1.00  0.00    -0.205 F 
ATOM     67  C   UNL A   1      46.962  35.126  29.418  1.00  0.00     0.022 A 
BRANCH  65  68
ATOM     68  S   UNL A   1      46.063  36.113  27.009  1.00  0.00     0.127 S 
ATOM     69  O   UNL A   1      46.608  37.443  27.536  1.00  0.00    -0.237 OA
ATOM     70  O   UNL A   1      46.748  35.769  25.685  1.00  0.00    -0.237 OA
ATOM     71  O   UNL A   1      44.377  36.247  26.761  1.00  0.00    -0.744 OA
ENDBRANCH  65  68
ENDBRANCH  38  61
ENDBRANCH  12  13
ENDBRANCH   5   7
ENDBRANCH   2   3
ENDBRANCH   1   2
BRANCH   1  72
ATOM     72  C   UNL A   1      37.407  21.472  24.625  1.00  0.00     0.023 C 
BRANCH  72  73
ATOM     73  C   UNL A   1      35.897  21.431  24.799  1.00  0.00     0.116 C 
BRANCH  73  74
ATOM     74  N   UNL A   1      35.571  21.306  26.227  1.00  0.00    -0.352 N 
ATOM     75  C   UNL A   1      34.454  22.073  26.795  1.00  0.00     0.253 C 
ATOM     76  H   UNL A   1      36.101  20.709  26.802  1.00  0.00     0.163 HD
ATOM     77  O   UNL A   1      34.172  21.965  28.030  1.00  0.00    -0.269 OA
BRANCH  75  78
ATOM     78  C   UNL A   1      33.635  22.996  25.907  1.00  0.00     0.063 A 
ATOM     79  C   UNL A   1      34.122  24.258  25.606  1.00  0.00     0.016 A 
ATOM     80  C   UNL A   1      32.467  22.579  25.435  1.00  0.00     0.051 A 
ATOM     81  C   UNL A   1      33.161  25.121  25.029  1.00  0.00     0.001 A 
ATOM     82  C   UNL A   1      31.635  23.440  24.762  1.00  0.00     0.027 A 
ATOM     83  C   UNL A   1      32.028  24.720  24.481  1.00  0.00     0.002 A 
BRANCH  80  84
ATOM     84  N   UNL A   1      32.058  21.180  25.635  1.00  0.00    -0.355 N 
ATOM     85  H   UNL A   1      31.528  20.931  26.426  1.00  0.00     0.167 HD
BRANCH  84  86
ATOM     86  C   UNL A   1      32.440  20.156  24.653  1.00  0.00     0.040 A 
ATOM     87  C   UNL A   1      32.109  20.330  23.319  1.00  0.00     0.026 A 
ATOM     88  C   UNL A   1      33.094  19.076  25.064  1.00  0.00     0.050 A 
ATOM     89  C   UNL A   1      32.261  19.163  22.533  1.00  0.00     0.004 A 
ATOM     90  C   UNL A   1      33.327  18.029  24.205  1.00  0.00     0.109 A 
ATOM     91  C   UNL A   1      32.975  18.110  22.886  1.00  0.00     0.024 A 
BRANCH  90  92
ATOM     92  S   UNL A   1      34.114  16.523  24.827  1.00  0.00     0.310 S 
ATOM     93  F   UNL A   1      34.378  15.987  23.357  1.00  0.00    -0.094 F 
ATOM     94  F   UNL A   1      32.720  15.789  24.770  1.00  0.00    -0.094 F 
ATOM     95  F   UNL A   1      34.804  15.232  25.354  1.00  0.00    -0.094 F 
ATOM     96  F   UNL A   1      35.523  17.231  24.742  1.00  0.00    -0.094 F 
ATOM     97  F   UNL A   1      33.448  17.805  24.185  1.00  0.00    -0.094 F 
ENDBRANCH  90  92
ENDBRANCH  84  86
ENDBRANCH  80  84
ENDBRANCH  75  78
ENDBRANCH  73  74
ENDBRANCH  72  73
ENDBRANCH   1  72
TORSDOF 17
ENDMDL
