MODEL 1
REMARK VINA RESULT:     -12.4      0.000      0.000
REMARK SMILES Cc1[nH]ncc1S(=O)(=O)N1CC[C@@H](C(=O)NCCCCNC(=O)c2ccc(-c3c4nc(c(-c5cccc(S(=O)(=O)[O-])c5F)c5ccc([nH]5)c(-c5cccc(S(=O)(=O)[O-])c5F)c5nc(c(-c6cccc(S(=O)(=O)[O-])c6F)c6ccc3[nH]6)C=C5)C=C4)cc2)[C@@H]1C
REMARK SMILES IDX 19 1 18 2 17 3 16 4 14 5 15 6 13 8 10 9 11 10 87 11 12 12
REMARK SMILES IDX 88 13 7 14 8 15 9 16 6 17 1 18 2 19 3 20 4 21 5 23 20 24
REMARK SMILES IDX 21 25 22 26 23 28 24 29 25 30 86 31 26 32 85 33 27 34 28 35
REMARK SMILES IDX 29 36 79 37 30 38 84 39 78 40 80 41 31 42 83 43 77 44 76 45
REMARK SMILES IDX 32 47 64 48 44 49 63 50 45 51 48 52 62 53 81 54 46 55 47 56
REMARK SMILES IDX 61 58 82 59 49 60 33 61 34 62 42 63 35 64 37 65 43 66 36 67
REMARK SMILES IDX 38 68 39 69 40 70 41 71 65 72 66 73 74 74 67 75 69 76 75 77
REMARK SMILES IDX 68 78 70 79 71 80 72 81 73 82 50 83 51 84 59 85 52 86 54 87
REMARK SMILES IDX 60 88 53 89 55 90 56 91 57 92 58 93
REMARK H PARENT 16 7 3 22 21 27 80 46 48 57
REMARK Flexibility Score: inf
ROOT
ATOM      1  C   UNL A   1      31.411  28.996  26.627  1.00  0.00     0.023 C 
ENDROOT
BRANCH   1   2
ATOM      2  C   UNL A   1      31.762  27.520  26.841  1.00  0.00     0.023 C 
BRANCH   2   3
ATOM      3  C   UNL A   1      30.948  26.541  25.999  1.00  0.00     0.116 C 
BRANCH   3   4
ATOM      4  N   UNL A   1      30.807  25.213  26.568  1.00  0.00    -0.356 N 
ATOM      5  C   UNL A   1      31.715  24.210  26.704  1.00  0.00     0.224 C 
ATOM      6  O   UNL A   1      31.560  23.463  27.679  1.00  0.00    -0.275 OA
ATOM      7  H   UNL A   1      29.909  25.005  26.911  1.00  0.00     0.163 HD
BRANCH   5   8
ATOM      8  C   UNL A   1      32.871  23.913  25.744  1.00  0.00     0.098 C 
ATOM      9  N   UNL A   1      33.154  24.869  23.617  1.00  0.00    -0.194 NA
ATOM     10  C   UNL A   1      34.293  25.373  24.361  1.00  0.00     0.104 C 
ATOM     11  C   UNL A   1      32.583  23.678  24.263  1.00  0.00     0.082 C 
ATOM     12  C   UNL A   1      33.993  24.968  25.803  1.00  0.00     0.032 C 
ATOM     13  C   UNL A   1      33.310  22.424  23.763  1.00  0.00     0.026 C 
BRANCH   9  14
ATOM     14  S   UNL A   1      32.547  25.611  22.263  1.00  0.00     0.246 S 
ATOM     15  O   UNL A   1      31.295  24.961  21.928  1.00  0.00    -0.207 OA
ATOM     16  O   UNL A   1      33.622  25.742  21.306  1.00  0.00    -0.207 OA
BRANCH  14  17
ATOM     17  C   UNL A   1      32.076  27.249  22.541  1.00  0.00     0.123 A 
ATOM     18  C   UNL A   1      34.203  28.793  22.945  1.00  0.00     0.067 C 
ATOM     19  C   UNL A   1      32.781  28.420  22.791  1.00  0.00     0.052 A 
ATOM     20  N   UNL A   1      31.817  29.391  22.917  1.00  0.00    -0.281 N 
ATOM     21  N   UNL A   1      30.570  28.942  22.758  1.00  0.00    -0.183 NA
ATOM     22  H   UNL A   1      32.027  30.333  23.109  1.00  0.00     0.190 HD
ATOM     23  C   UNL A   1      30.723  27.637  22.532  1.00  0.00     0.157 A 
ENDBRANCH  14  17
ENDBRANCH   9  14
ENDBRANCH   5   8
ENDBRANCH   3   4
ENDBRANCH   2   3
ENDBRANCH   1   2
BRANCH   1  24
ATOM     24  C   UNL A   1      32.553  29.918  26.189  1.00  0.00     0.116 C 
BRANCH  24  25
ATOM     25  N   UNL A   1      32.424  31.296  26.633  1.00  0.00    -0.352 N 
ATOM     26  C   UNL A   1      33.294  32.049  27.395  1.00  0.00     0.251 C 
ATOM     27  H   UNL A   1      31.601  31.758  26.350  1.00  0.00     0.163 HD
ATOM     28  O   UNL A   1      32.960  33.167  27.778  1.00  0.00    -0.269 OA
BRANCH  26  29
ATOM     29  C   UNL A   1      34.602  31.490  27.816  1.00  0.00     0.039 A 
ATOM     30  C   UNL A   1      35.676  32.371  27.978  1.00  0.00     0.014 A 
ATOM     31  C   UNL A   1      34.776  30.130  28.088  1.00  0.00     0.014 A 
ATOM     32  C   UNL A   1      36.879  31.912  28.520  1.00  0.00     0.010 A 
ATOM     33  C   UNL A   1      35.954  29.684  28.688  1.00  0.00     0.010 A 
ATOM     34  C   UNL A   1      37.007  30.576  28.938  1.00  0.00    -0.014 A 
BRANCH  34  35
ATOM     35  C   UNL A   1      38.186  30.144  29.735  1.00  0.00     0.031 A 
ATOM     36  C   UNL A   1      38.442  30.677  31.114  1.00  0.00     0.074 A 
ATOM     37  C   UNL A   1      39.085  29.318  29.160  1.00  0.00     0.049 A 
ATOM     38  N   UNL A   1      39.412  30.382  31.942  1.00  0.00    -0.248 NA
ATOM     39  C   UNL A   1      37.506  31.691  31.626  1.00  0.00     0.031 C 
ATOM     40  C   UNL A   1      39.012  28.818  27.785  1.00  0.00     0.029 A 
ATOM     41  N   UNL A   1      40.244  28.768  29.650  1.00  0.00    -0.354 N 
ATOM     42  C   UNL A   1      39.220  31.183  33.060  1.00  0.00     0.074 A 
ATOM     43  C   UNL A   1      38.058  32.004  32.791  1.00  0.00     0.031 C 
ATOM     44  C   UNL A   1      40.070  28.026  27.547  1.00  0.00     0.029 A 
ATOM     45  C   UNL A   1      40.902  27.970  28.743  1.00  0.00     0.049 A 
ATOM     46  H   UNL A   1      40.571  28.928  30.565  1.00  0.00     0.167 HD
ATOM     47  C   UNL A   1      39.926  31.210  34.217  1.00  0.00     0.034 A 
ATOM     48  C   UNL A   1      42.041  27.261  28.863  1.00  0.00     0.034 A 
ATOM     49  C   UNL A   1      41.056  30.364  34.497  1.00  0.00     0.049 A 
ATOM     50  C   UNL A   1      42.758  27.246  30.185  1.00  0.00     0.074 A 
ATOM     51  C   UNL A   1      41.776  30.250  35.675  1.00  0.00     0.029 A 
ATOM     52  N   UNL A   1      41.635  29.488  33.593  1.00  0.00    -0.354 N 
ATOM     53  N   UNL A   1      42.448  27.866  31.296  1.00  0.00    -0.248 NA
ATOM     54  C   UNL A   1      43.956  26.400  30.281  1.00  0.00     0.031 C 
ATOM     55  C   UNL A   1      42.797  29.312  35.477  1.00  0.00     0.029 A 
ATOM     56  C   UNL A   1      42.706  28.835  34.180  1.00  0.00     0.049 A 
ATOM     57  H   UNL A   1      41.329  29.351  32.666  1.00  0.00     0.167 HD
ATOM     58  C   UNL A   1      43.396  27.469  32.232  1.00  0.00     0.074 A 
ATOM     59  C   UNL A   1      44.271  26.528  31.563  1.00  0.00     0.031 C 
ATOM     60  C   UNL A   1      43.543  27.866  33.520  1.00  0.00     0.034 A 
BRANCH  47  61
ATOM     61  C   UNL A   1      39.444  32.136  35.303  1.00  0.00     0.023 A 
ATOM     62  C   UNL A   1      38.531  31.651  36.263  1.00  0.00     0.012 A 
ATOM     63  C   UNL A   1      39.930  33.454  35.416  1.00  0.00     0.148 A 
ATOM     64  C   UNL A   1      38.086  32.470  37.300  1.00  0.00     0.002 A 
ATOM     65  C   UNL A   1      39.509  34.252  36.475  1.00  0.00     0.091 A 
ATOM     66  F   UNL A   1      40.780  33.905  34.483  1.00  0.00    -0.205 F 
ATOM     67  C   UNL A   1      38.581  33.765  37.411  1.00  0.00     0.022 A 
BRANCH  65  68
ATOM     68  S   UNL A   1      40.140  35.914  36.742  1.00  0.00     0.127 S 
ATOM     69  O   UNL A   1      41.576  35.668  36.861  1.00  0.00    -0.237 OA
ATOM     70  O   UNL A   1      39.739  36.601  35.514  1.00  0.00    -0.237 OA
ATOM     71  O   UNL A   1      39.483  36.400  37.947  1.00  0.00    -0.744 OA
ENDBRANCH  65  68
ENDBRANCH  47  61
BRANCH  48  72
ATOM     72  C   UNL A   1      42.514  26.426  27.723  1.00  0.00     0.023 A 
ATOM     73  C   UNL A   1      43.444  26.967  26.815  1.00  0.00     0.012 A 
ATOM     74  C   UNL A   1      42.091  25.093  27.560  1.00  0.00     0.148 A 
ATOM     75  C   UNL A   1      43.924  26.206  25.749  1.00  0.00     0.002 A 
ATOM     76  C   UNL A   1      42.614  24.322  26.528  1.00  0.00     0.091 A 
ATOM     77  F   UNL A   1      41.193  24.600  28.425  1.00  0.00    -0.205 F 
ATOM     78  C   UNL A   1      43.519  24.880  25.612  1.00  0.00     0.022 A 
BRANCH  76  79
ATOM     79  S   UNL A   1      42.248  22.570  26.367  1.00  0.00     0.127 S 
ATOM     80  O   UNL A   1      40.793  22.577  26.252  1.00  0.00    -0.237 OA
ATOM     81  O   UNL A   1      42.963  22.217  25.140  1.00  0.00    -0.237 OA
ATOM     82  O   UNL A   1      42.792  21.952  27.569  1.00  0.00    -0.744 OA
ENDBRANCH  76  79
ENDBRANCH  48  72
BRANCH  60  83
ATOM     83  C   UNL A   1      44.695  27.283  34.295  1.00  0.00     0.023 A 
ATOM     84  C   UNL A   1      45.950  27.923  34.255  1.00  0.00     0.012 A 
ATOM     85  C   UNL A   1      44.530  26.137  35.096  1.00  0.00     0.148 A 
ATOM     86  C   UNL A   1      47.031  27.413  34.975  1.00  0.00     0.002 A 
ATOM     87  C   UNL A   1      45.601  25.660  35.845  1.00  0.00     0.091 A 
ATOM     88  F   UNL A   1      43.336  25.524  35.104  1.00  0.00    -0.205 F 
ATOM     89  C   UNL A   1      46.853  26.290  35.777  1.00  0.00     0.022 A 
BRANCH  87  90
ATOM     90  S   UNL A   1      45.428  24.267  36.969  1.00  0.00     0.127 S 
ATOM     91  O   UNL A   1      44.371  24.734  37.863  1.00  0.00    -0.237 OA
ATOM     92  O   UNL A   1      45.032  23.182  36.070  1.00  0.00    -0.237 OA
ATOM     93  O   UNL A   1      46.740  24.091  37.576  1.00  0.00    -0.744 OA
ENDBRANCH  87  90
ENDBRANCH  60  83
ENDBRANCH  34  35
ENDBRANCH  26  29
ENDBRANCH  24  25
ENDBRANCH   1  24
TORSDOF 16
ENDMDL
MODEL 2
REMARK VINA RESULT:     -11.8      1.379      2.882
REMARK SMILES Cc1[nH]ncc1S(=O)(=O)N1CC[C@@H](C(=O)NCCCCNC(=O)c2ccc(-c3c4nc(c(-c5cccc(S(=O)(=O)[O-])c5F)c5ccc([nH]5)c(-c5cccc(S(=O)(=O)[O-])c5F)c5nc(c(-c6cccc(S(=O)(=O)[O-])c6F)c6ccc3[nH]6)C=C5)C=C4)cc2)[C@@H]1C
REMARK SMILES IDX 19 1 18 2 17 3 16 4 14 5 15 6 13 8 10 9 11 10 87 11 12 12
REMARK SMILES IDX 88 13 7 14 8 15 9 16 6 17 1 18 2 19 3 20 4 21 5 23 20 24
REMARK SMILES IDX 21 25 22 26 23 28 24 29 25 30 86 31 26 32 85 33 27 34 28 35
REMARK SMILES IDX 29 36 79 37 30 38 84 39 78 40 80 41 31 42 83 43 77 44 76 45
REMARK SMILES IDX 32 47 64 48 44 49 63 50 45 51 48 52 62 53 81 54 46 55 47 56
REMARK SMILES IDX 61 58 82 59 49 60 33 61 34 62 42 63 35 64 37 65 43 66 36 67
REMARK SMILES IDX 38 68 39 69 40 70 41 71 65 72 66 73 74 74 67 75 69 76 75 77
REMARK SMILES IDX 68 78 70 79 71 80 72 81 73 82 50 83 51 84 59 85 52 86 54 87
REMARK SMILES IDX 60 88 53 89 55 90 56 91 57 92 58 93
REMARK H PARENT 16 7 3 22 21 27 80 46 48 57
REMARK Flexibility Score: inf
ROOT
ATOM      1  C   UNL A   1      31.409  29.012  26.021  1.00  0.00     0.023 C 
ENDROOT
BRANCH   1   2
ATOM      2  C   UNL A   1      31.624  27.513  25.788  1.00  0.00     0.023 C 
BRANCH   2   3
ATOM      3  C   UNL A   1      32.741  27.173  24.805  1.00  0.00     0.116 C 
BRANCH   3   4
ATOM      4  N   UNL A   1      32.395  27.336  23.405  1.00  0.00    -0.356 N 
ATOM      5  C   UNL A   1      31.675  26.536  22.574  1.00  0.00     0.224 C 
ATOM      6  O   UNL A   1      31.044  27.109  21.676  1.00  0.00    -0.275 OA
ATOM      7  H   UNL A   1      32.737  28.160  22.989  1.00  0.00     0.163 HD
BRANCH   5   8
ATOM      8  C   UNL A   1      31.614  25.007  22.635  1.00  0.00     0.098 C 
ATOM      9  N   UNL A   1      32.620  23.669  24.283  1.00  0.00    -0.194 NA
ATOM     10  C   UNL A   1      31.203  23.438  24.489  1.00  0.00     0.104 C 
ATOM     11  C   UNL A   1      32.880  24.210  22.940  1.00  0.00     0.082 C 
ATOM     12  C   UNL A   1      30.531  24.483  23.600  1.00  0.00     0.032 C 
ATOM     13  C   UNL A   1      33.046  23.057  21.944  1.00  0.00     0.026 C 
BRANCH   9  14
ATOM     14  S   UNL A   1      33.766  23.423  25.457  1.00  0.00     0.246 S 
ATOM     15  O   UNL A   1      33.076  23.296  26.726  1.00  0.00    -0.207 OA
ATOM     16  O   UNL A   1      34.827  24.382  25.254  1.00  0.00    -0.207 OA
BRANCH  14  17
ATOM     17  C   UNL A   1      34.580  21.908  25.302  1.00  0.00     0.123 A 
ATOM     18  C   UNL A   1      32.839  19.916  25.037  1.00  0.00     0.067 C 
ATOM     19  C   UNL A   1      34.146  20.598  25.137  1.00  0.00     0.052 A 
ATOM     20  N   UNL A   1      35.298  19.851  25.076  1.00  0.00    -0.281 N 
ATOM     21  N   UNL A   1      36.418  20.570  25.175  1.00  0.00    -0.183 NA
ATOM     22  H   UNL A   1      35.296  18.872  24.969  1.00  0.00     0.190 HD
ATOM     23  C   UNL A   1      35.986  21.823  25.316  1.00  0.00     0.157 A 
ENDBRANCH  14  17
ENDBRANCH   9  14
ENDBRANCH   5   8
ENDBRANCH   3   4
ENDBRANCH   2   3
ENDBRANCH   1   2
BRANCH   1  24
ATOM     24  C   UNL A   1      32.656  29.900  25.980  1.00  0.00     0.116 C 
BRANCH  24  25
ATOM     25  N   UNL A   1      32.466  31.238  26.514  1.00  0.00    -0.352 N 
ATOM     26  C   UNL A   1      33.287  31.963  27.354  1.00  0.00     0.251 C 
ATOM     27  H   UNL A   1      31.637  31.692  26.239  1.00  0.00     0.163 HD
ATOM     28  O   UNL A   1      32.904  33.040  27.805  1.00  0.00    -0.269 OA
BRANCH  26  29
ATOM     29  C   UNL A   1      34.602  31.419  27.775  1.00  0.00     0.039 A 
ATOM     30  C   UNL A   1      35.658  32.315  27.967  1.00  0.00     0.014 A 
ATOM     31  C   UNL A   1      34.798  30.057  28.019  1.00  0.00     0.014 A 
ATOM     32  C   UNL A   1      36.864  31.866  28.510  1.00  0.00     0.010 A 
ATOM     33  C   UNL A   1      35.979  29.619  28.620  1.00  0.00     0.010 A 
ATOM     34  C   UNL A   1      37.013  30.524  28.900  1.00  0.00    -0.014 A 
BRANCH  34  35
ATOM     35  C   UNL A   1      38.192  30.096  29.698  1.00  0.00     0.031 A 
ATOM     36  C   UNL A   1      38.430  30.610  31.088  1.00  0.00     0.074 A 
ATOM     37  C   UNL A   1      39.107  29.292  29.117  1.00  0.00     0.049 A 
ATOM     38  N   UNL A   1      39.399  30.315  31.918  1.00  0.00    -0.248 NA
ATOM     39  C   UNL A   1      37.477  31.602  31.609  1.00  0.00     0.031 C 
ATOM     40  C   UNL A   1      39.051  28.814  27.734  1.00  0.00     0.029 A 
ATOM     41  N   UNL A   1      40.270  28.751  29.606  1.00  0.00    -0.354 N 
ATOM     42  C   UNL A   1      39.188  31.096  33.047  1.00  0.00     0.074 A 
ATOM     43  C   UNL A   1      38.016  31.904  32.783  1.00  0.00     0.031 C 
ATOM     44  C   UNL A   1      40.121  28.042  27.490  1.00  0.00     0.029 A 
ATOM     45  C   UNL A   1      40.946  27.978  28.692  1.00  0.00     0.049 A 
ATOM     46  H   UNL A   1      40.588  28.901  30.526  1.00  0.00     0.167 HD
ATOM     47  C   UNL A   1      39.884  31.113  34.210  1.00  0.00     0.034 A 
ATOM     48  C   UNL A   1      42.094  27.283  28.808  1.00  0.00     0.034 A 
ATOM     49  C   UNL A   1      41.025  30.279  34.485  1.00  0.00     0.049 A 
ATOM     50  C   UNL A   1      42.802  27.257  30.135  1.00  0.00     0.074 A 
ATOM     51  C   UNL A   1      41.738  30.157  35.665  1.00  0.00     0.029 A 
ATOM     52  N   UNL A   1      41.623  29.427  33.570  1.00  0.00    -0.354 N 
ATOM     53  N   UNL A   1      42.475  27.854  31.254  1.00  0.00    -0.248 NA
ATOM     54  C   UNL A   1      44.011  26.426  30.226  1.00  0.00     0.031 C 
ATOM     55  C   UNL A   1      42.773  29.236  35.460  1.00  0.00     0.029 A 
ATOM     56  C   UNL A   1      42.699  28.779  34.155  1.00  0.00     0.049 A 
ATOM     57  H   UNL A   1      41.326  29.301  32.639  1.00  0.00     0.167 HD
ATOM     58  C   UNL A   1      43.422  27.456  32.190  1.00  0.00     0.074 A 
ATOM     59  C   UNL A   1      44.316  26.538  31.512  1.00  0.00     0.031 C 
ATOM     60  C   UNL A   1      43.555  27.834  33.485  1.00  0.00     0.034 A 
BRANCH  47  61
ATOM     61  C   UNL A   1      39.382  32.015  35.308  1.00  0.00     0.023 A 
ATOM     62  C   UNL A   1      38.437  31.514  36.226  1.00  0.00     0.012 A 
ATOM     63  C   UNL A   1      39.878  33.323  35.471  1.00  0.00     0.148 A 
ATOM     64  C   UNL A   1      37.970  32.309  37.273  1.00  0.00     0.002 A 
ATOM     65  C   UNL A   1      39.435  34.097  36.539  1.00  0.00     0.091 A 
ATOM     66  F   UNL A   1      40.759  33.791  34.575  1.00  0.00    -0.205 F 
ATOM     67  C   UNL A   1      38.476  33.595  37.434  1.00  0.00     0.022 A 
BRANCH  65  68
ATOM     68  S   UNL A   1      40.077  35.743  36.870  1.00  0.00     0.127 S 
ATOM     69  O   UNL A   1      41.507  35.478  37.021  1.00  0.00    -0.237 OA
ATOM     70  O   UNL A   1      39.718  36.469  35.651  1.00  0.00    -0.237 OA
ATOM     71  O   UNL A   1      39.392  36.203  38.070  1.00  0.00    -0.744 OA
ENDBRANCH  65  68
ENDBRANCH  47  61
BRANCH  48  72
ATOM     72  C   UNL A   1      42.587  26.473  27.658  1.00  0.00     0.023 A 
ATOM     73  C   UNL A   1      43.544  27.030  26.787  1.00  0.00     0.012 A 
ATOM     74  C   UNL A   1      42.156  25.149  27.451  1.00  0.00     0.148 A 
ATOM     75  C   UNL A   1      44.043  26.292  25.713  1.00  0.00     0.002 A 
ATOM     76  C   UNL A   1      42.697  24.401  26.411  1.00  0.00     0.091 A 
ATOM     77  F   UNL A   1      41.234  24.642  28.281  1.00  0.00    -0.205 F 
ATOM     78  C   UNL A   1      43.629  24.974  25.532  1.00  0.00     0.022 A 
BRANCH  76  79
ATOM     79  S   UNL A   1      42.320  22.657  26.196  1.00  0.00     0.127 S 
ATOM     80  O   UNL A   1      42.993  22.358  24.936  1.00  0.00    -0.237 OA
ATOM     81  O   UNL A   1      42.937  22.060  27.382  1.00  0.00    -0.237 OA
ATOM     82  O   UNL A   1      40.865  22.577  26.181  1.00  0.00    -0.744 OA
ENDBRANCH  76  79
ENDBRANCH  48  72
BRANCH  60  83
ATOM     83  C   UNL A   1      44.709  27.254  34.259  1.00  0.00     0.023 A 
ATOM     84  C   UNL A   1      45.962  27.900  34.220  1.00  0.00     0.012 A 
ATOM     85  C   UNL A   1      44.549  26.107  35.059  1.00  0.00     0.148 A 
ATOM     86  C   UNL A   1      47.044  27.394  34.938  1.00  0.00     0.002 A 
ATOM     87  C   UNL A   1      45.622  25.633  35.807  1.00  0.00     0.091 A 
ATOM     88  F   UNL A   1      43.358  25.488  35.066  1.00  0.00    -0.205 F 
ATOM     89  C   UNL A   1      46.872  26.269  35.739  1.00  0.00     0.022 A 
BRANCH  87  90
ATOM     90  S   UNL A   1      45.456  24.238  36.928  1.00  0.00     0.127 S 
ATOM     91  O   UNL A   1      45.113  23.155  36.010  1.00  0.00    -0.237 OA
ATOM     92  O   UNL A   1      46.793  24.141  37.514  1.00  0.00    -0.237 OA
ATOM     93  O   UNL A   1      44.416  24.620  37.874  1.00  0.00    -0.744 OA
ENDBRANCH  87  90
ENDBRANCH  60  83
ENDBRANCH  34  35
ENDBRANCH  26  29
ENDBRANCH  24  25
ENDBRANCH   1  24
TORSDOF 16
ENDMDL
MODEL 3
REMARK VINA RESULT:     -11.8      2.030      2.720
REMARK SMILES Cc1[nH]ncc1S(=O)(=O)N1CC[C@@H](C(=O)NCCCCNC(=O)c2ccc(-c3c4nc(c(-c5cccc(S(=O)(=O)[O-])c5F)c5ccc([nH]5)c(-c5cccc(S(=O)(=O)[O-])c5F)c5nc(c(-c6cccc(S(=O)(=O)[O-])c6F)c6ccc3[nH]6)C=C5)C=C4)cc2)[C@@H]1C
REMARK SMILES IDX 19 1 18 2 17 3 16 4 14 5 15 6 13 8 10 9 11 10 87 11 12 12
REMARK SMILES IDX 88 13 7 14 8 15 9 16 6 17 1 18 2 19 3 20 4 21 5 23 20 24
REMARK SMILES IDX 21 25 22 26 23 28 24 29 25 30 86 31 26 32 85 33 27 34 28 35
REMARK SMILES IDX 29 36 79 37 30 38 84 39 78 40 80 41 31 42 83 43 77 44 76 45
REMARK SMILES IDX 32 47 64 48 44 49 63 50 45 51 48 52 62 53 81 54 46 55 47 56
REMARK SMILES IDX 61 58 82 59 49 60 33 61 34 62 42 63 35 64 37 65 43 66 36 67
REMARK SMILES IDX 38 68 39 69 40 70 41 71 65 72 66 73 74 74 67 75 69 76 75 77
REMARK SMILES IDX 68 78 70 79 71 80 72 81 73 82 50 83 51 84 59 85 52 86 54 87
REMARK SMILES IDX 60 88 53 89 55 90 56 91 57 92 58 93
REMARK H PARENT 16 7 3 22 21 27 80 46 48 57
REMARK Flexibility Score: inf
ROOT
ATOM      1  C   UNL A   1      31.832  29.228  27.083  1.00  0.00     0.023 C 
ENDROOT
BRANCH   1   2
ATOM      2  C   UNL A   1      31.409  27.819  27.512  1.00  0.00     0.023 C 
BRANCH   2   3
ATOM      3  C   UNL A   1      31.700  26.726  26.487  1.00  0.00     0.116 C 
BRANCH   3   4
ATOM      4  N   UNL A   1      31.196  25.410  26.835  1.00  0.00    -0.356 N 
ATOM      5  C   UNL A   1      31.776  24.186  26.729  1.00  0.00     0.224 C 
ATOM      6  O   UNL A   1      31.437  23.346  27.574  1.00  0.00    -0.275 OA
ATOM      7  H   UNL A   1      30.285  25.404  27.209  1.00  0.00     0.163 HD
BRANCH   5   8
ATOM      8  C   UNL A   1      32.768  23.756  25.644  1.00  0.00     0.098 C 
ATOM      9  N   UNL A   1      33.098  24.850  23.591  1.00  0.00    -0.194 NA
ATOM     10  C   UNL A   1      34.369  25.025  24.267  1.00  0.00     0.104 C 
ATOM     11  C   UNL A   1      32.332  23.742  24.181  1.00  0.00     0.082 C 
ATOM     12  C   UNL A   1      34.093  24.543  25.690  1.00  0.00     0.032 C 
ATOM     13  C   UNL A   1      32.733  22.424  23.509  1.00  0.00     0.026 C 
BRANCH   9  14
ATOM     14  S   UNL A   1      32.570  25.838  22.368  1.00  0.00     0.246 S 
ATOM     15  O   UNL A   1      31.320  25.297  21.872  1.00  0.00    -0.207 OA
ATOM     16  O   UNL A   1      33.689  26.105  21.494  1.00  0.00    -0.207 OA
BRANCH  14  17
ATOM     17  C   UNL A   1      32.124  27.414  22.916  1.00  0.00     0.123 A 
ATOM     18  C   UNL A   1      34.278  28.868  23.481  1.00  0.00     0.067 C 
ATOM     19  C   UNL A   1      32.849  28.529  23.321  1.00  0.00     0.052 A 
ATOM     20  N   UNL A   1      31.898  29.472  23.632  1.00  0.00    -0.281 N 
ATOM     21  N   UNL A   1      30.642  29.059  23.449  1.00  0.00    -0.183 NA
ATOM     22  H   UNL A   1      32.124  30.372  23.961  1.00  0.00     0.190 HD
ATOM     23  C   UNL A   1      30.775  27.804  23.016  1.00  0.00     0.157 A 
ENDBRANCH  14  17
ENDBRANCH   9  14
ENDBRANCH   5   8
ENDBRANCH   3   4
ENDBRANCH   2   3
ENDBRANCH   1   2
BRANCH   1  24
ATOM     24  C   UNL A   1      33.305  29.596  27.287  1.00  0.00     0.116 C 
BRANCH  24  25
ATOM     25  N   UNL A   1      33.537  30.970  27.700  1.00  0.00    -0.352 N 
ATOM     26  C   UNL A   1      34.636  31.513  28.332  1.00  0.00     0.251 C 
ATOM     27  H   UNL A   1      32.807  31.601  27.502  1.00  0.00     0.163 HD
ATOM     28  O   UNL A   1      34.605  32.679  28.719  1.00  0.00    -0.269 OA
BRANCH  26  29
ATOM     29  C   UNL A   1      35.831  30.680  28.613  1.00  0.00     0.039 A 
ATOM     30  C   UNL A   1      36.918  30.764  27.737  1.00  0.00     0.014 A 
ATOM     31  C   UNL A   1      35.912  29.853  29.737  1.00  0.00     0.014 A 
ATOM     32  C   UNL A   1      38.116  30.117  28.047  1.00  0.00     0.010 A 
ATOM     33  C   UNL A   1      37.127  29.259  30.080  1.00  0.00     0.010 A 
ATOM     34  C   UNL A   1      38.251  29.409  29.254  1.00  0.00    -0.014 A 
BRANCH  34  35
ATOM     35  C   UNL A   1      39.584  28.931  29.704  1.00  0.00     0.031 A 
ATOM     36  C   UNL A   1      40.341  29.625  30.800  1.00  0.00     0.074 A 
ATOM     37  C   UNL A   1      40.155  27.900  29.048  1.00  0.00     0.049 A 
ATOM     38  N   UNL A   1      41.503  29.317  31.317  1.00  0.00    -0.248 NA
ATOM     39  C   UNL A   1      39.732  30.836  31.373  1.00  0.00     0.031 C 
ATOM     40  C   UNL A   1      39.575  27.212  27.892  1.00  0.00     0.029 A 
ATOM     41  N   UNL A   1      41.356  27.263  29.242  1.00  0.00    -0.354 N 
ATOM     42  C   UNL A   1      41.777  30.301  32.259  1.00  0.00     0.074 A 
ATOM     43  C   UNL A   1      40.673  31.237  32.218  1.00  0.00     0.031 C 
ATOM     44  C   UNL A   1      40.411  26.242  27.490  1.00  0.00     0.029 A 
ATOM     45  C   UNL A   1      41.591  26.245  28.348  1.00  0.00     0.049 A 
ATOM     46  H   UNL A   1      41.988  27.511  29.956  1.00  0.00     0.167 HD
ATOM     47  C   UNL A   1      42.832  30.398  33.105  1.00  0.00     0.034 A 
ATOM     48  C   UNL A   1      42.633  25.398  28.236  1.00  0.00     0.034 A 
ATOM     49  C   UNL A   1      43.907  29.444  33.171  1.00  0.00     0.049 A 
ATOM     50  C   UNL A   1      43.751  25.478  29.238  1.00  0.00     0.074 A 
ATOM     51  C   UNL A   1      44.971  29.405  34.058  1.00  0.00     0.029 A 
ATOM     52  N   UNL A   1      44.062  28.361  32.319  1.00  0.00    -0.354 N 
ATOM     53  N   UNL A   1      43.895  26.302  30.247  1.00  0.00    -0.248 NA
ATOM     54  C   UNL A   1      44.828  24.485  29.114  1.00  0.00     0.031 C 
ATOM     55  C   UNL A   1      45.773  28.303  33.734  1.00  0.00     0.029 A 
ATOM     56  C   UNL A   1      45.204  27.651  32.653  1.00  0.00     0.049 A 
ATOM     57  H   UNL A   1      43.449  28.132  31.583  1.00  0.00     0.167 HD
ATOM     58  C   UNL A   1      45.064  25.914  30.892  1.00  0.00     0.074 A 
ATOM     59  C   UNL A   1      45.570  24.759  30.178  1.00  0.00     0.031 C 
ATOM     60  C   UNL A   1      45.675  26.477  31.963  1.00  0.00     0.034 A 
BRANCH  47  61
ATOM     61  C   UNL A   1      42.835  31.542  34.084  1.00  0.00     0.023 A 
ATOM     62  C   UNL A   1      43.437  32.761  33.711  1.00  0.00     0.012 A 
ATOM     63  C   UNL A   1      42.198  31.441  35.337  1.00  0.00     0.148 A 
ATOM     64  C   UNL A   1      43.434  33.853  34.580  1.00  0.00     0.002 A 
ATOM     65  C   UNL A   1      42.168  32.545  36.183  1.00  0.00     0.091 A 
ATOM     66  F   UNL A   1      41.650  30.268  35.684  1.00  0.00    -0.205 F 
ATOM     67  C   UNL A   1      42.792  33.748  35.809  1.00  0.00     0.022 A 
BRANCH  65  68
ATOM     68  S   UNL A   1      41.308  32.530  37.761  1.00  0.00     0.127 S 
ATOM     69  O   UNL A   1      39.997  32.009  37.377  1.00  0.00    -0.237 OA
ATOM     70  O   UNL A   1      42.123  31.607  38.551  1.00  0.00    -0.237 OA
ATOM     71  O   UNL A   1      41.323  33.907  38.235  1.00  0.00    -0.744 OA
ENDBRANCH  65  68
ENDBRANCH  47  61
BRANCH  48  72
ATOM     72  C   UNL A   1      42.613  24.336  27.191  1.00  0.00     0.023 A 
ATOM     73  C   UNL A   1      43.270  24.564  25.967  1.00  0.00     0.012 A 
ATOM     74  C   UNL A   1      41.994  23.092  27.417  1.00  0.00     0.148 A 
ATOM     75  C   UNL A   1      43.289  23.583  24.975  1.00  0.00     0.002 A 
ATOM     76  C   UNL A   1      42.062  22.099  26.447  1.00  0.00     0.091 A 
ATOM     77  F   UNL A   1      41.360  22.898  28.583  1.00  0.00    -0.205 F 
ATOM     78  C   UNL A   1      42.696  22.346  25.219  1.00  0.00     0.022 A 
BRANCH  76  79
ATOM     79  S   UNL A   1      41.445  20.436  26.739  1.00  0.00     0.127 S 
ATOM     80  O   UNL A   1      42.293  19.991  27.841  1.00  0.00    -0.237 OA
ATOM     81  O   UNL A   1      40.048  20.685  27.097  1.00  0.00    -0.237 OA
ATOM     82  O   UNL A   1      41.617  19.734  25.474  1.00  0.00    -0.744 OA
ENDBRANCH  76  79
ENDBRANCH  48  72
BRANCH  60  83
ATOM     83  C   UNL A   1      46.963  25.852  32.431  1.00  0.00     0.023 A 
ATOM     84  C   UNL A   1      48.182  26.270  31.860  1.00  0.00     0.012 A 
ATOM     85  C   UNL A   1      46.976  24.894  33.462  1.00  0.00     0.148 A 
ATOM     86  C   UNL A   1      49.390  25.719  32.284  1.00  0.00     0.002 A 
ATOM     87  C   UNL A   1      48.189  24.381  33.910  1.00  0.00     0.091 A 
ATOM     88  F   UNL A   1      45.806  24.488  33.979  1.00  0.00    -0.205 F 
ATOM     89  C   UNL A   1      49.395  24.784  33.316  1.00  0.00     0.022 A 
BRANCH  87  90
ATOM     90  S   UNL A   1      48.283  23.235  35.292  1.00  0.00     0.127 S 
ATOM     91  O   UNL A   1      49.684  23.358  35.688  1.00  0.00    -0.237 OA
ATOM     92  O   UNL A   1      47.329  23.806  36.243  1.00  0.00    -0.237 OA
ATOM     93  O   UNL A   1      47.888  21.941  34.754  1.00  0.00    -0.744 OA
ENDBRANCH  87  90
ENDBRANCH  60  83
ENDBRANCH  34  35
ENDBRANCH  26  29
ENDBRANCH  24  25
ENDBRANCH   1  24
TORSDOF 16
ENDMDL
