MODEL 1
REMARK VINA RESULT:     -12.5      0.000      0.000
REMARK SMILES O=C(COc1cc(-c2ccccc2)nc(NCc2ccc(Cl)cc2)n1)NCCCCNC(=O)c1ccc(-c2c3nc(c(-c4cccc(S(=O)(=O)[O-])c4F)c4ccc([nH]4)c(-c4cccc(S(=O)(=O)[O-])c4F)c4nc(c(-c5cccc(S(=O)(=O)[O-])c5F)c5ccc2[nH]5)C=C4)C=C3)cc1
REMARK SMILES IDX 27 1 26 2 1 3 2 4 3 6 4 7 5 8 6 9 25 10 7 11 15 12 14 13
REMARK SMILES IDX 8 14 9 15 13 16 10 17 12 18 11 19 16 20 17 22 18 23 19 24
REMARK SMILES IDX 24 25 20 26 23 27 21 28 22 29 28 30 29 31 30 32 31 33 32 34
REMARK SMILES IDX 33 36 34 37 35 38 96 39 36 40 95 41 37 42 38 43 39 44 89 45
REMARK SMILES IDX 40 46 94 47 88 48 90 49 41 50 93 51 87 52 86 53 42 55 74 56
REMARK SMILES IDX 54 57 73 58 55 59 58 60 72 61 91 62 56 63 57 64 71 66 92 67
REMARK SMILES IDX 59 68 43 69 44 70 52 71 45 72 47 73 53 74 46 75 48 76 49 77
REMARK SMILES IDX 50 78 51 79 75 80 76 81 84 82 77 83 79 84 85 85 78 86 80 87
REMARK SMILES IDX 81 88 82 89 83 90 60 91 61 92 69 93 62 94 64 95 70 96 63 97
REMARK SMILES IDX 65 98 66 99 67 100 68 101
REMARK H PARENT 26 5 16 21 31 35 90 54 58 65
REMARK Flexibility Score: inf
ROOT
ATOM      1  C   UNL A   1      33.284  23.137  26.058  1.00  0.00     0.116 C 
ENDROOT
BRANCH   1   2
ATOM      2  N   UNL A   1      32.265  24.092  25.669  1.00  0.00    -0.353 N 
ATOM      3  O   UNL A   1      30.713  23.467  27.250  1.00  0.00    -0.271 OA
ATOM      4  C   UNL A   1      31.090  24.250  26.382  1.00  0.00     0.258 C 
ATOM      5  H   UNL A   1      32.413  24.648  24.870  1.00  0.00     0.163 HD
BRANCH   4   6
ATOM      6  C   UNL A   1      30.324  25.539  26.052  1.00  0.00     0.331 C 
BRANCH   6   7
ATOM      7  O   UNL A   1      29.419  25.445  24.951  1.00  0.00    -0.467 OA
BRANCH   7   8
ATOM      8  C   UNL A   1      29.730  26.295  23.916  1.00  0.00     0.219 A 
ATOM      9  C   UNL A   1      29.067  27.482  23.758  1.00  0.00     0.097 A 
ATOM     10  N   UNL A   1      30.805  25.964  23.190  1.00  0.00    -0.177 NA
ATOM     11  C   UNL A   1      29.525  28.321  22.773  1.00  0.00     0.080 A 
ATOM     12  C   UNL A   1      31.192  26.838  22.248  1.00  0.00     0.226 A 
ATOM     13  N   UNL A   1      30.571  28.000  21.992  1.00  0.00    -0.213 NA
BRANCH  11  14
ATOM     14  C   UNL A   1      28.869  29.616  22.556  1.00  0.00     0.000 A 
ATOM     15  C   UNL A   1      28.040  30.185  23.533  1.00  0.00     0.010 A 
ATOM     16  C   UNL A   1      29.138  30.368  21.394  1.00  0.00     0.010 A 
ATOM     17  C   UNL A   1      27.531  31.478  23.373  1.00  0.00     0.001 A 
ATOM     18  C   UNL A   1      28.630  31.656  21.233  1.00  0.00     0.001 A 
ATOM     19  C   UNL A   1      27.834  32.214  22.227  1.00  0.00     0.000 A 
ENDBRANCH  11  14
BRANCH  12  20
ATOM     20  N   UNL A   1      32.285  26.590  21.473  1.00  0.00    -0.350 N 
ATOM     21  H   UNL A   1      32.151  26.483  20.503  1.00  0.00     0.164 HD
BRANCH  20  22
ATOM     22  C   UNL A   1      33.620  26.476  21.985  1.00  0.00     0.152 C 
BRANCH  22  23
ATOM     23  C   UNL A   1      33.695  27.197  23.313  1.00  0.00    -0.029 A 
ATOM     24  C   UNL A   1      33.525  28.588  23.371  1.00  0.00     0.007 A 
ATOM     25  C   UNL A   1      33.881  26.484  24.509  1.00  0.00     0.007 A 
ATOM     26  C   UNL A   1      33.556  29.257  24.596  1.00  0.00     0.021 A 
ATOM     27  C   UNL A   1      33.905  27.153  25.736  1.00  0.00     0.021 A 
ATOM     28  C   UNL A   1      33.744  28.536  25.773  1.00  0.00     0.041 A 
ATOM     29  Cl  UNL A   1      33.771  29.359  27.284  1.00  0.00    -0.084 Cl
ENDBRANCH  22  23
ENDBRANCH  20  22
ENDBRANCH  12  20
ENDBRANCH   7   8
ENDBRANCH   6   7
ENDBRANCH   4   6
ENDBRANCH   1   2
BRANCH   1  30
ATOM     30  C   UNL A   1      33.771  22.268  24.906  1.00  0.00     0.023 C 
BRANCH  30  31
ATOM     31  C   UNL A   1      34.869  21.269  25.274  1.00  0.00     0.023 C 
BRANCH  31  32
ATOM     32  C   UNL A   1      36.253  21.866  25.517  1.00  0.00     0.116 C 
BRANCH  32  33
ATOM     33  N   UNL A   1      37.309  20.866  25.550  1.00  0.00    -0.352 N 
ATOM     34  C   UNL A   1      38.644  21.016  25.844  1.00  0.00     0.251 C 
ATOM     35  H   UNL A   1      37.027  19.949  25.329  1.00  0.00     0.163 HD
ATOM     36  O   UNL A   1      39.413  20.071  25.679  1.00  0.00    -0.269 OA
BRANCH  34  37
ATOM     37  C   UNL A   1      39.165  22.316  26.328  1.00  0.00     0.039 A 
ATOM     38  C   UNL A   1      40.230  22.322  27.232  1.00  0.00     0.014 A 
ATOM     39  C   UNL A   1      38.611  23.524  25.896  1.00  0.00     0.014 A 
ATOM     40  C   UNL A   1      40.787  23.537  27.643  1.00  0.00     0.010 A 
ATOM     41  C   UNL A   1      39.216  24.731  26.245  1.00  0.00     0.010 A 
ATOM     42  C   UNL A   1      40.311  24.753  27.122  1.00  0.00    -0.014 A 
BRANCH  42  43
ATOM     43  C   UNL A   1      40.962  26.047  27.463  1.00  0.00     0.031 A 
ATOM     44  C   UNL A   1      42.395  26.308  27.081  1.00  0.00     0.074 A 
ATOM     45  C   UNL A   1      40.288  26.960  28.192  1.00  0.00     0.049 A 
ATOM     46  N   UNL A   1      43.143  27.347  27.351  1.00  0.00    -0.248 NA
ATOM     47  C   UNL A   1      43.085  25.257  26.317  1.00  0.00     0.031 C 
ATOM     48  C   UNL A   1      38.921  26.800  28.694  1.00  0.00     0.029 A 
ATOM     49  N   UNL A   1      40.671  28.192  28.665  1.00  0.00    -0.354 N 
ATOM     50  C   UNL A   1      44.395  27.065  26.818  1.00  0.00     0.074 A 
ATOM     51  C   UNL A   1      44.317  25.740  26.241  1.00  0.00     0.031 C 
ATOM     52  C   UNL A   1      38.581  27.889  29.401  1.00  0.00     0.029 A 
ATOM     53  C   UNL A   1      39.713  28.809  29.437  1.00  0.00     0.049 A 
ATOM     54  H   UNL A   1      41.547  28.595  28.470  1.00  0.00     0.167 HD
ATOM     55  C   UNL A   1      45.501  27.846  26.782  1.00  0.00     0.034 A 
ATOM     56  C   UNL A   1      39.744  29.975  30.112  1.00  0.00     0.034 A 
ATOM     57  C   UNL A   1      45.572  29.174  27.331  1.00  0.00     0.049 A 
ATOM     58  C   UNL A   1      40.977  30.835  30.038  1.00  0.00     0.074 A 
ATOM     59  C   UNL A   1      46.627  30.069  27.282  1.00  0.00     0.029 A 
ATOM     60  N   UNL A   1      44.554  29.798  28.035  1.00  0.00    -0.354 N 
ATOM     61  N   UNL A   1      42.103  30.608  29.408  1.00  0.00    -0.248 NA
ATOM     62  C   UNL A   1      40.930  32.128  30.737  1.00  0.00     0.031 C 
ATOM     63  C   UNL A   1      46.257  31.222  27.981  1.00  0.00     0.029 A 
ATOM     64  C   UNL A   1      44.957  31.061  28.431  1.00  0.00     0.049 A 
ATOM     65  H   UNL A   1      43.673  29.400  28.224  1.00  0.00     0.167 HD
ATOM     66  C   UNL A   1      42.884  31.741  29.604  1.00  0.00     0.074 A 
ATOM     67  C   UNL A   1      42.094  32.663  30.393  1.00  0.00     0.031 C 
ATOM     68  C   UNL A   1      44.147  31.991  29.177  1.00  0.00     0.034 A 
BRANCH  55  69
ATOM     69  C   UNL A   1      46.721  27.303  26.080  1.00  0.00     0.023 A 
ATOM     70  C   UNL A   1      46.865  27.495  24.690  1.00  0.00     0.012 A 
ATOM     71  C   UNL A   1      47.752  26.668  26.799  1.00  0.00     0.148 A 
ATOM     72  C   UNL A   1      47.997  27.033  24.021  1.00  0.00     0.002 A 
ATOM     73  C   UNL A   1      48.899  26.253  26.133  1.00  0.00     0.091 A 
ATOM     74  F   UNL A   1      47.592  26.480  28.117  1.00  0.00    -0.205 F 
ATOM     75  C   UNL A   1      49.018  26.422  24.744  1.00  0.00     0.022 A 
BRANCH  73  76
ATOM     76  S   UNL A   1      50.308  25.529  26.982  1.00  0.00     0.127 S 
ATOM     77  O   UNL A   1      50.647  26.580  27.940  1.00  0.00    -0.237 OA
ATOM     78  O   UNL A   1      49.723  24.328  27.576  1.00  0.00    -0.237 OA
ATOM     79  O   UNL A   1      51.310  25.277  25.957  1.00  0.00    -0.744 OA
ENDBRANCH  73  76
ENDBRANCH  55  69
BRANCH  56  80
ATOM     80  C   UNL A   1      38.549  30.417  30.887  1.00  0.00     0.023 A 
ATOM     81  C   UNL A   1      38.443  30.092  32.253  1.00  0.00     0.012 A 
ATOM     82  C   UNL A   1      37.532  31.179  30.281  1.00  0.00     0.148 A 
ATOM     83  C   UNL A   1      37.330  30.491  32.994  1.00  0.00     0.002 A 
ATOM     84  C   UNL A   1      36.454  31.622  31.039  1.00  0.00     0.091 A 
ATOM     85  F   UNL A   1      37.647  31.468  28.977  1.00  0.00    -0.205 F 
ATOM     86  C   UNL A   1      36.341  31.264  32.391  1.00  0.00     0.022 A 
BRANCH  84  87
ATOM     87  S   UNL A   1      35.206  32.734  30.379  1.00  0.00     0.127 S 
ATOM     88  O   UNL A   1      36.007  33.903  30.023  1.00  0.00    -0.237 OA
ATOM     89  O   UNL A   1      34.693  31.967  29.243  1.00  0.00    -0.237 OA
ATOM     90  O   UNL A   1      34.245  32.931  31.455  1.00  0.00    -0.744 OA
ENDBRANCH  84  87
ENDBRANCH  56  80
BRANCH  68  91
ATOM     91  C   UNL A   1      44.750  33.330  29.513  1.00  0.00     0.023 A 
ATOM     92  C   UNL A   1      45.476  33.498  30.709  1.00  0.00     0.012 A 
ATOM     93  C   UNL A   1      44.655  34.405  28.605  1.00  0.00     0.148 A 
ATOM     94  C   UNL A   1      46.070  34.724  31.011  1.00  0.00     0.002 A 
ATOM     95  C   UNL A   1      45.293  35.605  28.888  1.00  0.00     0.091 A 
ATOM     96  F   UNL A   1      43.945  34.231  27.481  1.00  0.00    -0.205 F 
ATOM     97  C   UNL A   1      45.989  35.772  30.097  1.00  0.00     0.022 A 
BRANCH  95  98
ATOM     98  S   UNL A   1      45.326  36.978  27.729  1.00  0.00     0.127 S 
ATOM     99  O   UNL A   1      45.934  36.359  26.553  1.00  0.00    -0.237 OA
ATOM    100  O   UNL A   1      43.905  37.296  27.586  1.00  0.00    -0.237 OA
ATOM    101  O   UNL A   1      46.119  38.022  28.363  1.00  0.00    -0.744 OA
ENDBRANCH  95  98
ENDBRANCH  68  91
ENDBRANCH  42  43
ENDBRANCH  34  37
ENDBRANCH  32  33
ENDBRANCH  31  32
ENDBRANCH  30  31
ENDBRANCH   1  30
TORSDOF 20
ENDMDL
MODEL 2
REMARK VINA RESULT:     -12.4      5.088     10.367
REMARK SMILES O=C(COc1cc(-c2ccccc2)nc(NCc2ccc(Cl)cc2)n1)NCCCCNC(=O)c1ccc(-c2c3nc(c(-c4cccc(S(=O)(=O)[O-])c4F)c4ccc([nH]4)c(-c4cccc(S(=O)(=O)[O-])c4F)c4nc(c(-c5cccc(S(=O)(=O)[O-])c5F)c5ccc2[nH]5)C=C4)C=C3)cc1
REMARK SMILES IDX 27 1 26 2 1 3 2 4 3 6 4 7 5 8 6 9 25 10 7 11 15 12 14 13
REMARK SMILES IDX 8 14 9 15 13 16 10 17 12 18 11 19 16 20 17 22 18 23 19 24
REMARK SMILES IDX 24 25 20 26 23 27 21 28 22 29 28 30 29 31 30 32 31 33 32 34
REMARK SMILES IDX 33 36 34 37 35 38 96 39 36 40 95 41 37 42 38 43 39 44 89 45
REMARK SMILES IDX 40 46 94 47 88 48 90 49 41 50 93 51 87 52 86 53 42 55 74 56
REMARK SMILES IDX 54 57 73 58 55 59 58 60 72 61 91 62 56 63 57 64 71 66 92 67
REMARK SMILES IDX 59 68 43 69 44 70 52 71 45 72 47 73 53 74 46 75 48 76 49 77
REMARK SMILES IDX 50 78 51 79 75 80 76 81 84 82 77 83 79 84 85 85 78 86 80 87
REMARK SMILES IDX 81 88 82 89 83 90 60 91 61 92 69 93 62 94 64 95 70 96 63 97
REMARK SMILES IDX 65 98 66 99 67 100 68 101
REMARK H PARENT 26 5 16 21 31 35 90 54 58 65
REMARK Flexibility Score: inf
ROOT
ATOM      1  C   UNL A   1      30.830  28.190  24.075  1.00  0.00     0.116 C 
ENDROOT
BRANCH   1   2
ATOM      2  N   UNL A   1      31.085  26.766  24.177  1.00  0.00    -0.353 N 
ATOM      3  O   UNL A   1      28.934  26.088  23.715  1.00  0.00    -0.271 OA
ATOM      4  C   UNL A   1      30.122  25.821  23.875  1.00  0.00     0.258 C 
ATOM      5  H   UNL A   1      31.973  26.462  24.471  1.00  0.00     0.163 HD
BRANCH   4   6
ATOM      6  C   UNL A   1      30.676  24.402  23.678  1.00  0.00     0.331 C 
BRANCH   6   7
ATOM      7  O   UNL A   1      30.646  23.570  24.838  1.00  0.00    -0.467 OA
BRANCH   7   8
ATOM      8  C   UNL A   1      31.813  22.869  25.037  1.00  0.00     0.219 A 
ATOM      9  C   UNL A   1      31.929  21.568  24.631  1.00  0.00     0.097 A 
ATOM     10  N   UNL A   1      32.851  23.580  25.495  1.00  0.00    -0.177 NA
ATOM     11  C   UNL A   1      33.167  20.987  24.759  1.00  0.00     0.080 A 
ATOM     12  C   UNL A   1      34.028  22.943  25.589  1.00  0.00     0.226 A 
ATOM     13  N   UNL A   1      34.219  21.655  25.261  1.00  0.00    -0.213 NA
BRANCH  11  14
ATOM     14  C   UNL A   1      33.366  19.597  24.332  1.00  0.00     0.000 A 
ATOM     15  C   UNL A   1      32.484  18.976  23.436  1.00  0.00     0.010 A 
ATOM     16  C   UNL A   1      34.511  18.882  24.739  1.00  0.00     0.010 A 
ATOM     17  C   UNL A   1      32.759  17.701  22.932  1.00  0.00     0.001 A 
ATOM     18  C   UNL A   1      34.785  17.609  24.238  1.00  0.00     0.001 A 
ATOM     19  C   UNL A   1      33.913  17.024  23.327  1.00  0.00     0.000 A 
ENDBRANCH  11  14
BRANCH  12  20
ATOM     20  N   UNL A   1      35.141  23.593  26.030  1.00  0.00    -0.350 N 
ATOM     21  H   UNL A   1      35.190  23.833  26.984  1.00  0.00     0.164 HD
BRANCH  20  22
ATOM     22  C   UNL A   1      36.247  23.948  25.188  1.00  0.00     0.152 C 
BRANCH  22  23
ATOM     23  C   UNL A   1      37.512  23.358  25.771  1.00  0.00    -0.029 A 
ATOM     24  C   UNL A   1      37.865  22.030  25.489  1.00  0.00     0.007 A 
ATOM     25  C   UNL A   1      38.376  24.140  26.554  1.00  0.00     0.007 A 
ATOM     26  C   UNL A   1      39.049  21.488  25.992  1.00  0.00     0.021 A 
ATOM     27  C   UNL A   1      39.565  23.600  27.053  1.00  0.00     0.021 A 
ATOM     28  C   UNL A   1      39.894  22.276  26.770  1.00  0.00     0.041 A 
ATOM     29  Cl  UNL A   1      41.360  21.612  27.381  1.00  0.00    -0.084 Cl
ENDBRANCH  22  23
ENDBRANCH  20  22
ENDBRANCH  12  20
ENDBRANCH   7   8
ENDBRANCH   6   7
ENDBRANCH   4   6
ENDBRANCH   1   2
BRANCH   1  30
ATOM     30  C   UNL A   1      31.559  29.014  25.128  1.00  0.00     0.023 C 
BRANCH  30  31
ATOM     31  C   UNL A   1      32.708  28.288  25.829  1.00  0.00     0.023 C 
BRANCH  31  32
ATOM     32  C   UNL A   1      33.939  29.137  26.136  1.00  0.00     0.116 C 
BRANCH  32  33
ATOM     33  N   UNL A   1      33.610  30.500  26.527  1.00  0.00    -0.352 N 
ATOM     34  C   UNL A   1      34.184  31.292  27.493  1.00  0.00     0.251 C 
ATOM     35  H   UNL A   1      32.869  30.913  26.028  1.00  0.00     0.163 HD
ATOM     36  O   UNL A   1      33.672  32.374  27.775  1.00  0.00    -0.269 OA
BRANCH  34  37
ATOM     37  C   UNL A   1      35.397  30.839  28.213  1.00  0.00     0.039 A 
ATOM     38  C   UNL A   1      36.563  31.602  28.120  1.00  0.00     0.014 A 
ATOM     39  C   UNL A   1      35.388  29.671  28.981  1.00  0.00     0.014 A 
ATOM     40  C   UNL A   1      37.696  31.234  28.853  1.00  0.00     0.010 A 
ATOM     41  C   UNL A   1      36.491  29.349  29.771  1.00  0.00     0.010 A 
ATOM     42  C   UNL A   1      37.659  30.127  29.717  1.00  0.00    -0.014 A 
BRANCH  42  43
ATOM     43  C   UNL A   1      38.817  29.785  30.586  1.00  0.00     0.031 A 
ATOM     44  C   UNL A   1      38.998  30.458  31.921  1.00  0.00     0.074 A 
ATOM     45  C   UNL A   1      39.757  28.927  30.138  1.00  0.00     0.049 A 
ATOM     46  N   UNL A   1      39.977  30.335  32.780  1.00  0.00    -0.248 NA
ATOM     47  C   UNL A   1      37.956  31.411  32.336  1.00  0.00     0.031 C 
ATOM     48  C   UNL A   1      39.743  28.265  28.832  1.00  0.00     0.029 A 
ATOM     49  N   UNL A   1      40.921  28.487  30.720  1.00  0.00    -0.354 N 
ATOM     50  C   UNL A   1      39.686  31.210  33.819  1.00  0.00     0.074 A 
ATOM     51  C   UNL A   1      38.457  31.888  33.466  1.00  0.00     0.031 C 
ATOM     52  C   UNL A   1      40.843  27.505  28.712  1.00  0.00     0.029 A 
ATOM     53  C   UNL A   1      41.659  27.651  29.913  1.00  0.00     0.049 A 
ATOM     54  H   UNL A   1      41.200  28.744  31.627  1.00  0.00     0.167 HD
ATOM     55  C   UNL A   1      40.361  31.413  34.976  1.00  0.00     0.034 A 
ATOM     56  C   UNL A   1      42.864  27.079  30.106  1.00  0.00     0.034 A 
ATOM     57  C   UNL A   1      41.568  30.719  35.342  1.00  0.00     0.049 A 
ATOM     58  C   UNL A   1      43.583  27.301  31.409  1.00  0.00     0.074 A 
ATOM     59  C   UNL A   1      42.284  30.806  36.523  1.00  0.00     0.029 A 
ATOM     60  N   UNL A   1      42.242  29.819  34.532  1.00  0.00    -0.354 N 
ATOM     61  N   UNL A   1      43.217  28.027  32.438  1.00  0.00    -0.248 NA
ATOM     62  C   UNL A   1      44.860  26.597  31.594  1.00  0.00     0.031 C 
ATOM     63  C   UNL A   1      43.408  29.981  36.415  1.00  0.00     0.029 A 
ATOM     64  C   UNL A   1      43.369  29.349  35.183  1.00  0.00     0.049 A 
ATOM     65  H   UNL A   1      41.959  29.554  33.627  1.00  0.00     0.167 HD
ATOM     66  C   UNL A   1      44.200  27.839  33.404  1.00  0.00     0.074 A 
ATOM     67  C   UNL A   1      45.165  26.915  32.845  1.00  0.00     0.031 C 
ATOM     68  C   UNL A   1      44.300  28.393  34.638  1.00  0.00     0.034 A 
BRANCH  55  69
ATOM     69  C   UNL A   1      39.780  32.394  35.964  1.00  0.00     0.023 A 
ATOM     70  C   UNL A   1      38.852  31.944  36.926  1.00  0.00     0.012 A 
ATOM     71  C   UNL A   1      40.201  33.738  35.987  1.00  0.00     0.148 A 
ATOM     72  C   UNL A   1      38.326  32.822  37.872  1.00  0.00     0.002 A 
ATOM     73  C   UNL A   1      39.708  34.596  36.963  1.00  0.00     0.091 A 
ATOM     74  F   UNL A   1      41.072  34.152  35.056  1.00  0.00    -0.205 F 
ATOM     75  C   UNL A   1      38.761  34.144  37.897  1.00  0.00     0.022 A 
BRANCH  73  76
ATOM     76  S   UNL A   1      40.264  36.296  37.135  1.00  0.00     0.127 S 
ATOM     77  O   UNL A   1      39.859  36.869  35.852  1.00  0.00    -0.237 OA
ATOM     78  O   UNL A   1      39.484  36.758  38.283  1.00  0.00    -0.237 OA
ATOM     79  O   UNL A   1      41.701  36.229  37.361  1.00  0.00    -0.744 OA
ENDBRANCH  73  76
ENDBRANCH  55  69
BRANCH  56  80
ATOM     80  C   UNL A   1      43.449  26.204  29.050  1.00  0.00     0.023 A 
ATOM     81  C   UNL A   1      43.206  24.817  29.080  1.00  0.00     0.012 A 
ATOM     82  C   UNL A   1      44.221  26.744  28.004  1.00  0.00     0.148 A 
ATOM     83  C   UNL A   1      43.750  23.980  28.105  1.00  0.00     0.002 A 
ATOM     84  C   UNL A   1      44.711  25.912  27.004  1.00  0.00     0.091 A 
ATOM     85  F   UNL A   1      44.449  28.065  28.000  1.00  0.00    -0.205 F 
ATOM     86  C   UNL A   1      44.493  24.527  27.063  1.00  0.00     0.022 A 
BRANCH  84  87
ATOM     87  S   UNL A   1      45.560  26.547  25.554  1.00  0.00     0.127 S 
ATOM     88  O   UNL A   1      45.476  25.411  24.638  1.00  0.00    -0.237 OA
ATOM     89  O   UNL A   1      44.723  27.693  25.195  1.00  0.00    -0.237 OA
ATOM     90  O   UNL A   1      46.900  26.898  26.003  1.00  0.00    -0.744 OA
ENDBRANCH  84  87
ENDBRANCH  56  80
BRANCH  68  91
ATOM     91  C   UNL A   1      45.469  27.987  35.497  1.00  0.00     0.023 A 
ATOM     92  C   UNL A   1      46.662  28.735  35.466  1.00  0.00     0.012 A 
ATOM     93  C   UNL A   1      45.356  26.902  36.391  1.00  0.00     0.148 A 
ATOM     94  C   UNL A   1      47.737  28.390  36.285  1.00  0.00     0.002 A 
ATOM     95  C   UNL A   1      46.411  26.596  37.241  1.00  0.00     0.091 A 
ATOM     96  F   UNL A   1      44.219  26.191  36.394  1.00  0.00    -0.205 F 
ATOM     97  C   UNL A   1      47.608  27.330  37.181  1.00  0.00     0.022 A 
BRANCH  95  98
ATOM     98  S   UNL A   1      46.302  25.312  38.493  1.00  0.00     0.127 S 
ATOM     99  O   UNL A   1      47.636  25.362  39.088  1.00  0.00    -0.237 OA
ATOM    100  O   UNL A   1      45.230  25.812  39.354  1.00  0.00    -0.237 OA
ATOM    101  O   UNL A   1      45.982  24.082  37.781  1.00  0.00    -0.744 OA
ENDBRANCH  95  98
ENDBRANCH  68  91
ENDBRANCH  42  43
ENDBRANCH  34  37
ENDBRANCH  32  33
ENDBRANCH  31  32
ENDBRANCH  30  31
ENDBRANCH   1  30
TORSDOF 20
ENDMDL
MODEL 3
REMARK VINA RESULT:     -12.4      4.661      8.001
REMARK SMILES O=C(COc1cc(-c2ccccc2)nc(NCc2ccc(Cl)cc2)n1)NCCCCNC(=O)c1ccc(-c2c3nc(c(-c4cccc(S(=O)(=O)[O-])c4F)c4ccc([nH]4)c(-c4cccc(S(=O)(=O)[O-])c4F)c4nc(c(-c5cccc(S(=O)(=O)[O-])c5F)c5ccc2[nH]5)C=C4)C=C3)cc1
REMARK SMILES IDX 27 1 26 2 1 3 2 4 3 6 4 7 5 8 6 9 25 10 7 11 15 12 14 13
REMARK SMILES IDX 8 14 9 15 13 16 10 17 12 18 11 19 16 20 17 22 18 23 19 24
REMARK SMILES IDX 24 25 20 26 23 27 21 28 22 29 28 30 29 31 30 32 31 33 32 34
REMARK SMILES IDX 33 36 34 37 35 38 96 39 36 40 95 41 37 42 38 43 39 44 89 45
REMARK SMILES IDX 40 46 94 47 88 48 90 49 41 50 93 51 87 52 86 53 42 55 74 56
REMARK SMILES IDX 54 57 73 58 55 59 58 60 72 61 91 62 56 63 57 64 71 66 92 67
REMARK SMILES IDX 59 68 43 69 44 70 52 71 45 72 47 73 53 74 46 75 48 76 49 77
REMARK SMILES IDX 50 78 51 79 75 80 76 81 84 82 77 83 79 84 85 85 78 86 80 87
REMARK SMILES IDX 81 88 82 89 83 90 60 91 61 92 69 93 62 94 64 95 70 96 63 97
REMARK SMILES IDX 65 98 66 99 67 100 68 101
REMARK H PARENT 26 5 16 21 31 35 90 54 58 65
REMARK Flexibility Score: inf
ROOT
ATOM      1  C   UNL A   1      31.271  27.284  26.526  1.00  0.00     0.116 C 
ENDROOT
BRANCH   1   2
ATOM      2  N   UNL A   1      31.435  25.845  26.450  1.00  0.00    -0.353 N 
ATOM      3  O   UNL A   1      29.198  25.325  26.615  1.00  0.00    -0.271 OA
ATOM      4  C   UNL A   1      30.356  24.982  26.391  1.00  0.00     0.258 C 
ATOM      5  H   UNL A   1      32.344  25.469  26.441  1.00  0.00     0.163 HD
BRANCH   4   6
ATOM      6  C   UNL A   1      30.716  23.558  25.941  1.00  0.00     0.331 C 
BRANCH   6   7
ATOM      7  O   UNL A   1      31.241  22.711  26.963  1.00  0.00    -0.467 OA
BRANCH   7   8
ATOM      8  C   UNL A   1      32.399  22.066  26.596  1.00  0.00     0.219 A 
ATOM      9  C   UNL A   1      32.363  20.961  25.789  1.00  0.00     0.097 A 
ATOM     10  N   UNL A   1      33.540  22.674  26.941  1.00  0.00    -0.177 NA
ATOM     11  C   UNL A   1      33.571  20.458  25.375  1.00  0.00     0.080 A 
ATOM     12  C   UNL A   1      34.679  22.122  26.495  1.00  0.00     0.226 A 
ATOM     13  N   UNL A   1      34.738  21.012  25.742  1.00  0.00    -0.213 NA
BRANCH  11  14
ATOM     14  C   UNL A   1      33.606  19.281  24.497  1.00  0.00     0.000 A 
ATOM     15  C   UNL A   1      34.605  18.306  24.627  1.00  0.00     0.010 A 
ATOM     16  C   UNL A   1      32.575  19.055  23.564  1.00  0.00     0.010 A 
ATOM     17  C   UNL A   1      34.551  17.125  23.880  1.00  0.00     0.001 A 
ATOM     18  C   UNL A   1      32.521  17.879  22.816  1.00  0.00     0.001 A 
ATOM     19  C   UNL A   1      33.505  16.910  22.982  1.00  0.00     0.000 A 
ENDBRANCH  11  14
BRANCH  12  20
ATOM     20  N   UNL A   1      35.887  22.682  26.785  1.00  0.00    -0.350 N 
ATOM     21  H   UNL A   1      36.373  22.353  27.576  1.00  0.00     0.164 HD
BRANCH  20  22
ATOM     22  C   UNL A   1      36.493  23.723  26.006  1.00  0.00     0.152 C 
BRANCH  22  23
ATOM     23  C   UNL A   1      35.540  24.122  24.901  1.00  0.00    -0.029 A 
ATOM     24  C   UNL A   1      35.466  23.361  23.725  1.00  0.00     0.007 A 
ATOM     25  C   UNL A   1      34.681  25.223  25.055  1.00  0.00     0.007 A 
ATOM     26  C   UNL A   1      34.564  23.701  22.716  1.00  0.00     0.021 A 
ATOM     27  C   UNL A   1      33.774  25.559  24.047  1.00  0.00     0.021 A 
ATOM     28  C   UNL A   1      33.721  24.797  22.882  1.00  0.00     0.041 A 
ATOM     29  Cl  UNL A   1      32.600  25.209  21.642  1.00  0.00    -0.084 Cl
ENDBRANCH  22  23
ENDBRANCH  20  22
ENDBRANCH  12  20
ENDBRANCH   7   8
ENDBRANCH   6   7
ENDBRANCH   4   6
ENDBRANCH   1   2
BRANCH   1  30
ATOM     30  C   UNL A   1      30.859  27.917  25.204  1.00  0.00     0.023 C 
BRANCH  30  31
ATOM     31  C   UNL A   1      31.933  28.782  24.542  1.00  0.00     0.023 C 
BRANCH  31  32
ATOM     32  C   UNL A   1      32.954  29.408  25.488  1.00  0.00     0.116 C 
BRANCH  32  33
ATOM     33  N   UNL A   1      32.532  30.698  26.012  1.00  0.00    -0.352 N 
ATOM     34  C   UNL A   1      33.102  31.468  26.998  1.00  0.00     0.251 C 
ATOM     35  H   UNL A   1      31.719  31.074  25.601  1.00  0.00     0.163 HD
ATOM     36  O   UNL A   1      32.516  32.470  27.404  1.00  0.00    -0.269 OA
BRANCH  34  37
ATOM     37  C   UNL A   1      34.403  31.082  27.595  1.00  0.00     0.039 A 
ATOM     38  C   UNL A   1      35.417  32.039  27.679  1.00  0.00     0.014 A 
ATOM     39  C   UNL A   1      34.625  29.787  28.071  1.00  0.00     0.014 A 
ATOM     40  C   UNL A   1      36.625  31.719  28.307  1.00  0.00     0.010 A 
ATOM     41  C   UNL A   1      35.798  29.493  28.765  1.00  0.00     0.010 A 
ATOM     42  C   UNL A   1      36.812  30.455  28.892  1.00  0.00    -0.014 A 
BRANCH  42  43
ATOM     43  C   UNL A   1      38.047  30.133  29.658  1.00  0.00     0.031 A 
ATOM     44  C   UNL A   1      39.059  29.163  29.108  1.00  0.00     0.074 A 
ATOM     45  C   UNL A   1      38.220  30.652  30.891  1.00  0.00     0.049 A 
ATOM     46  N   UNL A   1      40.157  28.715  29.663  1.00  0.00    -0.248 NA
ATOM     47  C   UNL A   1      38.793  28.606  27.772  1.00  0.00     0.031 C 
ATOM     48  C   UNL A   1      37.279  31.543  31.574  1.00  0.00     0.029 A 
ATOM     49  N   UNL A   1      39.234  30.481  31.803  1.00  0.00    -0.354 N 
ATOM     50  C   UNL A   1      40.696  27.806  28.760  1.00  0.00     0.074 A 
ATOM     51  C   UNL A   1      39.785  27.737  27.638  1.00  0.00     0.031 C 
ATOM     52  C   UNL A   1      37.758  31.840  32.792  1.00  0.00     0.029 A 
ATOM     53  C   UNL A   1      39.020  31.134  32.996  1.00  0.00     0.049 A 
ATOM     54  H   UNL A   1      40.037  29.943  31.621  1.00  0.00     0.167 HD
ATOM     55  C   UNL A   1      41.857  27.113  28.841  1.00  0.00     0.034 A 
ATOM     56  C   UNL A   1      39.744  31.153  34.131  1.00  0.00     0.034 A 
ATOM     57  C   UNL A   1      42.777  27.202  29.944  1.00  0.00     0.049 A 
ATOM     58  C   UNL A   1      41.042  30.393  34.188  1.00  0.00     0.074 A 
ATOM     59  C   UNL A   1      44.012  26.592  30.084  1.00  0.00     0.029 A 
ATOM     60  N   UNL A   1      42.564  27.938  31.098  1.00  0.00    -0.354 N 
ATOM     61  N   UNL A   1      41.602  29.649  33.265  1.00  0.00    -0.248 NA
ATOM     62  C   UNL A   1      41.826  30.506  35.427  1.00  0.00     0.031 C 
ATOM     63  C   UNL A   1      44.531  26.936  31.335  1.00  0.00     0.029 A 
ATOM     64  C   UNL A   1      43.639  27.793  31.958  1.00  0.00     0.049 A 
ATOM     65  H   UNL A   1      41.765  28.485  31.279  1.00  0.00     0.167 HD
ATOM     66  C   UNL A   1      42.818  29.234  33.797  1.00  0.00     0.074 A 
ATOM     67  C   UNL A   1      42.922  29.827  35.115  1.00  0.00     0.031 C 
ATOM     68  C   UNL A   1      43.757  28.424  33.248  1.00  0.00     0.034 A 
BRANCH  55  69
ATOM     69  C   UNL A   1      42.229  26.229  27.677  1.00  0.00     0.023 A 
ATOM     70  C   UNL A   1      43.039  26.744  26.645  1.00  0.00     0.012 A 
ATOM     71  C   UNL A   1      41.838  24.876  27.637  1.00  0.00     0.148 A 
ATOM     72  C   UNL A   1      43.426  25.940  25.574  1.00  0.00     0.002 A 
ATOM     73  C   UNL A   1      42.267  24.068  26.591  1.00  0.00     0.091 A 
ATOM     74  F   UNL A   1      41.054  24.407  28.618  1.00  0.00    -0.205 F 
ATOM     75  C   UNL A   1      43.048  24.600  25.553  1.00  0.00     0.022 A 
BRANCH  73  76
ATOM     76  S   UNL A   1      41.905  22.310  26.509  1.00  0.00     0.127 S 
ATOM     77  O   UNL A   1      42.461  21.836  27.776  1.00  0.00    -0.237 OA
ATOM     78  O   UNL A   1      40.444  22.301  26.443  1.00  0.00    -0.237 OA
ATOM     79  O   UNL A   1      42.573  21.816  25.314  1.00  0.00    -0.744 OA
ENDBRANCH  73  76
ENDBRANCH  55  69
BRANCH  56  80
ATOM     80  C   UNL A   1      39.277  31.955  35.298  1.00  0.00     0.023 A 
ATOM     81  C   UNL A   1      38.400  31.377  36.236  1.00  0.00     0.012 A 
ATOM     82  C   UNL A   1      39.718  33.278  35.494  1.00  0.00     0.148 A 
ATOM     83  C   UNL A   1      37.946  32.112  37.331  1.00  0.00     0.002 A 
ATOM     84  C   UNL A   1      39.307  33.985  36.618  1.00  0.00     0.091 A 
ATOM     85  F   UNL A   1      40.543  33.813  34.584  1.00  0.00    -0.205 F 
ATOM     86  C   UNL A   1      38.406  33.411  37.528  1.00  0.00     0.022 A 
BRANCH  84  87
ATOM     87  S   UNL A   1      39.956  35.610  37.022  1.00  0.00     0.127 S 
ATOM     88  O   UNL A   1      39.229  35.925  38.250  1.00  0.00    -0.237 OA
ATOM     89  O   UNL A   1      41.381  35.327  37.204  1.00  0.00    -0.237 OA
ATOM     90  O   UNL A   1      39.653  36.453  35.874  1.00  0.00    -0.744 OA
ENDBRANCH  84  87
ENDBRANCH  56  80
BRANCH  68  91
ATOM     91  C   UNL A   1      45.007  28.159  34.045  1.00  0.00     0.023 A 
ATOM     92  C   UNL A   1      46.123  29.010  33.914  1.00  0.00     0.012 A 
ATOM     93  C   UNL A   1      45.049  27.105  34.980  1.00  0.00     0.148 A 
ATOM     94  C   UNL A   1      47.272  28.795  34.675  1.00  0.00     0.002 A 
ATOM     95  C   UNL A   1      46.177  26.929  35.772  1.00  0.00     0.091 A 
ATOM     96  F   UNL A   1      43.985  26.295  35.080  1.00  0.00    -0.205 F 
ATOM     97  C   UNL A   1      47.295  27.764  35.612  1.00  0.00     0.022 A 
BRANCH  95  98
ATOM     98  S   UNL A   1      46.261  25.691  37.071  1.00  0.00     0.127 S 
ATOM     99  O   UNL A   1      45.017  25.937  37.798  1.00  0.00    -0.237 OA
ATOM    100  O   UNL A   1      46.286  24.443  36.308  1.00  0.00    -0.237 OA
ATOM    101  O   UNL A   1      47.482  25.969  37.815  1.00  0.00    -0.744 OA
ENDBRANCH  95  98
ENDBRANCH  68  91
ENDBRANCH  42  43
ENDBRANCH  34  37
ENDBRANCH  32  33
ENDBRANCH  31  32
ENDBRANCH  30  31
ENDBRANCH   1  30
TORSDOF 20
ENDMDL
