MODEL 1
REMARK VINA RESULT:     -12.0      0.000      0.000
REMARK SMILES CC1([C@@H]2C[C@H](C(F)(F)F)n3nc(C(=O)NCCCCNC(=O)c4ccc(-c5c6nc(c(-c7cccc(S(=O)(=O)[O-])c7F)c7ccc([nH]7)c(-c7cccc(S(=O)(=O)[O-])c7F)c7nc(c(-c8cccc(S(=O)(=O)[O-])c8F)c8ccc5[nH]8)C=C7)C=C6)cc4)cc3N2)CC1
REMARK SMILES IDX 18 1 17 2 16 3 15 4 13 5 14 6 12 8 3 9 4 10 88 11 5 12 87 13
REMARK SMILES IDX 10 15 86 16 11 17 2 18 1 19 89 20 90 21 6 22 7 23 8 24 9 25
REMARK SMILES IDX 19 26 20 27 21 28 22 30 23 31 24 32 85 33 25 34 84 35 26 36
REMARK SMILES IDX 27 37 28 38 78 39 29 40 83 41 77 42 79 43 30 44 82 45 76 46
REMARK SMILES IDX 75 47 31 49 63 50 43 51 62 52 44 53 47 54 61 55 80 56 45 57
REMARK SMILES IDX 46 58 60 60 81 61 48 62 32 63 33 64 41 65 34 66 36 67 42 68
REMARK SMILES IDX 35 69 37 70 38 71 39 72 40 73 64 74 65 75 73 76 66 77 68 78
REMARK SMILES IDX 74 79 67 80 69 81 70 82 71 83 72 84 49 85 50 86 58 87 51 88
REMARK SMILES IDX 53 89 59 90 52 91 54 92 55 93 56 94 57 95
REMARK H PARENT 15 7 88 14 20 29 79 48 47 59
REMARK Flexibility Score: inf
ROOT
ATOM      1  C   UNL A   1      32.732  28.786  25.139  1.00  0.00     0.023 C 
ENDROOT
BRANCH   1   2
ATOM      2  C   UNL A   1      33.152  28.046  23.863  1.00  0.00     0.023 C 
BRANCH   2   3
ATOM      3  C   UNL A   1      31.985  27.639  22.961  1.00  0.00     0.116 C 
BRANCH   3   4
ATOM      4  N   UNL A   1      32.447  27.168  21.674  1.00  0.00    -0.351 N 
ATOM      5  C   UNL A   1      32.853  25.927  21.236  1.00  0.00     0.271 C 
ATOM      6  O   UNL A   1      33.100  25.838  20.030  1.00  0.00    -0.267 OA
ATOM      7  H   UNL A   1      32.476  27.867  20.981  1.00  0.00     0.163 HD
BRANCH   5   8
ATOM      8  C   UNL A   1      32.986  24.771  22.152  1.00  0.00     0.152 A 
ATOM      9  C   UNL A   1      33.162  21.523  25.371  1.00  0.00     0.089 C 
ATOM     10  C   UNL A   1      34.572  21.369  24.767  1.00  0.00     0.062 C 
ATOM     11  N   UNL A   1      32.266  22.080  24.373  1.00  0.00    -0.367 N 
ATOM     12  C   UNL A   1      35.083  22.594  23.972  1.00  0.00     0.216 C 
ATOM     13  C   UNL A   1      32.677  23.072  23.562  1.00  0.00     0.126 A 
ATOM     14  H   UNL A   1      31.350  21.729  24.288  1.00  0.00     0.162 HD
ATOM     15  N   UNL A   1      33.999  23.352  23.388  1.00  0.00    -0.237 N 
ATOM     16  C   UNL A   1      31.996  24.001  22.827  1.00  0.00     0.082 A 
ATOM     17  N   UNL A   1      34.218  24.314  22.483  1.00  0.00    -0.165 NA
BRANCH   9  18
ATOM     18  C   UNL A   1      33.079  22.282  26.707  1.00  0.00    -0.012 C 
ATOM     19  C   UNL A   1      34.041  21.779  27.764  1.00  0.00     0.013 C 
ATOM     20  C   UNL A   1      31.706  22.722  27.220  1.00  0.00     0.009 C 
ATOM     21  C   UNL A   1      32.692  23.755  26.787  1.00  0.00     0.009 C 
ENDBRANCH   9  18
BRANCH  12  22
ATOM     22  C   UNL A   1      36.032  23.435  24.800  1.00  0.00     0.410 C 
ATOM     23  F   UNL A   1      36.420  22.713  25.892  1.00  0.00    -0.169 F 
ATOM     24  F   UNL A   1      37.168  23.781  24.166  1.00  0.00    -0.169 F 
ATOM     25  F   UNL A   1      35.472  24.561  25.286  1.00  0.00    -0.169 F 
ENDBRANCH  12  22
ENDBRANCH   5   8
ENDBRANCH   3   4
ENDBRANCH   2   3
ENDBRANCH   1   2
BRANCH   1  26
ATOM     26  C   UNL A   1      33.864  29.103  26.115  1.00  0.00     0.116 C 
BRANCH  26  27
ATOM     27  N   UNL A   1      33.758  30.424  26.717  1.00  0.00    -0.352 N 
ATOM     28  C   UNL A   1      34.593  31.009  27.643  1.00  0.00     0.251 C 
ATOM     29  H   UNL A   1      32.992  30.969  26.425  1.00  0.00     0.163 HD
ATOM     30  O   UNL A   1      34.312  32.096  28.128  1.00  0.00    -0.269 OA
BRANCH  28  31
ATOM     31  C   UNL A   1      35.809  30.286  28.073  1.00  0.00     0.039 A 
ATOM     32  C   UNL A   1      36.954  30.358  27.274  1.00  0.00     0.014 A 
ATOM     33  C   UNL A   1      35.831  29.578  29.278  1.00  0.00     0.014 A 
ATOM     34  C   UNL A   1      38.144  29.777  27.720  1.00  0.00     0.010 A 
ATOM     35  C   UNL A   1      37.033  29.056  29.748  1.00  0.00     0.010 A 
ATOM     36  C   UNL A   1      38.202  29.154  28.977  1.00  0.00    -0.014 A 
BRANCH  36  37
ATOM     37  C   UNL A   1      39.480  28.628  29.521  1.00  0.00     0.031 A 
ATOM     38  C   UNL A   1      40.187  29.351  30.634  1.00  0.00     0.074 A 
ATOM     39  C   UNL A   1      40.060  27.561  28.934  1.00  0.00     0.049 A 
ATOM     40  N   UNL A   1      41.342  29.084  31.186  1.00  0.00    -0.248 NA
ATOM     41  C   UNL A   1      39.526  30.549  31.180  1.00  0.00     0.031 C 
ATOM     42  C   UNL A   1      39.523  26.832  27.782  1.00  0.00     0.029 A 
ATOM     43  N   UNL A   1      41.247  26.926  29.201  1.00  0.00    -0.354 N 
ATOM     44  C   UNL A   1      41.568  30.099  32.107  1.00  0.00     0.074 A 
ATOM     45  C   UNL A   1      40.440  31.001  32.028  1.00  0.00     0.031 C 
ATOM     46  C   UNL A   1      40.381  25.859  27.437  1.00  0.00     0.029 A 
ATOM     47  C   UNL A   1      41.538  25.905  28.325  1.00  0.00     0.049 A 
ATOM     48  H   UNL A   1      41.836  27.176  29.950  1.00  0.00     0.167 HD
ATOM     49  C   UNL A   1      42.606  30.251  32.962  1.00  0.00     0.034 A 
ATOM     50  C   UNL A   1      42.618  25.104  28.240  1.00  0.00     0.034 A 
ATOM     51  C   UNL A   1      43.694  29.318  33.084  1.00  0.00     0.049 A 
ATOM     52  C   UNL A   1      43.720  25.250  29.255  1.00  0.00     0.074 A 
ATOM     53  C   UNL A   1      44.726  29.319  34.005  1.00  0.00     0.029 A 
ATOM     54  N   UNL A   1      43.893  28.222  32.260  1.00  0.00    -0.354 N 
ATOM     55  N   UNL A   1      43.818  26.100  30.248  1.00  0.00    -0.248 NA
ATOM     56  C   UNL A   1      44.840  24.301  29.166  1.00  0.00     0.031 C 
ATOM     57  C   UNL A   1      45.562  28.232  33.727  1.00  0.00     0.029 A 
ATOM     58  C   UNL A   1      45.038  27.546  32.643  1.00  0.00     0.049 A 
ATOM     59  H   UNL A   1      43.308  27.965  31.513  1.00  0.00     0.167 HD
ATOM     60  C   UNL A   1      44.989  25.769  30.919  1.00  0.00     0.074 A 
ATOM     61  C   UNL A   1      45.554  24.624  30.235  1.00  0.00     0.031 C 
ATOM     62  C   UNL A   1      45.556  26.371  31.992  1.00  0.00     0.034 A 
BRANCH  49  63
ATOM     63  C   UNL A   1      42.591  31.439  33.886  1.00  0.00     0.023 A 
ATOM     64  C   UNL A   1      43.098  32.675  33.433  1.00  0.00     0.012 A 
ATOM     65  C   UNL A   1      42.004  31.359  35.163  1.00  0.00     0.148 A 
ATOM     66  C   UNL A   1      43.043  33.805  34.246  1.00  0.00     0.002 A 
ATOM     67  C   UNL A   1      41.916  32.500  35.952  1.00  0.00     0.091 A 
ATOM     68  F   UNL A   1      41.546  30.171  35.583  1.00  0.00    -0.205 F 
ATOM     69  C   UNL A   1      42.443  33.721  35.498  1.00  0.00     0.022 A 
BRANCH  67  70
ATOM     70  S   UNL A   1      41.093  32.516  37.549  1.00  0.00     0.127 S 
ATOM     71  O   UNL A   1      39.781  31.966  37.208  1.00  0.00    -0.237 OA
ATOM     72  O   UNL A   1      41.940  31.623  38.341  1.00  0.00    -0.237 OA
ATOM     73  O   UNL A   1      41.093  33.904  37.989  1.00  0.00    -0.744 OA
ENDBRANCH  67  70
ENDBRANCH  49  63
BRANCH  50  74
ATOM     74  C   UNL A   1      42.681  24.046  27.192  1.00  0.00     0.023 A 
ATOM     75  C   UNL A   1      43.402  24.288  26.007  1.00  0.00     0.012 A 
ATOM     76  C   UNL A   1      42.052  22.798  27.369  1.00  0.00     0.148 A 
ATOM     77  C   UNL A   1      43.465  23.323  25.001  1.00  0.00     0.002 A 
ATOM     78  C   UNL A   1      42.167  21.820  26.388  1.00  0.00     0.091 A 
ATOM     79  F   UNL A   1      41.357  22.590  28.496  1.00  0.00    -0.205 F 
ATOM     80  C   UNL A   1      42.857  22.086  25.196  1.00  0.00     0.022 A 
BRANCH  78  81
ATOM     81  S   UNL A   1      41.528  20.157  26.623  1.00  0.00     0.127 S 
ATOM     82  O   UNL A   1      41.981  19.487  25.407  1.00  0.00    -0.237 OA
ATOM     83  O   UNL A   1      42.210  19.736  27.848  1.00  0.00    -0.237 OA
ATOM     84  O   UNL A   1      40.087  20.315  26.770  1.00  0.00    -0.744 OA
ENDBRANCH  78  81
ENDBRANCH  50  74
BRANCH  62  85
ATOM     85  C   UNL A   1      46.842  25.792  32.523  1.00  0.00     0.023 A 
ATOM     86  C   UNL A   1      48.075  26.282  32.049  1.00  0.00     0.012 A 
ATOM     87  C   UNL A   1      46.828  24.825  33.547  1.00  0.00     0.148 A 
ATOM     88  C   UNL A   1      49.275  25.799  32.567  1.00  0.00     0.002 A 
ATOM     89  C   UNL A   1      48.028  24.380  34.091  1.00  0.00     0.091 A 
ATOM     90  F   UNL A   1      45.644  24.356  33.970  1.00  0.00    -0.205 F 
ATOM     91  C   UNL A   1      49.251  24.858  33.595  1.00  0.00     0.022 A 
BRANCH  89  92
ATOM     92  S   UNL A   1      48.088  23.244  35.480  1.00  0.00     0.127 S 
ATOM     93  O   UNL A   1      47.565  22.016  34.884  1.00  0.00    -0.237 OA
ATOM     94  O   UNL A   1      49.516  23.209  35.794  1.00  0.00    -0.237 OA
ATOM     95  O   UNL A   1      47.258  23.840  36.519  1.00  0.00    -0.744 OA
ENDBRANCH  89  92
ENDBRANCH  62  85
ENDBRANCH  36  37
ENDBRANCH  28  31
ENDBRANCH  26  27
ENDBRANCH   1  26
TORSDOF 16
ENDMDL
MODEL 2
REMARK VINA RESULT:     -11.9      4.793      9.585
REMARK SMILES CC1([C@@H]2C[C@H](C(F)(F)F)n3nc(C(=O)NCCCCNC(=O)c4ccc(-c5c6nc(c(-c7cccc(S(=O)(=O)[O-])c7F)c7ccc([nH]7)c(-c7cccc(S(=O)(=O)[O-])c7F)c7nc(c(-c8cccc(S(=O)(=O)[O-])c8F)c8ccc5[nH]8)C=C7)C=C6)cc4)cc3N2)CC1
REMARK SMILES IDX 18 1 17 2 16 3 15 4 13 5 14 6 12 8 3 9 4 10 88 11 5 12 87 13
REMARK SMILES IDX 10 15 86 16 11 17 2 18 1 19 89 20 90 21 6 22 7 23 8 24 9 25
REMARK SMILES IDX 19 26 20 27 21 28 22 30 23 31 24 32 85 33 25 34 84 35 26 36
REMARK SMILES IDX 27 37 28 38 78 39 29 40 83 41 77 42 79 43 30 44 82 45 76 46
REMARK SMILES IDX 75 47 31 49 63 50 43 51 62 52 44 53 47 54 61 55 80 56 45 57
REMARK SMILES IDX 46 58 60 60 81 61 48 62 32 63 33 64 41 65 34 66 36 67 42 68
REMARK SMILES IDX 35 69 37 70 38 71 39 72 40 73 64 74 65 75 73 76 66 77 68 78
REMARK SMILES IDX 74 79 67 80 69 81 70 82 71 83 72 84 49 85 50 86 58 87 51 88
REMARK SMILES IDX 53 89 59 90 52 91 54 92 55 93 56 94 57 95
REMARK H PARENT 15 7 88 14 20 29 79 48 47 59
REMARK Flexibility Score: inf
ROOT
ATOM      1  C   UNL A   1      34.960  23.632  25.697  1.00  0.00     0.023 C 
ENDROOT
BRANCH   1   2
ATOM      2  C   UNL A   1      34.102  22.995  26.797  1.00  0.00     0.023 C 
BRANCH   2   3
ATOM      3  C   UNL A   1      33.006  22.063  26.277  1.00  0.00     0.116 C 
BRANCH   3   4
ATOM      4  N   UNL A   1      31.782  22.205  27.035  1.00  0.00    -0.351 N 
ATOM      5  C   UNL A   1      30.781  23.150  27.005  1.00  0.00     0.271 C 
ATOM      6  O   UNL A   1      29.808  22.925  27.729  1.00  0.00    -0.267 OA
ATOM      7  H   UNL A   1      31.639  21.492  27.699  1.00  0.00     0.163 HD
BRANCH   5   8
ATOM      8  C   UNL A   1      30.864  24.360  26.155  1.00  0.00     0.152 A 
ATOM      9  C   UNL A   1      31.533  27.841  23.259  1.00  0.00     0.089 C 
ATOM     10  C   UNL A   1      31.404  28.623  24.582  1.00  0.00     0.062 C 
ATOM     11  N   UNL A   1      30.817  26.581  23.369  1.00  0.00    -0.367 N 
ATOM     12  C   UNL A   1      31.646  27.789  25.863  1.00  0.00     0.216 C 
ATOM     13  C   UNL A   1      30.884  25.854  24.500  1.00  0.00     0.126 A 
ATOM     14  H   UNL A   1      30.278  26.257  22.612  1.00  0.00     0.162 HD
ATOM     15  N   UNL A   1      31.306  26.396  25.676  1.00  0.00    -0.237 N 
ATOM     16  C   UNL A   1      30.646  24.533  24.758  1.00  0.00     0.082 A 
ATOM     17  N   UNL A   1      31.226  25.545  26.706  1.00  0.00    -0.165 NA
BRANCH   9  18
ATOM     18  C   UNL A   1      32.963  27.646  22.726  1.00  0.00    -0.012 C 
ATOM     19  C   UNL A   1      33.792  28.914  22.704  1.00  0.00     0.013 C 
ATOM     20  C   UNL A   1      33.188  26.690  21.552  1.00  0.00     0.009 C 
ATOM     21  C   UNL A   1      33.728  26.338  22.899  1.00  0.00     0.009 C 
ENDBRANCH   9  18
BRANCH  12  22
ATOM     22  C   UNL A   1      33.042  28.003  26.408  1.00  0.00     0.410 C 
ATOM     23  F   UNL A   1      33.801  26.906  26.116  1.00  0.00    -0.169 F 
ATOM     24  F   UNL A   1      33.694  29.053  25.873  1.00  0.00    -0.169 F 
ATOM     25  F   UNL A   1      33.084  28.132  27.749  1.00  0.00    -0.169 F 
ENDBRANCH  12  22
ENDBRANCH   5   8
ENDBRANCH   3   4
ENDBRANCH   2   3
ENDBRANCH   1   2
BRANCH   1  26
ATOM     26  C   UNL A   1      36.391  23.982  26.103  1.00  0.00     0.116 C 
BRANCH  26  27
ATOM     27  N   UNL A   1      37.312  22.858  26.013  1.00  0.00    -0.352 N 
ATOM     28  C   UNL A   1      38.658  22.834  26.300  1.00  0.00     0.251 C 
ATOM     29  H   UNL A   1      36.922  22.008  25.706  1.00  0.00     0.163 HD
ATOM     30  O   UNL A   1      39.319  21.829  26.078  1.00  0.00    -0.269 OA
BRANCH  28  31
ATOM     31  C   UNL A   1      39.302  24.052  26.839  1.00  0.00     0.039 A 
ATOM     32  C   UNL A   1      39.902  24.946  25.948  1.00  0.00     0.014 A 
ATOM     33  C   UNL A   1      39.275  24.328  28.208  1.00  0.00     0.014 A 
ATOM     34  C   UNL A   1      40.414  26.156  26.426  1.00  0.00     0.010 A 
ATOM     35  C   UNL A   1      39.728  25.560  28.671  1.00  0.00     0.010 A 
ATOM     36  C   UNL A   1      40.298  26.487  27.785  1.00  0.00    -0.014 A 
BRANCH  36  37
ATOM     37  C   UNL A   1      40.733  27.812  28.297  1.00  0.00     0.031 A 
ATOM     38  C   UNL A   1      42.195  28.116  28.473  1.00  0.00     0.074 A 
ATOM     39  C   UNL A   1      39.805  28.700  28.710  1.00  0.00     0.049 A 
ATOM     40  N   UNL A   1      42.760  29.185  28.972  1.00  0.00    -0.248 NA
ATOM     41  C   UNL A   1      43.150  27.071  28.064  1.00  0.00     0.031 C 
ATOM     42  C   UNL A   1      38.356  28.484  28.683  1.00  0.00     0.029 A 
ATOM     43  N   UNL A   1      39.943  29.947  29.267  1.00  0.00    -0.354 N 
ATOM     44  C   UNL A   1      44.125  28.926  28.980  1.00  0.00     0.074 A 
ATOM     45  C   UNL A   1      44.305  27.591  28.454  1.00  0.00     0.031 C 
ATOM     46  C   UNL A   1      37.742  29.556  29.209  1.00  0.00     0.029 A 
ATOM     47  C   UNL A   1      38.748  30.525  29.631  1.00  0.00     0.049 A 
ATOM     48  H   UNL A   1      40.814  30.387  29.394  1.00  0.00     0.167 HD
ATOM     49  C   UNL A   1      45.138  29.738  29.362  1.00  0.00     0.034 A 
ATOM     50  C   UNL A   1      38.492  31.698  30.242  1.00  0.00     0.034 A 
ATOM     51  C   UNL A   1      44.960  31.088  29.823  1.00  0.00     0.049 A 
ATOM     52  C   UNL A   1      39.639  32.611  30.584  1.00  0.00     0.074 A 
ATOM     53  C   UNL A   1      45.930  32.031  30.115  1.00  0.00     0.029 A 
ATOM     54  N   UNL A   1      43.734  31.688  30.064  1.00  0.00    -0.354 N 
ATOM     55  N   UNL A   1      40.923  32.425  30.399  1.00  0.00    -0.248 NA
ATOM     56  C   UNL A   1      39.301  33.912  31.180  1.00  0.00     0.031 C 
ATOM     57  C   UNL A   1      45.290  33.197  30.550  1.00  0.00     0.029 A 
ATOM     58  C   UNL A   1      43.922  32.984  30.511  1.00  0.00     0.049 A 
ATOM     59  H   UNL A   1      42.860  31.255  29.935  1.00  0.00     0.167 HD
ATOM     60  C   UNL A   1      41.542  33.594  30.824  1.00  0.00     0.074 A 
ATOM     61  C   UNL A   1      40.491  34.493  31.253  1.00  0.00     0.031 C 
ATOM     62  C   UNL A   1      42.864  33.890  30.875  1.00  0.00     0.034 A 
BRANCH  49  63
ATOM     63  C   UNL A   1      46.545  29.216  29.241  1.00  0.00     0.023 A 
ATOM     64  C   UNL A   1      47.123  28.523  30.325  1.00  0.00     0.012 A 
ATOM     65  C   UNL A   1      47.262  29.334  28.035  1.00  0.00     0.148 A 
ATOM     66  C   UNL A   1      48.400  27.978  30.219  1.00  0.00     0.002 A 
ATOM     67  C   UNL A   1      48.520  28.753  27.923  1.00  0.00     0.091 A 
ATOM     68  F   UNL A   1      46.703  30.013  27.023  1.00  0.00    -0.205 F 
ATOM     69  C   UNL A   1      49.093  28.083  29.017  1.00  0.00     0.022 A 
BRANCH  67  70
ATOM     70  S   UNL A   1      49.462  28.763  26.394  1.00  0.00     0.127 S 
ATOM     71  O   UNL A   1      50.519  27.799  26.693  1.00  0.00    -0.237 OA
ATOM     72  O   UNL A   1      48.473  28.299  25.420  1.00  0.00    -0.237 OA
ATOM     73  O   UNL A   1      49.906  30.137  26.203  1.00  0.00    -0.744 OA
ENDBRANCH  67  70
ENDBRANCH  49  63
BRANCH  50  74
ATOM     74  C   UNL A   1      37.084  32.107  30.511  1.00  0.00     0.023 A 
ATOM     75  C   UNL A   1      36.541  31.913  31.796  1.00  0.00     0.012 A 
ATOM     76  C   UNL A   1      36.289  32.704  29.514  1.00  0.00     0.148 A 
ATOM     77  C   UNL A   1      35.222  32.271  32.074  1.00  0.00     0.002 A 
ATOM     78  C   UNL A   1      34.993  33.110  29.813  1.00  0.00     0.091 A 
ATOM     79  F   UNL A   1      36.816  32.866  28.292  1.00  0.00    -0.205 F 
ATOM     80  C   UNL A   1      34.452  32.879  31.087  1.00  0.00     0.022 A 
BRANCH  78  81
ATOM     81  S   UNL A   1      33.987  34.022  28.638  1.00  0.00     0.127 S 
ATOM     82  O   UNL A   1      32.928  34.550  29.494  1.00  0.00    -0.237 OA
ATOM     83  O   UNL A   1      34.930  35.024  28.137  1.00  0.00    -0.237 OA
ATOM     84  O   UNL A   1      33.577  33.042  27.641  1.00  0.00    -0.744 OA
ENDBRANCH  78  81
ENDBRANCH  50  74
BRANCH  62  85
ATOM     85  C   UNL A   1      43.259  35.252  31.383  1.00  0.00     0.023 A 
ATOM     86  C   UNL A   1      43.500  35.440  32.758  1.00  0.00     0.012 A 
ATOM     87  C   UNL A   1      43.471  36.320  30.490  1.00  0.00     0.148 A 
ATOM     88  C   UNL A   1      43.920  36.678  33.240  1.00  0.00     0.002 A 
ATOM     89  C   UNL A   1      43.934  37.539  30.971  1.00  0.00     0.091 A 
ATOM     90  F   UNL A   1      43.216  36.127  29.187  1.00  0.00    -0.205 F 
ATOM     91  C   UNL A   1      44.148  37.723  32.346  1.00  0.00     0.022 A 
BRANCH  89  92
ATOM     92  S   UNL A   1      44.345  38.907  29.882  1.00  0.00     0.127 S 
ATOM     93  O   UNL A   1      44.783  39.926  30.834  1.00  0.00    -0.237 OA
ATOM     94  O   UNL A   1      45.415  38.340  29.060  1.00  0.00    -0.237 OA
ATOM     95  O   UNL A   1      43.124  39.216  29.150  1.00  0.00    -0.744 OA
ENDBRANCH  89  92
ENDBRANCH  62  85
ENDBRANCH  36  37
ENDBRANCH  28  31
ENDBRANCH  26  27
ENDBRANCH   1  26
TORSDOF 16
ENDMDL
MODEL 3
REMARK VINA RESULT:     -11.9      1.302      1.958
REMARK SMILES CC1([C@@H]2C[C@H](C(F)(F)F)n3nc(C(=O)NCCCCNC(=O)c4ccc(-c5c6nc(c(-c7cccc(S(=O)(=O)[O-])c7F)c7ccc([nH]7)c(-c7cccc(S(=O)(=O)[O-])c7F)c7nc(c(-c8cccc(S(=O)(=O)[O-])c8F)c8ccc5[nH]8)C=C7)C=C6)cc4)cc3N2)CC1
REMARK SMILES IDX 18 1 17 2 16 3 15 4 13 5 14 6 12 8 3 9 4 10 88 11 5 12 87 13
REMARK SMILES IDX 10 15 86 16 11 17 2 18 1 19 89 20 90 21 6 22 7 23 8 24 9 25
REMARK SMILES IDX 19 26 20 27 21 28 22 30 23 31 24 32 85 33 25 34 84 35 26 36
REMARK SMILES IDX 27 37 28 38 78 39 29 40 83 41 77 42 79 43 30 44 82 45 76 46
REMARK SMILES IDX 75 47 31 49 63 50 43 51 62 52 44 53 47 54 61 55 80 56 45 57
REMARK SMILES IDX 46 58 60 60 81 61 48 62 32 63 33 64 41 65 34 66 36 67 42 68
REMARK SMILES IDX 35 69 37 70 38 71 39 72 40 73 64 74 65 75 73 76 66 77 68 78
REMARK SMILES IDX 74 79 67 80 69 81 70 82 71 83 72 84 49 85 50 86 58 87 51 88
REMARK SMILES IDX 53 89 59 90 52 91 54 92 55 93 56 94 57 95
REMARK H PARENT 15 7 88 14 20 29 79 48 47 59
REMARK Flexibility Score: inf
ROOT
ATOM      1  C   UNL A   1      33.206  29.056  24.793  1.00  0.00     0.023 C 
ENDROOT
BRANCH   1   2
ATOM      2  C   UNL A   1      33.976  28.294  23.707  1.00  0.00     0.023 C 
BRANCH   2   3
ATOM      3  C   UNL A   1      33.127  27.288  22.926  1.00  0.00     0.116 C 
BRANCH   3   4
ATOM      4  N   UNL A   1      31.803  27.155  23.494  1.00  0.00    -0.351 N 
ATOM      5  C   UNL A   1      31.290  26.312  24.453  1.00  0.00     0.271 C 
ATOM      6  O   UNL A   1      30.121  26.524  24.785  1.00  0.00    -0.267 OA
ATOM      7  H   UNL A   1      31.146  27.788  23.124  1.00  0.00     0.163 HD
BRANCH   5   8
ATOM      8  C   UNL A   1      32.089  25.217  25.051  1.00  0.00     0.152 A 
ATOM      9  C   UNL A   1      34.990  22.038  26.609  1.00  0.00     0.089 C 
ATOM     10  C   UNL A   1      33.771  21.148  26.294  1.00  0.00     0.062 C 
ATOM     11  N   UNL A   1      34.543  23.393  26.881  1.00  0.00    -0.367 N 
ATOM     12  C   UNL A   1      32.749  21.760  25.307  1.00  0.00     0.216 C 
ATOM     13  C   UNL A   1      33.571  23.955  26.138  1.00  0.00     0.126 A 
ATOM     14  H   UNL A   1      34.952  23.905  27.615  1.00  0.00     0.162 HD
ATOM     15  N   UNL A   1      32.739  23.205  25.362  1.00  0.00    -0.237 N 
ATOM     16  C   UNL A   1      33.219  25.257  25.918  1.00  0.00     0.082 A 
ATOM     17  N   UNL A   1      31.786  23.928  24.762  1.00  0.00    -0.165 NA
BRANCH   9  18
ATOM     18  C   UNL A   1      36.134  22.004  25.580  1.00  0.00    -0.012 C 
ATOM     19  C   UNL A   1      36.436  20.624  25.035  1.00  0.00     0.013 C 
ATOM     20  C   UNL A   1      37.351  22.906  25.802  1.00  0.00     0.009 C 
ATOM     21  C   UNL A   1      36.435  23.180  24.655  1.00  0.00     0.009 C 
ENDBRANCH   9  18
BRANCH  12  22
ATOM     22  C   UNL A   1      32.931  21.209  23.908  1.00  0.00     0.410 C 
ATOM     23  F   UNL A   1      33.775  22.032  23.219  1.00  0.00    -0.169 F 
ATOM     24  F   UNL A   1      33.490  19.986  23.860  1.00  0.00    -0.169 F 
ATOM     25  F   UNL A   1      31.790  21.170  23.191  1.00  0.00    -0.169 F 
ENDBRANCH  12  22
ENDBRANCH   5   8
ENDBRANCH   3   4
ENDBRANCH   2   3
ENDBRANCH   1   2
BRANCH   1  26
ATOM     26  C   UNL A   1      33.906  29.149  26.148  1.00  0.00     0.116 C 
BRANCH  26  27
ATOM     27  N   UNL A   1      33.789  30.459  26.773  1.00  0.00    -0.352 N 
ATOM     28  C   UNL A   1      34.618  31.033  27.710  1.00  0.00     0.251 C 
ATOM     29  H   UNL A   1      33.018  31.002  26.490  1.00  0.00     0.163 HD
ATOM     30  O   UNL A   1      34.328  32.110  28.214  1.00  0.00    -0.269 OA
BRANCH  28  31
ATOM     31  C   UNL A   1      35.840  30.313  28.129  1.00  0.00     0.039 A 
ATOM     32  C   UNL A   1      36.964  30.355  27.299  1.00  0.00     0.014 A 
ATOM     33  C   UNL A   1      35.888  29.638  29.351  1.00  0.00     0.014 A 
ATOM     34  C   UNL A   1      38.162  29.778  27.730  1.00  0.00     0.010 A 
ATOM     35  C   UNL A   1      37.098  29.119  29.805  1.00  0.00     0.010 A 
ATOM     36  C   UNL A   1      38.247  29.188  29.002  1.00  0.00    -0.014 A 
BRANCH  36  37
ATOM     37  C   UNL A   1      39.535  28.667  29.527  1.00  0.00     0.031 A 
ATOM     38  C   UNL A   1      40.249  29.386  30.639  1.00  0.00     0.074 A 
ATOM     39  C   UNL A   1      40.118  27.610  28.924  1.00  0.00     0.049 A 
ATOM     40  N   UNL A   1      41.412  29.122  31.176  1.00  0.00    -0.248 NA
ATOM     41  C   UNL A   1      39.584  30.573  31.203  1.00  0.00     0.031 C 
ATOM     42  C   UNL A   1      39.573  26.888  27.772  1.00  0.00     0.029 A 
ATOM     43  N   UNL A   1      41.312  26.982  29.173  1.00  0.00    -0.354 N 
ATOM     44  C   UNL A   1      41.640  30.131  32.104  1.00  0.00     0.074 A 
ATOM     45  C   UNL A   1      40.503  31.025  32.045  1.00  0.00     0.031 C 
ATOM     46  C   UNL A   1      40.435  25.925  27.409  1.00  0.00     0.029 A 
ATOM     47  C   UNL A   1      41.602  25.972  28.284  1.00  0.00     0.049 A 
ATOM     48  H   UNL A   1      41.907  27.230  29.917  1.00  0.00     0.167 HD
ATOM     49  C   UNL A   1      42.686  30.283  32.949  1.00  0.00     0.034 A 
ATOM     50  C   UNL A   1      42.687  25.180  28.180  1.00  0.00     0.034 A 
ATOM     51  C   UNL A   1      43.782  29.358  33.051  1.00  0.00     0.049 A 
ATOM     52  C   UNL A   1      43.798  25.326  29.184  1.00  0.00     0.074 A 
ATOM     53  C   UNL A   1      44.825  29.359  33.961  1.00  0.00     0.029 A 
ATOM     54  N   UNL A   1      43.981  28.272  32.214  1.00  0.00    -0.354 N 
ATOM     55  N   UNL A   1      43.900  26.167  30.184  1.00  0.00    -0.248 NA
ATOM     56  C   UNL A   1      44.924  24.386  29.074  1.00  0.00     0.031 C 
ATOM     57  C   UNL A   1      45.665  28.281  33.663  1.00  0.00     0.029 A 
ATOM     58  C   UNL A   1      45.135  27.601  32.579  1.00  0.00     0.049 A 
ATOM     59  H   UNL A   1      43.390  28.016  31.471  1.00  0.00     0.167 HD
ATOM     60  C   UNL A   1      45.081  25.839  30.839  1.00  0.00     0.074 A 
ATOM     61  C   UNL A   1      45.648  24.705  30.139  1.00  0.00     0.031 C 
ATOM     62  C   UNL A   1      45.656  26.436  31.912  1.00  0.00     0.034 A 
BRANCH  49  63
ATOM     63  C   UNL A   1      42.672  31.463  33.884  1.00  0.00     0.023 A 
ATOM     64  C   UNL A   1      43.157  32.709  33.434  1.00  0.00     0.012 A 
ATOM     65  C   UNL A   1      42.106  31.365  35.169  1.00  0.00     0.148 A 
ATOM     66  C   UNL A   1      43.102  33.831  34.258  1.00  0.00     0.002 A 
ATOM     67  C   UNL A   1      42.017  32.498  35.970  1.00  0.00     0.091 A 
ATOM     68  F   UNL A   1      41.668  30.168  35.585  1.00  0.00    -0.205 F 
ATOM     69  C   UNL A   1      42.523  33.729  35.519  1.00  0.00     0.022 A 
BRANCH  67  70
ATOM     70  S   UNL A   1      41.219  32.490  37.579  1.00  0.00     0.127 S 
ATOM     71  O   UNL A   1      41.254  33.908  37.932  1.00  0.00    -0.237 OA
ATOM     72  O   UNL A   1      39.887  31.975  37.259  1.00  0.00    -0.237 OA
ATOM     73  O   UNL A   1      42.022  31.616  38.423  1.00  0.00    -0.744 OA
ENDBRANCH  67  70
ENDBRANCH  49  63
BRANCH  50  74
ATOM     74  C   UNL A   1      42.746  24.132  27.122  1.00  0.00     0.023 A 
ATOM     75  C   UNL A   1      43.478  24.379  25.944  1.00  0.00     0.012 A 
ATOM     76  C   UNL A   1      42.103  22.889  27.282  1.00  0.00     0.148 A 
ATOM     77  C   UNL A   1      43.539  23.423  24.929  1.00  0.00     0.002 A 
ATOM     78  C   UNL A   1      42.215  21.920  26.292  1.00  0.00     0.091 A 
ATOM     79  F   UNL A   1      41.398  22.676  28.402  1.00  0.00    -0.205 F 
ATOM     80  C   UNL A   1      42.917  22.191  25.107  1.00  0.00     0.022 A 
BRANCH  78  81
ATOM     81  S   UNL A   1      41.559  20.261  26.505  1.00  0.00     0.127 S 
ATOM     82  O   UNL A   1      40.120  20.494  26.424  1.00  0.00    -0.237 OA
ATOM     83  O   UNL A   1      42.133  19.553  25.359  1.00  0.00    -0.237 OA
ATOM     84  O   UNL A   1      42.065  19.810  27.795  1.00  0.00    -0.744 OA
ENDBRANCH  78  81
ENDBRANCH  50  74
BRANCH  62  85
ATOM     85  C   UNL A   1      46.951  25.862  32.423  1.00  0.00     0.023 A 
ATOM     86  C   UNL A   1      48.174  26.335  31.907  1.00  0.00     0.012 A 
ATOM     87  C   UNL A   1      46.959  24.919  33.469  1.00  0.00     0.148 A 
ATOM     88  C   UNL A   1      49.384  25.857  32.406  1.00  0.00     0.002 A 
ATOM     89  C   UNL A   1      48.170  24.480  33.992  1.00  0.00     0.091 A 
ATOM     90  F   UNL A   1      45.784  24.466  33.932  1.00  0.00    -0.205 F 
ATOM     91  C   UNL A   1      49.382  24.940  33.455  1.00  0.00     0.022 A 
BRANCH  89  92
ATOM     92  S   UNL A   1      48.259  23.375  35.406  1.00  0.00     0.127 S 
ATOM     93  O   UNL A   1      49.700  23.155  35.521  1.00  0.00    -0.237 OA
ATOM     94  O   UNL A   1      47.680  24.189  36.475  1.00  0.00    -0.237 OA
ATOM     95  O   UNL A   1      47.471  22.204  35.047  1.00  0.00    -0.744 OA
ENDBRANCH  89  92
ENDBRANCH  62  85
ENDBRANCH  36  37
ENDBRANCH  28  31
ENDBRANCH  26  27
ENDBRANCH   1  26
TORSDOF 16
ENDMDL
