MODEL 1
REMARK VINA RESULT:     -12.9      0.000      0.000
REMARK SMILES Cc1cc2cc(-c3ccc([C@@H](C)C(=O)NCCCCNC(=O)c4ccc(-c5c6nc(c(-c7cccc(S(=O)(=O)[O-])c7F)c7ccc([nH]7)c(-c7cccc(S(=O)(=O)[O-])c7F)c7nc(c(-c8cccc(S(=O)(=O)[O-])c8F)c8ccc5[nH]8)C=C7)C=C6)cc4)cc3)ccc2[nH]1
REMARK SMILES IDX 18 1 17 2 16 3 15 4 13 5 14 6 11 8 12 9 10 10 7 11 8 12
REMARK SMILES IDX 87 13 9 14 86 15 6 16 1 17 2 18 3 19 91 20 4 21 90 22 5 24
REMARK SMILES IDX 89 25 88 26 19 27 20 28 21 29 22 31 23 32 24 33 85 34 25 35
REMARK SMILES IDX 84 36 26 37 27 38 28 39 78 40 29 41 83 42 77 43 79 44 30 45
REMARK SMILES IDX 82 46 76 47 75 48 31 50 63 51 43 52 62 53 44 54 47 55 61 56
REMARK SMILES IDX 80 57 45 58 46 59 60 61 81 62 48 63 32 64 33 65 41 66 34 67
REMARK SMILES IDX 36 68 42 69 35 70 37 71 38 72 39 73 40 74 64 75 65 76 73 77
REMARK SMILES IDX 66 78 68 79 74 80 67 81 69 82 70 83 71 84 72 85 49 86 50 87
REMARK SMILES IDX 58 88 51 89 53 90 59 91 52 92 54 93 55 94 56 95 57 96
REMARK H PARENT 15 7 91 23 20 30 79 49 47 60
REMARK Flexibility Score: inf
ROOT
ATOM      1  C   UNL A   1      32.262  30.885  26.774  1.00  0.00     0.023 C 
ENDROOT
BRANCH   1   2
ATOM      2  C   UNL A   1      32.586  29.414  27.035  1.00  0.00     0.023 C 
BRANCH   2   3
ATOM      3  C   UNL A   1      31.598  28.414  26.436  1.00  0.00     0.116 C 
BRANCH   3   4
ATOM      4  N   UNL A   1      31.291  28.697  25.050  1.00  0.00    -0.356 N 
ATOM      5  C   UNL A   1      32.051  28.623  23.922  1.00  0.00     0.227 C 
ATOM      6  O   UNL A   1      31.513  28.972  22.863  1.00  0.00    -0.274 OA
ATOM      7  H   UNL A   1      30.366  28.999  24.894  1.00  0.00     0.163 HD
BRANCH   5   8
ATOM      8  C   UNL A   1      33.504  28.120  23.903  1.00  0.00     0.105 C 
ATOM      9  C   UNL A   1      34.356  28.740  22.794  1.00  0.00     0.023 C 
BRANCH   8  10
ATOM     10  C   UNL A   1      33.625  26.617  24.082  1.00  0.00    -0.036 A 
ATOM     11  C   UNL A   1      34.009  23.789  24.285  1.00  0.00    -0.018 A 
ATOM     12  C   UNL A   1      34.242  24.651  25.369  1.00  0.00     0.009 A 
ATOM     13  C   UNL A   1      33.548  24.379  23.098  1.00  0.00     0.009 A 
ATOM     14  C   UNL A   1      34.021  26.029  25.283  1.00  0.00     0.005 A 
ATOM     15  C   UNL A   1      33.379  25.767  22.992  1.00  0.00     0.005 A 
BRANCH  11  16
ATOM     16  C   UNL A   1      34.264  22.333  24.408  1.00  0.00    -0.018 A 
ATOM     17  C   UNL A   1      32.925  16.357  24.753  1.00  0.00     0.064 C 
ATOM     18  C   UNL A   1      33.315  17.782  24.649  1.00  0.00     0.013 A 
ATOM     19  C   UNL A   1      32.572  18.892  24.305  1.00  0.00     0.031 A 
ATOM     20  N   UNL A   1      34.592  18.214  24.920  1.00  0.00    -0.359 N 
ATOM     21  C   UNL A   1      33.420  20.028  24.388  1.00  0.00     0.000 A 
ATOM     22  C   UNL A   1      34.677  19.581  24.778  1.00  0.00     0.046 A 
ATOM     23  H   UNL A   1      35.339  17.628  25.180  1.00  0.00     0.166 HD
ATOM     24  C   UNL A   1      33.225  21.406  24.181  1.00  0.00     0.019 A 
ATOM     25  C   UNL A   1      35.752  20.452  24.975  1.00  0.00     0.027 A 
ATOM     26  C   UNL A   1      35.517  21.826  24.794  1.00  0.00     0.011 A 
ENDBRANCH  11  16
ENDBRANCH   8  10
ENDBRANCH   5   8
ENDBRANCH   3   4
ENDBRANCH   2   3
ENDBRANCH   1   2
BRANCH   1  27
ATOM     27  C   UNL A   1      33.258  31.888  27.345  1.00  0.00     0.116 C 
BRANCH  27  28
ATOM     28  N   UNL A   1      32.714  33.227  27.539  1.00  0.00    -0.352 N 
ATOM     29  C   UNL A   1      33.133  34.189  28.434  1.00  0.00     0.251 C 
ATOM     30  H   UNL A   1      31.957  33.474  26.960  1.00  0.00     0.163 HD
ATOM     31  O   UNL A   1      32.537  35.253  28.531  1.00  0.00    -0.269 OA
BRANCH  29  32
ATOM     32  C   UNL A   1      34.288  33.890  29.308  1.00  0.00     0.039 A 
ATOM     33  C   UNL A   1      34.078  33.157  30.479  1.00  0.00     0.014 A 
ATOM     34  C   UNL A   1      35.577  34.259  28.922  1.00  0.00     0.014 A 
ATOM     35  C   UNL A   1      35.178  32.716  31.219  1.00  0.00     0.010 A 
ATOM     36  C   UNL A   1      36.671  33.758  29.620  1.00  0.00     0.010 A 
ATOM     37  C   UNL A   1      36.482  32.975  30.770  1.00  0.00    -0.014 A 
BRANCH  37  38
ATOM     38  C   UNL A   1      37.673  32.420  31.462  1.00  0.00     0.031 A 
ATOM     39  C   UNL A   1      38.441  31.287  30.838  1.00  0.00     0.074 A 
ATOM     40  C   UNL A   1      37.987  32.849  32.701  1.00  0.00     0.049 A 
ATOM     41  N   UNL A   1      39.426  30.587  31.335  1.00  0.00    -0.248 NA
ATOM     42  C   UNL A   1      38.021  30.863  29.492  1.00  0.00     0.031 C 
ATOM     43  C   UNL A   1      37.266  33.883  33.448  1.00  0.00     0.029 A 
ATOM     44  N   UNL A   1      38.973  32.444  33.566  1.00  0.00    -0.354 N 
ATOM     45  C   UNL A   1      39.714  29.613  30.386  1.00  0.00     0.074 A 
ATOM     46  C   UNL A   1      38.780  29.794  29.297  1.00  0.00     0.031 C 
ATOM     47  C   UNL A   1      37.832  34.030  34.656  1.00  0.00     0.029 A 
ATOM     48  C   UNL A   1      38.938  33.085  34.784  1.00  0.00     0.049 A 
ATOM     49  H   UNL A   1      39.641  31.758  33.337  1.00  0.00     0.167 HD
ATOM     50  C   UNL A   1      40.690  28.675  30.404  1.00  0.00     0.034 A 
ATOM     51  C   UNL A   1      39.707  32.926  35.878  1.00  0.00     0.034 A 
ATOM     52  C   UNL A   1      41.659  28.543  31.457  1.00  0.00     0.049 A 
ATOM     53  C   UNL A   1      40.828  31.921  35.844  1.00  0.00     0.074 A 
ATOM     54  C   UNL A   1      42.745  27.687  31.524  1.00  0.00     0.029 A 
ATOM     55  N   UNL A   1      41.665  29.291  32.623  1.00  0.00    -0.354 N 
ATOM     56  N   UNL A   1      41.184  31.116  34.872  1.00  0.00    -0.248 NA
ATOM     57  C   UNL A   1      41.676  31.826  37.042  1.00  0.00     0.031 C 
ATOM     58  C   UNL A   1      43.407  27.919  32.734  1.00  0.00     0.029 A 
ATOM     59  C   UNL A   1      42.736  28.922  33.416  1.00  0.00     0.049 A 
ATOM     60  H   UNL A   1      41.004  29.983  32.853  1.00  0.00     0.167 HD
ATOM     61  C   UNL A   1      42.314  30.447  35.324  1.00  0.00     0.074 A 
ATOM     62  C   UNL A   1      42.595  30.954  36.652  1.00  0.00     0.031 C 
ATOM     63  C   UNL A   1      43.043  29.487  34.706  1.00  0.00     0.034 A 
BRANCH  50  64
ATOM     64  C   UNL A   1      40.803  27.767  29.208  1.00  0.00     0.023 A 
ATOM     65  C   UNL A   1      40.024  26.593  29.160  1.00  0.00     0.012 A 
ATOM     66  C   UNL A   1      41.634  28.092  28.120  1.00  0.00     0.148 A 
ATOM     67  C   UNL A   1      40.096  25.738  28.062  1.00  0.00     0.002 A 
ATOM     68  C   UNL A   1      41.671  27.253  27.010  1.00  0.00     0.091 A 
ATOM     69  F   UNL A   1      42.387  29.199  28.194  1.00  0.00    -0.205 F 
ATOM     70  C   UNL A   1      40.910  26.072  26.985  1.00  0.00     0.022 A 
BRANCH  68  71
ATOM     71  S   UNL A   1      42.634  27.637  25.544  1.00  0.00     0.127 S 
ATOM     72  O   UNL A   1      43.987  27.716  26.092  1.00  0.00    -0.237 OA
ATOM     73  O   UNL A   1      42.388  26.471  24.695  1.00  0.00    -0.237 OA
ATOM     74  O   UNL A   1      42.091  28.885  25.026  1.00  0.00    -0.744 OA
ENDBRANCH  68  71
ENDBRANCH  50  64
BRANCH  51  75
ATOM     75  C   UNL A   1      39.501  33.801  37.068  1.00  0.00     0.023 A 
ATOM     76  C   UNL A   1      39.939  35.139  37.016  1.00  0.00     0.012 A 
ATOM     77  C   UNL A   1      38.852  33.336  38.227  1.00  0.00     0.148 A 
ATOM     78  C   UNL A   1      39.761  35.990  38.107  1.00  0.00     0.002 A 
ATOM     79  C   UNL A   1      38.632  34.204  39.292  1.00  0.00     0.091 A 
ATOM     80  F   UNL A   1      38.456  32.056  38.266  1.00  0.00    -0.205 F 
ATOM     81  C   UNL A   1      39.098  35.526  39.239  1.00  0.00     0.022 A 
BRANCH  79  82
ATOM     82  S   UNL A   1      37.675  33.723  40.735  1.00  0.00     0.127 S 
ATOM     83  O   UNL A   1      38.570  32.771  41.384  1.00  0.00    -0.237 OA
ATOM     84  O   UNL A   1      37.517  34.998  41.438  1.00  0.00    -0.237 OA
ATOM     85  O   UNL A   1      36.432  33.176  40.208  1.00  0.00    -0.744 OA
ENDBRANCH  79  82
ENDBRANCH  51  75
BRANCH  63  86
ATOM     86  C   UNL A   1      44.239  28.936  35.433  1.00  0.00     0.023 A 
ATOM     87  C   UNL A   1      45.496  29.548  35.267  1.00  0.00     0.012 A 
ATOM     88  C   UNL A   1      44.098  27.876  36.351  1.00  0.00     0.148 A 
ATOM     89  C   UNL A   1      46.601  29.101  35.989  1.00  0.00     0.002 A 
ATOM     90  C   UNL A   1      45.194  27.463  37.098  1.00  0.00     0.091 A 
ATOM     91  F   UNL A   1      42.896  27.294  36.477  1.00  0.00    -0.205 F 
ATOM     92  C   UNL A   1      46.448  28.068  36.912  1.00  0.00     0.022 A 
BRANCH  90  93
ATOM     93  S   UNL A   1      45.066  26.204  38.373  1.00  0.00     0.127 S 
ATOM     94  O   UNL A   1      44.602  25.049  37.606  1.00  0.00    -0.237 OA
ATOM     95  O   UNL A   1      46.445  26.103  38.853  1.00  0.00    -0.237 OA
ATOM     96  O   UNL A   1      44.126  26.726  39.355  1.00  0.00    -0.744 OA
ENDBRANCH  90  93
ENDBRANCH  63  86
ENDBRANCH  37  38
ENDBRANCH  29  32
ENDBRANCH  27  28
ENDBRANCH   1  27
TORSDOF 16
ENDMDL
MODEL 2
REMARK VINA RESULT:     -12.9      5.649      9.393
REMARK SMILES Cc1cc2cc(-c3ccc([C@@H](C)C(=O)NCCCCNC(=O)c4ccc(-c5c6nc(c(-c7cccc(S(=O)(=O)[O-])c7F)c7ccc([nH]7)c(-c7cccc(S(=O)(=O)[O-])c7F)c7nc(c(-c8cccc(S(=O)(=O)[O-])c8F)c8ccc5[nH]8)C=C7)C=C6)cc4)cc3)ccc2[nH]1
REMARK SMILES IDX 18 1 17 2 16 3 15 4 13 5 14 6 11 8 12 9 10 10 7 11 8 12
REMARK SMILES IDX 87 13 9 14 86 15 6 16 1 17 2 18 3 19 91 20 4 21 90 22 5 24
REMARK SMILES IDX 89 25 88 26 19 27 20 28 21 29 22 31 23 32 24 33 85 34 25 35
REMARK SMILES IDX 84 36 26 37 27 38 28 39 78 40 29 41 83 42 77 43 79 44 30 45
REMARK SMILES IDX 82 46 76 47 75 48 31 50 63 51 43 52 62 53 44 54 47 55 61 56
REMARK SMILES IDX 80 57 45 58 46 59 60 61 81 62 48 63 32 64 33 65 41 66 34 67
REMARK SMILES IDX 36 68 42 69 35 70 37 71 38 72 39 73 40 74 64 75 65 76 73 77
REMARK SMILES IDX 66 78 68 79 74 80 67 81 69 82 70 83 71 84 72 85 49 86 50 87
REMARK SMILES IDX 58 88 51 89 53 90 59 91 52 92 54 93 55 94 56 95 57 96
REMARK H PARENT 15 7 91 23 20 30 79 49 47 60
REMARK Flexibility Score: inf
ROOT
ATOM      1  C   UNL A   1      35.953  21.664  24.575  1.00  0.00     0.023 C 
ENDROOT
BRANCH   1   2
ATOM      2  C   UNL A   1      35.106  22.784  23.974  1.00  0.00     0.023 C 
BRANCH   2   3
ATOM      3  C   UNL A   1      34.568  23.804  24.979  1.00  0.00     0.116 C 
BRANCH   3   4
ATOM      4  N   UNL A   1      34.317  23.221  26.281  1.00  0.00    -0.356 N 
ATOM      5  C   UNL A   1      33.227  22.583  26.791  1.00  0.00     0.227 C 
ATOM      6  O   UNL A   1      33.296  22.221  27.973  1.00  0.00    -0.274 OA
ATOM      7  H   UNL A   1      35.070  23.301  26.911  1.00  0.00     0.163 HD
BRANCH   5   8
ATOM      8  C   UNL A   1      31.956  22.283  25.981  1.00  0.00     0.105 C 
ATOM      9  C   UNL A   1      32.094  21.090  25.034  1.00  0.00     0.023 C 
BRANCH   8  10
ATOM     10  C   UNL A   1      31.301  23.526  25.403  1.00  0.00    -0.036 A 
ATOM     11  C   UNL A   1      29.909  25.749  24.260  1.00  0.00    -0.018 A 
ATOM     12  C   UNL A   1      30.167  25.661  25.638  1.00  0.00     0.009 A 
ATOM     13  C   UNL A   1      30.394  24.703  23.460  1.00  0.00     0.009 A 
ATOM     14  C   UNL A   1      30.879  24.595  26.194  1.00  0.00     0.005 A 
ATOM     15  C   UNL A   1      31.059  23.603  24.022  1.00  0.00     0.005 A 
BRANCH  11  16
ATOM     16  C   UNL A   1      29.142  26.891  23.704  1.00  0.00    -0.018 A 
ATOM     17  C   UNL A   1      28.228  32.343  21.046  1.00  0.00     0.064 C 
ATOM     18  C   UNL A   1      28.383  31.007  21.668  1.00  0.00     0.013 A 
ATOM     19  C   UNL A   1      29.498  30.211  21.817  1.00  0.00     0.031 A 
ATOM     20  N   UNL A   1      27.325  30.337  22.237  1.00  0.00    -0.359 N 
ATOM     21  C   UNL A   1      29.107  29.036  22.512  1.00  0.00     0.000 A 
ATOM     22  C   UNL A   1      27.745  29.139  22.768  1.00  0.00     0.046 A 
ATOM     23  H   UNL A   1      26.398  30.670  22.262  1.00  0.00     0.166 HD
ATOM     24  C   UNL A   1      29.798  27.897  22.963  1.00  0.00     0.019 A 
ATOM     25  C   UNL A   1      27.038  28.151  23.460  1.00  0.00     0.027 A 
ATOM     26  C   UNL A   1      27.763  27.041  23.928  1.00  0.00     0.011 A 
ENDBRANCH  11  16
ENDBRANCH   8  10
ENDBRANCH   5   8
ENDBRANCH   3   4
ENDBRANCH   2   3
ENDBRANCH   1   2
BRANCH   1  27
ATOM     27  C   UNL A   1      37.447  21.953  24.677  1.00  0.00     0.116 C 
BRANCH  27  28
ATOM     28  N   UNL A   1      38.234  20.853  25.220  1.00  0.00    -0.352 N 
ATOM     29  C   UNL A   1      39.277  20.922  26.119  1.00  0.00     0.251 C 
ATOM     30  H   UNL A   1      37.990  19.951  24.908  1.00  0.00     0.163 HD
ATOM     31  O   UNL A   1      39.893  19.914  26.440  1.00  0.00    -0.269 OA
BRANCH  29  32
ATOM     32  C   UNL A   1      39.669  22.245  26.650  1.00  0.00     0.039 A 
ATOM     33  C   UNL A   1      40.709  22.320  27.581  1.00  0.00     0.014 A 
ATOM     34  C   UNL A   1      39.068  23.406  26.163  1.00  0.00     0.014 A 
ATOM     35  C   UNL A   1      41.207  23.570  27.956  1.00  0.00     0.010 A 
ATOM     36  C   UNL A   1      39.613  24.645  26.482  1.00  0.00     0.010 A 
ATOM     37  C   UNL A   1      40.692  24.739  27.374  1.00  0.00    -0.014 A 
BRANCH  37  38
ATOM     38  C   UNL A   1      41.276  26.076  27.654  1.00  0.00     0.031 A 
ATOM     39  C   UNL A   1      42.690  26.376  27.242  1.00  0.00     0.074 A 
ATOM     40  C   UNL A   1      40.579  26.969  28.386  1.00  0.00     0.049 A 
ATOM     41  N   UNL A   1      43.419  27.430  27.502  1.00  0.00    -0.248 NA
ATOM     42  C   UNL A   1      43.389  25.340  26.464  1.00  0.00     0.031 C 
ATOM     43  C   UNL A   1      39.230  26.761  28.919  1.00  0.00     0.029 A 
ATOM     44  N   UNL A   1      40.925  28.218  28.840  1.00  0.00    -0.354 N 
ATOM     45  C   UNL A   1      44.672  27.166  26.962  1.00  0.00     0.074 A 
ATOM     46  C   UNL A   1      44.613  25.841  26.386  1.00  0.00     0.031 C 
ATOM     47  C   UNL A   1      38.864  27.842  29.625  1.00  0.00     0.029 A 
ATOM     48  C   UNL A   1      39.958  28.809  29.621  1.00  0.00     0.049 A 
ATOM     49  H   UNL A   1      41.783  28.649  28.628  1.00  0.00     0.167 HD
ATOM     50  C   UNL A   1      45.762  27.967  26.920  1.00  0.00     0.034 A 
ATOM     51  C   UNL A   1      39.955  29.994  30.262  1.00  0.00     0.034 A 
ATOM     52  C   UNL A   1      45.794  29.309  27.433  1.00  0.00     0.049 A 
ATOM     53  C   UNL A   1      41.156  30.893  30.141  1.00  0.00     0.074 A 
ATOM     54  C   UNL A   1      46.819  30.236  27.354  1.00  0.00     0.029 A 
ATOM     55  N   UNL A   1      44.753  29.919  28.113  1.00  0.00    -0.354 N 
ATOM     56  N   UNL A   1      42.276  30.689  29.490  1.00  0.00    -0.248 NA
ATOM     57  C   UNL A   1      41.082  32.200  30.811  1.00  0.00     0.031 C 
ATOM     58  C   UNL A   1      46.395  31.408  27.989  1.00  0.00     0.029 A 
ATOM     59  C   UNL A   1      45.106  31.211  28.458  1.00  0.00     0.049 A 
ATOM     60  H   UNL A   1      43.889  29.495  28.321  1.00  0.00     0.167 HD
ATOM     61  C   UNL A   1      43.023  31.850  29.641  1.00  0.00     0.074 A 
ATOM     62  C   UNL A   1      42.221  32.763  30.430  1.00  0.00     0.031 C 
ATOM     63  C   UNL A   1      44.267  32.131  29.184  1.00  0.00     0.034 A 
BRANCH  50  64
ATOM     64  C   UNL A   1      46.988  27.437  26.224  1.00  0.00     0.023 A 
ATOM     65  C   UNL A   1      47.150  27.672  24.843  1.00  0.00     0.012 A 
ATOM     66  C   UNL A   1      47.994  26.755  26.933  1.00  0.00     0.148 A 
ATOM     67  C   UNL A   1      48.278  27.206  24.171  1.00  0.00     0.002 A 
ATOM     68  C   UNL A   1      49.136  26.327  26.263  1.00  0.00     0.091 A 
ATOM     69  F   UNL A   1      47.811  26.517  28.240  1.00  0.00    -0.205 F 
ATOM     70  C   UNL A   1      49.274  26.544  24.882  1.00  0.00     0.022 A 
BRANCH  68  71
ATOM     71  S   UNL A   1      50.506  25.529  27.107  1.00  0.00     0.127 S 
ATOM     72  O   UNL A   1      50.861  26.533  28.109  1.00  0.00    -0.237 OA
ATOM     73  O   UNL A   1      49.878  24.323  27.649  1.00  0.00    -0.237 OA
ATOM     74  O   UNL A   1      51.511  25.277  26.084  1.00  0.00    -0.744 OA
ENDBRANCH  68  71
ENDBRANCH  50  64
BRANCH  51  75
ATOM     75  C   UNL A   1      38.740  30.437  31.004  1.00  0.00     0.023 A 
ATOM     76  C   UNL A   1      38.653  30.182  32.386  1.00  0.00     0.012 A 
ATOM     77  C   UNL A   1      37.693  31.130  30.367  1.00  0.00     0.148 A 
ATOM     78  C   UNL A   1      37.534  30.585  33.117  1.00  0.00     0.002 A 
ATOM     79  C   UNL A   1      36.603  31.573  31.110  1.00  0.00     0.091 A 
ATOM     80  F   UNL A   1      37.785  31.350  29.047  1.00  0.00    -0.205 F 
ATOM     81  C   UNL A   1      36.516  31.289  32.481  1.00  0.00     0.022 A 
BRANCH  79  82
ATOM     82  S   UNL A   1      35.312  32.597  30.395  1.00  0.00     0.127 S 
ATOM     83  O   UNL A   1      34.902  31.800  29.243  1.00  0.00    -0.237 OA
ATOM     84  O   UNL A   1      34.332  32.660  31.481  1.00  0.00    -0.237 OA
ATOM     85  O   UNL A   1      35.952  33.872  30.097  1.00  0.00    -0.744 OA
ENDBRANCH  79  82
ENDBRANCH  51  75
BRANCH  63  86
ATOM     86  C   UNL A   1      44.838  33.489  29.490  1.00  0.00     0.023 A 
ATOM     87  C   UNL A   1      45.544  33.690  30.692  1.00  0.00     0.012 A 
ATOM     88  C   UNL A   1      44.759  34.533  28.548  1.00  0.00     0.148 A 
ATOM     89  C   UNL A   1      46.145  34.919  30.962  1.00  0.00     0.002 A 
ATOM     90  C   UNL A   1      45.396  35.741  28.805  1.00  0.00     0.091 A 
ATOM     91  F   UNL A   1      44.064  34.325  27.420  1.00  0.00    -0.205 F 
ATOM     92  C   UNL A   1      46.082  35.938  30.014  1.00  0.00     0.022 A 
BRANCH  90  93
ATOM     93  S   UNL A   1      45.444  37.074  27.601  1.00  0.00     0.127 S 
ATOM     94  O   UNL A   1      44.021  37.295  27.345  1.00  0.00    -0.237 OA
ATOM     95  O   UNL A   1      46.102  38.147  28.348  1.00  0.00    -0.237 OA
ATOM     96  O   UNL A   1      46.215  36.567  26.475  1.00  0.00    -0.744 OA
ENDBRANCH  90  93
ENDBRANCH  63  86
ENDBRANCH  37  38
ENDBRANCH  29  32
ENDBRANCH  27  28
ENDBRANCH   1  27
TORSDOF 16
ENDMDL
MODEL 3
REMARK VINA RESULT:     -12.7      4.845     11.018
REMARK SMILES Cc1cc2cc(-c3ccc([C@@H](C)C(=O)NCCCCNC(=O)c4ccc(-c5c6nc(c(-c7cccc(S(=O)(=O)[O-])c7F)c7ccc([nH]7)c(-c7cccc(S(=O)(=O)[O-])c7F)c7nc(c(-c8cccc(S(=O)(=O)[O-])c8F)c8ccc5[nH]8)C=C7)C=C6)cc4)cc3)ccc2[nH]1
REMARK SMILES IDX 18 1 17 2 16 3 15 4 13 5 14 6 11 8 12 9 10 10 7 11 8 12
REMARK SMILES IDX 87 13 9 14 86 15 6 16 1 17 2 18 3 19 91 20 4 21 90 22 5 24
REMARK SMILES IDX 89 25 88 26 19 27 20 28 21 29 22 31 23 32 24 33 85 34 25 35
REMARK SMILES IDX 84 36 26 37 27 38 28 39 78 40 29 41 83 42 77 43 79 44 30 45
REMARK SMILES IDX 82 46 76 47 75 48 31 50 63 51 43 52 62 53 44 54 47 55 61 56
REMARK SMILES IDX 80 57 45 58 46 59 60 61 81 62 48 63 32 64 33 65 41 66 34 67
REMARK SMILES IDX 36 68 42 69 35 70 37 71 38 72 39 73 40 74 64 75 65 76 73 77
REMARK SMILES IDX 66 78 68 79 74 80 67 81 69 82 70 83 71 84 72 85 49 86 50 87
REMARK SMILES IDX 58 88 51 89 53 90 59 91 52 92 54 93 55 94 56 95 57 96
REMARK H PARENT 15 7 91 23 20 30 79 49 47 60
REMARK Flexibility Score: inf
ROOT
ATOM      1  C   UNL A   1      34.285  34.345  27.852  1.00  0.00     0.023 C 
ENDROOT
BRANCH   1   2
ATOM      2  C   UNL A   1      34.100  35.580  28.733  1.00  0.00     0.023 C 
BRANCH   2   3
ATOM      3  C   UNL A   1      33.197  35.382  29.950  1.00  0.00     0.116 C 
BRANCH   3   4
ATOM      4  N   UNL A   1      33.763  35.944  31.159  1.00  0.00    -0.356 N 
ATOM      5  C   UNL A   1      34.591  35.413  32.101  1.00  0.00     0.227 C 
ATOM      6  O   UNL A   1      34.881  36.138  33.061  1.00  0.00    -0.274 OA
ATOM      7  H   UNL A   1      33.502  36.878  31.331  1.00  0.00     0.163 HD
BRANCH   5   8
ATOM      8  C   UNL A   1      35.182  33.997  32.018  1.00  0.00     0.105 C 
ATOM      9  C   UNL A   1      34.850  33.117  33.225  1.00  0.00     0.023 C 
BRANCH   8  10
ATOM     10  C   UNL A   1      36.626  33.971  31.547  1.00  0.00    -0.036 A 
ATOM     11  C   UNL A   1      39.295  34.063  30.520  1.00  0.00    -0.018 A 
ATOM     12  C   UNL A   1      38.984  34.485  31.823  1.00  0.00     0.009 A 
ATOM     13  C   UNL A   1      38.234  33.564  29.750  1.00  0.00     0.009 A 
ATOM     14  C   UNL A   1      37.687  34.407  32.340  1.00  0.00     0.005 A 
ATOM     15  C   UNL A   1      36.922  33.536  30.245  1.00  0.00     0.005 A 
BRANCH  11  16
ATOM     16  C   UNL A   1      40.681  34.169  30.001  1.00  0.00    -0.018 A 
ATOM     17  C   UNL A   1      45.279  36.246  26.514  1.00  0.00     0.064 C 
ATOM     18  C   UNL A   1      44.217  35.722  27.404  1.00  0.00     0.013 A 
ATOM     19  C   UNL A   1      42.935  36.174  27.632  1.00  0.00     0.031 A 
ATOM     20  N   UNL A   1      44.399  34.602  28.180  1.00  0.00    -0.359 N 
ATOM     21  C   UNL A   1      42.320  35.292  28.558  1.00  0.00     0.000 A 
ATOM     22  C   UNL A   1      43.252  34.314  28.884  1.00  0.00     0.046 A 
ATOM     23  H   UNL A   1      45.233  34.079  28.224  1.00  0.00     0.166 HD
ATOM     24  C   UNL A   1      41.040  35.227  29.139  1.00  0.00     0.019 A 
ATOM     25  C   UNL A   1      42.962  33.269  29.765  1.00  0.00     0.027 A 
ATOM     26  C   UNL A   1      41.664  33.212  30.302  1.00  0.00     0.011 A 
ENDBRANCH  11  16
ENDBRANCH   8  10
ENDBRANCH   5   8
ENDBRANCH   3   4
ENDBRANCH   2   3
ENDBRANCH   1   2
BRANCH   1  27
ATOM     27  C   UNL A   1      34.091  33.004  28.554  1.00  0.00     0.116 C 
BRANCH  27  28
ATOM     28  N   UNL A   1      33.660  31.926  27.673  1.00  0.00    -0.352 N 
ATOM     29  C   UNL A   1      34.292  30.723  27.435  1.00  0.00     0.251 C 
ATOM     30  H   UNL A   1      32.814  32.073  27.189  1.00  0.00     0.163 HD
ATOM     31  O   UNL A   1      33.845  29.934  26.614  1.00  0.00    -0.269 OA
BRANCH  29  32
ATOM     32  C   UNL A   1      35.549  30.429  28.156  1.00  0.00     0.039 A 
ATOM     33  C   UNL A   1      35.486  29.739  29.370  1.00  0.00     0.014 A 
ATOM     34  C   UNL A   1      36.781  30.756  27.589  1.00  0.00     0.014 A 
ATOM     35  C   UNL A   1      36.668  29.299  29.972  1.00  0.00     0.010 A 
ATOM     36  C   UNL A   1      37.949  30.255  28.151  1.00  0.00     0.010 A 
ATOM     37  C   UNL A   1      37.904  29.514  29.343  1.00  0.00    -0.014 A 
BRANCH  37  38
ATOM     38  C   UNL A   1      39.169  28.957  29.888  1.00  0.00     0.031 A 
ATOM     39  C   UNL A   1      39.800  29.582  31.101  1.00  0.00     0.074 A 
ATOM     40  C   UNL A   1      39.809  27.976  29.220  1.00  0.00     0.049 A 
ATOM     41  N   UNL A   1      40.956  29.325  31.654  1.00  0.00    -0.248 NA
ATOM     42  C   UNL A   1      39.047  30.663  31.759  1.00  0.00     0.031 C 
ATOM     43  C   UNL A   1      39.341  27.347  27.982  1.00  0.00     0.029 A 
ATOM     44  N   UNL A   1      41.010  27.360  29.470  1.00  0.00    -0.354 N 
ATOM     45  C   UNL A   1      41.090  30.238  32.692  1.00  0.00     0.074 A 
ATOM     46  C   UNL A   1      39.911  31.075  32.675  1.00  0.00     0.031 C 
ATOM     47  C   UNL A   1      40.243  26.437  27.582  1.00  0.00     0.029 A 
ATOM     48  C   UNL A   1      41.365  26.434  28.516  1.00  0.00     0.049 A 
ATOM     49  H   UNL A   1      41.565  27.562  30.257  1.00  0.00     0.167 HD
ATOM     50  C   UNL A   1      42.089  30.348  33.600  1.00  0.00     0.034 A 
ATOM     51  C   UNL A   1      42.471  25.672  28.404  1.00  0.00     0.034 A 
ATOM     52  C   UNL A   1      43.224  29.470  33.656  1.00  0.00     0.049 A 
ATOM     53  C   UNL A   1      43.534  25.768  29.467  1.00  0.00     0.074 A 
ATOM     54  C   UNL A   1      44.242  29.439  34.594  1.00  0.00     0.029 A 
ATOM     55  N   UNL A   1      43.491  28.464  32.742  1.00  0.00    -0.354 N 
ATOM     56  N   UNL A   1      43.567  26.531  30.533  1.00  0.00    -0.248 NA
ATOM     57  C   UNL A   1      44.695  24.875  29.332  1.00  0.00     0.031 C 
ATOM     58  C   UNL A   1      45.125  28.412  34.244  1.00  0.00     0.029 A 
ATOM     59  C   UNL A   1      44.653  27.802  33.092  1.00  0.00     0.049 A 
ATOM     60  H   UNL A   1      42.935  28.253  31.957  1.00  0.00     0.167 HD
ATOM     61  C   UNL A   1      44.729  26.187  31.213  1.00  0.00     0.074 A 
ATOM     62  C   UNL A   1      45.363  25.133  30.448  1.00  0.00     0.031 C 
ATOM     63  C   UNL A   1      45.234  26.707  32.357  1.00  0.00     0.034 A 
BRANCH  50  64
ATOM     64  C   UNL A   1      41.953  31.412  34.657  1.00  0.00     0.023 A 
ATOM     65  C   UNL A   1      41.346  31.086  35.887  1.00  0.00     0.012 A 
ATOM     66  C   UNL A   1      42.461  32.709  34.459  1.00  0.00     0.148 A 
ATOM     67  C   UNL A   1      41.216  32.044  36.891  1.00  0.00     0.002 A 
ATOM     68  C   UNL A   1      42.364  33.649  35.480  1.00  0.00     0.091 A 
ATOM     69  F   UNL A   1      43.012  33.009  33.273  1.00  0.00    -0.205 F 
ATOM     70  C   UNL A   1      41.733  33.320  36.692  1.00  0.00     0.022 A 
BRANCH  68  71
ATOM     71  S   UNL A   1      43.064  35.297  35.344  1.00  0.00     0.127 S 
ATOM     72  O   UNL A   1      42.948  35.781  36.718  1.00  0.00    -0.237 OA
ATOM     73  O   UNL A   1      44.433  35.019  34.909  1.00  0.00    -0.237 OA
ATOM     74  O   UNL A   1      42.249  35.995  34.359  1.00  0.00    -0.744 OA
ENDBRANCH  68  71
ENDBRANCH  50  64
BRANCH  51  75
ATOM     75  C   UNL A   1      42.589  24.687  27.291  1.00  0.00     0.023 A 
ATOM     76  C   UNL A   1      43.274  25.061  26.119  1.00  0.00     0.012 A 
ATOM     77  C   UNL A   1      42.062  23.386  27.393  1.00  0.00     0.148 A 
ATOM     78  C   UNL A   1      43.410  24.166  25.057  1.00  0.00     0.002 A 
ATOM     79  C   UNL A   1      42.244  22.482  26.351  1.00  0.00     0.091 A 
ATOM     80  F   UNL A   1      41.399  23.052  28.510  1.00  0.00    -0.205 F 
ATOM     81  C   UNL A   1      42.905  22.875  25.177  1.00  0.00     0.022 A 
BRANCH  79  82
ATOM     82  S   UNL A   1      41.738  20.763  26.477  1.00  0.00     0.127 S 
ATOM     83  O   UNL A   1      40.306  20.852  26.207  1.00  0.00    -0.237 OA
ATOM     84  O   UNL A   1      42.526  20.131  25.418  1.00  0.00    -0.237 OA
ATOM     85  O   UNL A   1      42.111  20.350  27.824  1.00  0.00    -0.744 OA
ENDBRANCH  79  82
ENDBRANCH  51  75
BRANCH  63  86
ATOM     86  C   UNL A   1      46.521  26.131  32.881  1.00  0.00     0.023 A 
ATOM     87  C   UNL A   1      47.742  26.763  32.574  1.00  0.00     0.012 A 
ATOM     88  C   UNL A   1      46.512  25.025  33.754  1.00  0.00     0.148 A 
ATOM     89  C   UNL A   1      48.938  26.291  33.111  1.00  0.00     0.002 A 
ATOM     90  C   UNL A   1      47.703  24.584  34.318  1.00  0.00     0.091 A 
ATOM     91  F   UNL A   1      45.342  24.426  34.016  1.00  0.00    -0.205 F 
ATOM     92  C   UNL A   1      48.918  25.211  33.992  1.00  0.00     0.022 A 
BRANCH  90  93
ATOM     93  S   UNL A   1      47.757  23.261  35.532  1.00  0.00     0.127 S 
ATOM     94  O   UNL A   1      46.897  23.791  36.589  1.00  0.00    -0.237 OA
ATOM     95  O   UNL A   1      47.189  22.133  34.792  1.00  0.00    -0.237 OA
ATOM     96  O   UNL A   1      49.161  23.102  35.885  1.00  0.00    -0.744 OA
ENDBRANCH  90  93
ENDBRANCH  63  86
ENDBRANCH  37  38
ENDBRANCH  29  32
ENDBRANCH  27  28
ENDBRANCH   1  27
TORSDOF 16
ENDMDL
