MODEL 1
REMARK VINA RESULT:     -11.1      0.000      0.000
REMARK SMILES O=C(CC[NH+]1CC[NH+](Cc2ccccc2C2CC2)CC1)NCCCCNC(=O)c1ccc(-c2c3nc(c(-c4cccc(S(=O)(=O)[O-])c4F)c4ccc([nH]4)c(-c4cccc(S(=O)(=O)[O-])c4F)c4nc(c(-c5cccc(S(=O)(=O)[O-])c5F)c5ccc2[nH]5)C=C4)C=C3)cc1
REMARK SMILES IDX 22 1 21 2 1 3 2 4 3 6 4 7 5 8 6 9 20 10 7 12 19 13 8 14 9 16
REMARK SMILES IDX 10 17 11 18 15 19 12 20 14 21 13 22 16 23 17 24 18 25 23 26
REMARK SMILES IDX 24 27 25 28 26 29 27 30 28 32 29 33 30 34 91 35 31 36 90 37
REMARK SMILES IDX 32 38 33 39 34 40 84 41 35 42 89 43 83 44 85 45 36 46 88 47
REMARK SMILES IDX 82 48 81 49 37 51 69 52 49 53 68 54 50 55 53 56 67 57 86 58
REMARK SMILES IDX 51 59 52 60 66 62 87 63 54 64 38 65 39 66 47 67 40 68 42 69
REMARK SMILES IDX 48 70 41 71 43 72 44 73 45 74 46 75 70 76 71 77 79 78 72 79
REMARK SMILES IDX 74 80 80 81 73 82 75 83 76 84 77 85 78 86 55 87 56 88 64 89
REMARK SMILES IDX 57 90 59 91 65 92 58 93 60 94 61 95 62 96 63 97
REMARK H PARENT 21 5 5 11 8 15 26 31 85 50 53 61
REMARK Flexibility Score: inf
ROOT
ATOM      1  C   UNL A   1      36.228  21.190  25.498  1.00  0.00     0.116 C 
ENDROOT
BRANCH   1   2
ATOM      2  N   UNL A   1      34.974  21.127  24.775  1.00  0.00    -0.356 N 
ATOM      3  O   UNL A   1      34.793  18.832  24.649  1.00  0.00    -0.275 OA
ATOM      4  C   UNL A   1      34.310  19.944  24.500  1.00  0.00     0.225 C 
ATOM      5  H   UNL A   1      34.574  21.970  24.461  1.00  0.00     0.163 HD
BRANCH   4   6
ATOM      6  C   UNL A   1      32.877  20.164  24.019  1.00  0.00     0.161 C 
BRANCH   6   7
ATOM      7  C   UNL A   1      31.957  20.631  25.155  1.00  0.00     0.272 C 
BRANCH   7   8
ATOM      8  N   UNL A   1      31.930  22.082  25.257  1.00  0.00    -0.325 N 
ATOM      9  C   UNL A   1      31.024  22.605  26.282  1.00  0.00     0.324 C 
ATOM     10  C   UNL A   1      31.705  22.803  24.000  1.00  0.00     0.324 C 
ATOM     11  H   UNL A   1      32.890  22.270  25.547  1.00  0.00     0.348 HD
ATOM     12  C   UNL A   1      31.308  24.106  26.530  1.00  0.00     0.324 C 
ATOM     13  C   UNL A   1      32.071  24.286  24.236  1.00  0.00     0.324 C 
ATOM     14  N   UNL A   1      31.389  24.968  25.344  1.00  0.00    -0.322 N 
ATOM     15  H   UNL A   1      31.986  25.751  25.606  1.00  0.00     0.348 HD
BRANCH  14  16
ATOM     16  C   UNL A   1      30.161  25.689  24.990  1.00  0.00     0.299 C 
BRANCH  16  17
ATOM     17  C   UNL A   1      30.315  27.090  24.437  1.00  0.00     0.010 A 
ATOM     18  C   UNL A   1      29.528  27.371  23.285  1.00  0.00     0.010 A 
ATOM     19  C   UNL A   1      31.096  28.114  25.016  1.00  0.00    -0.036 A 
ATOM     20  C   UNL A   1      29.411  28.652  22.764  1.00  0.00     0.001 A 
ATOM     21  C   UNL A   1      30.951  29.406  24.443  1.00  0.00     0.004 A 
ATOM     22  C   UNL A   1      30.112  29.681  23.359  1.00  0.00     0.000 A 
BRANCH  19  23
ATOM     23  C   UNL A   1      32.027  28.039  26.219  1.00  0.00     0.020 C 
ATOM     24  C   UNL A   1      32.470  29.130  27.155  1.00  0.00     0.009 C 
ATOM     25  C   UNL A   1      31.410  28.175  27.596  1.00  0.00     0.009 C 
ENDBRANCH  19  23
ENDBRANCH  16  17
ENDBRANCH  14  16
ENDBRANCH   7   8
ENDBRANCH   6   7
ENDBRANCH   4   6
ENDBRANCH   1   2
BRANCH   1  26
ATOM     26  C   UNL A   1      37.444  21.083  24.572  1.00  0.00     0.023 C 
BRANCH  26  27
ATOM     27  C   UNL A   1      38.313  19.826  24.742  1.00  0.00     0.023 C 
BRANCH  27  28
ATOM     28  C   UNL A   1      38.952  19.635  26.118  1.00  0.00     0.116 C 
BRANCH  28  29
ATOM     29  N   UNL A   1      40.225  18.946  26.084  1.00  0.00    -0.352 N 
ATOM     30  C   UNL A   1      41.501  19.422  26.260  1.00  0.00     0.251 C 
ATOM     31  H   UNL A   1      40.166  17.980  25.905  1.00  0.00     0.163 HD
ATOM     32  O   UNL A   1      42.441  18.630  26.185  1.00  0.00    -0.269 OA
BRANCH  30  33
ATOM     33  C   UNL A   1      41.785  20.865  26.478  1.00  0.00     0.039 A 
ATOM     34  C   UNL A   1      42.262  21.240  27.741  1.00  0.00     0.014 A 
ATOM     35  C   UNL A   1      41.565  21.853  25.512  1.00  0.00     0.014 A 
ATOM     36  C   UNL A   1      42.572  22.577  28.014  1.00  0.00     0.010 A 
ATOM     37  C   UNL A   1      41.933  23.182  25.767  1.00  0.00     0.010 A 
ATOM     38  C   UNL A   1      42.445  23.560  27.020  1.00  0.00    -0.014 A 
BRANCH  38  39
ATOM     39  C   UNL A   1      42.878  24.961  27.290  1.00  0.00     0.031 A 
ATOM     40  C   UNL A   1      41.957  25.948  27.959  1.00  0.00     0.074 A 
ATOM     41  C   UNL A   1      44.105  25.364  26.901  1.00  0.00     0.049 A 
ATOM     42  N   UNL A   1      42.183  27.196  28.283  1.00  0.00    -0.248 NA
ATOM     43  C   UNL A   1      40.603  25.480  28.294  1.00  0.00     0.031 C 
ATOM     44  C   UNL A   1      45.081  24.534  26.192  1.00  0.00     0.029 A 
ATOM     45  N   UNL A   1      44.739  26.578  27.032  1.00  0.00    -0.354 N 
ATOM     46  C   UNL A   1      40.998  27.674  28.832  1.00  0.00     0.074 A 
ATOM     47  C   UNL A   1      40.045  26.584  28.775  1.00  0.00     0.031 C 
ATOM     48  C   UNL A   1      46.189  25.255  25.960  1.00  0.00     0.029 A 
ATOM     49  C   UNL A   1      45.997  26.608  26.475  1.00  0.00     0.049 A 
ATOM     50  H   UNL A   1      44.331  27.351  27.484  1.00  0.00     0.167 HD
ATOM     51  C   UNL A   1      40.731  28.894  29.357  1.00  0.00     0.034 A 
ATOM     52  C   UNL A   1      46.896  27.609  26.379  1.00  0.00     0.034 A 
ATOM     53  C   UNL A   1      41.685  29.968  29.449  1.00  0.00     0.049 A 
ATOM     54  C   UNL A   1      46.578  28.949  26.987  1.00  0.00     0.074 A 
ATOM     55  C   UNL A   1      41.527  31.208  30.045  1.00  0.00     0.029 A 
ATOM     56  N   UNL A   1      42.967  29.942  28.923  1.00  0.00    -0.354 N 
ATOM     57  N   UNL A   1      45.510  29.324  27.646  1.00  0.00    -0.248 NA
ATOM     58  C   UNL A   1      47.608  29.994  26.871  1.00  0.00     0.031 C 
ATOM     59  C   UNL A   1      42.700  31.943  29.850  1.00  0.00     0.029 A 
ATOM     60  C   UNL A   1      43.603  31.149  29.164  1.00  0.00     0.049 A 
ATOM     61  H   UNL A   1      43.366  29.177  28.448  1.00  0.00     0.167 HD
ATOM     62  C   UNL A   1      45.752  30.631  28.055  1.00  0.00     0.074 A 
ATOM     63  C   UNL A   1      47.078  30.976  27.586  1.00  0.00     0.031 C 
ATOM     64  C   UNL A   1      44.942  31.473  28.743  1.00  0.00     0.034 A 
BRANCH  51  65
ATOM     65  C   UNL A   1      39.352  29.132  29.919  1.00  0.00     0.023 A 
ATOM     66  C   UNL A   1      39.011  28.602  31.179  1.00  0.00     0.012 A 
ATOM     67  C   UNL A   1      38.423  29.946  29.238  1.00  0.00     0.148 A 
ATOM     68  C   UNL A   1      37.757  28.847  31.738  1.00  0.00     0.002 A 
ATOM     69  C   UNL A   1      37.193  30.223  29.822  1.00  0.00     0.091 A 
ATOM     70  F   UNL A   1      38.759  30.430  28.033  1.00  0.00    -0.205 F 
ATOM     71  C   UNL A   1      36.854  29.667  31.066  1.00  0.00     0.022 A 
BRANCH  69  72
ATOM     72  S   UNL A   1      35.993  31.333  29.076  1.00  0.00     0.127 S 
ATOM     73  O   UNL A   1      36.830  32.481  28.728  1.00  0.00    -0.237 OA
ATOM     74  O   UNL A   1      35.523  30.554  27.930  1.00  0.00    -0.237 OA
ATOM     75  O   UNL A   1      34.985  31.581  30.096  1.00  0.00    -0.744 OA
ENDBRANCH  69  72
ENDBRANCH  51  65
BRANCH  52  76
ATOM     76  C   UNL A   1      48.213  27.369  25.722  1.00  0.00     0.023 A 
ATOM     77  C   UNL A   1      49.310  26.947  26.498  1.00  0.00     0.012 A 
ATOM     78  C   UNL A   1      48.381  27.548  24.335  1.00  0.00     0.148 A 
ATOM     79  C   UNL A   1      50.560  26.742  25.911  1.00  0.00     0.002 A 
ATOM     80  C   UNL A   1      49.612  27.286  23.748  1.00  0.00     0.091 A 
ATOM     81  F   UNL A   1      47.329  27.965  23.617  1.00  0.00    -0.205 F 
ATOM     82  C   UNL A   1      50.708  26.901  24.535  1.00  0.00     0.022 A 
BRANCH  80  83
ATOM     83  S   UNL A   1      49.859  27.338  21.969  1.00  0.00     0.127 S 
ATOM     84  O   UNL A   1      48.853  26.392  21.498  1.00  0.00    -0.237 OA
ATOM     85  O   UNL A   1      49.577  28.743  21.667  1.00  0.00    -0.237 OA
ATOM     86  O   UNL A   1      51.247  26.948  21.754  1.00  0.00    -0.744 OA
ENDBRANCH  80  83
ENDBRANCH  52  76
BRANCH  64  87
ATOM     87  C   UNL A   1      45.473  32.844  29.077  1.00  0.00     0.023 A 
ATOM     88  C   UNL A   1      46.205  33.047  30.264  1.00  0.00     0.012 A 
ATOM     89  C   UNL A   1      45.306  33.917  28.178  1.00  0.00     0.148 A 
ATOM     90  C   UNL A   1      46.733  34.301  30.567  1.00  0.00     0.002 A 
ATOM     91  C   UNL A   1      45.878  35.152  28.463  1.00  0.00     0.091 A 
ATOM     92  F   UNL A   1      44.591  33.712  27.063  1.00  0.00    -0.205 F 
ATOM     93  C   UNL A   1      46.580  35.349  29.663  1.00  0.00     0.022 A 
BRANCH  91  94
ATOM     94  S   UNL A   1      45.816  36.531  27.314  1.00  0.00     0.127 S 
ATOM     95  O   UNL A   1      46.451  35.959  26.127  1.00  0.00    -0.237 OA
ATOM     96  O   UNL A   1      44.378  36.764  27.183  1.00  0.00    -0.237 OA
ATOM     97  O   UNL A   1      46.550  37.618  27.951  1.00  0.00    -0.744 OA
ENDBRANCH  91  94
ENDBRANCH  64  87
ENDBRANCH  38  39
ENDBRANCH  30  33
ENDBRANCH  28  29
ENDBRANCH  27  28
ENDBRANCH  26  27
ENDBRANCH   1  26
TORSDOF 19
ENDMDL
MODEL 2
REMARK VINA RESULT:     -10.8      1.618      7.763
REMARK SMILES O=C(CC[NH+]1CC[NH+](Cc2ccccc2C2CC2)CC1)NCCCCNC(=O)c1ccc(-c2c3nc(c(-c4cccc(S(=O)(=O)[O-])c4F)c4ccc([nH]4)c(-c4cccc(S(=O)(=O)[O-])c4F)c4nc(c(-c5cccc(S(=O)(=O)[O-])c5F)c5ccc2[nH]5)C=C4)C=C3)cc1
REMARK SMILES IDX 22 1 21 2 1 3 2 4 3 6 4 7 5 8 6 9 20 10 7 12 19 13 8 14 9 16
REMARK SMILES IDX 10 17 11 18 15 19 12 20 14 21 13 22 16 23 17 24 18 25 23 26
REMARK SMILES IDX 24 27 25 28 26 29 27 30 28 32 29 33 30 34 91 35 31 36 90 37
REMARK SMILES IDX 32 38 33 39 34 40 84 41 35 42 89 43 83 44 85 45 36 46 88 47
REMARK SMILES IDX 82 48 81 49 37 51 69 52 49 53 68 54 50 55 53 56 67 57 86 58
REMARK SMILES IDX 51 59 52 60 66 62 87 63 54 64 38 65 39 66 47 67 40 68 42 69
REMARK SMILES IDX 48 70 41 71 43 72 44 73 45 74 46 75 70 76 71 77 79 78 72 79
REMARK SMILES IDX 74 80 80 81 73 82 75 83 76 84 77 85 78 86 55 87 56 88 64 89
REMARK SMILES IDX 57 90 59 91 65 92 58 93 60 94 61 95 62 96 63 97
REMARK H PARENT 21 5 5 11 8 15 26 31 85 50 53 61
REMARK Flexibility Score: inf
ROOT
ATOM      1  C   UNL A   1      35.651  23.324  24.368  1.00  0.00     0.116 C 
ENDROOT
BRANCH   1   2
ATOM      2  N   UNL A   1      34.224  23.103  24.251  1.00  0.00    -0.356 N 
ATOM      3  O   UNL A   1      34.047  23.350  21.966  1.00  0.00    -0.275 OA
ATOM      4  C   UNL A   1      33.558  23.034  23.040  1.00  0.00     0.225 C 
ATOM      5  H   UNL A   1      33.700  22.998  25.079  1.00  0.00     0.163 HD
BRANCH   4   6
ATOM      6  C   UNL A   1      32.140  22.481  23.172  1.00  0.00     0.161 C 
BRANCH   6   7
ATOM      7  C   UNL A   1      31.537  22.774  24.552  1.00  0.00     0.272 C 
BRANCH   7   8
ATOM      8  N   UNL A   1      30.989  24.120  24.620  1.00  0.00    -0.325 N 
ATOM      9  C   UNL A   1      30.736  24.742  23.317  1.00  0.00     0.324 C 
ATOM     10  C   UNL A   1      31.723  25.063  25.470  1.00  0.00     0.324 C 
ATOM     11  H   UNL A   1      30.093  23.939  25.071  1.00  0.00     0.348 HD
ATOM     12  C   UNL A   1      29.868  26.010  23.491  1.00  0.00     0.324 C 
ATOM     13  C   UNL A   1      30.814  26.290  25.706  1.00  0.00     0.324 C 
ATOM     14  N   UNL A   1      30.302  26.974  24.511  1.00  0.00    -0.322 N 
ATOM     15  H   UNL A   1      29.461  27.469  24.806  1.00  0.00     0.348 HD
BRANCH  14  16
ATOM     16  C   UNL A   1      31.107  28.101  24.027  1.00  0.00     0.299 C 
BRANCH  16  17
ATOM     17  C   UNL A   1      30.973  29.416  24.764  1.00  0.00     0.010 A 
ATOM     18  C   UNL A   1      31.808  29.552  25.909  1.00  0.00     0.010 A 
ATOM     19  C   UNL A   1      30.164  30.500  24.358  1.00  0.00    -0.036 A 
ATOM     20  C   UNL A   1      31.942  30.755  26.587  1.00  0.00     0.001 A 
ATOM     21  C   UNL A   1      30.329  31.707  25.088  1.00  0.00     0.004 A 
ATOM     22  C   UNL A   1      31.213  31.846  26.161  1.00  0.00     0.000 A 
BRANCH  19  23
ATOM     23  C   UNL A   1      29.181  30.574  23.196  1.00  0.00     0.020 C 
ATOM     24  C   UNL A   1      28.165  29.564  22.737  1.00  0.00     0.009 C 
ATOM     25  C   UNL A   1      27.713  30.748  23.526  1.00  0.00     0.009 C 
ENDBRANCH  19  23
ENDBRANCH  16  17
ENDBRANCH  14  16
ENDBRANCH   7   8
ENDBRANCH   6   7
ENDBRANCH   4   6
ENDBRANCH   1   2
BRANCH   1  26
ATOM     26  C   UNL A   1      36.208  22.854  25.716  1.00  0.00     0.023 C 
BRANCH  26  27
ATOM     27  C   UNL A   1      36.789  21.432  25.747  1.00  0.00     0.023 C 
BRANCH  27  28
ATOM     28  C   UNL A   1      38.116  21.234  25.012  1.00  0.00     0.116 C 
BRANCH  28  29
ATOM     29  N   UNL A   1      39.060  20.394  25.718  1.00  0.00    -0.352 N 
ATOM     30  C   UNL A   1      40.070  20.726  26.588  1.00  0.00     0.251 C 
ATOM     31  H   UNL A   1      38.962  19.430  25.549  1.00  0.00     0.163 HD
ATOM     32  O   UNL A   1      40.751  19.822  27.072  1.00  0.00    -0.269 OA
BRANCH  30  33
ATOM     33  C   UNL A   1      40.403  22.138  26.914  1.00  0.00     0.039 A 
ATOM     34  C   UNL A   1      41.228  22.362  28.023  1.00  0.00     0.014 A 
ATOM     35  C   UNL A   1      39.908  23.235  26.202  1.00  0.00     0.014 A 
ATOM     36  C   UNL A   1      41.603  23.662  28.379  1.00  0.00     0.010 A 
ATOM     37  C   UNL A   1      40.332  24.533  26.522  1.00  0.00     0.010 A 
ATOM     38  C   UNL A   1      41.188  24.762  27.612  1.00  0.00    -0.014 A 
BRANCH  38  39
ATOM     39  C   UNL A   1      41.678  26.133  27.938  1.00  0.00     0.031 A 
ATOM     40  C   UNL A   1      43.087  26.555  27.616  1.00  0.00     0.074 A 
ATOM     41  C   UNL A   1      40.855  27.002  28.562  1.00  0.00     0.049 A 
ATOM     42  N   UNL A   1      43.666  27.713  27.814  1.00  0.00    -0.248 NA
ATOM     43  C   UNL A   1      43.967  25.546  27.006  1.00  0.00     0.031 C 
ATOM     44  C   UNL A   1      39.484  26.711  28.985  1.00  0.00     0.029 A 
ATOM     45  N   UNL A   1      41.054  28.302  28.961  1.00  0.00    -0.354 N 
ATOM     46  C   UNL A   1      44.979  27.567  27.384  1.00  0.00     0.074 A 
ATOM     47  C   UNL A   1      45.120  26.198  26.934  1.00  0.00     0.031 C 
ATOM     48  C   UNL A   1      38.963  27.799  29.574  1.00  0.00     0.029 A 
ATOM     49  C   UNL A   1      39.969  28.857  29.600  1.00  0.00     0.049 A 
ATOM     50  H   UNL A   1      41.894  28.791  28.804  1.00  0.00     0.167 HD
ATOM     51  C   UNL A   1      45.972  28.489  27.342  1.00  0.00     0.034 A 
ATOM     52  C   UNL A   1      39.798  30.076  30.152  1.00  0.00     0.034 A 
ATOM     53  C   UNL A   1      45.826  29.862  27.753  1.00  0.00     0.049 A 
ATOM     54  C   UNL A   1      40.911  31.086  30.074  1.00  0.00     0.074 A 
ATOM     55  C   UNL A   1      46.753  30.887  27.664  1.00  0.00     0.029 A 
ATOM     56  N   UNL A   1      44.695  30.401  28.344  1.00  0.00    -0.354 N 
ATOM     57  N   UNL A   1      42.090  30.973  29.514  1.00  0.00    -0.248 NA
ATOM     58  C   UNL A   1      40.657  32.405  30.674  1.00  0.00     0.031 C 
ATOM     59  C   UNL A   1      46.193  32.037  28.231  1.00  0.00     0.029 A 
ATOM     60  C   UNL A   1      44.905  31.737  28.641  1.00  0.00     0.049 A 
ATOM     61  H   UNL A   1      43.863  29.905  28.526  1.00  0.00     0.167 HD
ATOM     62  C   UNL A   1      42.703  32.214  29.659  1.00  0.00     0.074 A 
ATOM     63  C   UNL A   1      41.755  33.070  30.342  1.00  0.00     0.031 C 
ATOM     64  C   UNL A   1      43.943  32.603  29.273  1.00  0.00     0.034 A 
BRANCH  51  65
ATOM     65  C   UNL A   1      47.308  28.061  26.791  1.00  0.00     0.023 A 
ATOM     66  C   UNL A   1      48.354  27.732  27.676  1.00  0.00     0.012 A 
ATOM     67  C   UNL A   1      47.504  27.906  25.403  1.00  0.00     0.148 A 
ATOM     68  C   UNL A   1      49.584  27.290  27.190  1.00  0.00     0.002 A 
ATOM     69  C   UNL A   1      48.716  27.421  24.929  1.00  0.00     0.091 A 
ATOM     70  F   UNL A   1      46.502  28.238  24.575  1.00  0.00    -0.205 F 
ATOM     71  C   UNL A   1      49.761  27.123  25.819  1.00  0.00     0.022 A 
BRANCH  69  72
ATOM     72  S   UNL A   1      49.016  27.094  23.187  1.00  0.00     0.127 S 
ATOM     73  O   UNL A   1      48.325  25.818  23.004  1.00  0.00    -0.237 OA
ATOM     74  O   UNL A   1      48.366  28.236  22.543  1.00  0.00    -0.237 OA
ATOM     75  O   UNL A   1      50.462  27.050  23.030  1.00  0.00    -0.744 OA
ENDBRANCH  69  72
ENDBRANCH  51  65
BRANCH  52  76
ATOM     76  C   UNL A   1      38.495  30.433  30.785  1.00  0.00     0.023 A 
ATOM     77  C   UNL A   1      38.227  30.016  32.103  1.00  0.00     0.012 A 
ATOM     78  C   UNL A   1      37.528  31.186  30.092  1.00  0.00     0.148 A 
ATOM     79  C   UNL A   1      37.004  30.314  32.708  1.00  0.00     0.002 A 
ATOM     80  C   UNL A   1      36.338  31.529  30.720  1.00  0.00     0.091 A 
ATOM     81  F   UNL A   1      37.797  31.560  28.833  1.00  0.00    -0.205 F 
ATOM     82  C   UNL A   1      36.065  31.079  32.021  1.00  0.00     0.022 A 
BRANCH  80  83
ATOM     83  S   UNL A   1      35.129  32.618  29.960  1.00  0.00     0.127 S 
ATOM     84  O   UNL A   1      34.465  31.720  29.020  1.00  0.00    -0.237 OA
ATOM     85  O   UNL A   1      34.317  33.019  31.110  1.00  0.00    -0.237 OA
ATOM     86  O   UNL A   1      35.898  33.703  29.364  1.00  0.00    -0.744 OA
ENDBRANCH  80  83
ENDBRANCH  52  76
BRANCH  64  87
ATOM     87  C   UNL A   1      44.347  34.031  29.538  1.00  0.00     0.023 A 
ATOM     88  C   UNL A   1      44.989  34.369  30.746  1.00  0.00     0.012 A 
ATOM     89  C   UNL A   1      44.154  35.025  28.557  1.00  0.00     0.148 A 
ATOM     90  C   UNL A   1      45.401  35.679  30.988  1.00  0.00     0.002 A 
ATOM     91  C   UNL A   1      44.613  36.318  28.785  1.00  0.00     0.091 A 
ATOM     92  F   UNL A   1      43.525  34.690  27.421  1.00  0.00    -0.205 F 
ATOM     93  C   UNL A   1      45.225  36.650  30.004  1.00  0.00     0.022 A 
BRANCH  91  94
ATOM     94  S   UNL A   1      44.517  37.609  27.539  1.00  0.00     0.127 S 
ATOM     95  O   UNL A   1      45.529  37.172  26.579  1.00  0.00    -0.237 OA
ATOM     96  O   UNL A   1      43.138  37.485  27.069  1.00  0.00    -0.237 OA
ATOM     97  O   UNL A   1      44.811  38.858  28.231  1.00  0.00    -0.744 OA
ENDBRANCH  91  94
ENDBRANCH  64  87
ENDBRANCH  38  39
ENDBRANCH  30  33
ENDBRANCH  28  29
ENDBRANCH  27  28
ENDBRANCH  26  27
ENDBRANCH   1  26
TORSDOF 19
ENDMDL
MODEL 3
REMARK VINA RESULT:     -10.7      2.086      2.491
REMARK SMILES O=C(CC[NH+]1CC[NH+](Cc2ccccc2C2CC2)CC1)NCCCCNC(=O)c1ccc(-c2c3nc(c(-c4cccc(S(=O)(=O)[O-])c4F)c4ccc([nH]4)c(-c4cccc(S(=O)(=O)[O-])c4F)c4nc(c(-c5cccc(S(=O)(=O)[O-])c5F)c5ccc2[nH]5)C=C4)C=C3)cc1
REMARK SMILES IDX 22 1 21 2 1 3 2 4 3 6 4 7 5 8 6 9 20 10 7 12 19 13 8 14 9 16
REMARK SMILES IDX 10 17 11 18 15 19 12 20 14 21 13 22 16 23 17 24 18 25 23 26
REMARK SMILES IDX 24 27 25 28 26 29 27 30 28 32 29 33 30 34 91 35 31 36 90 37
REMARK SMILES IDX 32 38 33 39 34 40 84 41 35 42 89 43 83 44 85 45 36 46 88 47
REMARK SMILES IDX 82 48 81 49 37 51 69 52 49 53 68 54 50 55 53 56 67 57 86 58
REMARK SMILES IDX 51 59 52 60 66 62 87 63 54 64 38 65 39 66 47 67 40 68 42 69
REMARK SMILES IDX 48 70 41 71 43 72 44 73 45 74 46 75 70 76 71 77 79 78 72 79
REMARK SMILES IDX 74 80 80 81 73 82 75 83 76 84 77 85 78 86 55 87 56 88 64 89
REMARK SMILES IDX 57 90 59 91 65 92 58 93 60 94 61 95 62 96 63 97
REMARK H PARENT 21 5 5 11 8 15 26 31 85 50 53 61
REMARK Flexibility Score: inf
ROOT
ATOM      1  C   UNL A   1      38.452  23.122  26.065  1.00  0.00     0.116 C 
ENDROOT
BRANCH   1   2
ATOM      2  N   UNL A   1      37.125  22.563  26.220  1.00  0.00    -0.356 N 
ATOM      3  O   UNL A   1      36.642  22.261  23.986  1.00  0.00    -0.275 OA
ATOM      4  C   UNL A   1      36.371  22.083  25.163  1.00  0.00     0.225 C 
ATOM      5  H   UNL A   1      36.739  22.523  27.125  1.00  0.00     0.163 HD
BRANCH   4   6
ATOM      6  C   UNL A   1      35.164  21.264  25.618  1.00  0.00     0.161 C 
BRANCH   6   7
ATOM      7  C   UNL A   1      34.324  22.013  26.662  1.00  0.00     0.272 C 
BRANCH   7   8
ATOM      8  N   UNL A   1      33.131  22.595  26.067  1.00  0.00    -0.325 N 
ATOM      9  C   UNL A   1      33.337  23.902  25.437  1.00  0.00     0.324 C 
ATOM     10  C   UNL A   1      31.953  22.661  26.940  1.00  0.00     0.324 C 
ATOM     11  H   UNL A   1      32.929  21.912  25.337  1.00  0.00     0.348 HD
ATOM     12  C   UNL A   1      32.113  24.275  24.568  1.00  0.00     0.324 C 
ATOM     13  C   UNL A   1      30.724  22.952  26.050  1.00  0.00     0.324 C 
ATOM     14  N   UNL A   1      30.792  24.145  25.196  1.00  0.00    -0.322 N 
ATOM     15  H   UNL A   1      30.133  23.987  24.434  1.00  0.00     0.348 HD
BRANCH  14  16
ATOM     16  C   UNL A   1      30.231  25.373  25.770  1.00  0.00     0.299 C 
BRANCH  16  17
ATOM     17  C   UNL A   1      30.303  26.628  24.927  1.00  0.00     0.010 A 
ATOM     18  C   UNL A   1      29.354  26.697  23.869  1.00  0.00     0.010 A 
ATOM     19  C   UNL A   1      31.164  27.723  25.165  1.00  0.00    -0.036 A 
ATOM     20  C   UNL A   1      29.163  27.850  23.120  1.00  0.00     0.001 A 
ATOM     21  C   UNL A   1      30.937  28.877  24.368  1.00  0.00     0.004 A 
ATOM     22  C   UNL A   1      29.946  28.955  23.385  1.00  0.00     0.000 A 
BRANCH  19  23
ATOM     23  C   UNL A   1      32.264  27.862  26.210  1.00  0.00     0.020 C 
ATOM     24  C   UNL A   1      32.790  29.098  26.886  1.00  0.00     0.009 C 
ATOM     25  C   UNL A   1      31.849  28.204  27.626  1.00  0.00     0.009 C 
ENDBRANCH  19  23
ENDBRANCH  16  17
ENDBRANCH  14  16
ENDBRANCH   7   8
ENDBRANCH   6   7
ENDBRANCH   4   6
ENDBRANCH   1   2
BRANCH   1  26
ATOM     26  C   UNL A   1      39.551  22.158  26.525  1.00  0.00     0.023 C 
BRANCH  26  27
ATOM     27  C   UNL A   1      39.648  20.830  25.757  1.00  0.00     0.023 C 
BRANCH  27  28
ATOM     28  C   UNL A   1      40.069  19.611  26.578  1.00  0.00     0.116 C 
BRANCH  28  29
ATOM     29  N   UNL A   1      41.299  18.994  26.126  1.00  0.00    -0.352 N 
ATOM     30  C   UNL A   1      42.546  19.533  25.929  1.00  0.00     0.251 C 
ATOM     31  H   UNL A   1      41.229  18.032  25.928  1.00  0.00     0.163 HD
ATOM     32  O   UNL A   1      43.450  18.797  25.534  1.00  0.00    -0.269 OA
BRANCH  30  33
ATOM     33  C   UNL A   1      42.822  20.982  26.119  1.00  0.00     0.039 A 
ATOM     34  C   UNL A   1      42.954  21.441  27.435  1.00  0.00     0.014 A 
ATOM     35  C   UNL A   1      42.915  21.897  25.065  1.00  0.00     0.014 A 
ATOM     36  C   UNL A   1      43.235  22.787  27.692  1.00  0.00     0.010 A 
ATOM     37  C   UNL A   1      43.257  23.233  25.321  1.00  0.00     0.010 A 
ATOM     38  C   UNL A   1      43.425  23.694  26.638  1.00  0.00    -0.014 A 
BRANCH  38  39
ATOM     39  C   UNL A   1      43.828  25.102  26.921  1.00  0.00     0.031 A 
ATOM     40  C   UNL A   1      42.846  26.099  27.479  1.00  0.00     0.074 A 
ATOM     41  C   UNL A   1      45.087  25.501  26.643  1.00  0.00     0.049 A 
ATOM     42  N   UNL A   1      43.038  27.353  27.799  1.00  0.00    -0.248 NA
ATOM     43  C   UNL A   1      41.467  25.633  27.692  1.00  0.00     0.031 C 
ATOM     44  C   UNL A   1      46.127  24.660  26.048  1.00  0.00     0.029 A 
ATOM     45  N   UNL A   1      45.704  26.719  26.812  1.00  0.00    -0.354 N 
ATOM     46  C   UNL A   1      41.806  27.837  28.222  1.00  0.00     0.074 A 
ATOM     47  C   UNL A   1      40.864  26.744  28.095  1.00  0.00     0.031 C 
ATOM     48  C   UNL A   1      47.252  25.380  25.909  1.00  0.00     0.029 A 
ATOM     49  C   UNL A   1      47.010  26.742  26.376  1.00  0.00     0.049 A 
ATOM     50  H   UNL A   1      45.254  27.500  27.207  1.00  0.00     0.167 HD
ATOM     51  C   UNL A   1      41.488  29.067  28.696  1.00  0.00     0.034 A 
ATOM     52  C   UNL A   1      47.912  27.744  26.348  1.00  0.00     0.034 A 
ATOM     53  C   UNL A   1      42.428  30.145  28.859  1.00  0.00     0.049 A 
ATOM     54  C   UNL A   1      47.536  29.094  26.897  1.00  0.00     0.074 A 
ATOM     55  C   UNL A   1      42.212  31.396  29.412  1.00  0.00     0.029 A 
ATOM     56  N   UNL A   1      43.754  30.113  28.459  1.00  0.00    -0.354 N 
ATOM     57  N   UNL A   1      46.409  29.478  27.444  1.00  0.00    -0.248 NA
ATOM     58  C   UNL A   1      48.571  30.140  26.860  1.00  0.00     0.031 C 
ATOM     59  C   UNL A   1      43.398  32.131  29.317  1.00  0.00     0.029 A 
ATOM     60  C   UNL A   1      44.363  31.326  28.736  1.00  0.00     0.049 A 
ATOM     61  H   UNL A   1      44.198  29.341  28.039  1.00  0.00     0.167 HD
ATOM     62  C   UNL A   1      46.609  30.794  27.848  1.00  0.00     0.074 A 
ATOM     63  C   UNL A   1      47.974  31.134  27.502  1.00  0.00     0.031 C 
ATOM     64  C   UNL A   1      45.736  31.646  28.439  1.00  0.00     0.034 A 
BRANCH  51  65
ATOM     65  C   UNL A   1      40.061  29.311  29.118  1.00  0.00     0.023 A 
ATOM     66  C   UNL A   1      39.070  29.519  28.138  1.00  0.00     0.012 A 
ATOM     67  C   UNL A   1      39.688  29.255  30.476  1.00  0.00     0.148 A 
ATOM     68  C   UNL A   1      37.737  29.701  28.502  1.00  0.00     0.002 A 
ATOM     69  C   UNL A   1      38.351  29.393  30.829  1.00  0.00     0.091 A 
ATOM     70  F   UNL A   1      40.646  29.072  31.396  1.00  0.00    -0.205 F 
ATOM     71  C   UNL A   1      37.376  29.627  29.845  1.00  0.00     0.022 A 
BRANCH  69  72
ATOM     72  S   UNL A   1      37.772  29.231  32.522  1.00  0.00     0.127 S 
ATOM     73  O   UNL A   1      38.674  30.139  33.230  1.00  0.00    -0.237 OA
ATOM     74  O   UNL A   1      36.390  29.702  32.422  1.00  0.00    -0.237 OA
ATOM     75  O   UNL A   1      37.912  27.822  32.862  1.00  0.00    -0.744 OA
ENDBRANCH  69  72
ENDBRANCH  51  65
BRANCH  52  76
ATOM     76  C   UNL A   1      49.286  27.496  25.825  1.00  0.00     0.023 A 
ATOM     77  C   UNL A   1      49.513  27.508  24.435  1.00  0.00     0.012 A 
ATOM     78  C   UNL A   1      50.367  27.256  26.695  1.00  0.00     0.148 A 
ATOM     79  C   UNL A   1      50.785  27.252  23.919  1.00  0.00     0.002 A 
ATOM     80  C   UNL A   1      51.641  27.059  26.178  1.00  0.00     0.091 A 
ATOM     81  F   UNL A   1      50.127  27.233  28.013  1.00  0.00    -0.205 F 
ATOM     82  C   UNL A   1      51.850  27.038  24.791  1.00  0.00     0.022 A 
BRANCH  80  83
ATOM     83  S   UNL A   1      53.091  26.906  27.227  1.00  0.00     0.127 S 
ATOM     84  O   UNL A   1      54.103  26.454  26.277  1.00  0.00    -0.237 OA
ATOM     85  O   UNL A   1      53.263  28.279  27.707  1.00  0.00    -0.237 OA
ATOM     86  O   UNL A   1      52.725  25.952  28.266  1.00  0.00    -0.744 OA
ENDBRANCH  80  83
ENDBRANCH  52  76
BRANCH  64  87
ATOM     87  C   UNL A   1      46.230  33.026  28.796  1.00  0.00     0.023 A 
ATOM     88  C   UNL A   1      46.878  33.245  30.028  1.00  0.00     0.012 A 
ATOM     89  C   UNL A   1      46.116  34.089  27.878  1.00  0.00     0.148 A 
ATOM     90  C   UNL A   1      47.373  34.507  30.355  1.00  0.00     0.002 A 
ATOM     91  C   UNL A   1      46.656  35.331  28.190  1.00  0.00     0.091 A 
ATOM     92  F   UNL A   1      45.480  33.867  26.718  1.00  0.00    -0.205 F 
ATOM     93  C   UNL A   1      47.273  35.546  29.433  1.00  0.00     0.022 A 
BRANCH  91  94
ATOM     94  S   UNL A   1      46.661  36.701  27.026  1.00  0.00     0.127 S 
ATOM     95  O   UNL A   1      45.237  37.019  26.934  1.00  0.00    -0.237 OA
ATOM     96  O   UNL A   1      47.465  37.702  27.728  1.00  0.00    -0.237 OA
ATOM     97  O   UNL A   1      47.266  36.187  25.804  1.00  0.00    -0.744 OA
ENDBRANCH  91  94
ENDBRANCH  64  87
ENDBRANCH  38  39
ENDBRANCH  30  33
ENDBRANCH  28  29
ENDBRANCH  27  28
ENDBRANCH  26  27
ENDBRANCH   1  26
TORSDOF 19
ENDMDL
