MODEL 1
REMARK VINA RESULT:     -12.0      0.000      0.000
REMARK SMILES CC[C@@](C)(NS(=O)(=O)c1ccc(F)c(F)c1)C(=O)NCCCCNC(=O)c1ccc(-c2c3nc(c(-c4cccc(S(=O)(=O)[O-])c4F)c4ccc([nH]4)c(-c4cccc(S(=O)(=O)[O-])c4F)c4nc(c(-c5cccc(S(=O)(=O)[O-])c5F)c5ccc2[nH]5)C=C4)C=C3)cc1
REMARK SMILES IDX 21 1 20 2 19 3 17 4 18 5 3 7 4 8 2 9 1 10 5 11 6 13 7 14
REMARK SMILES IDX 8 15 9 16 10 17 16 18 11 19 14 20 12 21 15 22 13 23 22 24
REMARK SMILES IDX 23 25 24 26 25 27 26 29 27 30 28 31 89 32 29 33 88 34 30 35
REMARK SMILES IDX 31 36 32 37 82 38 33 39 87 40 81 41 83 42 34 43 86 44 80 45
REMARK SMILES IDX 79 46 35 48 67 49 47 50 66 51 48 52 51 53 65 54 84 55 49 56
REMARK SMILES IDX 50 57 64 59 85 60 52 61 36 62 37 63 45 64 38 65 40 66 46 67
REMARK SMILES IDX 39 68 41 69 42 70 43 71 44 72 68 73 69 74 77 75 70 76 72 77
REMARK SMILES IDX 78 78 71 79 73 80 74 81 75 82 76 83 53 84 54 85 62 86 55 87
REMARK SMILES IDX 57 88 63 89 56 90 58 91 59 92 60 93 61 94
REMARK H PARENT 19 6 5 12 24 28 83 47 51 58
REMARK Flexibility Score: inf
ROOT
ATOM      1  C   UNL A   1      31.630  30.834  26.587  1.00  0.00     0.023 C 
ENDROOT
BRANCH   1   2
ATOM      2  C   UNL A   1      31.632  30.201  25.182  1.00  0.00     0.116 C 
BRANCH   2   3
ATOM      3  N   UNL A   1      32.887  29.722  24.621  1.00  0.00    -0.354 N 
ATOM      4  C   UNL A   1      33.418  28.498  24.333  1.00  0.00     0.241 C 
ATOM      5  O   UNL A   1      34.354  28.528  23.521  1.00  0.00    -0.273 OA
ATOM      6  H   UNL A   1      33.500  30.459  24.395  1.00  0.00     0.163 HD
BRANCH   4   7
ATOM      7  C   UNL A   1      33.025  27.149  24.987  1.00  0.00     0.108 C 
ATOM      8  C   UNL A   1      34.018  26.027  24.643  1.00  0.00     0.040 C 
BRANCH   7   9
ATOM      9  C   UNL A   1      32.992  27.272  26.563  1.00  0.00     0.030 C 
ATOM     10  C   UNL A   1      31.638  27.341  27.260  1.00  0.00     0.006 C 
ENDBRANCH   7   9
BRANCH   7  11
ATOM     11  N   UNL A   1      31.661  26.643  24.676  1.00  0.00    -0.196 NA
ATOM     12  H   UNL A   1      31.036  27.269  25.184  1.00  0.00     0.142 HD
BRANCH  11  13
ATOM     13  S   UNL A   1      30.921  26.439  23.192  1.00  0.00     0.241 S 
ATOM     14  O   UNL A   1      31.983  26.385  22.209  1.00  0.00    -0.207 OA
ATOM     15  O   UNL A   1      30.067  25.289  23.385  1.00  0.00    -0.207 OA
BRANCH  13  16
ATOM     16  C   UNL A   1      29.874  27.809  22.796  1.00  0.00     0.085 A 
ATOM     17  C   UNL A   1      30.346  28.977  22.203  1.00  0.00     0.025 A 
ATOM     18  C   UNL A   1      28.553  27.760  23.240  1.00  0.00     0.064 A 
ATOM     19  C   UNL A   1      29.458  30.046  21.995  1.00  0.00     0.044 A 
ATOM     20  C   UNL A   1      27.666  28.795  23.000  1.00  0.00     0.160 A 
ATOM     21  C   UNL A   1      28.117  29.941  22.376  1.00  0.00     0.158 A 
ATOM     22  F   UNL A   1      26.385  28.651  23.366  1.00  0.00    -0.204 F 
ATOM     23  F   UNL A   1      27.276  30.955  22.141  1.00  0.00    -0.204 F 
ENDBRANCH  13  16
ENDBRANCH  11  13
ENDBRANCH   7  11
ENDBRANCH   4   7
ENDBRANCH   2   3
ENDBRANCH   1   2
BRANCH   1  24
ATOM     24  C   UNL A   1      31.642  32.355  26.793  1.00  0.00     0.023 C 
BRANCH  24  25
ATOM     25  C   UNL A   1      32.919  32.966  27.341  1.00  0.00     0.116 C 
BRANCH  25  26
ATOM     26  N   UNL A   1      32.706  34.368  27.647  1.00  0.00    -0.352 N 
ATOM     27  C   UNL A   1      33.130  35.051  28.763  1.00  0.00     0.251 C 
ATOM     28  H   UNL A   1      32.200  34.890  26.983  1.00  0.00     0.163 HD
ATOM     29  O   UNL A   1      32.572  36.094  29.090  1.00  0.00    -0.269 OA
BRANCH  27  30
ATOM     30  C   UNL A   1      34.274  34.535  29.552  1.00  0.00     0.039 A 
ATOM     31  C   UNL A   1      35.552  34.524  28.986  1.00  0.00     0.014 A 
ATOM     32  C   UNL A   1      34.068  33.997  30.828  1.00  0.00     0.014 A 
ATOM     33  C   UNL A   1      36.620  33.965  29.694  1.00  0.00     0.010 A 
ATOM     34  C   UNL A   1      35.144  33.500  31.557  1.00  0.00     0.010 A 
ATOM     35  C   UNL A   1      36.421  33.439  30.982  1.00  0.00    -0.014 A 
BRANCH  35  36
ATOM     36  C   UNL A   1      37.524  32.754  31.704  1.00  0.00     0.031 A 
ATOM     37  C   UNL A   1      38.234  31.593  31.055  1.00  0.00     0.074 A 
ATOM     38  C   UNL A   1      37.859  33.144  32.948  1.00  0.00     0.049 A 
ATOM     39  N   UNL A   1      39.229  30.877  31.511  1.00  0.00    -0.248 NA
ATOM     40  C   UNL A   1      37.750  31.166  29.731  1.00  0.00     0.031 C 
ATOM     41  C   UNL A   1      37.195  34.204  33.709  1.00  0.00     0.029 A 
ATOM     42  N   UNL A   1      38.831  32.681  33.799  1.00  0.00    -0.354 N 
ATOM     43  C   UNL A   1      39.464  29.898  30.550  1.00  0.00     0.074 A 
ATOM     44  C   UNL A   1      38.486  30.089  29.504  1.00  0.00     0.031 C 
ATOM     45  C   UNL A   1      37.786  34.317  34.910  1.00  0.00     0.029 A 
ATOM     46  C   UNL A   1      38.856  33.328  35.012  1.00  0.00     0.049 A 
ATOM     47  H   UNL A   1      39.452  31.954  33.564  1.00  0.00     0.167 HD
ATOM     48  C   UNL A   1      40.428  28.948  30.525  1.00  0.00     0.034 A 
ATOM     49  C   UNL A   1      39.654  33.146  36.083  1.00  0.00     0.034 A 
ATOM     50  C   UNL A   1      41.428  28.794  31.544  1.00  0.00     0.049 A 
ATOM     51  C   UNL A   1      40.747  32.111  36.008  1.00  0.00     0.074 A 
ATOM     52  C   UNL A   1      42.506  27.928  31.570  1.00  0.00     0.029 A 
ATOM     53  N   UNL A   1      41.469  29.520  32.725  1.00  0.00    -0.354 N 
ATOM     54  N   UNL A   1      41.063  31.312  35.017  1.00  0.00    -0.248 NA
ATOM     55  C   UNL A   1      41.620  31.982  37.184  1.00  0.00     0.031 C 
ATOM     56  C   UNL A   1      43.184  28.111  32.779  1.00  0.00     0.029 A 
ATOM     57  C   UNL A   1      42.545  29.112  33.493  1.00  0.00     0.049 A 
ATOM     58  H   UNL A   1      40.826  30.221  32.980  1.00  0.00     0.167 HD
ATOM     59  C   UNL A   1      42.191  30.614  35.434  1.00  0.00     0.074 A 
ATOM     60  C   UNL A   1      42.515  31.101  36.759  1.00  0.00     0.031 C 
ATOM     61  C   UNL A   1      42.886  29.647  34.787  1.00  0.00     0.034 A 
BRANCH  48  62
ATOM     62  C   UNL A   1      40.480  28.030  29.330  1.00  0.00     0.023 A 
ATOM     63  C   UNL A   1      39.608  26.924  29.262  1.00  0.00     0.012 A 
ATOM     64  C   UNL A   1      41.347  28.293  28.250  1.00  0.00     0.148 A 
ATOM     65  C   UNL A   1      39.621  26.074  28.156  1.00  0.00     0.002 A 
ATOM     66  C   UNL A   1      41.321  27.469  27.131  1.00  0.00     0.091 A 
ATOM     67  F   UNL A   1      42.183  29.336  28.341  1.00  0.00    -0.205 F 
ATOM     68  C   UNL A   1      40.468  26.353  27.087  1.00  0.00     0.022 A 
BRANCH  66  69
ATOM     69  S   UNL A   1      42.315  27.786  25.669  1.00  0.00     0.127 S 
ATOM     70  O   UNL A   1      43.666  27.796  26.226  1.00  0.00    -0.237 OA
ATOM     71  O   UNL A   1      42.011  26.624  24.832  1.00  0.00    -0.237 OA
ATOM     72  O   UNL A   1      41.850  29.059  25.134  1.00  0.00    -0.744 OA
ENDBRANCH  66  69
ENDBRANCH  48  62
BRANCH  49  73
ATOM     73  C   UNL A   1      39.501  34.013  37.286  1.00  0.00     0.023 A 
ATOM     74  C   UNL A   1      39.948  35.348  37.237  1.00  0.00     0.012 A 
ATOM     75  C   UNL A   1      38.901  33.533  38.467  1.00  0.00     0.148 A 
ATOM     76  C   UNL A   1      39.833  36.179  38.351  1.00  0.00     0.002 A 
ATOM     77  C   UNL A   1      38.741  34.383  39.555  1.00  0.00     0.091 A 
ATOM     78  F   UNL A   1      38.494  32.257  38.498  1.00  0.00    -0.205 F 
ATOM     79  C   UNL A   1      39.221  35.700  39.507  1.00  0.00     0.022 A 
BRANCH  77  80
ATOM     80  S   UNL A   1      37.852  33.891  41.037  1.00  0.00     0.127 S 
ATOM     81  O   UNL A   1      38.832  33.038  41.704  1.00  0.00    -0.237 OA
ATOM     82  O   UNL A   1      37.614  35.180  41.689  1.00  0.00    -0.237 OA
ATOM     83  O   UNL A   1      36.645  33.225  40.569  1.00  0.00    -0.744 OA
ENDBRANCH  77  80
ENDBRANCH  49  73
BRANCH  61  84
ATOM     84  C   UNL A   1      44.093  29.069  35.479  1.00  0.00     0.023 A 
ATOM     85  C   UNL A   1      45.356  29.667  35.303  1.00  0.00     0.012 A 
ATOM     86  C   UNL A   1      43.958  27.983  36.367  1.00  0.00     0.148 A 
ATOM     87  C   UNL A   1      46.473  29.173  35.974  1.00  0.00     0.002 A 
ATOM     88  C   UNL A   1      45.066  27.529  37.071  1.00  0.00     0.091 A 
ATOM     89  F   UNL A   1      42.751  27.418  36.508  1.00  0.00    -0.205 F 
ATOM     90  C   UNL A   1      46.326  28.113  36.866  1.00  0.00     0.022 A 
BRANCH  88  91
ATOM     91  S   UNL A   1      44.952  26.239  38.316  1.00  0.00     0.127 S 
ATOM     92  O   UNL A   1      46.183  26.449  39.076  1.00  0.00    -0.237 OA
ATOM     93  O   UNL A   1      43.727  26.601  39.028  1.00  0.00    -0.237 OA
ATOM     94  O   UNL A   1      44.876  24.981  37.584  1.00  0.00    -0.744 OA
ENDBRANCH  88  91
ENDBRANCH  61  84
ENDBRANCH  35  36
ENDBRANCH  27  30
ENDBRANCH  25  26
ENDBRANCH  24  25
ENDBRANCH   1  24
TORSDOF 18
ENDMDL
MODEL 2
REMARK VINA RESULT:     -11.7      2.454      8.254
REMARK SMILES CC[C@@](C)(NS(=O)(=O)c1ccc(F)c(F)c1)C(=O)NCCCCNC(=O)c1ccc(-c2c3nc(c(-c4cccc(S(=O)(=O)[O-])c4F)c4ccc([nH]4)c(-c4cccc(S(=O)(=O)[O-])c4F)c4nc(c(-c5cccc(S(=O)(=O)[O-])c5F)c5ccc2[nH]5)C=C4)C=C3)cc1
REMARK SMILES IDX 21 1 20 2 19 3 17 4 18 5 3 7 4 8 2 9 1 10 5 11 6 13 7 14
REMARK SMILES IDX 8 15 9 16 10 17 16 18 11 19 14 20 12 21 15 22 13 23 22 24
REMARK SMILES IDX 23 25 24 26 25 27 26 29 27 30 28 31 89 32 29 33 88 34 30 35
REMARK SMILES IDX 31 36 32 37 82 38 33 39 87 40 81 41 83 42 34 43 86 44 80 45
REMARK SMILES IDX 79 46 35 48 67 49 47 50 66 51 48 52 51 53 65 54 84 55 49 56
REMARK SMILES IDX 50 57 64 59 85 60 52 61 36 62 37 63 45 64 38 65 40 66 46 67
REMARK SMILES IDX 39 68 41 69 42 70 43 71 44 72 68 73 69 74 77 75 70 76 72 77
REMARK SMILES IDX 78 78 71 79 73 80 74 81 75 82 76 83 53 84 54 85 62 86 55 87
REMARK SMILES IDX 57 88 63 89 56 90 58 91 59 92 60 93 61 94
REMARK H PARENT 19 6 5 12 24 28 83 47 51 58
REMARK Flexibility Score: inf
ROOT
ATOM      1  C   UNL A   1      31.919  27.521  27.063  1.00  0.00     0.023 C 
ENDROOT
BRANCH   1   2
ATOM      2  C   UNL A   1      31.888  26.281  26.150  1.00  0.00     0.116 C 
BRANCH   2   3
ATOM      3  N   UNL A   1      33.013  25.358  26.167  1.00  0.00    -0.354 N 
ATOM      4  C   UNL A   1      33.522  24.431  25.303  1.00  0.00     0.241 C 
ATOM      5  O   UNL A   1      34.702  24.122  25.526  1.00  0.00    -0.273 OA
ATOM      6  H   UNL A   1      33.532  25.417  27.002  1.00  0.00     0.163 HD
BRANCH   4   7
ATOM      7  C   UNL A   1      32.746  23.696  24.182  1.00  0.00     0.108 C 
ATOM      8  C   UNL A   1      33.411  22.365  23.792  1.00  0.00     0.040 C 
BRANCH   7   9
ATOM      9  C   UNL A   1      31.271  23.359  24.641  1.00  0.00     0.030 C 
ATOM     10  C   UNL A   1      31.070  22.325  25.744  1.00  0.00     0.006 C 
ENDBRANCH   7   9
BRANCH   7  11
ATOM     11  N   UNL A   1      32.524  24.464  22.927  1.00  0.00    -0.196 NA
ATOM     12  H   UNL A   1      31.511  24.460  22.803  1.00  0.00     0.142 HD
BRANCH  11  13
ATOM     13  S   UNL A   1      32.979  26.026  22.548  1.00  0.00     0.241 S 
ATOM     14  O   UNL A   1      34.019  26.388  23.487  1.00  0.00    -0.207 OA
ATOM     15  O   UNL A   1      33.280  25.966  21.136  1.00  0.00    -0.207 OA
BRANCH  13  16
ATOM     16  C   UNL A   1      31.634  27.159  22.749  1.00  0.00     0.085 A 
ATOM     17  C   UNL A   1      31.791  28.541  22.672  1.00  0.00     0.025 A 
ATOM     18  C   UNL A   1      30.406  26.637  23.150  1.00  0.00     0.064 A 
ATOM     19  C   UNL A   1      30.684  29.369  22.921  1.00  0.00     0.044 A 
ATOM     20  C   UNL A   1      29.303  27.447  23.357  1.00  0.00     0.160 A 
ATOM     21  C   UNL A   1      29.440  28.816  23.243  1.00  0.00     0.158 A 
ATOM     22  F   UNL A   1      28.125  26.881  23.648  1.00  0.00    -0.204 F 
ATOM     23  F   UNL A   1      28.387  29.617  23.445  1.00  0.00    -0.204 F 
ENDBRANCH  13  16
ENDBRANCH  11  13
ENDBRANCH   7  11
ENDBRANCH   4   7
ENDBRANCH   2   3
ENDBRANCH   1   2
BRANCH   1  24
ATOM     24  C   UNL A   1      31.617  28.929  26.532  1.00  0.00     0.023 C 
BRANCH  24  25
ATOM     25  C   UNL A   1      32.780  29.708  25.945  1.00  0.00     0.116 C 
BRANCH  25  26
ATOM     26  N   UNL A   1      32.631  31.121  26.243  1.00  0.00    -0.352 N 
ATOM     27  C   UNL A   1      33.263  31.834  27.235  1.00  0.00     0.251 C 
ATOM     28  H   UNL A   1      32.007  31.626  25.673  1.00  0.00     0.163 HD
ATOM     29  O   UNL A   1      32.779  32.890  27.631  1.00  0.00    -0.269 OA
BRANCH  27  30
ATOM     30  C   UNL A   1      34.537  31.335  27.804  1.00  0.00     0.039 A 
ATOM     31  C   UNL A   1      34.632  30.001  28.213  1.00  0.00     0.014 A 
ATOM     32  C   UNL A   1      35.615  32.205  27.997  1.00  0.00     0.014 A 
ATOM     33  C   UNL A   1      35.804  29.545  28.824  1.00  0.00     0.010 A 
ATOM     34  C   UNL A   1      36.804  31.733  28.546  1.00  0.00     0.010 A 
ATOM     35  C   UNL A   1      36.895  30.411  29.005  1.00  0.00    -0.014 A 
BRANCH  35  36
ATOM     36  C   UNL A   1      38.106  29.968  29.740  1.00  0.00     0.031 A 
ATOM     37  C   UNL A   1      38.362  30.477  31.137  1.00  0.00     0.074 A 
ATOM     38  C   UNL A   1      38.992  29.147  29.147  1.00  0.00     0.049 A 
ATOM     39  N   UNL A   1      39.348  30.197  31.949  1.00  0.00    -0.248 NA
ATOM     40  C   UNL A   1      37.395  31.444  31.684  1.00  0.00     0.031 C 
ATOM     41  C   UNL A   1      38.894  28.647  27.774  1.00  0.00     0.029 A 
ATOM     42  N   UNL A   1      40.160  28.601  29.616  1.00  0.00    -0.354 N 
ATOM     43  C   UNL A   1      39.140  30.976  33.082  1.00  0.00     0.074 A 
ATOM     44  C   UNL A   1      37.955  31.768  32.840  1.00  0.00     0.031 C 
ATOM     45  C   UNL A   1      39.951  27.861  27.516  1.00  0.00     0.029 A 
ATOM     46  C   UNL A   1      40.812  27.814  28.695  1.00  0.00     0.049 A 
ATOM     47  H   UNL A   1      40.501  28.758  30.527  1.00  0.00     0.167 HD
ATOM     48  C   UNL A   1      39.851  31.007  34.234  1.00  0.00     0.034 A 
ATOM     49  C   UNL A   1      41.969  27.130  28.793  1.00  0.00     0.034 A 
ATOM     50  C   UNL A   1      40.999  30.182  34.488  1.00  0.00     0.049 A 
ATOM     51  C   UNL A   1      42.715  27.146  30.102  1.00  0.00     0.074 A 
ATOM     52  C   UNL A   1      41.734  30.064  35.654  1.00  0.00     0.029 A 
ATOM     53  N   UNL A   1      41.586  29.338  33.557  1.00  0.00    -0.354 N 
ATOM     54  N   UNL A   1      42.406  27.754  31.223  1.00  0.00    -0.248 NA
ATOM     55  C   UNL A   1      43.947  26.348  30.174  1.00  0.00     0.031 C 
ATOM     56  C   UNL A   1      42.782  29.169  35.420  1.00  0.00     0.029 A 
ATOM     57  C   UNL A   1      42.682  28.707  34.117  1.00  0.00     0.049 A 
ATOM     58  H   UNL A   1      41.270  29.209  32.633  1.00  0.00     0.167 HD
ATOM     59  C   UNL A   1      43.383  27.383  32.140  1.00  0.00     0.074 A 
ATOM     60  C   UNL A   1      44.280  26.480  31.451  1.00  0.00     0.031 C 
ATOM     61  C   UNL A   1      43.533  27.767  33.432  1.00  0.00     0.034 A 
BRANCH  48  62
ATOM     62  C   UNL A   1      39.377  31.927  35.330  1.00  0.00     0.023 A 
ATOM     63  C   UNL A   1      39.636  33.310  35.240  1.00  0.00     0.012 A 
ATOM     64  C   UNL A   1      38.626  31.435  36.417  1.00  0.00     0.148 A 
ATOM     65  C   UNL A   1      39.186  34.185  36.229  1.00  0.00     0.002 A 
ATOM     66  C   UNL A   1      38.142  32.318  37.374  1.00  0.00     0.091 A 
ATOM     67  F   UNL A   1      38.408  30.115  36.497  1.00  0.00    -0.205 F 
ATOM     68  C   UNL A   1      38.431  33.690  37.289  1.00  0.00     0.022 A 
BRANCH  66  69
ATOM     69  S   UNL A   1      37.093  31.795  38.735  1.00  0.00     0.127 S 
ATOM     70  O   UNL A   1      37.950  32.063  39.889  1.00  0.00    -0.237 OA
ATOM     71  O   UNL A   1      35.948  32.697  38.606  1.00  0.00    -0.237 OA
ATOM     72  O   UNL A   1      36.790  30.391  38.494  1.00  0.00    -0.744 OA
ENDBRANCH  66  69
ENDBRANCH  48  62
BRANCH  49  73
ATOM     73  C   UNL A   1      42.453  26.311  27.646  1.00  0.00     0.023 A 
ATOM     74  C   UNL A   1      43.334  26.887  26.708  1.00  0.00     0.012 A 
ATOM     75  C   UNL A   1      42.067  24.966  27.488  1.00  0.00     0.148 A 
ATOM     76  C   UNL A   1      43.792  26.150  25.616  1.00  0.00     0.002 A 
ATOM     77  C   UNL A   1      42.570  24.222  26.427  1.00  0.00     0.091 A 
ATOM     78  F   UNL A   1      41.219  24.440  28.383  1.00  0.00    -0.205 F 
ATOM     79  C   UNL A   1      43.418  24.816  25.480  1.00  0.00     0.022 A 
BRANCH  77  80
ATOM     80  S   UNL A   1      42.244  22.464  26.244  1.00  0.00     0.127 S 
ATOM     81  O   UNL A   1      40.789  22.442  26.117  1.00  0.00    -0.237 OA
ATOM     82  O   UNL A   1      42.973  22.148  25.015  1.00  0.00    -0.237 OA
ATOM     83  O   UNL A   1      42.787  21.837  27.440  1.00  0.00    -0.744 OA
ENDBRANCH  77  80
ENDBRANCH  49  73
BRANCH  61  84
ATOM     84  C   UNL A   1      44.688  27.187  34.206  1.00  0.00     0.023 A 
ATOM     85  C   UNL A   1      45.957  27.792  34.131  1.00  0.00     0.012 A 
ATOM     86  C   UNL A   1      44.493  26.090  35.070  1.00  0.00     0.148 A 
ATOM     87  C   UNL A   1      47.024  27.296  34.877  1.00  0.00     0.002 A 
ATOM     88  C   UNL A   1      45.548  25.634  35.849  1.00  0.00     0.091 A 
ATOM     89  F   UNL A   1      43.282  25.518  35.114  1.00  0.00    -0.205 F 
ATOM     90  C   UNL A   1      46.817  26.226  35.745  1.00  0.00     0.022 A 
BRANCH  88  91
ATOM     91  S   UNL A   1      45.349  24.329  37.068  1.00  0.00     0.127 S 
ATOM     92  O   UNL A   1      44.986  23.189  36.228  1.00  0.00    -0.237 OA
ATOM     93  O   UNL A   1      46.685  24.250  37.660  1.00  0.00    -0.237 OA
ATOM     94  O   UNL A   1      44.311  24.788  37.982  1.00  0.00    -0.744 OA
ENDBRANCH  88  91
ENDBRANCH  61  84
ENDBRANCH  35  36
ENDBRANCH  27  30
ENDBRANCH  25  26
ENDBRANCH  24  25
ENDBRANCH   1  24
TORSDOF 18
ENDMDL
MODEL 3
REMARK VINA RESULT:     -11.0      1.474      7.969
REMARK SMILES CC[C@@](C)(NS(=O)(=O)c1ccc(F)c(F)c1)C(=O)NCCCCNC(=O)c1ccc(-c2c3nc(c(-c4cccc(S(=O)(=O)[O-])c4F)c4ccc([nH]4)c(-c4cccc(S(=O)(=O)[O-])c4F)c4nc(c(-c5cccc(S(=O)(=O)[O-])c5F)c5ccc2[nH]5)C=C4)C=C3)cc1
REMARK SMILES IDX 21 1 20 2 19 3 17 4 18 5 3 7 4 8 2 9 1 10 5 11 6 13 7 14
REMARK SMILES IDX 8 15 9 16 10 17 16 18 11 19 14 20 12 21 15 22 13 23 22 24
REMARK SMILES IDX 23 25 24 26 25 27 26 29 27 30 28 31 89 32 29 33 88 34 30 35
REMARK SMILES IDX 31 36 32 37 82 38 33 39 87 40 81 41 83 42 34 43 86 44 80 45
REMARK SMILES IDX 79 46 35 48 67 49 47 50 66 51 48 52 51 53 65 54 84 55 49 56
REMARK SMILES IDX 50 57 64 59 85 60 52 61 36 62 37 63 45 64 38 65 40 66 46 67
REMARK SMILES IDX 39 68 41 69 42 70 43 71 44 72 68 73 69 74 77 75 70 76 72 77
REMARK SMILES IDX 78 78 71 79 73 80 74 81 75 82 76 83 53 84 54 85 62 86 55 87
REMARK SMILES IDX 57 88 63 89 56 90 58 91 59 92 60 93 61 94
REMARK H PARENT 19 6 5 12 24 28 83 47 51 58
REMARK Flexibility Score: inf
ROOT
ATOM      1  C   UNL A   1      31.780  30.392  26.815  1.00  0.00     0.023 C 
ENDROOT
BRANCH   1   2
ATOM      2  C   UNL A   1      31.695  29.608  25.492  1.00  0.00     0.116 C 
BRANCH   2   3
ATOM      3  N   UNL A   1      32.887  29.477  24.667  1.00  0.00    -0.354 N 
ATOM      4  C   UNL A   1      33.457  28.475  23.935  1.00  0.00     0.241 C 
ATOM      5  O   UNL A   1      34.262  28.866  23.078  1.00  0.00    -0.273 OA
ATOM      6  H   UNL A   1      33.408  30.312  24.627  1.00  0.00     0.163 HD
BRANCH   4   7
ATOM      7  C   UNL A   1      33.259  26.953  24.150  1.00  0.00     0.108 C 
ATOM      8  C   UNL A   1      33.968  26.118  23.072  1.00  0.00     0.040 C 
BRANCH   7   9
ATOM      9  C   UNL A   1      33.843  26.498  25.547  1.00  0.00     0.030 C 
ATOM     10  C   UNL A   1      33.595  25.066  26.008  1.00  0.00     0.006 C 
ENDBRANCH   7   9
BRANCH   7  11
ATOM     11  N   UNL A   1      31.850  26.479  24.221  1.00  0.00    -0.196 NA
ATOM     12  H   UNL A   1      31.410  27.095  24.905  1.00  0.00     0.142 HD
BRANCH  11  13
ATOM     13  S   UNL A   1      30.717  26.342  23.001  1.00  0.00     0.241 S 
ATOM     14  O   UNL A   1      31.453  26.369  21.755  1.00  0.00    -0.207 OA
ATOM     15  O   UNL A   1      29.962  25.163  23.360  1.00  0.00    -0.207 OA
BRANCH  13  16
ATOM     16  C   UNL A   1      29.591  27.708  23.005  1.00  0.00     0.085 A 
ATOM     17  C   UNL A   1      28.272  27.599  23.437  1.00  0.00     0.025 A 
ATOM     18  C   UNL A   1      30.015  28.894  22.409  1.00  0.00     0.064 A 
ATOM     19  C   UNL A   1      27.424  28.716  23.333  1.00  0.00     0.044 A 
ATOM     20  C   UNL A   1      29.196  30.007  22.342  1.00  0.00     0.160 A 
ATOM     21  C   UNL A   1      27.898  29.920  22.804  1.00  0.00     0.158 A 
ATOM     22  F   UNL A   1      29.690  31.149  21.843  1.00  0.00    -0.204 F 
ATOM     23  F   UNL A   1      27.089  30.985  22.742  1.00  0.00    -0.204 F 
ENDBRANCH  13  16
ENDBRANCH  11  13
ENDBRANCH   7  11
ENDBRANCH   4   7
ENDBRANCH   2   3
ENDBRANCH   1   2
BRANCH   1  24
ATOM     24  C   UNL A   1      31.763  31.926  26.853  1.00  0.00     0.023 C 
BRANCH  24  25
ATOM     25  C   UNL A   1      33.063  32.620  27.218  1.00  0.00     0.116 C 
BRANCH  25  26
ATOM     26  N   UNL A   1      32.794  33.977  27.658  1.00  0.00    -0.352 N 
ATOM     27  C   UNL A   1      33.215  34.574  28.823  1.00  0.00     0.251 C 
ATOM     28  H   UNL A   1      32.248  34.533  27.056  1.00  0.00     0.163 HD
ATOM     29  O   UNL A   1      32.619  35.554  29.258  1.00  0.00    -0.269 OA
BRANCH  27  30
ATOM     30  C   UNL A   1      34.401  34.042  29.536  1.00  0.00     0.039 A 
ATOM     31  C   UNL A   1      35.681  34.425  29.123  1.00  0.00     0.014 A 
ATOM     32  C   UNL A   1      34.247  33.112  30.569  1.00  0.00     0.014 A 
ATOM     33  C   UNL A   1      36.804  33.866  29.739  1.00  0.00     0.010 A 
ATOM     34  C   UNL A   1      35.366  32.605  31.225  1.00  0.00     0.010 A 
ATOM     35  C   UNL A   1      36.655  32.943  30.788  1.00  0.00    -0.014 A 
BRANCH  35  36
ATOM     36  C   UNL A   1      37.836  32.268  31.383  1.00  0.00     0.031 A 
ATOM     37  C   UNL A   1      38.399  32.762  32.691  1.00  0.00     0.074 A 
ATOM     38  C   UNL A   1      38.425  31.245  30.736  1.00  0.00     0.049 A 
ATOM     39  N   UNL A   1      39.410  32.301  33.381  1.00  0.00    -0.248 NA
ATOM     40  C   UNL A   1      37.758  33.944  33.293  1.00  0.00     0.031 C 
ATOM     41  C   UNL A   1      38.018  30.725  29.429  1.00  0.00     0.029 A 
ATOM     42  N   UNL A   1      39.503  30.469  31.082  1.00  0.00    -0.354 N 
ATOM     43  C   UNL A   1      39.546  33.152  34.473  1.00  0.00     0.074 A 
ATOM     44  C   UNL A   1      38.539  34.179  34.336  1.00  0.00     0.031 C 
ATOM     45  C   UNL A   1      38.830  29.711  29.088  1.00  0.00     0.029 A 
ATOM     46  C   UNL A   1      39.824  29.519  30.141  1.00  0.00     0.049 A 
ATOM     47  H   UNL A   1      40.000  30.582  31.924  1.00  0.00     0.167 HD
ATOM     48  C   UNL A   1      40.409  33.069  35.513  1.00  0.00     0.034 A 
ATOM     49  C   UNL A   1      40.807  28.597  30.131  1.00  0.00     0.034 A 
ATOM     50  C   UNL A   1      41.375  32.017  35.668  1.00  0.00     0.049 A 
ATOM     51  C   UNL A   1      41.723  28.497  31.323  1.00  0.00     0.074 A 
ATOM     52  C   UNL A   1      42.230  31.784  36.730  1.00  0.00     0.029 A 
ATOM     53  N   UNL A   1      41.620  31.025  34.730  1.00  0.00    -0.354 N 
ATOM     54  N   UNL A   1      41.723  29.204  32.428  1.00  0.00    -0.248 NA
ATOM     55  C   UNL A   1      42.749  27.445  31.285  1.00  0.00     0.031 C 
ATOM     56  C   UNL A   1      43.013  30.667  36.422  1.00  0.00     0.029 A 
ATOM     57  C   UNL A   1      42.623  30.187  35.181  1.00  0.00     0.049 A 
ATOM     58  H   UNL A   1      41.150  30.933  33.870  1.00  0.00     0.167 HD
ATOM     59  C   UNL A   1      42.720  28.660  33.230  1.00  0.00     0.074 A 
ATOM     60  C   UNL A   1      43.288  27.551  32.492  1.00  0.00     0.031 C 
ATOM     61  C   UNL A   1      43.139  29.052  34.458  1.00  0.00     0.034 A 
BRANCH  48  62
ATOM     62  C   UNL A   1      40.313  34.115  36.593  1.00  0.00     0.023 A 
ATOM     63  C   UNL A   1      40.735  35.434  36.325  1.00  0.00     0.012 A 
ATOM     64  C   UNL A   1      39.753  33.812  37.850  1.00  0.00     0.148 A 
ATOM     65  C   UNL A   1      40.633  36.425  37.301  1.00  0.00     0.002 A 
ATOM     66  C   UNL A   1      39.612  34.815  38.801  1.00  0.00     0.091 A 
ATOM     67  F   UNL A   1      39.377  32.549  38.094  1.00  0.00    -0.205 F 
ATOM     68  C   UNL A   1      40.063  36.119  38.533  1.00  0.00     0.022 A 
BRANCH  66  69
ATOM     69  S   UNL A   1      38.818  34.543  40.389  1.00  0.00     0.127 S 
ATOM     70  O   UNL A   1      39.878  33.870  41.138  1.00  0.00    -0.237 OA
ATOM     71  O   UNL A   1      38.537  35.910  40.830  1.00  0.00    -0.237 OA
ATOM     72  O   UNL A   1      37.636  33.738  40.116  1.00  0.00    -0.744 OA
ENDBRANCH  66  69
ENDBRANCH  48  62
BRANCH  49  73
ATOM     73  C   UNL A   1      40.927  27.643  28.991  1.00  0.00     0.023 A 
ATOM     74  C   UNL A   1      40.128  26.482  28.975  1.00  0.00     0.012 A 
ATOM     75  C   UNL A   1      41.806  27.886  27.918  1.00  0.00     0.148 A 
ATOM     76  C   UNL A   1      40.229  25.564  27.930  1.00  0.00     0.002 A 
ATOM     77  C   UNL A   1      41.862  26.994  26.854  1.00  0.00     0.091 A 
ATOM     78  F   UNL A   1      42.566  28.989  27.958  1.00  0.00    -0.205 F 
ATOM     79  C   UNL A   1      41.088  25.823  26.866  1.00  0.00     0.022 A 
BRANCH  77  80
ATOM     80  S   UNL A   1      42.844  27.309  25.383  1.00  0.00     0.127 S 
ATOM     81  O   UNL A   1      42.663  26.070  24.632  1.00  0.00    -0.237 OA
ATOM     82  O   UNL A   1      42.171  28.478  24.815  1.00  0.00    -0.237 OA
ATOM     83  O   UNL A   1      44.194  27.570  25.861  1.00  0.00    -0.744 OA
ENDBRANCH  77  80
ENDBRANCH  49  73
BRANCH  61  84
ATOM     84  C   UNL A   1      44.242  28.258  35.108  1.00  0.00     0.023 A 
ATOM     85  C   UNL A   1      43.925  27.155  35.924  1.00  0.00     0.012 A 
ATOM     86  C   UNL A   1      45.593  28.560  34.843  1.00  0.00     0.148 A 
ATOM     87  C   UNL A   1      44.936  26.383  36.495  1.00  0.00     0.002 A 
ATOM     88  C   UNL A   1      46.594  27.754  35.373  1.00  0.00     0.091 A 
ATOM     89  F   UNL A   1      45.874  29.623  34.078  1.00  0.00    -0.205 F 
ATOM     90  C   UNL A   1      46.268  26.674  36.209  1.00  0.00     0.022 A 
BRANCH  88  91
ATOM     91  S   UNL A   1      48.330  27.991  34.978  1.00  0.00     0.127 S 
ATOM     92  O   UNL A   1      48.984  27.216  36.030  1.00  0.00    -0.237 OA
ATOM     93  O   UNL A   1      48.427  27.407  33.640  1.00  0.00    -0.237 OA
ATOM     94  O   UNL A   1      48.559  29.429  35.025  1.00  0.00    -0.744 OA
ENDBRANCH  88  91
ENDBRANCH  61  84
ENDBRANCH  35  36
ENDBRANCH  27  30
ENDBRANCH  25  26
ENDBRANCH  24  25
ENDBRANCH   1  24
TORSDOF 18
ENDMDL
