MODEL 1
REMARK VINA RESULT:     -11.8      0.000      0.000
REMARK SMILES O=C(NCCCCNC(=O)[C@H]1C[C@H]2CCCC[C@@H]2[N@@H+]1CCn1ccnc1)c1ccc(-c2c3nc(c(-c4cccc(S(=O)(=O)[O-])c4F)c4ccc([nH]4)c(-c4cccc(S(=O)(=O)[O-])c4F)c4nc(c(-c5cccc(S(=O)(=O)[O-])c5F)c5ccc2[nH]5)C=C4)C=C3)cc1
REMARK SMILES IDX 5 1 4 2 3 3 1 4 2 5 27 7 28 8 89 9 29 10 88 11 30 12 31 13
REMARK SMILES IDX 32 14 82 15 33 16 87 17 81 18 83 19 34 20 86 21 80 22 79 23
REMARK SMILES IDX 35 25 67 26 47 27 66 28 48 29 51 30 65 31 84 32 49 33 50 34
REMARK SMILES IDX 64 36 85 37 52 38 36 39 37 40 45 41 38 42 40 43 46 44 39 45
REMARK SMILES IDX 41 46 42 47 43 48 44 49 68 50 69 51 77 52 70 53 72 54 78 55
REMARK SMILES IDX 71 56 73 57 74 58 75 59 76 60 53 61 54 62 62 63 55 64 57 65
REMARK SMILES IDX 63 66 56 67 58 68 59 69 60 70 61 71 6 72 7 73 8 74 9 75
REMARK SMILES IDX 10 77 11 78 12 79 19 80 13 81 18 82 14 84 17 85 15 86 16 87
REMARK SMILES IDX 20 88 21 89 22 90 23 91 26 92 24 93 25 94
REMARK H PARENT 3 6 83 24 51 35 8 76 19 83
REMARK Flexibility Score: inf
ROOT
ATOM      1  C   UNL A   1      38.503  20.818  25.103  1.00  0.00     0.023 C 
ENDROOT
BRANCH   1   2
ATOM      2  C   UNL A   1      38.726  19.417  25.676  1.00  0.00     0.116 C 
BRANCH   2   3
ATOM      3  N   UNL A   1      40.063  18.898  25.482  1.00  0.00    -0.352 N 
ATOM      4  O   UNL A   1      42.202  18.428  25.724  1.00  0.00    -0.269 OA
ATOM      5  C   UNL A   1      41.294  19.222  25.985  1.00  0.00     0.251 C 
ATOM      6  H   UNL A   1      40.094  18.146  24.849  1.00  0.00     0.163 HD
BRANCH   5   7
ATOM      7  C   UNL A   1      41.609  20.470  26.732  1.00  0.00     0.039 A 
ATOM      8  C   UNL A   1      41.305  20.712  28.073  1.00  0.00     0.014 A 
ATOM      9  C   UNL A   1      42.201  21.502  25.980  1.00  0.00     0.014 A 
ATOM     10  C   UNL A   1      41.465  21.978  28.616  1.00  0.00     0.010 A 
ATOM     11  C   UNL A   1      42.388  22.765  26.524  1.00  0.00     0.010 A 
ATOM     12  C   UNL A   1      41.967  23.010  27.827  1.00  0.00    -0.014 A 
BRANCH  12  13
ATOM     13  C   UNL A   1      42.141  24.315  28.449  1.00  0.00     0.031 A 
ATOM     14  C   UNL A   1      41.050  25.291  28.173  1.00  0.00     0.074 A 
ATOM     15  C   UNL A   1      43.143  24.568  29.314  1.00  0.00     0.049 A 
ATOM     16  N   UNL A   1      41.133  26.451  27.604  1.00  0.00    -0.248 NA
ATOM     17  C   UNL A   1      39.673  24.863  28.463  1.00  0.00     0.031 C 
ATOM     18  C   UNL A   1      44.091  23.608  29.883  1.00  0.00     0.029 A 
ATOM     19  N   UNL A   1      43.420  25.718  29.991  1.00  0.00    -0.354 N 
ATOM     20  C   UNL A   1      39.846  26.990  27.668  1.00  0.00     0.074 A 
ATOM     21  C   UNL A   1      38.970  25.911  28.037  1.00  0.00     0.031 C 
ATOM     22  C   UNL A   1      44.646  24.142  30.994  1.00  0.00     0.029 A 
ATOM     23  C   UNL A   1      44.189  25.514  31.132  1.00  0.00     0.049 A 
ATOM     24  H   UNL A   1      43.107  26.606  29.702  1.00  0.00     0.167 HD
ATOM     25  C   UNL A   1      39.627  28.335  27.650  1.00  0.00     0.034 A 
ATOM     26  C   UNL A   1      44.345  26.375  32.167  1.00  0.00     0.034 A 
ATOM     27  C   UNL A   1      40.762  29.055  27.136  1.00  0.00     0.049 A 
ATOM     28  C   UNL A   1      43.975  27.725  31.687  1.00  0.00     0.074 A 
ATOM     29  C   UNL A   1      41.466  29.067  25.949  1.00  0.00     0.029 A 
ATOM     30  N   UNL A   1      41.551  29.713  28.046  1.00  0.00    -0.354 N 
ATOM     31  N   UNL A   1      44.654  28.385  30.792  1.00  0.00    -0.248 NA
ATOM     32  C   UNL A   1      42.610  28.178  31.898  1.00  0.00     0.031 C 
ATOM     33  C   UNL A   1      42.821  29.294  26.331  1.00  0.00     0.029 A 
ATOM     34  C   UNL A   1      42.851  29.447  27.718  1.00  0.00     0.049 A 
ATOM     35  H   UNL A   1      41.239  30.272  28.793  1.00  0.00     0.167 HD
ATOM     36  C   UNL A   1      43.689  29.016  30.021  1.00  0.00     0.074 A 
ATOM     37  C   UNL A   1      42.464  28.947  30.817  1.00  0.00     0.031 C 
ATOM     38  C   UNL A   1      43.901  29.272  28.696  1.00  0.00     0.034 A 
BRANCH  25  39
ATOM     39  C   UNL A   1      38.548  29.044  28.446  1.00  0.00     0.023 A 
ATOM     40  C   UNL A   1      37.749  29.985  27.753  1.00  0.00     0.012 A 
ATOM     41  C   UNL A   1      38.478  29.067  29.858  1.00  0.00     0.148 A 
ATOM     42  C   UNL A   1      36.991  30.948  28.430  1.00  0.00     0.002 A 
ATOM     43  C   UNL A   1      37.665  29.979  30.524  1.00  0.00     0.091 A 
ATOM     44  F   UNL A   1      39.296  28.304  30.586  1.00  0.00    -0.205 F 
ATOM     45  C   UNL A   1      36.949  30.944  29.817  1.00  0.00     0.022 A 
BRANCH  43  46
ATOM     46  S   UNL A   1      37.543  29.979  32.318  1.00  0.00     0.127 S 
ATOM     47  O   UNL A   1      37.188  28.583  32.581  1.00  0.00    -0.237 OA
ATOM     48  O   UNL A   1      38.907  30.351  32.709  1.00  0.00    -0.237 OA
ATOM     49  O   UNL A   1      36.540  30.973  32.641  1.00  0.00    -0.744 OA
ENDBRANCH  43  46
ENDBRANCH  25  39
BRANCH  26  50
ATOM     50  C   UNL A   1      44.506  26.071  33.607  1.00  0.00     0.023 A 
ATOM     51  C   UNL A   1      45.791  26.034  34.179  1.00  0.00     0.012 A 
ATOM     52  C   UNL A   1      43.389  26.079  34.475  1.00  0.00     0.148 A 
ATOM     53  C   UNL A   1      45.961  26.026  35.569  1.00  0.00     0.002 A 
ATOM     54  C   UNL A   1      43.562  26.057  35.855  1.00  0.00     0.091 A 
ATOM     55  F   UNL A   1      42.163  26.203  33.949  1.00  0.00    -0.205 F 
ATOM     56  C   UNL A   1      44.849  26.042  36.407  1.00  0.00     0.022 A 
BRANCH  54  57
ATOM     57  S   UNL A   1      42.170  26.089  36.993  1.00  0.00     0.127 S 
ATOM     58  O   UNL A   1      42.843  26.194  38.289  1.00  0.00    -0.237 OA
ATOM     59  O   UNL A   1      41.462  27.294  36.572  1.00  0.00    -0.237 OA
ATOM     60  O   UNL A   1      41.460  24.832  36.789  1.00  0.00    -0.744 OA
ENDBRANCH  54  57
ENDBRANCH  26  50
BRANCH  38  61
ATOM     61  C   UNL A   1      45.292  29.072  28.150  1.00  0.00     0.023 A 
ATOM     62  C   UNL A   1      46.285  30.069  28.250  1.00  0.00     0.012 A 
ATOM     63  C   UNL A   1      45.658  27.796  27.690  1.00  0.00     0.148 A 
ATOM     64  C   UNL A   1      47.605  29.810  27.874  1.00  0.00     0.002 A 
ATOM     65  C   UNL A   1      46.980  27.527  27.362  1.00  0.00     0.091 A 
ATOM     66  F   UNL A   1      44.705  26.853  27.613  1.00  0.00    -0.205 F 
ATOM     67  C   UNL A   1      47.956  28.533  27.443  1.00  0.00     0.022 A 
BRANCH  65  68
ATOM     68  S   UNL A   1      47.525  25.874  26.924  1.00  0.00     0.127 S 
ATOM     69  O   UNL A   1      48.970  25.966  27.121  1.00  0.00    -0.237 OA
ATOM     70  O   UNL A   1      46.825  25.042  27.904  1.00  0.00    -0.237 OA
ATOM     71  O   UNL A   1      47.091  25.661  25.548  1.00  0.00    -0.744 OA
ENDBRANCH  65  68
ENDBRANCH  38  61
ENDBRANCH  12  13
ENDBRANCH   5   7
ENDBRANCH   2   3
ENDBRANCH   1   2
BRANCH   1  72
ATOM     72  C   UNL A   1      38.398  21.941  26.141  1.00  0.00     0.023 C 
BRANCH  72  73
ATOM     73  C   UNL A   1      37.872  23.271  25.612  1.00  0.00     0.116 C 
BRANCH  73  74
ATOM     74  N   UNL A   1      37.399  23.165  24.248  1.00  0.00    -0.351 N 
ATOM     75  C   UNL A   1      36.125  23.044  23.773  1.00  0.00     0.278 C 
ATOM     76  H   UNL A   1      38.102  23.184  23.558  1.00  0.00     0.163 HD
ATOM     77  O   UNL A   1      35.978  22.994  22.548  1.00  0.00    -0.268 OA
BRANCH  75  78
ATOM     78  C   UNL A   1      34.942  22.974  24.765  1.00  0.00     0.274 C 
ATOM     79  C   UNL A   1      34.499  24.394  25.189  1.00  0.00     0.085 C 
ATOM     80  N   UNL A   1      33.768  22.362  24.076  1.00  0.00    -0.321 N 
ATOM     81  C   UNL A   1      33.001  24.376  24.961  1.00  0.00     0.054 C 
ATOM     82  C   UNL A   1      32.868  23.475  23.747  1.00  0.00     0.188 C 
ATOM     83  H   UNL A   1      34.044  21.908  23.206  1.00  0.00     0.349 HD
ATOM     84  C   UNL A   1      32.294  25.704  24.770  1.00  0.00     0.010 C 
ATOM     85  C   UNL A   1      31.418  23.219  23.343  1.00  0.00     0.065 C 
ATOM     86  C   UNL A   1      30.813  25.435  24.494  1.00  0.00     0.001 C 
ATOM     87  C   UNL A   1      30.599  24.516  23.287  1.00  0.00     0.006 C 
BRANCH  80  88
ATOM     88  C   UNL A   1      33.210  21.144  24.677  1.00  0.00     0.285 C 
BRANCH  88  89
ATOM     89  C   UNL A   1      34.067  19.892  25.002  1.00  0.00     0.184 C 
BRANCH  89  90
ATOM     90  N   UNL A   1      33.845  18.699  24.214  1.00  0.00    -0.332 N 
ATOM     91  C   UNL A   1      34.559  17.534  24.251  1.00  0.00     0.107 A 
ATOM     92  C   UNL A   1      32.813  18.508  23.334  1.00  0.00     0.199 A 
ATOM     93  C   UNL A   1      34.019  16.753  23.255  1.00  0.00     0.130 A 
ATOM     94  N   UNL A   1      32.922  17.360  22.704  1.00  0.00    -0.245 NA
ENDBRANCH  89  90
ENDBRANCH  88  89
ENDBRANCH  80  88
ENDBRANCH  75  78
ENDBRANCH  73  74
ENDBRANCH  72  73
ENDBRANCH   1  72
TORSDOF 17
ENDMDL
MODEL 2
REMARK VINA RESULT:     -11.6      2.919      7.325
REMARK SMILES O=C(NCCCCNC(=O)[C@H]1C[C@H]2CCCC[C@@H]2[N@@H+]1CCn1ccnc1)c1ccc(-c2c3nc(c(-c4cccc(S(=O)(=O)[O-])c4F)c4ccc([nH]4)c(-c4cccc(S(=O)(=O)[O-])c4F)c4nc(c(-c5cccc(S(=O)(=O)[O-])c5F)c5ccc2[nH]5)C=C4)C=C3)cc1
REMARK SMILES IDX 5 1 4 2 3 3 1 4 2 5 27 7 28 8 89 9 29 10 88 11 30 12 31 13
REMARK SMILES IDX 32 14 82 15 33 16 87 17 81 18 83 19 34 20 86 21 80 22 79 23
REMARK SMILES IDX 35 25 67 26 47 27 66 28 48 29 51 30 65 31 84 32 49 33 50 34
REMARK SMILES IDX 64 36 85 37 52 38 36 39 37 40 45 41 38 42 40 43 46 44 39 45
REMARK SMILES IDX 41 46 42 47 43 48 44 49 68 50 69 51 77 52 70 53 72 54 78 55
REMARK SMILES IDX 71 56 73 57 74 58 75 59 76 60 53 61 54 62 62 63 55 64 57 65
REMARK SMILES IDX 63 66 56 67 58 68 59 69 60 70 61 71 6 72 7 73 8 74 9 75
REMARK SMILES IDX 10 77 11 78 12 79 19 80 13 81 18 82 14 84 17 85 15 86 16 87
REMARK SMILES IDX 20 88 21 89 22 90 23 91 26 92 24 93 25 94
REMARK H PARENT 3 6 83 24 51 35 8 76 19 83
REMARK Flexibility Score: inf
ROOT
ATOM      1  C   UNL A   1      32.680  28.072  27.052  1.00  0.00     0.023 C 
ENDROOT
BRANCH   1   2
ATOM      2  C   UNL A   1      33.074  29.327  26.270  1.00  0.00     0.116 C 
BRANCH   2   3
ATOM      3  N   UNL A   1      33.102  30.539  27.060  1.00  0.00    -0.352 N 
ATOM      4  O   UNL A   1      33.761  32.355  28.118  1.00  0.00    -0.269 OA
ATOM      5  C   UNL A   1      34.094  31.252  27.678  1.00  0.00     0.251 C 
ATOM      6  H   UNL A   1      32.211  30.938  27.180  1.00  0.00     0.163 HD
BRANCH   5   7
ATOM      7  C   UNL A   1      35.478  30.759  27.913  1.00  0.00     0.039 A 
ATOM      8  C   UNL A   1      35.887  29.426  27.843  1.00  0.00     0.014 A 
ATOM      9  C   UNL A   1      36.417  31.732  28.303  1.00  0.00     0.014 A 
ATOM     10  C   UNL A   1      37.153  29.053  28.271  1.00  0.00     0.010 A 
ATOM     11  C   UNL A   1      37.694  31.370  28.709  1.00  0.00     0.010 A 
ATOM     12  C   UNL A   1      38.037  30.022  28.741  1.00  0.00    -0.014 A 
BRANCH  12  13
ATOM     13  C   UNL A   1      39.363  29.585  29.155  1.00  0.00     0.031 A 
ATOM     14  C   UNL A   1      39.693  29.852  30.582  1.00  0.00     0.074 A 
ATOM     15  C   UNL A   1      40.169  28.874  28.342  1.00  0.00     0.049 A 
ATOM     16  N   UNL A   1      40.662  30.562  31.065  1.00  0.00    -0.248 NA
ATOM     17  C   UNL A   1      38.748  29.360  31.597  1.00  0.00     0.031 C 
ATOM     18  C   UNL A   1      39.835  28.304  27.034  1.00  0.00     0.029 A 
ATOM     19  N   UNL A   1      41.413  28.376  28.591  1.00  0.00    -0.354 N 
ATOM     20  C   UNL A   1      40.574  30.419  32.452  1.00  0.00     0.074 A 
ATOM     21  C   UNL A   1      39.291  29.827  32.719  1.00  0.00     0.031 C 
ATOM     22  C   UNL A   1      40.729  27.335  26.736  1.00  0.00     0.029 A 
ATOM     23  C   UNL A   1      41.756  27.313  27.763  1.00  0.00     0.049 A 
ATOM     24  H   UNL A   1      42.010  28.733  29.288  1.00  0.00     0.167 HD
ATOM     25  C   UNL A   1      41.659  30.574  33.262  1.00  0.00     0.034 A 
ATOM     26  C   UNL A   1      42.748  26.413  27.971  1.00  0.00     0.034 A 
ATOM     27  C   UNL A   1      42.717  31.296  32.607  1.00  0.00     0.049 A 
ATOM     28  C   UNL A   1      43.696  27.007  28.939  1.00  0.00     0.074 A 
ATOM     29  C   UNL A   1      42.854  32.547  32.040  1.00  0.00     0.029 A 
ATOM     30  N   UNL A   1      43.792  30.566  32.165  1.00  0.00    -0.354 N 
ATOM     31  N   UNL A   1      44.440  28.045  28.677  1.00  0.00    -0.248 NA
ATOM     32  C   UNL A   1      43.521  26.700  30.348  1.00  0.00     0.031 C 
ATOM     33  C   UNL A   1      43.718  32.350  30.923  1.00  0.00     0.029 A 
ATOM     34  C   UNL A   1      44.085  31.003  30.904  1.00  0.00     0.049 A 
ATOM     35  H   UNL A   1      44.264  29.861  32.664  1.00  0.00     0.167 HD
ATOM     36  C   UNL A   1      44.443  28.774  29.859  1.00  0.00     0.074 A 
ATOM     37  C   UNL A   1      43.963  27.843  30.879  1.00  0.00     0.031 C 
ATOM     38  C   UNL A   1      44.554  30.135  29.847  1.00  0.00     0.034 A 
BRANCH  25  39
ATOM     39  C   UNL A   1      41.928  29.754  34.509  1.00  0.00     0.023 A 
ATOM     40  C   UNL A   1      42.530  30.421  35.603  1.00  0.00     0.012 A 
ATOM     41  C   UNL A   1      41.911  28.341  34.557  1.00  0.00     0.148 A 
ATOM     42  C   UNL A   1      43.153  29.720  36.642  1.00  0.00     0.002 A 
ATOM     43  C   UNL A   1      42.466  27.650  35.630  1.00  0.00     0.091 A 
ATOM     44  F   UNL A   1      41.482  27.636  33.508  1.00  0.00    -0.205 F 
ATOM     45  C   UNL A   1      43.120  28.332  36.655  1.00  0.00     0.022 A 
BRANCH  43  46
ATOM     46  S   UNL A   1      42.405  25.855  35.712  1.00  0.00     0.127 S 
ATOM     47  O   UNL A   1      42.959  25.610  37.046  1.00  0.00    -0.237 OA
ATOM     48  O   UNL A   1      40.966  25.599  35.587  1.00  0.00    -0.237 OA
ATOM     49  O   UNL A   1      43.192  25.385  34.590  1.00  0.00    -0.744 OA
ENDBRANCH  43  46
ENDBRANCH  25  39
BRANCH  26  50
ATOM     50  C   UNL A   1      42.780  24.974  27.624  1.00  0.00     0.023 A 
ATOM     51  C   UNL A   1      41.687  24.149  27.948  1.00  0.00     0.012 A 
ATOM     52  C   UNL A   1      43.762  24.465  26.743  1.00  0.00     0.148 A 
ATOM     53  C   UNL A   1      41.563  22.867  27.397  1.00  0.00     0.002 A 
ATOM     54  C   UNL A   1      43.643  23.187  26.209  1.00  0.00     0.091 A 
ATOM     55  F   UNL A   1      44.761  25.269  26.356  1.00  0.00    -0.205 F 
ATOM     56  C   UNL A   1      42.537  22.387  26.525  1.00  0.00     0.022 A 
BRANCH  54  57
ATOM     57  S   UNL A   1      44.857  22.511  25.067  1.00  0.00     0.127 S 
ATOM     58  O   UNL A   1      44.242  21.237  24.693  1.00  0.00    -0.237 OA
ATOM     59  O   UNL A   1      44.871  23.518  24.009  1.00  0.00    -0.237 OA
ATOM     60  O   UNL A   1      46.091  22.377  25.832  1.00  0.00    -0.744 OA
ENDBRANCH  54  57
ENDBRANCH  26  50
BRANCH  38  61
ATOM     61  C   UNL A   1      44.911  30.806  28.545  1.00  0.00     0.023 A 
ATOM     62  C   UNL A   1      43.926  31.223  27.624  1.00  0.00     0.012 A 
ATOM     63  C   UNL A   1      46.246  31.186  28.327  1.00  0.00     0.148 A 
ATOM     64  C   UNL A   1      44.268  31.975  26.498  1.00  0.00     0.002 A 
ATOM     65  C   UNL A   1      46.576  31.973  27.232  1.00  0.00     0.091 A 
ATOM     66  F   UNL A   1      47.169  30.794  29.219  1.00  0.00    -0.205 F 
ATOM     67  C   UNL A   1      45.592  32.363  26.309  1.00  0.00     0.022 A 
BRANCH  65  68
ATOM     68  S   UNL A   1      48.235  32.614  26.998  1.00  0.00     0.127 S 
ATOM     69  O   UNL A   1      48.037  33.593  25.930  1.00  0.00    -0.237 OA
ATOM     70  O   UNL A   1      48.537  33.192  28.308  1.00  0.00    -0.237 OA
ATOM     71  O   UNL A   1      49.063  31.465  26.651  1.00  0.00    -0.744 OA
ENDBRANCH  65  68
ENDBRANCH  38  61
ENDBRANCH  12  13
ENDBRANCH   5   7
ENDBRANCH   2   3
ENDBRANCH   1   2
BRANCH   1  72
ATOM     72  C   UNL A   1      31.284  27.519  26.744  1.00  0.00     0.023 C 
BRANCH  72  73
ATOM     73  C   UNL A   1      31.260  26.205  25.971  1.00  0.00     0.116 C 
BRANCH  73  74
ATOM     74  N   UNL A   1      31.394  25.057  26.844  1.00  0.00    -0.351 N 
ATOM     75  C   UNL A   1      32.151  23.931  26.695  1.00  0.00     0.278 C 
ATOM     76  H   UNL A   1      30.859  25.095  27.670  1.00  0.00     0.163 HD
ATOM     77  O   UNL A   1      32.110  23.095  27.602  1.00  0.00    -0.268 OA
BRANCH  75  78
ATOM     78  C   UNL A   1      33.009  23.749  25.422  1.00  0.00     0.274 C 
ATOM     79  C   UNL A   1      34.276  24.634  25.485  1.00  0.00     0.085 C 
ATOM     80  N   UNL A   1      33.493  22.338  25.362  1.00  0.00    -0.321 N 
ATOM     81  C   UNL A   1      35.396  23.666  25.164  1.00  0.00     0.054 C 
ATOM     82  C   UNL A   1      34.898  22.375  25.787  1.00  0.00     0.188 C 
ATOM     83  H   UNL A   1      32.979  21.742  26.011  1.00  0.00     0.349 HD
ATOM     84  C   UNL A   1      36.797  24.021  25.623  1.00  0.00     0.010 C 
ATOM     85  C   UNL A   1      35.825  21.188  25.534  1.00  0.00     0.065 C 
ATOM     86  C   UNL A   1      37.741  22.876  25.247  1.00  0.00     0.001 C 
ATOM     87  C   UNL A   1      37.291  21.531  25.829  1.00  0.00     0.006 C 
BRANCH  80  88
ATOM     88  C   UNL A   1      33.124  21.563  24.170  1.00  0.00     0.285 C 
BRANCH  88  89
ATOM     89  C   UNL A   1      32.222  20.302  24.226  1.00  0.00     0.184 C 
BRANCH  89  90
ATOM     90  N   UNL A   1      32.792  19.045  23.790  1.00  0.00    -0.332 N 
ATOM     91  C   UNL A   1      33.777  18.323  24.404  1.00  0.00     0.107 A 
ATOM     92  C   UNL A   1      32.380  18.319  22.705  1.00  0.00     0.199 A 
ATOM     93  C   UNL A   1      34.030  17.270  23.554  1.00  0.00     0.130 A 
ATOM     94  N   UNL A   1      33.142  17.267  22.510  1.00  0.00    -0.245 NA
ENDBRANCH  89  90
ENDBRANCH  88  89
ENDBRANCH  80  88
ENDBRANCH  75  78
ENDBRANCH  73  74
ENDBRANCH  72  73
ENDBRANCH   1  72
TORSDOF 17
ENDMDL
MODEL 3
REMARK VINA RESULT:     -11.5      3.478      7.892
REMARK SMILES O=C(NCCCCNC(=O)[C@H]1C[C@H]2CCCC[C@@H]2[N@@H+]1CCn1ccnc1)c1ccc(-c2c3nc(c(-c4cccc(S(=O)(=O)[O-])c4F)c4ccc([nH]4)c(-c4cccc(S(=O)(=O)[O-])c4F)c4nc(c(-c5cccc(S(=O)(=O)[O-])c5F)c5ccc2[nH]5)C=C4)C=C3)cc1
REMARK SMILES IDX 5 1 4 2 3 3 1 4 2 5 27 7 28 8 89 9 29 10 88 11 30 12 31 13
REMARK SMILES IDX 32 14 82 15 33 16 87 17 81 18 83 19 34 20 86 21 80 22 79 23
REMARK SMILES IDX 35 25 67 26 47 27 66 28 48 29 51 30 65 31 84 32 49 33 50 34
REMARK SMILES IDX 64 36 85 37 52 38 36 39 37 40 45 41 38 42 40 43 46 44 39 45
REMARK SMILES IDX 41 46 42 47 43 48 44 49 68 50 69 51 77 52 70 53 72 54 78 55
REMARK SMILES IDX 71 56 73 57 74 58 75 59 76 60 53 61 54 62 62 63 55 64 57 65
REMARK SMILES IDX 63 66 56 67 58 68 59 69 60 70 61 71 6 72 7 73 8 74 9 75
REMARK SMILES IDX 10 77 11 78 12 79 19 80 13 81 18 82 14 84 17 85 15 86 16 87
REMARK SMILES IDX 20 88 21 89 22 90 23 91 26 92 24 93 25 94
REMARK H PARENT 3 6 83 24 51 35 8 76 19 83
REMARK Flexibility Score: inf
ROOT
ATOM      1  C   UNL A   1      32.273  29.697  27.081  1.00  0.00     0.023 C 
ENDROOT
BRANCH   1   2
ATOM      2  C   UNL A   1      33.775  29.940  27.242  1.00  0.00     0.116 C 
BRANCH   2   3
ATOM      3  N   UNL A   1      34.111  31.173  27.920  1.00  0.00    -0.352 N 
ATOM      4  O   UNL A   1      35.200  32.909  28.731  1.00  0.00    -0.269 OA
ATOM      5  C   UNL A   1      35.284  31.741  28.341  1.00  0.00     0.251 C 
ATOM      6  H   UNL A   1      33.323  31.725  28.124  1.00  0.00     0.163 HD
BRANCH   5   7
ATOM      7  C   UNL A   1      36.590  31.034  28.430  1.00  0.00     0.039 A 
ATOM      8  C   UNL A   1      36.818  29.704  28.071  1.00  0.00     0.014 A 
ATOM      9  C   UNL A   1      37.649  31.772  28.991  1.00  0.00     0.014 A 
ATOM     10  C   UNL A   1      38.023  29.087  28.377  1.00  0.00     0.010 A 
ATOM     11  C   UNL A   1      38.866  31.168  29.277  1.00  0.00     0.010 A 
ATOM     12  C   UNL A   1      39.027  29.811  29.015  1.00  0.00    -0.014 A 
BRANCH  12  13
ATOM     13  C   UNL A   1      40.282  29.128  29.293  1.00  0.00     0.031 A 
ATOM     14  C   UNL A   1      40.518  28.807  30.728  1.00  0.00     0.074 A 
ATOM     15  C   UNL A   1      41.099  28.702  28.308  1.00  0.00     0.049 A 
ATOM     16  N   UNL A   1      41.493  29.189  31.489  1.00  0.00    -0.248 NA
ATOM     17  C   UNL A   1      39.464  28.062  31.434  1.00  0.00     0.031 C 
ATOM     18  C   UNL A   1      40.829  28.699  26.869  1.00  0.00     0.029 A 
ATOM     19  N   UNL A   1      42.281  28.032  28.406  1.00  0.00    -0.354 N 
ATOM     20  C   UNL A   1      41.287  28.545  32.712  1.00  0.00     0.074 A 
ATOM     21  C   UNL A   1      39.949  28.020  32.674  1.00  0.00     0.031 C 
ATOM     22  C   UNL A   1      41.674  27.833  26.265  1.00  0.00     0.029 A 
ATOM     23  C   UNL A   1      42.612  27.330  27.252  1.00  0.00     0.049 A 
ATOM     24  H   UNL A   1      42.845  28.043  29.213  1.00  0.00     0.167 HD
ATOM     25  C   UNL A   1      42.313  28.282  33.568  1.00  0.00     0.034 A 
ATOM     26  C   UNL A   1      43.521  26.328  27.148  1.00  0.00     0.034 A 
ATOM     27  C   UNL A   1      43.467  29.093  33.287  1.00  0.00     0.049 A 
ATOM     28  C   UNL A   1      44.429  26.423  28.311  1.00  0.00     0.074 A 
ATOM     29  C   UNL A   1      43.735  30.446  33.246  1.00  0.00     0.029 A 
ATOM     30  N   UNL A   1      44.520  28.484  32.651  1.00  0.00    -0.354 N 
ATOM     31  N   UNL A   1      45.261  27.409  28.499  1.00  0.00    -0.248 NA
ATOM     32  C   UNL A   1      44.123  25.628  29.488  1.00  0.00     0.031 C 
ATOM     33  C   UNL A   1      44.668  30.603  32.179  1.00  0.00     0.029 A 
ATOM     34  C   UNL A   1      44.941  29.333  31.665  1.00  0.00     0.049 A 
ATOM     35  H   UNL A   1      44.901  27.602  32.864  1.00  0.00     0.167 HD
ATOM     36  C   UNL A   1      45.223  27.636  29.868  1.00  0.00     0.074 A 
ATOM     37  C   UNL A   1      44.601  26.440  30.433  1.00  0.00     0.031 C 
ATOM     38  C   UNL A   1      45.429  28.886  30.380  1.00  0.00     0.034 A 
BRANCH  25  39
ATOM     39  C   UNL A   1      42.426  27.032  34.420  1.00  0.00     0.023 A 
ATOM     40  C   UNL A   1      42.022  27.133  35.773  1.00  0.00     0.012 A 
ATOM     41  C   UNL A   1      43.172  25.884  34.063  1.00  0.00     0.148 A 
ATOM     42  C   UNL A   1      42.411  26.191  36.731  1.00  0.00     0.002 A 
ATOM     43  C   UNL A   1      43.492  24.912  35.006  1.00  0.00     0.091 A 
ATOM     44  F   UNL A   1      43.700  25.776  32.843  1.00  0.00    -0.205 F 
ATOM     45  C   UNL A   1      43.147  25.079  36.347  1.00  0.00     0.022 A 
BRANCH  43  46
ATOM     46  S   UNL A   1      44.403  23.433  34.543  1.00  0.00     0.127 S 
ATOM     47  O   UNL A   1      44.512  22.748  35.834  1.00  0.00    -0.237 OA
ATOM     48  O   UNL A   1      43.483  22.802  33.590  1.00  0.00    -0.237 OA
ATOM     49  O   UNL A   1      45.640  23.902  33.955  1.00  0.00    -0.744 OA
ENDBRANCH  43  46
ENDBRANCH  25  39
BRANCH  26  50
ATOM     50  C   UNL A   1      43.478  25.129  26.281  1.00  0.00     0.023 A 
ATOM     51  C   UNL A   1      44.448  24.952  25.276  1.00  0.00     0.012 A 
ATOM     52  C   UNL A   1      42.650  24.031  26.608  1.00  0.00     0.148 A 
ATOM     53  C   UNL A   1      44.604  23.718  24.633  1.00  0.00     0.002 A 
ATOM     54  C   UNL A   1      42.798  22.810  25.958  1.00  0.00     0.091 A 
ATOM     55  F   UNL A   1      41.783  24.155  27.621  1.00  0.00    -0.205 F 
ATOM     56  C   UNL A   1      43.783  22.646  24.976  1.00  0.00     0.022 A 
BRANCH  54  57
ATOM     57  S   UNL A   1      41.781  21.383  26.361  1.00  0.00     0.127 S 
ATOM     58  O   UNL A   1      42.375  20.343  25.519  1.00  0.00    -0.237 OA
ATOM     59  O   UNL A   1      42.029  21.228  27.791  1.00  0.00    -0.237 OA
ATOM     60  O   UNL A   1      40.419  21.747  25.989  1.00  0.00    -0.744 OA
ENDBRANCH  54  57
ENDBRANCH  26  50
BRANCH  38  61
ATOM     61  C   UNL A   1      45.933  29.960  29.450  1.00  0.00     0.023 A 
ATOM     62  C   UNL A   1      47.311  30.205  29.268  1.00  0.00     0.012 A 
ATOM     63  C   UNL A   1      45.013  30.609  28.610  1.00  0.00     0.148 A 
ATOM     64  C   UNL A   1      47.759  31.098  28.293  1.00  0.00     0.002 A 
ATOM     65  C   UNL A   1      45.464  31.461  27.610  1.00  0.00     0.091 A 
ATOM     66  F   UNL A   1      43.707  30.356  28.786  1.00  0.00    -0.205 F 
ATOM     67  C   UNL A   1      46.836  31.716  27.453  1.00  0.00     0.022 A 
BRANCH  65  68
ATOM     68  S   UNL A   1      44.341  32.188  26.415  1.00  0.00     0.127 S 
ATOM     69  O   UNL A   1      43.763  33.296  27.173  1.00  0.00    -0.237 OA
ATOM     70  O   UNL A   1      45.246  32.590  25.337  1.00  0.00    -0.237 OA
ATOM     71  O   UNL A   1      43.410  31.129  26.044  1.00  0.00    -0.744 OA
ENDBRANCH  65  68
ENDBRANCH  38  61
ENDBRANCH  12  13
ENDBRANCH   5   7
ENDBRANCH   2   3
ENDBRANCH   1   2
BRANCH   1  72
ATOM     72  C   UNL A   1      31.779  28.322  27.547  1.00  0.00     0.023 C 
BRANCH  72  73
ATOM     73  C   UNL A   1      31.871  27.211  26.508  1.00  0.00     0.116 C 
BRANCH  73  74
ATOM     74  N   UNL A   1      31.108  26.041  26.891  1.00  0.00    -0.351 N 
ATOM     75  C   UNL A   1      31.347  24.721  26.637  1.00  0.00     0.278 C 
ATOM     76  H   UNL A   1      30.295  26.225  27.415  1.00  0.00     0.163 HD
ATOM     77  O   UNL A   1      30.549  23.901  27.098  1.00  0.00    -0.268 OA
BRANCH  75  78
ATOM     78  C   UNL A   1      32.580  24.314  25.798  1.00  0.00     0.274 C 
ATOM     79  C   UNL A   1      33.401  23.224  26.525  1.00  0.00     0.085 C 
ATOM     80  N   UNL A   1      32.114  23.699  24.520  1.00  0.00    -0.321 N 
ATOM     81  C   UNL A   1      33.582  22.157  25.465  1.00  0.00     0.054 C 
ATOM     82  C   UNL A   1      32.283  22.250  24.686  1.00  0.00     0.188 C 
ATOM     83  H   UNL A   1      31.125  23.888  24.357  1.00  0.00     0.349 HD
ATOM     84  C   UNL A   1      33.876  20.742  25.923  1.00  0.00     0.010 C 
ATOM     85  C   UNL A   1      32.236  21.312  23.482  1.00  0.00     0.065 C 
ATOM     86  C   UNL A   1      33.954  19.834  24.693  1.00  0.00     0.001 C 
ATOM     87  C   UNL A   1      32.679  19.888  23.844  1.00  0.00     0.006 C 
BRANCH  80  88
ATOM     88  C   UNL A   1      32.566  24.336  23.277  1.00  0.00     0.285 C 
BRANCH  88  89
ATOM     89  C   UNL A   1      33.667  25.429  23.238  1.00  0.00     0.184 C 
BRANCH  89  90
ATOM     90  N   UNL A   1      33.244  26.812  23.210  1.00  0.00    -0.332 N 
ATOM     91  C   UNL A   1      33.977  27.911  23.560  1.00  0.00     0.107 A 
ATOM     92  C   UNL A   1      32.037  27.266  22.749  1.00  0.00     0.199 A 
ATOM     93  C   UNL A   1      33.105  28.971  23.454  1.00  0.00     0.130 A 
ATOM     94  N   UNL A   1      31.907  28.561  22.930  1.00  0.00    -0.245 NA
ENDBRANCH  89  90
ENDBRANCH  88  89
ENDBRANCH  80  88
ENDBRANCH  75  78
ENDBRANCH  73  74
ENDBRANCH  72  73
ENDBRANCH   1  72
TORSDOF 17
ENDMDL
