MODEL 1
REMARK VINA RESULT:     -12.9      0.000      0.000
REMARK SMILES Cc1ccc(-n2c(SCC(=O)NCCCCNC(=O)c3ccc(-c4c5nc(c(-c6cccc(S(=O)(=O)[O-])c6F)c6ccc([nH]6)c(-c6cccc(S(=O)(=O)[O-])c6F)c6nc(c(-c7cccc(S(=O)(=O)[O-])c7F)c7ccc4[nH]7)C=C6)C=C5)cc3)nnc2-c2ccccc2)cc1
REMARK SMILES IDX 14 1 13 2 12 3 10 4 11 5 9 7 8 8 7 9 6 10 85 11 83 12 84 13
REMARK SMILES IDX 5 14 1 15 2 16 3 17 93 18 4 19 92 20 86 21 87 22 91 23 88 24
REMARK SMILES IDX 90 25 89 26 15 27 16 28 17 29 18 30 19 32 20 33 21 34 82 35
REMARK SMILES IDX 22 36 81 37 23 38 24 39 25 40 75 41 26 42 80 43 74 44 76 45
REMARK SMILES IDX 27 46 79 47 73 48 72 49 28 51 60 52 40 53 59 54 41 55 44 56
REMARK SMILES IDX 58 57 77 58 42 59 43 60 57 62 78 63 45 64 29 65 30 66 38 67
REMARK SMILES IDX 31 68 33 69 39 70 32 71 34 72 35 73 36 74 37 75 61 76 62 77
REMARK SMILES IDX 70 78 63 79 65 80 71 81 64 82 66 83 67 84 68 85 69 86 46 87
REMARK SMILES IDX 47 88 55 89 48 90 50 91 56 92 49 93 51 94 52 95 53 96 54 97
REMARK H PARENT 12 6 17 31 76 50 44 61
REMARK Flexibility Score: inf
ROOT
ATOM      1  C   UNL A   1      36.497  21.375  24.578  1.00  0.00     0.023 C 
ENDROOT
BRANCH   1   2
ATOM      2  C   UNL A   1      35.470  21.768  25.648  1.00  0.00     0.116 C 
BRANCH   2   3
ATOM      3  N   UNL A   1      34.597  20.691  26.081  1.00  0.00    -0.355 N 
ATOM      4  C   UNL A   1      33.319  20.384  25.744  1.00  0.00     0.230 C 
ATOM      5  O   UNL A   1      32.990  19.203  25.906  1.00  0.00    -0.274 OA
ATOM      6  H   UNL A   1      35.003  20.076  26.733  1.00  0.00     0.163 HD
BRANCH   4   7
ATOM      7  C   UNL A   1      32.331  21.344  25.115  1.00  0.00     0.178 C 
BRANCH   7   8
ATOM      8  S   UNL A   1      32.265  23.018  25.713  1.00  0.00    -0.076 SA
BRANCH   8   9
ATOM      9  C   UNL A   1      31.524  24.124  24.608  1.00  0.00     0.196 A 
ATOM     10  N   UNL A   1      31.449  25.503  24.594  1.00  0.00    -0.270 N 
ATOM     11  C   UNL A   1      30.511  25.808  23.610  1.00  0.00     0.169 A 
ATOM     12  N   UNL A   1      30.707  23.646  23.689  1.00  0.00    -0.122 NA
ATOM     13  N   UNL A   1      30.063  24.687  23.083  1.00  0.00    -0.129 NA
BRANCH  10  14
ATOM     14  C   UNL A   1      32.119  26.461  25.370  1.00  0.00     0.050 A 
ATOM     15  C   UNL A   1      34.120  29.539  27.582  1.00  0.00     0.044 C 
ATOM     16  C   UNL A   1      33.384  28.506  26.781  1.00  0.00    -0.051 A 
ATOM     17  C   UNL A   1      34.021  27.893  25.694  1.00  0.00     0.005 A 
ATOM     18  C   UNL A   1      32.087  28.107  27.130  1.00  0.00     0.005 A 
ATOM     19  C   UNL A   1      33.388  26.880  24.976  1.00  0.00     0.027 A 
ATOM     20  C   UNL A   1      31.443  27.095  26.417  1.00  0.00     0.027 A 
ENDBRANCH  10  14
BRANCH  11  21
ATOM     21  C   UNL A   1      30.090  27.149  23.209  1.00  0.00     0.020 A 
ATOM     22  C   UNL A   1      28.774  27.565  23.452  1.00  0.00     0.012 A 
ATOM     23  C   UNL A   1      30.974  28.025  22.567  1.00  0.00     0.012 A 
ATOM     24  C   UNL A   1      28.361  28.849  23.090  1.00  0.00     0.001 A 
ATOM     25  C   UNL A   1      30.559  29.309  22.204  1.00  0.00     0.001 A 
ATOM     26  C   UNL A   1      29.256  29.722  22.470  1.00  0.00     0.000 A 
ENDBRANCH  11  21
ENDBRANCH   8   9
ENDBRANCH   7   8
ENDBRANCH   4   7
ENDBRANCH   2   3
ENDBRANCH   1   2
BRANCH   1  27
ATOM     27  C   UNL A   1      37.954  21.301  25.030  1.00  0.00     0.023 C 
BRANCH  27  28
ATOM     28  C   UNL A   1      38.346  22.290  26.119  1.00  0.00     0.116 C 
BRANCH  28  29
ATOM     29  N   UNL A   1      39.769  22.297  26.428  1.00  0.00    -0.352 N 
ATOM     30  C   UNL A   1      40.613  23.365  26.675  1.00  0.00     0.251 C 
ATOM     31  H   UNL A   1      40.192  21.410  26.468  1.00  0.00     0.163 HD
ATOM     32  O   UNL A   1      41.824  23.159  26.738  1.00  0.00    -0.269 OA
BRANCH  30  33
ATOM     33  C   UNL A   1      40.054  24.703  26.990  1.00  0.00     0.039 A 
ATOM     34  C   UNL A   1      40.572  25.807  26.297  1.00  0.00     0.014 A 
ATOM     35  C   UNL A   1      39.224  24.904  28.089  1.00  0.00     0.014 A 
ATOM     36  C   UNL A   1      40.504  27.075  26.868  1.00  0.00     0.010 A 
ATOM     37  C   UNL A   1      39.214  26.139  28.697  1.00  0.00     0.010 A 
ATOM     38  C   UNL A   1      39.936  27.194  28.132  1.00  0.00    -0.014 A 
BRANCH  38  39
ATOM     39  C   UNL A   1      40.136  28.326  29.020  1.00  0.00     0.031 A 
ATOM     40  C   UNL A   1      39.291  29.523  28.919  1.00  0.00     0.074 A 
ATOM     41  C   UNL A   1      40.954  28.130  30.078  1.00  0.00     0.049 A 
ATOM     42  N   UNL A   1      39.516  30.620  29.559  1.00  0.00    -0.248 NA
ATOM     43  C   UNL A   1      38.142  29.591  28.026  1.00  0.00     0.031 C 
ATOM     44  C   UNL A   1      40.978  28.857  31.339  1.00  0.00     0.029 A 
ATOM     45  N   UNL A   1      42.098  27.322  30.124  1.00  0.00    -0.354 N 
ATOM     46  C   UNL A   1      38.390  31.401  29.421  1.00  0.00     0.074 A 
ATOM     47  C   UNL A   1      37.656  30.795  28.340  1.00  0.00     0.031 C 
ATOM     48  C   UNL A   1      42.179  28.682  31.912  1.00  0.00     0.029 A 
ATOM     49  C   UNL A   1      43.018  28.010  30.934  1.00  0.00     0.049 A 
ATOM     50  H   UNL A   1      42.230  26.454  29.681  1.00  0.00     0.167 HD
ATOM     51  C   UNL A   1      38.144  32.353  30.365  1.00  0.00     0.034 A 
ATOM     52  C   UNL A   1      44.222  28.470  30.478  1.00  0.00     0.034 A 
ATOM     53  C   UNL A   1      39.340  32.574  31.200  1.00  0.00     0.049 A 
ATOM     54  C   UNL A   1      44.380  29.973  30.633  1.00  0.00     0.074 A 
ATOM     55  C   UNL A   1      39.692  32.185  32.481  1.00  0.00     0.029 A 
ATOM     56  N   UNL A   1      40.505  33.053  30.604  1.00  0.00    -0.354 N 
ATOM     57  N   UNL A   1      43.426  30.780  31.010  1.00  0.00    -0.248 NA
ATOM     58  C   UNL A   1      45.619  30.690  30.336  1.00  0.00     0.031 C 
ATOM     59  C   UNL A   1      41.106  32.306  32.601  1.00  0.00     0.029 A 
ATOM     60  C   UNL A   1      41.608  32.814  31.413  1.00  0.00     0.049 A 
ATOM     61  H   UNL A   1      40.542  33.502  29.729  1.00  0.00     0.167 HD
ATOM     62  C   UNL A   1      43.829  32.080  30.858  1.00  0.00     0.074 A 
ATOM     63  C   UNL A   1      45.241  31.967  30.529  1.00  0.00     0.031 C 
ATOM     64  C   UNL A   1      42.954  33.131  30.936  1.00  0.00     0.034 A 
BRANCH  51  65
ATOM     65  C   UNL A   1      36.768  32.913  30.726  1.00  0.00     0.023 A 
ATOM     66  C   UNL A   1      36.244  32.563  31.994  1.00  0.00     0.012 A 
ATOM     67  C   UNL A   1      35.888  33.650  29.891  1.00  0.00     0.148 A 
ATOM     68  C   UNL A   1      34.935  32.876  32.386  1.00  0.00     0.002 A 
ATOM     69  C   UNL A   1      34.591  33.989  30.291  1.00  0.00     0.091 A 
ATOM     70  F   UNL A   1      36.260  34.006  28.665  1.00  0.00    -0.205 F 
ATOM     71  C   UNL A   1      34.104  33.589  31.535  1.00  0.00     0.022 A 
BRANCH  69  72
ATOM     72  S   UNL A   1      33.463  34.925  29.235  1.00  0.00     0.127 S 
ATOM     73  O   UNL A   1      34.315  36.020  28.771  1.00  0.00    -0.237 OA
ATOM     74  O   UNL A   1      33.116  33.944  28.205  1.00  0.00    -0.237 OA
ATOM     75  O   UNL A   1      32.347  35.336  30.078  1.00  0.00    -0.744 OA
ENDBRANCH  69  72
ENDBRANCH  51  65
BRANCH  52  76
ATOM     76  C   UNL A   1      44.788  27.655  29.360  1.00  0.00     0.023 A 
ATOM     77  C   UNL A   1      45.197  26.336  29.672  1.00  0.00     0.012 A 
ATOM     78  C   UNL A   1      44.546  27.988  28.015  1.00  0.00     0.148 A 
ATOM     79  C   UNL A   1      45.220  25.340  28.694  1.00  0.00     0.002 A 
ATOM     80  C   UNL A   1      44.573  26.987  27.043  1.00  0.00     0.091 A 
ATOM     81  F   UNL A   1      44.212  29.249  27.715  1.00  0.00    -0.205 F 
ATOM     82  C   UNL A   1      44.870  25.658  27.387  1.00  0.00     0.022 A 
BRANCH  80  83
ATOM     83  S   UNL A   1      44.094  27.328  25.343  1.00  0.00     0.127 S 
ATOM     84  O   UNL A   1      45.373  27.712  24.751  1.00  0.00    -0.237 OA
ATOM     85  O   UNL A   1      43.572  26.039  24.895  1.00  0.00    -0.237 OA
ATOM     86  O   UNL A   1      43.086  28.372  25.447  1.00  0.00    -0.744 OA
ENDBRANCH  80  83
ENDBRANCH  52  76
BRANCH  64  87
ATOM     87  C   UNL A   1      43.287  34.557  30.536  1.00  0.00     0.023 A 
ATOM     88  C   UNL A   1      43.747  35.512  31.465  1.00  0.00     0.012 A 
ATOM     89  C   UNL A   1      43.290  34.947  29.172  1.00  0.00     0.148 A 
ATOM     90  C   UNL A   1      44.111  36.807  31.082  1.00  0.00     0.002 A 
ATOM     91  C   UNL A   1      43.760  36.201  28.783  1.00  0.00     0.091 A 
ATOM     92  F   UNL A   1      42.820  34.107  28.238  1.00  0.00    -0.205 F 
ATOM     93  C   UNL A   1      44.137  37.147  29.737  1.00  0.00     0.022 A 
BRANCH  91  94
ATOM     94  S   UNL A   1      44.046  36.581  27.048  1.00  0.00     0.127 S 
ATOM     95  O   UNL A   1      44.965  35.518  26.649  1.00  0.00    -0.237 OA
ATOM     96  O   UNL A   1      42.703  36.472  26.472  1.00  0.00    -0.237 OA
ATOM     97  O   UNL A   1      44.583  37.935  27.047  1.00  0.00    -0.744 OA
ENDBRANCH  91  94
ENDBRANCH  64  87
ENDBRANCH  38  39
ENDBRANCH  30  33
ENDBRANCH  28  29
ENDBRANCH  27  28
ENDBRANCH   1  27
TORSDOF 18
ENDMDL
MODEL 2
REMARK VINA RESULT:     -12.8      1.155      2.480
REMARK SMILES Cc1ccc(-n2c(SCC(=O)NCCCCNC(=O)c3ccc(-c4c5nc(c(-c6cccc(S(=O)(=O)[O-])c6F)c6ccc([nH]6)c(-c6cccc(S(=O)(=O)[O-])c6F)c6nc(c(-c7cccc(S(=O)(=O)[O-])c7F)c7ccc4[nH]7)C=C6)C=C5)cc3)nnc2-c2ccccc2)cc1
REMARK SMILES IDX 14 1 13 2 12 3 10 4 11 5 9 7 8 8 7 9 6 10 85 11 83 12 84 13
REMARK SMILES IDX 5 14 1 15 2 16 3 17 93 18 4 19 92 20 86 21 87 22 91 23 88 24
REMARK SMILES IDX 90 25 89 26 15 27 16 28 17 29 18 30 19 32 20 33 21 34 82 35
REMARK SMILES IDX 22 36 81 37 23 38 24 39 25 40 75 41 26 42 80 43 74 44 76 45
REMARK SMILES IDX 27 46 79 47 73 48 72 49 28 51 60 52 40 53 59 54 41 55 44 56
REMARK SMILES IDX 58 57 77 58 42 59 43 60 57 62 78 63 45 64 29 65 30 66 38 67
REMARK SMILES IDX 31 68 33 69 39 70 32 71 34 72 35 73 36 74 37 75 61 76 62 77
REMARK SMILES IDX 70 78 63 79 65 80 71 81 64 82 66 83 67 84 68 85 69 86 46 87
REMARK SMILES IDX 47 88 55 89 48 90 50 91 56 92 49 93 51 94 52 95 53 96 54 97
REMARK H PARENT 12 6 17 31 76 50 44 61
REMARK Flexibility Score: inf
ROOT
ATOM      1  C   UNL A   1      35.920  23.509  25.393  1.00  0.00     0.023 C 
ENDROOT
BRANCH   1   2
ATOM      2  C   UNL A   1      34.993  22.647  24.528  1.00  0.00     0.116 C 
BRANCH   2   3
ATOM      3  N   UNL A   1      34.752  23.159  23.191  1.00  0.00    -0.355 N 
ATOM      4  C   UNL A   1      33.602  23.337  22.493  1.00  0.00     0.230 C 
ATOM      5  O   UNL A   1      33.646  24.183  21.591  1.00  0.00    -0.274 OA
ATOM      6  H   UNL A   1      35.566  23.425  22.705  1.00  0.00     0.163 HD
BRANCH   4   7
ATOM      7  C   UNL A   1      32.284  22.657  22.800  1.00  0.00     0.178 C 
BRANCH   7   8
ATOM      8  S   UNL A   1      30.994  23.603  23.577  1.00  0.00    -0.076 SA
BRANCH   8   9
ATOM      9  C   UNL A   1      31.566  24.706  24.781  1.00  0.00     0.196 A 
ATOM     10  N   UNL A   1      31.618  26.086  24.819  1.00  0.00    -0.270 N 
ATOM     11  C   UNL A   1      32.413  26.391  25.921  1.00  0.00     0.169 A 
ATOM     12  N   UNL A   1      32.260  24.227  25.795  1.00  0.00    -0.122 NA
ATOM     13  N   UNL A   1      32.804  25.270  26.492  1.00  0.00    -0.129 NA
BRANCH  10  14
ATOM     14  C   UNL A   1      31.044  27.044  23.970  1.00  0.00     0.050 A 
ATOM     15  C   UNL A   1      29.251  30.100  21.558  1.00  0.00     0.044 C 
ATOM     16  C   UNL A   1      29.895  29.075  22.443  1.00  0.00    -0.051 A 
ATOM     17  C   UNL A   1      29.089  28.206  23.192  1.00  0.00     0.005 A 
ATOM     18  C   UNL A   1      31.288  28.937  22.499  1.00  0.00     0.005 A 
ATOM     19  C   UNL A   1      29.659  27.198  23.968  1.00  0.00     0.027 A 
ATOM     20  C   UNL A   1      31.869  27.932  23.274  1.00  0.00     0.027 A 
ENDBRANCH  10  14
BRANCH  11  21
ATOM     21  C   UNL A   1      32.758  27.733  26.387  1.00  0.00     0.020 A 
ATOM     22  C   UNL A   1      34.101  28.131  26.424  1.00  0.00     0.012 A 
ATOM     23  C   UNL A   1      31.771  28.627  26.818  1.00  0.00     0.012 A 
ATOM     24  C   UNL A   1      34.446  29.415  26.852  1.00  0.00     0.001 A 
ATOM     25  C   UNL A   1      32.116  29.910  27.248  1.00  0.00     0.001 A 
ATOM     26  C   UNL A   1      33.452  30.306  27.259  1.00  0.00     0.000 A 
ENDBRANCH  11  21
ENDBRANCH   8   9
ENDBRANCH   7   8
ENDBRANCH   4   7
ENDBRANCH   2   3
ENDBRANCH   1   2
BRANCH   1  27
ATOM     27  C   UNL A   1      37.041  22.776  26.128  1.00  0.00     0.023 C 
BRANCH  27  28
ATOM     28  C   UNL A   1      38.374  22.728  25.395  1.00  0.00     0.116 C 
BRANCH  28  29
ATOM     29  N   UNL A   1      39.518  22.486  26.262  1.00  0.00    -0.352 N 
ATOM     30  C   UNL A   1      40.283  23.384  26.984  1.00  0.00     0.251 C 
ATOM     31  H   UNL A   1      39.785  21.543  26.348  1.00  0.00     0.163 HD
ATOM     32  O   UNL A   1      41.319  22.986  27.514  1.00  0.00    -0.269 OA
BRANCH  30  33
ATOM     33  C   UNL A   1      39.789  24.763  27.226  1.00  0.00     0.039 A 
ATOM     34  C   UNL A   1      40.410  25.810  26.529  1.00  0.00     0.014 A 
ATOM     35  C   UNL A   1      38.914  25.050  28.270  1.00  0.00     0.014 A 
ATOM     36  C   UNL A   1      40.388  27.099  27.057  1.00  0.00     0.010 A 
ATOM     37  C   UNL A   1      38.946  26.303  28.838  1.00  0.00     0.010 A 
ATOM     38  C   UNL A   1      39.760  27.294  28.282  1.00  0.00    -0.014 A 
BRANCH  38  39
ATOM     39  C   UNL A   1      39.979  28.442  29.145  1.00  0.00     0.031 A 
ATOM     40  C   UNL A   1      39.139  29.641  29.034  1.00  0.00     0.074 A 
ATOM     41  C   UNL A   1      40.813  28.262  30.194  1.00  0.00     0.049 A 
ATOM     42  N   UNL A   1      39.379  30.749  29.648  1.00  0.00    -0.248 NA
ATOM     43  C   UNL A   1      37.976  29.698  28.157  1.00  0.00     0.031 C 
ATOM     44  C   UNL A   1      40.859  29.013  31.440  1.00  0.00     0.029 A 
ATOM     45  N   UNL A   1      41.953  27.450  30.238  1.00  0.00    -0.354 N 
ATOM     46  C   UNL A   1      38.255  31.533  29.513  1.00  0.00     0.074 A 
ATOM     47  C   UNL A   1      37.501  30.910  28.455  1.00  0.00     0.031 C 
ATOM     48  C   UNL A   1      42.068  28.844  31.998  1.00  0.00     0.029 A 
ATOM     49  C   UNL A   1      42.889  28.148  31.020  1.00  0.00     0.049 A 
ATOM     50  H   UNL A   1      42.074  26.572  29.810  1.00  0.00     0.167 HD
ATOM     51  C   UNL A   1      38.027  32.504  30.442  1.00  0.00     0.034 A 
ATOM     52  C   UNL A   1      44.087  28.594  30.537  1.00  0.00     0.034 A 
ATOM     53  C   UNL A   1      39.237  32.735  31.253  1.00  0.00     0.049 A 
ATOM     54  C   UNL A   1      44.256  30.099  30.660  1.00  0.00     0.074 A 
ATOM     55  C   UNL A   1      39.607  32.369  32.536  1.00  0.00     0.029 A 
ATOM     56  N   UNL A   1      40.395  33.197  30.631  1.00  0.00    -0.354 N 
ATOM     57  N   UNL A   1      43.311  30.917  31.036  1.00  0.00    -0.248 NA
ATOM     58  C   UNL A   1      45.493  30.803  30.330  1.00  0.00     0.031 C 
ATOM     59  C   UNL A   1      41.024  32.486  32.632  1.00  0.00     0.029 A 
ATOM     60  C   UNL A   1      41.509  32.968  31.427  1.00  0.00     0.049 A 
ATOM     61  H   UNL A   1      40.420  33.628  29.747  1.00  0.00     0.167 HD
ATOM     62  C   UNL A   1      43.718  32.212  30.853  1.00  0.00     0.074 A 
ATOM     63  C   UNL A   1      45.124  32.085  30.504  1.00  0.00     0.031 C 
ATOM     64  C   UNL A   1      42.849  33.269  30.924  1.00  0.00     0.034 A 
BRANCH  51  65
ATOM     65  C   UNL A   1      36.659  33.079  30.813  1.00  0.00     0.023 A 
ATOM     66  C   UNL A   1      36.172  32.788  32.109  1.00  0.00     0.012 A 
ATOM     67  C   UNL A   1      35.755  33.772  29.967  1.00  0.00     0.148 A 
ATOM     68  C   UNL A   1      34.872  33.117  32.522  1.00  0.00     0.002 A 
ATOM     69  C   UNL A   1      34.468  34.128  30.386  1.00  0.00     0.091 A 
ATOM     70  F   UNL A   1      36.092  34.071  28.716  1.00  0.00    -0.205 F 
ATOM     71  C   UNL A   1      34.016  33.787  31.660  1.00  0.00     0.022 A 
BRANCH  69  72
ATOM     72  S   UNL A   1      33.308  35.010  29.317  1.00  0.00     0.127 S 
ATOM     73  O   UNL A   1      32.949  33.981  28.341  1.00  0.00    -0.237 OA
ATOM     74  O   UNL A   1      32.238  35.366  30.249  1.00  0.00    -0.237 OA
ATOM     75  O   UNL A   1      34.033  36.148  28.765  1.00  0.00    -0.744 OA
ENDBRANCH  69  72
ENDBRANCH  51  65
BRANCH  52  76
ATOM     76  C   UNL A   1      44.632  27.754  29.426  1.00  0.00     0.023 A 
ATOM     77  C   UNL A   1      45.004  26.427  29.750  1.00  0.00     0.012 A 
ATOM     78  C   UNL A   1      44.402  28.083  28.078  1.00  0.00     0.148 A 
ATOM     79  C   UNL A   1      45.001  25.423  28.780  1.00  0.00     0.002 A 
ATOM     80  C   UNL A   1      44.403  27.075  27.115  1.00  0.00     0.091 A 
ATOM     81  F   UNL A   1      44.105  29.350  27.768  1.00  0.00    -0.205 F 
ATOM     82  C   UNL A   1      44.661  25.740  27.470  1.00  0.00     0.022 A 
BRANCH  80  83
ATOM     83  S   UNL A   1      43.937  27.415  25.411  1.00  0.00     0.127 S 
ATOM     84  O   UNL A   1      42.954  28.481  25.584  1.00  0.00    -0.237 OA
ATOM     85  O   UNL A   1      45.202  27.837  24.813  1.00  0.00    -0.237 OA
ATOM     86  O   UNL A   1      43.437  26.145  24.906  1.00  0.00    -0.744 OA
ENDBRANCH  80  83
ENDBRANCH  52  76
BRANCH  64  87
ATOM     87  C   UNL A   1      43.183  34.685  30.490  1.00  0.00     0.023 A 
ATOM     88  C   UNL A   1      43.631  35.664  31.400  1.00  0.00     0.012 A 
ATOM     89  C   UNL A   1      43.199  35.040  29.118  1.00  0.00     0.148 A 
ATOM     90  C   UNL A   1      43.995  36.951  30.988  1.00  0.00     0.002 A 
ATOM     91  C   UNL A   1      43.670  36.285  28.702  1.00  0.00     0.091 A 
ATOM     92  F   UNL A   1      42.741  34.176  28.200  1.00  0.00    -0.205 F 
ATOM     93  C   UNL A   1      44.035  37.257  29.635  1.00  0.00     0.022 A 
BRANCH  91  94
ATOM     94  S   UNL A   1      43.973  36.622  26.961  1.00  0.00     0.127 S 
ATOM     95  O   UNL A   1      42.656  37.053  26.499  1.00  0.00    -0.237 OA
ATOM     96  O   UNL A   1      44.978  37.687  27.011  1.00  0.00    -0.237 OA
ATOM     97  O   UNL A   1      44.469  35.364  26.418  1.00  0.00    -0.744 OA
ENDBRANCH  91  94
ENDBRANCH  64  87
ENDBRANCH  38  39
ENDBRANCH  30  33
ENDBRANCH  28  29
ENDBRANCH  27  28
ENDBRANCH   1  27
TORSDOF 18
ENDMDL
MODEL 3
REMARK VINA RESULT:     -12.8      3.974      9.678
REMARK SMILES Cc1ccc(-n2c(SCC(=O)NCCCCNC(=O)c3ccc(-c4c5nc(c(-c6cccc(S(=O)(=O)[O-])c6F)c6ccc([nH]6)c(-c6cccc(S(=O)(=O)[O-])c6F)c6nc(c(-c7cccc(S(=O)(=O)[O-])c7F)c7ccc4[nH]7)C=C6)C=C5)cc3)nnc2-c2ccccc2)cc1
REMARK SMILES IDX 14 1 13 2 12 3 10 4 11 5 9 7 8 8 7 9 6 10 85 11 83 12 84 13
REMARK SMILES IDX 5 14 1 15 2 16 3 17 93 18 4 19 92 20 86 21 87 22 91 23 88 24
REMARK SMILES IDX 90 25 89 26 15 27 16 28 17 29 18 30 19 32 20 33 21 34 82 35
REMARK SMILES IDX 22 36 81 37 23 38 24 39 25 40 75 41 26 42 80 43 74 44 76 45
REMARK SMILES IDX 27 46 79 47 73 48 72 49 28 51 60 52 40 53 59 54 41 55 44 56
REMARK SMILES IDX 58 57 77 58 42 59 43 60 57 62 78 63 45 64 29 65 30 66 38 67
REMARK SMILES IDX 31 68 33 69 39 70 32 71 34 72 35 73 36 74 37 75 61 76 62 77
REMARK SMILES IDX 70 78 63 79 65 80 71 81 64 82 66 83 67 84 68 85 69 86 46 87
REMARK SMILES IDX 47 88 55 89 48 90 50 91 56 92 49 93 51 94 52 95 53 96 54 97
REMARK H PARENT 12 6 17 31 76 50 44 61
REMARK Flexibility Score: inf
ROOT
ATOM      1  C   UNL A   1      31.795  29.330  27.284  1.00  0.00     0.023 C 
ENDROOT
BRANCH   1   2
ATOM      2  C   UNL A   1      31.403  28.295  26.221  1.00  0.00     0.116 C 
BRANCH   2   3
ATOM      3  N   UNL A   1      30.968  27.013  26.747  1.00  0.00    -0.355 N 
ATOM      4  C   UNL A   1      30.486  25.907  26.127  1.00  0.00     0.230 C 
ATOM      5  O   UNL A   1      30.623  24.843  26.743  1.00  0.00    -0.274 OA
ATOM      6  H   UNL A   1      31.036  26.932  27.726  1.00  0.00     0.163 HD
BRANCH   4   7
ATOM      7  C   UNL A   1      29.897  25.880  24.732  1.00  0.00     0.178 C 
BRANCH   7   8
ATOM      8  S   UNL A   1      30.633  24.814  23.513  1.00  0.00    -0.076 SA
BRANCH   8   9
ATOM      9  C   UNL A   1      32.356  24.703  23.633  1.00  0.00     0.196 A 
ATOM     10  N   UNL A   1      33.189  23.674  24.023  1.00  0.00    -0.270 N 
ATOM     11  C   UNL A   1      34.447  24.256  24.165  1.00  0.00     0.169 A 
ATOM     12  N   UNL A   1      33.068  25.809  23.530  1.00  0.00    -0.122 NA
ATOM     13  N   UNL A   1      34.361  25.538  23.879  1.00  0.00    -0.129 NA
BRANCH  10  14
ATOM     14  C   UNL A   1      32.915  22.319  24.264  1.00  0.00     0.050 A 
ATOM     15  C   UNL A   1      32.281  18.130  24.918  1.00  0.00     0.044 C 
ATOM     16  C   UNL A   1      32.564  19.587  24.696  1.00  0.00    -0.051 A 
ATOM     17  C   UNL A   1      32.453  20.122  23.406  1.00  0.00     0.005 A 
ATOM     18  C   UNL A   1      32.891  20.433  25.763  1.00  0.00     0.005 A 
ATOM     19  C   UNL A   1      32.641  21.485  23.182  1.00  0.00     0.027 A 
ATOM     20  C   UNL A   1      33.084  21.799  25.550  1.00  0.00     0.027 A 
ENDBRANCH  10  14
BRANCH  11  21
ATOM     21  C   UNL A   1      35.675  23.565  24.555  1.00  0.00     0.020 A 
ATOM     22  C   UNL A   1      36.378  23.987  25.690  1.00  0.00     0.012 A 
ATOM     23  C   UNL A   1      36.177  22.497  23.802  1.00  0.00     0.012 A 
ATOM     24  C   UNL A   1      37.544  23.328  26.086  1.00  0.00     0.001 A 
ATOM     25  C   UNL A   1      37.345  21.839  24.196  1.00  0.00     0.001 A 
ATOM     26  C   UNL A   1      38.024  22.251  25.341  1.00  0.00     0.000 A 
ENDBRANCH  11  21
ENDBRANCH   8   9
ENDBRANCH   7   8
ENDBRANCH   4   7
ENDBRANCH   2   3
ENDBRANCH   1   2
BRANCH   1  27
ATOM     27  C   UNL A   1      32.751  30.434  26.837  1.00  0.00     0.023 C 
BRANCH  27  28
ATOM     28  C   UNL A   1      34.231  30.107  26.983  1.00  0.00     0.116 C 
BRANCH  28  29
ATOM     29  N   UNL A   1      35.018  31.180  27.573  1.00  0.00    -0.352 N 
ATOM     30  C   UNL A   1      36.222  31.121  28.251  1.00  0.00     0.251 C 
ATOM     31  H   UNL A   1      34.638  32.082  27.472  1.00  0.00     0.163 HD
ATOM     32  O   UNL A   1      36.628  32.130  28.826  1.00  0.00    -0.269 OA
BRANCH  30  33
ATOM     33  C   UNL A   1      37.068  29.903  28.171  1.00  0.00     0.039 A 
ATOM     34  C   UNL A   1      37.225  29.139  29.337  1.00  0.00     0.014 A 
ATOM     35  C   UNL A   1      37.869  29.647  27.062  1.00  0.00     0.014 A 
ATOM     36  C   UNL A   1      38.355  28.341  29.492  1.00  0.00     0.010 A 
ATOM     37  C   UNL A   1      39.024  28.918  27.232  1.00  0.00     0.010 A 
ATOM     38  C   UNL A   1      39.307  28.350  28.478  1.00  0.00    -0.014 A 
BRANCH  38  39
ATOM     39  C   UNL A   1      40.683  27.912  28.638  1.00  0.00     0.031 A 
ATOM     40  C   UNL A   1      41.040  26.492  28.530  1.00  0.00     0.074 A 
ATOM     41  C   UNL A   1      41.630  28.877  28.645  1.00  0.00     0.049 A 
ATOM     42  N   UNL A   1      42.203  26.017  28.821  1.00  0.00    -0.248 NA
ATOM     43  C   UNL A   1      40.074  25.474  28.136  1.00  0.00     0.031 C 
ATOM     44  C   UNL A   1      43.042  28.748  28.318  1.00  0.00     0.029 A 
ATOM     45  N   UNL A   1      41.513  30.172  29.165  1.00  0.00    -0.354 N 
ATOM     46  C   UNL A   1      42.236  24.724  28.350  1.00  0.00     0.074 A 
ATOM     47  C   UNL A   1      40.858  24.393  28.094  1.00  0.00     0.031 C 
ATOM     48  C   UNL A   1      43.706  29.776  28.871  1.00  0.00     0.029 A 
ATOM     49  C   UNL A   1      42.763  30.470  29.733  1.00  0.00     0.049 A 
ATOM     50  H   UNL A   1      40.719  30.754  29.138  1.00  0.00     0.167 HD
ATOM     51  C   UNL A   1      43.449  24.168  28.069  1.00  0.00     0.034 A 
ATOM     52  C   UNL A   1      42.944  30.709  31.067  1.00  0.00     0.034 A 
ATOM     53  C   UNL A   1      44.536  24.982  28.646  1.00  0.00     0.049 A 
ATOM     54  C   UNL A   1      43.921  29.744  31.717  1.00  0.00     0.074 A 
ATOM     55  C   UNL A   1      45.442  25.879  28.107  1.00  0.00     0.029 A 
ATOM     56  N   UNL A   1      44.605  25.142  30.028  1.00  0.00    -0.354 N 
ATOM     57  N   UNL A   1      44.425  28.696  31.126  1.00  0.00    -0.248 NA
ATOM     58  C   UNL A   1      44.377  29.866  33.101  1.00  0.00     0.031 C 
ATOM     59  C   UNL A   1      45.954  26.675  29.172  1.00  0.00     0.029 A 
ATOM     60  C   UNL A   1      45.398  26.231  30.361  1.00  0.00     0.049 A 
ATOM     61  H   UNL A   1      44.153  24.560  30.681  1.00  0.00     0.167 HD
ATOM     62  C   UNL A   1      45.106  27.931  32.035  1.00  0.00     0.074 A 
ATOM     63  C   UNL A   1      45.130  28.759  33.232  1.00  0.00     0.031 C 
ATOM     64  C   UNL A   1      45.520  26.656  31.755  1.00  0.00     0.034 A 
BRANCH  51  65
ATOM     65  C   UNL A   1      43.702  23.043  27.065  1.00  0.00     0.023 A 
ATOM     66  C   UNL A   1      44.526  23.345  25.956  1.00  0.00     0.012 A 
ATOM     67  C   UNL A   1      43.107  21.754  27.044  1.00  0.00     0.148 A 
ATOM     68  C   UNL A   1      44.711  22.459  24.884  1.00  0.00     0.002 A 
ATOM     69  C   UNL A   1      43.313  20.856  25.991  1.00  0.00     0.091 A 
ATOM     70  F   UNL A   1      42.287  21.371  28.018  1.00  0.00    -0.205 F 
ATOM     71  C   UNL A   1      44.104  21.212  24.899  1.00  0.00     0.022 A 
BRANCH  69  72
ATOM     72  S   UNL A   1      42.560  19.214  25.953  1.00  0.00     0.127 S 
ATOM     73  O   UNL A   1      43.461  18.485  25.060  1.00  0.00    -0.237 OA
ATOM     74  O   UNL A   1      42.633  18.808  27.357  1.00  0.00    -0.237 OA
ATOM     75  O   UNL A   1      41.205  19.388  25.443  1.00  0.00    -0.744 OA
ENDBRANCH  69  72
ENDBRANCH  51  65
BRANCH  52  76
ATOM     76  C   UNL A   1      41.745  31.301  31.735  1.00  0.00     0.023 A 
ATOM     77  C   UNL A   1      41.333  32.582  31.294  1.00  0.00     0.012 A 
ATOM     78  C   UNL A   1      40.826  30.499  32.436  1.00  0.00     0.148 A 
ATOM     79  C   UNL A   1      40.004  32.992  31.416  1.00  0.00     0.002 A 
ATOM     80  C   UNL A   1      39.501  30.917  32.557  1.00  0.00     0.091 A 
ATOM     81  F   UNL A   1      41.233  29.312  32.900  1.00  0.00    -0.205 F 
ATOM     82  C   UNL A   1      39.080  32.142  32.013  1.00  0.00     0.022 A 
BRANCH  80  83
ATOM     83  S   UNL A   1      38.251  29.847  33.285  1.00  0.00     0.127 S 
ATOM     84  O   UNL A   1      37.037  30.331  32.633  1.00  0.00    -0.237 OA
ATOM     85  O   UNL A   1      38.686  28.517  32.864  1.00  0.00    -0.237 OA
ATOM     86  O   UNL A   1      38.357  30.081  34.717  1.00  0.00    -0.744 OA
ENDBRANCH  80  83
ENDBRANCH  52  76
BRANCH  64  87
ATOM     87  C   UNL A   1      46.052  25.680  32.789  1.00  0.00     0.023 A 
ATOM     88  C   UNL A   1      47.429  25.552  33.065  1.00  0.00     0.012 A 
ATOM     89  C   UNL A   1      45.168  24.957  33.630  1.00  0.00     0.148 A 
ATOM     90  C   UNL A   1      47.911  24.695  34.060  1.00  0.00     0.002 A 
ATOM     91  C   UNL A   1      45.648  24.193  34.693  1.00  0.00     0.091 A 
ATOM     92  F   UNL A   1      43.848  24.993  33.395  1.00  0.00    -0.205 F 
ATOM     93  C   UNL A   1      47.020  24.030  34.889  1.00  0.00     0.022 A 
BRANCH  91  94
ATOM     94  S   UNL A   1      44.526  23.528  35.931  1.00  0.00     0.127 S 
ATOM     95  O   UNL A   1      43.706  22.612  35.141  1.00  0.00    -0.237 OA
ATOM     96  O   UNL A   1      45.438  22.870  36.869  1.00  0.00    -0.237 OA
ATOM     97  O   UNL A   1      43.846  24.692  36.482  1.00  0.00    -0.744 OA
ENDBRANCH  91  94
ENDBRANCH  64  87
ENDBRANCH  38  39
ENDBRANCH  30  33
ENDBRANCH  28  29
ENDBRANCH  27  28
ENDBRANCH   1  27
TORSDOF 18
ENDMDL
