MODEL 1
REMARK VINA RESULT:     -12.6      0.000      0.000
REMARK SMILES C[C@@H](C(=O)NCCCCNC(=O)c1ccc(-c2c3nc(c(-c4cccc(S(=O)(=O)[O-])c4F)c4ccc([nH]4)c(-c4cccc(S(=O)(=O)[O-])c4F)c4nc(c(-c5cccc(S(=O)(=O)[O-])c5F)c5ccc2[nH]5)C=C4)C=C3)cc1)c1ccc(Cc2ccoc2)cc1F
REMARK SMILES IDX 7 1 6 2 5 3 3 4 4 5 2 7 1 8 76 9 77 10 87 11 78 12 86 13
REMARK SMILES IDX 88 14 79 15 80 16 81 17 82 18 85 19 83 20 84 21 8 22 9 23
REMARK SMILES IDX 10 24 11 25 12 27 13 28 14 29 75 30 15 31 74 32 16 33 17 34
REMARK SMILES IDX 18 35 68 36 19 37 73 38 67 39 69 40 20 41 72 42 66 43 65 44
REMARK SMILES IDX 21 46 53 47 33 48 52 49 34 50 37 51 51 52 70 53 35 54 36 55
REMARK SMILES IDX 50 57 71 58 38 59 22 60 23 61 31 62 24 63 26 64 32 65 25 66
REMARK SMILES IDX 27 67 28 68 29 69 30 70 54 71 55 72 63 73 56 74 58 75 64 76
REMARK SMILES IDX 57 77 59 78 60 79 61 80 62 81 39 82 40 83 48 84 41 85 43 86
REMARK SMILES IDX 49 87 42 88 44 89 45 90 46 91 47 92
REMARK H PARENT 5 6 10 26 69 45 37 56
REMARK Flexibility Score: inf
ROOT
ATOM      1  C   UNL A   1      32.945  29.357  24.571  1.00  0.00     0.023 C 
ENDROOT
BRANCH   1   2
ATOM      2  C   UNL A   1      33.786  28.076  24.586  1.00  0.00     0.116 C 
BRANCH   2   3
ATOM      3  N   UNL A   1      33.940  27.555  23.242  1.00  0.00    -0.356 N 
ATOM      4  C   UNL A   1      33.394  26.440  22.669  1.00  0.00     0.227 C 
ATOM      5  O   UNL A   1      33.901  26.050  21.615  1.00  0.00    -0.274 OA
ATOM      6  H   UNL A   1      34.528  28.084  22.654  1.00  0.00     0.163 HD
BRANCH   4   7
ATOM      7  C   UNL A   1      32.190  25.740  23.333  1.00  0.00     0.108 C 
ATOM      8  C   UNL A   1      32.034  24.323  22.759  1.00  0.00     0.023 C 
BRANCH   7   9
ATOM      9  C   UNL A   1      30.901  26.560  23.220  1.00  0.00    -0.000 A 
ATOM     10  C   UNL A   1      30.780  27.662  22.361  1.00  0.00     0.008 A 
ATOM     11  C   UNL A   1      29.771  26.217  23.976  1.00  0.00     0.127 A 
ATOM     12  C   UNL A   1      29.600  28.406  22.297  1.00  0.00     0.004 A 
ATOM     13  C   UNL A   1      28.606  26.992  23.958  1.00  0.00     0.043 A 
ATOM     14  F   UNL A   1      29.783  25.108  24.729  1.00  0.00    -0.207 F 
ATOM     15  C   UNL A   1      28.513  28.119  23.130  1.00  0.00    -0.041 A 
BRANCH  15  16
ATOM     16  C   UNL A   1      27.256  28.955  23.078  1.00  0.00     0.074 C 
BRANCH  16  17
ATOM     17  C   UNL A   1      27.621  30.351  22.674  1.00  0.00    -0.005 A 
ATOM     18  C   UNL A   1      27.958  30.859  21.381  1.00  0.00     0.046 A 
ATOM     19  C   UNL A   1      27.618  31.466  23.494  1.00  0.00     0.198 A 
ATOM     20  C   UNL A   1      28.155  32.212  21.519  1.00  0.00     0.195 A 
ATOM     21  O   UNL A   1      27.936  32.589  22.801  1.00  0.00    -0.472 OA
ENDBRANCH  16  17
ENDBRANCH  15  16
ENDBRANCH   7   9
ENDBRANCH   4   7
ENDBRANCH   2   3
ENDBRANCH   1   2
BRANCH   1  22
ATOM     22  C   UNL A   1      31.759  29.355  25.540  1.00  0.00     0.023 C 
BRANCH  22  23
ATOM     23  C   UNL A   1      32.039  29.984  26.898  1.00  0.00     0.116 C 
BRANCH  23  24
ATOM     24  N   UNL A   1      32.045  31.438  26.851  1.00  0.00    -0.352 N 
ATOM     25  C   UNL A   1      32.968  32.318  27.352  1.00  0.00     0.251 C 
ATOM     26  H   UNL A   1      31.276  31.849  26.391  1.00  0.00     0.163 HD
ATOM     27  O   UNL A   1      32.719  33.525  27.340  1.00  0.00    -0.269 OA
BRANCH  25  28
ATOM     28  C   UNL A   1      34.237  31.826  27.930  1.00  0.00     0.039 A 
ATOM     29  C   UNL A   1      35.206  32.760  28.299  1.00  0.00     0.014 A 
ATOM     30  C   UNL A   1      34.479  30.460  28.103  1.00  0.00     0.014 A 
ATOM     31  C   UNL A   1      36.396  32.326  28.883  1.00  0.00     0.010 A 
ATOM     32  C   UNL A   1      35.631  30.035  28.762  1.00  0.00     0.010 A 
ATOM     33  C   UNL A   1      36.608  30.962  29.149  1.00  0.00    -0.014 A 
BRANCH  33  34
ATOM     34  C   UNL A   1      37.840  30.517  29.850  1.00  0.00     0.031 A 
ATOM     35  C   UNL A   1      38.161  31.002  31.238  1.00  0.00     0.074 A 
ATOM     36  C   UNL A   1      38.694  29.691  29.212  1.00  0.00     0.049 A 
ATOM     37  N   UNL A   1      39.161  30.669  32.014  1.00  0.00    -0.248 NA
ATOM     38  C   UNL A   1      37.261  32.008  31.825  1.00  0.00     0.031 C 
ATOM     39  C   UNL A   1      38.551  29.233  27.827  1.00  0.00     0.029 A 
ATOM     40  N   UNL A   1      39.855  29.098  29.638  1.00  0.00    -0.354 N 
ATOM     41  C   UNL A   1      39.019  31.427  33.170  1.00  0.00     0.074 A 
ATOM     42  C   UNL A   1      37.865  32.277  32.974  1.00  0.00     0.031 C 
ATOM     43  C   UNL A   1      39.573  28.418  27.525  1.00  0.00     0.029 A 
ATOM     44  C   UNL A   1      40.455  28.312  28.682  1.00  0.00     0.049 A 
ATOM     45  H   UNL A   1      40.223  29.222  30.543  1.00  0.00     0.167 HD
ATOM     46  C   UNL A   1      39.755  31.393  34.306  1.00  0.00     0.034 A 
ATOM     47  C   UNL A   1      41.588  27.585  28.731  1.00  0.00     0.034 A 
ATOM     48  C   UNL A   1      40.890  30.530  34.506  1.00  0.00     0.049 A 
ATOM     49  C   UNL A   1      42.359  27.524  30.022  1.00  0.00     0.074 A 
ATOM     50  C   UNL A   1      41.663  30.372  35.643  1.00  0.00     0.029 A 
ATOM     51  N   UNL A   1      41.421  29.684  33.544  1.00  0.00    -0.354 N 
ATOM     52  N   UNL A   1      42.109  28.122  31.162  1.00  0.00    -0.248 NA
ATOM     53  C   UNL A   1      43.539  26.649  30.047  1.00  0.00     0.031 C 
ATOM     54  C   UNL A   1      42.675  29.448  35.360  1.00  0.00     0.029 A 
ATOM     55  C   UNL A   1      42.513  29.004  34.059  1.00  0.00     0.049 A 
ATOM     56  H   UNL A   1      41.073  29.581  32.629  1.00  0.00     0.167 HD
ATOM     57  C   UNL A   1      43.085  27.678  32.045  1.00  0.00     0.074 A 
ATOM     58  C   UNL A   1      43.904  26.730  31.319  1.00  0.00     0.031 C 
ATOM     59  C   UNL A   1      43.297  28.036  33.337  1.00  0.00     0.034 A 
BRANCH  46  60
ATOM     60  C   UNL A   1      39.314  32.270  35.451  1.00  0.00     0.023 A 
ATOM     61  C   UNL A   1      38.429  31.750  36.418  1.00  0.00     0.012 A 
ATOM     62  C   UNL A   1      39.820  33.574  35.611  1.00  0.00     0.148 A 
ATOM     63  C   UNL A   1      38.025  32.524  37.505  1.00  0.00     0.002 A 
ATOM     64  C   UNL A   1      39.450  34.323  36.724  1.00  0.00     0.091 A 
ATOM     65  F   UNL A   1      40.648  34.060  34.675  1.00  0.00    -0.205 F 
ATOM     66  C   UNL A   1      38.544  33.805  37.664  1.00  0.00     0.022 A 
BRANCH  64  67
ATOM     67  S   UNL A   1      40.121  35.955  37.067  1.00  0.00     0.127 S 
ATOM     68  O   UNL A   1      39.745  36.687  35.858  1.00  0.00    -0.237 OA
ATOM     69  O   UNL A   1      39.383  36.343  38.268  1.00  0.00    -0.237 OA
ATOM     70  O   UNL A   1      41.552  35.769  37.261  1.00  0.00    -0.744 OA
ENDBRANCH  64  67
ENDBRANCH  46  60
BRANCH  47  71
ATOM     71  C   UNL A   1      42.029  26.811  27.536  1.00  0.00     0.023 A 
ATOM     72  C   UNL A   1      42.714  27.461  26.492  1.00  0.00     0.012 A 
ATOM     73  C   UNL A   1      41.791  25.426  27.444  1.00  0.00     0.148 A 
ATOM     74  C   UNL A   1      43.114  26.755  25.356  1.00  0.00     0.002 A 
ATOM     75  C   UNL A   1      42.247  24.719  26.339  1.00  0.00     0.091 A 
ATOM     76  F   UNL A   1      41.129  24.827  28.443  1.00  0.00    -0.205 F 
ATOM     77  C   UNL A   1      42.891  25.383  25.285  1.00  0.00     0.022 A 
BRANCH  75  78
ATOM     78  S   UNL A   1      42.128  22.929  26.233  1.00  0.00     0.127 S 
ATOM     79  O   UNL A   1      42.900  22.509  27.399  1.00  0.00    -0.237 OA
ATOM     80  O   UNL A   1      40.684  22.716  26.340  1.00  0.00    -0.237 OA
ATOM     81  O   UNL A   1      42.689  22.577  24.937  1.00  0.00    -0.744 OA
ENDBRANCH  75  78
ENDBRANCH  47  71
BRANCH  59  82
ATOM     82  C   UNL A   1      44.450  27.380  34.053  1.00  0.00     0.023 A 
ATOM     83  C   UNL A   1      45.740  27.943  33.973  1.00  0.00     0.012 A 
ATOM     84  C   UNL A   1      44.250  26.223  34.831  1.00  0.00     0.148 A 
ATOM     85  C   UNL A   1      46.821  27.336  34.611  1.00  0.00     0.002 A 
ATOM     86  C   UNL A   1      45.323  25.653  35.508  1.00  0.00     0.091 A 
ATOM     87  F   UNL A   1      43.022  25.689  34.883  1.00  0.00    -0.205 F 
ATOM     88  C   UNL A   1      46.611  26.198  35.385  1.00  0.00     0.022 A 
BRANCH  86  89
ATOM     89  S   UNL A   1      45.128  24.244  36.605  1.00  0.00     0.127 S 
ATOM     90  O   UNL A   1      44.547  23.247  35.707  1.00  0.00    -0.237 OA
ATOM     91  O   UNL A   1      46.507  23.971  37.010  1.00  0.00    -0.237 OA
ATOM     92  O   UNL A   1      44.261  24.697  37.685  1.00  0.00    -0.744 OA
ENDBRANCH  86  89
ENDBRANCH  59  82
ENDBRANCH  33  34
ENDBRANCH  25  28
ENDBRANCH  23  24
ENDBRANCH  22  23
ENDBRANCH   1  22
TORSDOF 17
ENDMDL
MODEL 2
REMARK VINA RESULT:     -12.1      1.869      2.229
REMARK SMILES C[C@@H](C(=O)NCCCCNC(=O)c1ccc(-c2c3nc(c(-c4cccc(S(=O)(=O)[O-])c4F)c4ccc([nH]4)c(-c4cccc(S(=O)(=O)[O-])c4F)c4nc(c(-c5cccc(S(=O)(=O)[O-])c5F)c5ccc2[nH]5)C=C4)C=C3)cc1)c1ccc(Cc2ccoc2)cc1F
REMARK SMILES IDX 7 1 6 2 5 3 3 4 4 5 2 7 1 8 76 9 77 10 87 11 78 12 86 13
REMARK SMILES IDX 88 14 79 15 80 16 81 17 82 18 85 19 83 20 84 21 8 22 9 23
REMARK SMILES IDX 10 24 11 25 12 27 13 28 14 29 75 30 15 31 74 32 16 33 17 34
REMARK SMILES IDX 18 35 68 36 19 37 73 38 67 39 69 40 20 41 72 42 66 43 65 44
REMARK SMILES IDX 21 46 53 47 33 48 52 49 34 50 37 51 51 52 70 53 35 54 36 55
REMARK SMILES IDX 50 57 71 58 38 59 22 60 23 61 31 62 24 63 26 64 32 65 25 66
REMARK SMILES IDX 27 67 28 68 29 69 30 70 54 71 55 72 63 73 56 74 58 75 64 76
REMARK SMILES IDX 57 77 59 78 60 79 61 80 62 81 39 82 40 83 48 84 41 85 43 86
REMARK SMILES IDX 49 87 42 88 44 89 45 90 46 91 47 92
REMARK H PARENT 5 6 10 26 69 45 37 56
REMARK Flexibility Score: inf
ROOT
ATOM      1  C   UNL A   1      33.170  29.338  24.785  1.00  0.00     0.023 C 
ENDROOT
BRANCH   1   2
ATOM      2  C   UNL A   1      33.862  27.973  24.689  1.00  0.00     0.116 C 
BRANCH   2   3
ATOM      3  N   UNL A   1      33.954  27.548  23.307  1.00  0.00    -0.356 N 
ATOM      4  C   UNL A   1      33.264  26.570  22.646  1.00  0.00     0.227 C 
ATOM      5  O   UNL A   1      33.722  26.201  21.562  1.00  0.00    -0.274 OA
ATOM      6  H   UNL A   1      34.614  28.036  22.763  1.00  0.00     0.163 HD
BRANCH   4   7
ATOM      7  C   UNL A   1      31.969  25.991  23.252  1.00  0.00     0.108 C 
ATOM      8  C   UNL A   1      31.689  24.605  22.651  1.00  0.00     0.023 C 
BRANCH   7   9
ATOM      9  C   UNL A   1      30.778  26.943  23.105  1.00  0.00    -0.000 A 
ATOM     10  C   UNL A   1      30.808  28.066  22.265  1.00  0.00     0.008 A 
ATOM     11  C   UNL A   1      29.587  26.706  23.804  1.00  0.00     0.127 A 
ATOM     12  C   UNL A   1      29.715  28.930  22.169  1.00  0.00     0.004 A 
ATOM     13  C   UNL A   1      28.509  27.598  23.755  1.00  0.00     0.043 A 
ATOM     14  F   UNL A   1      29.451  25.589  24.533  1.00  0.00    -0.207 F 
ATOM     15  C   UNL A   1      28.569  28.744  22.949  1.00  0.00    -0.041 A 
BRANCH  15  16
ATOM     16  C   UNL A   1      27.409  29.706  22.863  1.00  0.00     0.074 C 
BRANCH  16  17
ATOM     17  C   UNL A   1      27.945  31.103  22.794  1.00  0.00    -0.005 A 
ATOM     18  C   UNL A   1      28.765  31.805  23.733  1.00  0.00     0.046 A 
ATOM     19  C   UNL A   1      27.812  31.978  21.730  1.00  0.00     0.198 A 
ATOM     20  C   UNL A   1      29.036  33.036  23.187  1.00  0.00     0.195 A 
ATOM     21  O   UNL A   1      28.471  33.142  21.962  1.00  0.00    -0.472 OA
ENDBRANCH  16  17
ENDBRANCH  15  16
ENDBRANCH   7   9
ENDBRANCH   4   7
ENDBRANCH   2   3
ENDBRANCH   1   2
BRANCH   1  22
ATOM     22  C   UNL A   1      32.065  29.422  25.842  1.00  0.00     0.023 C 
BRANCH  22  23
ATOM     23  C   UNL A   1      32.497  30.013  27.177  1.00  0.00     0.116 C 
BRANCH  23  24
ATOM     24  N   UNL A   1      32.579  31.465  27.146  1.00  0.00    -0.352 N 
ATOM     25  C   UNL A   1      33.562  32.288  27.629  1.00  0.00     0.251 C 
ATOM     26  H   UNL A   1      31.820  31.921  26.715  1.00  0.00     0.163 HD
ATOM     27  O   UNL A   1      33.378  33.506  27.639  1.00  0.00    -0.269 OA
BRANCH  25  28
ATOM     28  C   UNL A   1      34.820  31.722  28.162  1.00  0.00     0.039 A 
ATOM     29  C   UNL A   1      35.944  32.546  28.228  1.00  0.00     0.014 A 
ATOM     30  C   UNL A   1      34.900  30.393  28.588  1.00  0.00     0.014 A 
ATOM     31  C   UNL A   1      37.133  32.050  28.764  1.00  0.00     0.010 A 
ATOM     32  C   UNL A   1      36.062  29.926  29.198  1.00  0.00     0.010 A 
ATOM     33  C   UNL A   1      37.196  30.745  29.283  1.00  0.00    -0.014 A 
BRANCH  33  34
ATOM     34  C   UNL A   1      38.439  30.254  29.930  1.00  0.00     0.031 A 
ATOM     35  C   UNL A   1      38.843  30.732  31.299  1.00  0.00     0.074 A 
ATOM     36  C   UNL A   1      39.230  29.392  29.259  1.00  0.00     0.049 A 
ATOM     37  N   UNL A   1      39.863  30.361  32.031  1.00  0.00    -0.248 NA
ATOM     38  C   UNL A   1      38.011  31.774  31.921  1.00  0.00     0.031 C 
ATOM     39  C   UNL A   1      39.007  28.935  27.884  1.00  0.00     0.029 A 
ATOM     40  N   UNL A   1      40.385  28.755  29.635  1.00  0.00    -0.354 N 
ATOM     41  C   UNL A   1      39.804  31.129  33.187  1.00  0.00     0.074 A 
ATOM     42  C   UNL A   1      38.676  32.024  33.039  1.00  0.00     0.031 C 
ATOM     43  C   UNL A   1      39.981  28.079  27.541  1.00  0.00     0.029 A 
ATOM     44  C   UNL A   1      40.910  27.942  28.657  1.00  0.00     0.049 A 
ATOM     45  H   UNL A   1      40.798  28.868  30.521  1.00  0.00     0.167 HD
ATOM     46  C   UNL A   1      40.588  31.070  34.289  1.00  0.00     0.034 A 
ATOM     47  C   UNL A   1      42.014  27.171  28.659  1.00  0.00     0.034 A 
ATOM     48  C   UNL A   1      41.696  30.164  34.443  1.00  0.00     0.049 A 
ATOM     49  C   UNL A   1      42.839  27.084  29.914  1.00  0.00     0.074 A 
ATOM     50  C   UNL A   1      42.513  29.980  35.545  1.00  0.00     0.029 A 
ATOM     51  N   UNL A   1      42.149  29.294  33.462  1.00  0.00    -0.354 N 
ATOM     52  N   UNL A   1      42.666  27.697  31.061  1.00  0.00    -0.248 NA
ATOM     53  C   UNL A   1      43.984  26.164  29.891  1.00  0.00     0.031 C 
ATOM     54  C   UNL A   1      43.474  29.015  35.222  1.00  0.00     0.029 A 
ATOM     55  C   UNL A   1      43.236  28.573  33.931  1.00  0.00     0.049 A 
ATOM     56  H   UNL A   1      41.756  29.201  32.565  1.00  0.00     0.167 HD
ATOM     57  C   UNL A   1      43.662  27.217  31.902  1.00  0.00     0.074 A 
ATOM     58  C   UNL A   1      44.409  26.234  31.144  1.00  0.00     0.031 C 
ATOM     59  C   UNL A   1      43.947  27.571  33.180  1.00  0.00     0.034 A 
BRANCH  46  60
ATOM     60  C   UNL A   1      40.235  31.968  35.449  1.00  0.00     0.023 A 
ATOM     61  C   UNL A   1      40.943  33.175  35.627  1.00  0.00     0.012 A 
ATOM     62  C   UNL A   1      39.171  31.659  36.317  1.00  0.00     0.148 A 
ATOM     63  C   UNL A   1      40.623  34.043  36.670  1.00  0.00     0.002 A 
ATOM     64  C   UNL A   1      38.827  32.552  37.327  1.00  0.00     0.091 A 
ATOM     65  F   UNL A   1      38.519  30.501  36.145  1.00  0.00    -0.205 F 
ATOM     66  C   UNL A   1      39.558  33.737  37.513  1.00  0.00     0.022 A 
BRANCH  64  67
ATOM     67  S   UNL A   1      37.422  32.294  38.418  1.00  0.00     0.127 S 
ATOM     68  O   UNL A   1      37.903  32.893  39.663  1.00  0.00    -0.237 OA
ATOM     69  O   UNL A   1      36.368  33.053  37.745  1.00  0.00    -0.237 OA
ATOM     70  O   UNL A   1      37.205  30.855  38.463  1.00  0.00    -0.744 OA
ENDBRANCH  64  67
ENDBRANCH  46  60
BRANCH  47  71
ATOM     71  C   UNL A   1      42.370  26.375  27.450  1.00  0.00     0.023 A 
ATOM     72  C   UNL A   1      43.089  26.977  26.400  1.00  0.00     0.012 A 
ATOM     73  C   UNL A   1      42.015  25.017  27.349  1.00  0.00     0.148 A 
ATOM     74  C   UNL A   1      43.411  26.252  25.251  1.00  0.00     0.002 A 
ATOM     75  C   UNL A   1      42.392  24.285  26.230  1.00  0.00     0.091 A 
ATOM     76  F   UNL A   1      41.321  24.464  28.354  1.00  0.00    -0.205 F 
ATOM     77  C   UNL A   1      43.072  24.905  25.171  1.00  0.00     0.022 A 
BRANCH  75  78
ATOM     78  S   UNL A   1      42.122  22.513  26.109  1.00  0.00     0.127 S 
ATOM     79  O   UNL A   1      40.665  22.437  26.049  1.00  0.00    -0.237 OA
ATOM     80  O   UNL A   1      42.809  22.187  24.859  1.00  0.00    -0.237 OA
ATOM     81  O   UNL A   1      42.740  21.941  27.297  1.00  0.00    -0.744 OA
ENDBRANCH  75  78
ENDBRANCH  47  71
BRANCH  59  82
ATOM     82  C   UNL A   1      45.105  26.873  33.847  1.00  0.00     0.023 A 
ATOM     83  C   UNL A   1      44.881  25.700  34.597  1.00  0.00     0.012 A 
ATOM     84  C   UNL A   1      46.419  27.362  33.707  1.00  0.00     0.148 A 
ATOM     85  C   UNL A   1      45.938  25.055  35.238  1.00  0.00     0.002 A 
ATOM     86  C   UNL A   1      47.474  26.683  34.306  1.00  0.00     0.091 A 
ATOM     87  F   UNL A   1      46.613  28.488  33.007  1.00  0.00    -0.205 F 
ATOM     88  C   UNL A   1      47.234  25.540  35.086  1.00  0.00     0.022 A 
BRANCH  86  89
ATOM     89  S   UNL A   1      49.186  27.181  34.083  1.00  0.00     0.127 S 
ATOM     90  O   UNL A   1      49.869  26.346  35.070  1.00  0.00    -0.237 OA
ATOM     91  O   UNL A   1      49.439  26.811  32.691  1.00  0.00    -0.237 OA
ATOM     92  O   UNL A   1      49.220  28.615  34.342  1.00  0.00    -0.744 OA
ENDBRANCH  86  89
ENDBRANCH  59  82
ENDBRANCH  33  34
ENDBRANCH  25  28
ENDBRANCH  23  24
ENDBRANCH  22  23
ENDBRANCH   1  22
TORSDOF 17
ENDMDL
MODEL 3
REMARK VINA RESULT:     -12.0      1.553      7.701
REMARK SMILES C[C@@H](C(=O)NCCCCNC(=O)c1ccc(-c2c3nc(c(-c4cccc(S(=O)(=O)[O-])c4F)c4ccc([nH]4)c(-c4cccc(S(=O)(=O)[O-])c4F)c4nc(c(-c5cccc(S(=O)(=O)[O-])c5F)c5ccc2[nH]5)C=C4)C=C3)cc1)c1ccc(Cc2ccoc2)cc1F
REMARK SMILES IDX 7 1 6 2 5 3 3 4 4 5 2 7 1 8 76 9 77 10 87 11 78 12 86 13
REMARK SMILES IDX 88 14 79 15 80 16 81 17 82 18 85 19 83 20 84 21 8 22 9 23
REMARK SMILES IDX 10 24 11 25 12 27 13 28 14 29 75 30 15 31 74 32 16 33 17 34
REMARK SMILES IDX 18 35 68 36 19 37 73 38 67 39 69 40 20 41 72 42 66 43 65 44
REMARK SMILES IDX 21 46 53 47 33 48 52 49 34 50 37 51 51 52 70 53 35 54 36 55
REMARK SMILES IDX 50 57 71 58 38 59 22 60 23 61 31 62 24 63 26 64 32 65 25 66
REMARK SMILES IDX 27 67 28 68 29 69 30 70 54 71 55 72 63 73 56 74 58 75 64 76
REMARK SMILES IDX 57 77 59 78 60 79 61 80 62 81 39 82 40 83 48 84 41 85 43 86
REMARK SMILES IDX 49 87 42 88 44 89 45 90 46 91 47 92
REMARK H PARENT 5 6 10 26 69 45 37 56
REMARK Flexibility Score: inf
ROOT
ATOM      1  C   UNL A   1      33.268  29.384  24.866  1.00  0.00     0.023 C 
ENDROOT
BRANCH   1   2
ATOM      2  C   UNL A   1      33.737  27.926  24.786  1.00  0.00     0.116 C 
BRANCH   2   3
ATOM      3  N   UNL A   1      33.938  27.533  23.407  1.00  0.00    -0.356 N 
ATOM      4  C   UNL A   1      33.399  26.488  22.708  1.00  0.00     0.227 C 
ATOM      5  O   UNL A   1      33.943  26.191  21.642  1.00  0.00    -0.274 OA
ATOM      6  H   UNL A   1      34.558  28.103  22.896  1.00  0.00     0.163 HD
BRANCH   4   7
ATOM      7  C   UNL A   1      32.158  25.751  23.253  1.00  0.00     0.108 C 
ATOM      8  C   UNL A   1      32.006  24.398  22.542  1.00  0.00     0.023 C 
BRANCH   7   9
ATOM      9  C   UNL A   1      30.887  26.603  23.166  1.00  0.00    -0.000 A 
ATOM     10  C   UNL A   1      30.807  27.761  22.380  1.00  0.00     0.008 A 
ATOM     11  C   UNL A   1      29.733  26.231  23.869  1.00  0.00     0.127 A 
ATOM     12  C   UNL A   1      29.643  28.530  22.339  1.00  0.00     0.004 A 
ATOM     13  C   UNL A   1      28.582  27.029  23.876  1.00  0.00     0.043 A 
ATOM     14  F   UNL A   1      29.706  25.075  24.547  1.00  0.00    -0.207 F 
ATOM     15  C   UNL A   1      28.530  28.211  23.125  1.00  0.00    -0.041 A 
BRANCH  15  16
ATOM     16  C   UNL A   1      27.291  29.072  23.100  1.00  0.00     0.074 C 
BRANCH  16  17
ATOM     17  C   UNL A   1      27.676  30.461  22.690  1.00  0.00    -0.005 A 
ATOM     18  C   UNL A   1      28.013  30.960  21.393  1.00  0.00     0.046 A 
ATOM     19  C   UNL A   1      27.696  31.578  23.507  1.00  0.00     0.198 A 
ATOM     20  C   UNL A   1      28.234  32.310  21.527  1.00  0.00     0.195 A 
ATOM     21  O   UNL A   1      28.028  32.694  22.809  1.00  0.00    -0.472 OA
ENDBRANCH  16  17
ENDBRANCH  15  16
ENDBRANCH   7   9
ENDBRANCH   4   7
ENDBRANCH   2   3
ENDBRANCH   1   2
BRANCH   1  22
ATOM     22  C   UNL A   1      31.855  29.571  25.425  1.00  0.00     0.023 C 
BRANCH  22  23
ATOM     23  C   UNL A   1      31.791  30.209  26.807  1.00  0.00     0.116 C 
BRANCH  23  24
ATOM     24  N   UNL A   1      31.862  31.661  26.756  1.00  0.00    -0.352 N 
ATOM     25  C   UNL A   1      32.802  32.502  27.292  1.00  0.00     0.251 C 
ATOM     26  H   UNL A   1      31.130  32.103  26.267  1.00  0.00     0.163 HD
ATOM     27  O   UNL A   1      32.607  33.718  27.267  1.00  0.00    -0.269 OA
BRANCH  25  28
ATOM     28  C   UNL A   1      34.025  31.957  27.918  1.00  0.00     0.039 A 
ATOM     29  C   UNL A   1      35.077  32.832  28.195  1.00  0.00     0.014 A 
ATOM     30  C   UNL A   1      34.144  30.599  28.228  1.00  0.00     0.014 A 
ATOM     31  C   UNL A   1      36.227  32.352  28.823  1.00  0.00     0.010 A 
ATOM     32  C   UNL A   1      35.258  30.139  28.929  1.00  0.00     0.010 A 
ATOM     33  C   UNL A   1      36.317  31.008  29.224  1.00  0.00    -0.014 A 
BRANCH  33  34
ATOM     34  C   UNL A   1      37.508  30.526  29.970  1.00  0.00     0.031 A 
ATOM     35  C   UNL A   1      38.473  29.554  29.346  1.00  0.00     0.074 A 
ATOM     36  C   UNL A   1      37.701  30.945  31.237  1.00  0.00     0.049 A 
ATOM     37  N   UNL A   1      39.591  29.079  29.834  1.00  0.00    -0.248 NA
ATOM     38  C   UNL A   1      38.133  29.028  28.014  1.00  0.00     0.031 C 
ATOM     39  C   UNL A   1      36.783  31.802  31.992  1.00  0.00     0.029 A 
ATOM     40  N   UNL A   1      38.725  30.702  32.116  1.00  0.00    -0.354 N 
ATOM     41  C   UNL A   1      40.080  28.194  28.880  1.00  0.00     0.074 A 
ATOM     42  C   UNL A   1      39.111  28.158  27.806  1.00  0.00     0.031 C 
ATOM     43  C   UNL A   1      37.295  32.027  33.213  1.00  0.00     0.029 A 
ATOM     44  C   UNL A   1      38.561  31.314  33.337  1.00  0.00     0.049 A 
ATOM     45  H   UNL A   1      39.504  30.142  31.894  1.00  0.00     0.167 HD
ATOM     46  C   UNL A   1      41.245  27.504  28.877  1.00  0.00     0.034 A 
ATOM     47  C   UNL A   1      39.343  31.305  34.433  1.00  0.00     0.034 A 
ATOM     48  C   UNL A   1      42.217  27.558  29.938  1.00  0.00     0.049 A 
ATOM     49  C   UNL A   1      40.657  30.573  34.385  1.00  0.00     0.074 A 
ATOM     50  C   UNL A   1      43.458  26.949  30.002  1.00  0.00     0.029 A 
ATOM     51  N   UNL A   1      42.055  28.257  31.125  1.00  0.00    -0.354 N 
ATOM     52  N   UNL A   1      41.178  29.877  33.403  1.00  0.00    -0.248 NA
ATOM     53  C   UNL A   1      41.511  30.666  35.577  1.00  0.00     0.031 C 
ATOM     54  C   UNL A   1      44.036  27.260  31.237  1.00  0.00     0.029 A 
ATOM     55  C   UNL A   1      43.171  28.091  31.930  1.00  0.00     0.049 A 
ATOM     56  H   UNL A   1      41.264  28.792  31.361  1.00  0.00     0.167 HD
ATOM     57  C   UNL A   1      42.430  29.470  33.850  1.00  0.00     0.074 A 
ATOM     58  C   UNL A   1      42.603  30.033  35.173  1.00  0.00     0.031 C 
ATOM     59  C   UNL A   1      43.346  28.686  33.229  1.00  0.00     0.034 A 
BRANCH  46  60
ATOM     60  C   UNL A   1      41.566  26.680  27.656  1.00  0.00     0.023 A 
ATOM     61  C   UNL A   1      42.113  27.312  26.520  1.00  0.00     0.012 A 
ATOM     62  C   UNL A   1      41.394  25.282  27.649  1.00  0.00     0.148 A 
ATOM     63  C   UNL A   1      42.449  26.575  25.385  1.00  0.00     0.002 A 
ATOM     64  C   UNL A   1      41.775  24.548  26.531  1.00  0.00     0.091 A 
ATOM     65  F   UNL A   1      40.858  24.698  28.730  1.00  0.00    -0.205 F 
ATOM     66  C   UNL A   1      42.291  25.193  25.395  1.00  0.00     0.022 A 
BRANCH  64  67
ATOM     67  S   UNL A   1      41.689  22.753  26.468  1.00  0.00     0.127 S 
ATOM     68  O   UNL A   1      42.366  22.470  25.203  1.00  0.00    -0.237 OA
ATOM     69  O   UNL A   1      42.442  22.369  27.662  1.00  0.00    -0.237 OA
ATOM     70  O   UNL A   1      40.273  22.416  26.505  1.00  0.00    -0.744 OA
ENDBRANCH  64  67
ENDBRANCH  46  60
BRANCH  47  71
ATOM     71  C   UNL A   1      38.930  32.061  35.650  1.00  0.00     0.023 A 
ATOM     72  C   UNL A   1      39.203  33.440  35.746  1.00  0.00     0.012 A 
ATOM     73  C   UNL A   1      38.250  31.421  36.702  1.00  0.00     0.148 A 
ATOM     74  C   UNL A   1      38.843  34.158  36.887  1.00  0.00     0.002 A 
ATOM     75  C   UNL A   1      37.839  32.155  37.808  1.00  0.00     0.091 A 
ATOM     76  F   UNL A   1      38.009  30.107  36.597  1.00  0.00    -0.205 F 
ATOM     77  C   UNL A   1      38.153  33.519  37.913  1.00  0.00     0.022 A 
BRANCH  75  78
ATOM     78  S   UNL A   1      36.822  31.443  39.106  1.00  0.00     0.127 S 
ATOM     79  O   UNL A   1      36.648  30.073  38.631  1.00  0.00    -0.237 OA
ATOM     80  O   UNL A   1      37.688  31.583  40.279  1.00  0.00    -0.237 OA
ATOM     81  O   UNL A   1      35.618  32.259  39.152  1.00  0.00    -0.744 OA
ENDBRANCH  75  78
ENDBRANCH  47  71
BRANCH  59  82
ATOM     82  C   UNL A   1      44.631  28.410  33.969  1.00  0.00     0.023 A 
ATOM     83  C   UNL A   1      45.730  29.279  33.819  1.00  0.00     0.012 A 
ATOM     84  C   UNL A   1      44.739  27.305  34.836  1.00  0.00     0.148 A 
ATOM     85  C   UNL A   1      46.932  29.024  34.478  1.00  0.00     0.002 A 
ATOM     86  C   UNL A   1      45.923  27.087  35.532  1.00  0.00     0.091 A 
ATOM     87  F   UNL A   1      43.691  26.477  34.954  1.00  0.00    -0.205 F 
ATOM     88  C   UNL A   1      47.026  27.936  35.341  1.00  0.00     0.022 A 
BRANCH  86  89
ATOM     89  S   UNL A   1      46.101  25.767  36.736  1.00  0.00     0.127 S 
ATOM     90  O   UNL A   1      45.978  24.578  35.895  1.00  0.00    -0.237 OA
ATOM     91  O   UNL A   1      47.445  26.005  37.264  1.00  0.00    -0.237 OA
ATOM     92  O   UNL A   1      45.030  25.964  37.705  1.00  0.00    -0.744 OA
ENDBRANCH  86  89
ENDBRANCH  59  82
ENDBRANCH  33  34
ENDBRANCH  25  28
ENDBRANCH  23  24
ENDBRANCH  22  23
ENDBRANCH   1  22
TORSDOF 17
ENDMDL
