MODEL 1
REMARK VINA RESULT:     -10.1      0.000      0.000
REMARK SMILES C[NH2+]C[C@H](C)C(=O)NC[C@](C)(O)C(=O)NCCCCNC(=O)c1ccc(-c2c3nc(c(-c4cccc(S(=O)(=O)[O-])c4F)c4ccc([nH]4)c(-c4cccc(S(=O)(=O)[O-])c4F)c4nc(c(-c5cccc(S(=O)(=O)[O-])c5F)c5ccc2[nH]5)C=C4)C=C3)cc1
REMARK SMILES IDX 16 1 15 2 13 3 14 4 10 6 11 7 9 8 8 9 6 10 7 11 4 13 5 14
REMARK SMILES IDX 3 15 2 16 1 17 12 20 17 22 18 23 19 24 20 25 21 26 22 28
REMARK SMILES IDX 23 29 24 30 85 31 25 32 84 33 26 34 27 35 28 36 78 37 29 38
REMARK SMILES IDX 83 39 77 40 79 41 30 42 82 43 76 44 75 45 31 47 63 48 43 49
REMARK SMILES IDX 62 50 44 51 47 52 61 53 80 54 45 55 46 56 60 58 81 59 48 60
REMARK SMILES IDX 32 61 33 62 41 63 34 64 36 65 42 66 35 67 37 68 38 69 39 70
REMARK SMILES IDX 40 71 64 72 65 73 73 74 66 75 68 76 74 77 67 78 69 79 70 80
REMARK SMILES IDX 71 81 72 82 49 83 50 84 58 85 51 86 53 87 59 88 52 89 54 90
REMARK SMILES IDX 55 91 56 92 57 93
REMARK H PARENT 15 5 8 12 2 18 2 19 12 21 20 27 79 46 47 57
REMARK Flexibility Score: inf
ROOT
ATOM      1  C   UNL A   1      34.448  23.529  23.332  1.00  0.00     0.116 C 
ENDROOT
BRANCH   1   2
ATOM      2  N   UNL A   1      34.176  24.786  22.660  1.00  0.00    -0.354 N 
ATOM      3  C   UNL A   1      33.061  25.578  22.683  1.00  0.00     0.253 C 
ATOM      4  O   UNL A   1      33.144  26.675  22.121  1.00  0.00    -0.272 OA
ATOM      5  H   UNL A   1      34.911  25.122  22.098  1.00  0.00     0.163 HD
BRANCH   3   6
ATOM      6  C   UNL A   1      31.743  25.145  23.413  1.00  0.00     0.157 C 
ATOM      7  C   UNL A   1      30.760  26.333  23.321  1.00  0.00     0.055 C 
BRANCH   6   8
ATOM      8  C   UNL A   1      31.959  24.844  24.919  1.00  0.00     0.160 C 
BRANCH   8   9
ATOM      9  N   UNL A   1      31.098  23.813  25.457  1.00  0.00    -0.352 N 
ATOM     10  C   UNL A   1      31.407  22.541  25.829  1.00  0.00     0.228 C 
ATOM     11  O   UNL A   1      30.488  21.721  25.885  1.00  0.00    -0.275 OA
ATOM     12  H   UNL A   1      30.154  24.068  25.570  1.00  0.00     0.163 HD
BRANCH  10  13
ATOM     13  C   UNL A   1      32.817  22.176  26.274  1.00  0.00     0.130 C 
ATOM     14  C   UNL A   1      33.073  22.453  27.757  1.00  0.00     0.024 C 
BRANCH  13  15
ATOM     15  C   UNL A   1      33.219  20.742  25.855  1.00  0.00     0.273 C 
BRANCH  15  16
ATOM     16  N   UNL A   1      32.908  20.326  24.480  1.00  0.00    -0.348 N 
ATOM     17  C   UNL A   1      32.503  18.928  24.385  1.00  0.00     0.330 C 
ATOM     18  H   UNL A   1      32.148  20.908  24.128  1.00  0.00     0.346 HD
ATOM     19  H   UNL A   1      33.760  20.434  23.929  1.00  0.00     0.346 HD
ENDBRANCH  15  16
ENDBRANCH  13  15
ENDBRANCH  10  13
ENDBRANCH   8   9
ENDBRANCH   6   8
BRANCH   6  20
ATOM     20  O   UNL A   1      31.084  24.009  22.844  1.00  0.00    -0.378 OA
ATOM     21  H   UNL A   1      30.857  24.195  21.919  1.00  0.00     0.212 HD
ENDBRANCH   6  20
ENDBRANCH   3   6
ENDBRANCH   1   2
BRANCH   1  22
ATOM     22  C   UNL A   1      35.897  23.371  23.770  1.00  0.00     0.023 C 
BRANCH  22  23
ATOM     23  C   UNL A   1      36.328  21.940  24.095  1.00  0.00     0.023 C 
BRANCH  23  24
ATOM     24  C   UNL A   1      36.755  21.680  25.538  1.00  0.00     0.116 C 
BRANCH  24  25
ATOM     25  N   UNL A   1      37.830  20.703  25.656  1.00  0.00    -0.352 N 
ATOM     26  C   UNL A   1      39.134  20.879  26.056  1.00  0.00     0.251 C 
ATOM     27  H   UNL A   1      37.586  19.780  25.414  1.00  0.00     0.163 HD
ATOM     28  O   UNL A   1      39.931  19.947  25.979  1.00  0.00    -0.269 OA
BRANCH  26  29
ATOM     29  C   UNL A   1      39.584  22.200  26.543  1.00  0.00     0.039 A 
ATOM     30  C   UNL A   1      40.566  22.257  27.535  1.00  0.00     0.014 A 
ATOM     31  C   UNL A   1      39.061  23.378  26.006  1.00  0.00     0.014 A 
ATOM     32  C   UNL A   1      41.084  23.495  27.926  1.00  0.00     0.010 A 
ATOM     33  C   UNL A   1      39.637  24.603  26.336  1.00  0.00     0.010 A 
ATOM     34  C   UNL A   1      40.655  24.676  27.299  1.00  0.00    -0.014 A 
BRANCH  34  35
ATOM     35  C   UNL A   1      41.276  25.989  27.618  1.00  0.00     0.031 A 
ATOM     36  C   UNL A   1      42.701  26.274  27.223  1.00  0.00     0.074 A 
ATOM     37  C   UNL A   1      40.587  26.893  28.343  1.00  0.00     0.049 A 
ATOM     38  N   UNL A   1      43.422  27.341  27.455  1.00  0.00    -0.248 NA
ATOM     39  C   UNL A   1      43.418  25.213  26.497  1.00  0.00     0.031 C 
ATOM     40  C   UNL A   1      39.232  26.705  28.864  1.00  0.00     0.029 A 
ATOM     41  N   UNL A   1      40.941  28.143  28.790  1.00  0.00    -0.354 N 
ATOM     42  C   UNL A   1      44.684  27.067  26.939  1.00  0.00     0.074 A 
ATOM     43  C   UNL A   1      44.641  25.720  26.414  1.00  0.00     0.031 C 
ATOM     44  C   UNL A   1      38.867  27.800  29.552  1.00  0.00     0.029 A 
ATOM     45  C   UNL A   1      39.969  28.756  29.546  1.00  0.00     0.049 A 
ATOM     46  H   UNL A   1      41.810  28.561  28.587  1.00  0.00     0.167 HD
ATOM     47  C   UNL A   1      45.771  27.873  26.877  1.00  0.00     0.034 A 
ATOM     48  C   UNL A   1      39.965  29.952  30.168  1.00  0.00     0.034 A 
ATOM     49  C   UNL A   1      45.799  29.227  27.359  1.00  0.00     0.049 A 
ATOM     50  C   UNL A   1      41.168  30.847  30.040  1.00  0.00     0.074 A 
ATOM     51  C   UNL A   1      46.821  30.155  27.259  1.00  0.00     0.029 A 
ATOM     52  N   UNL A   1      44.761  29.849  28.038  1.00  0.00    -0.354 N 
ATOM     53  N   UNL A   1      42.292  30.634  29.401  1.00  0.00    -0.248 NA
ATOM     54  C   UNL A   1      41.087  32.165  30.687  1.00  0.00     0.031 C 
ATOM     55  C   UNL A   1      46.409  31.330  27.897  1.00  0.00     0.029 A 
ATOM     56  C   UNL A   1      45.121  31.144  28.369  1.00  0.00     0.049 A 
ATOM     57  H   UNL A   1      43.896  29.430  28.250  1.00  0.00     0.167 HD
ATOM     58  C   UNL A   1      43.036  31.801  29.536  1.00  0.00     0.074 A 
ATOM     59  C   UNL A   1      42.224  32.727  30.298  1.00  0.00     0.031 C 
ATOM     60  C   UNL A   1      44.284  32.076  29.082  1.00  0.00     0.034 A 
BRANCH  47  61
ATOM     61  C   UNL A   1      47.008  27.328  26.212  1.00  0.00     0.023 A 
ATOM     62  C   UNL A   1      47.229  27.580  24.842  1.00  0.00     0.012 A 
ATOM     63  C   UNL A   1      47.977  26.618  26.948  1.00  0.00     0.148 A 
ATOM     64  C   UNL A   1      48.375  27.105  24.207  1.00  0.00     0.002 A 
ATOM     65  C   UNL A   1      49.139  26.187  26.317  1.00  0.00     0.091 A 
ATOM     66  F   UNL A   1      47.743  26.370  28.244  1.00  0.00    -0.205 F 
ATOM     67  C   UNL A   1      49.334  26.418  24.945  1.00  0.00     0.022 A 
BRANCH  65  68
ATOM     68  S   UNL A   1      50.474  25.367  27.198  1.00  0.00     0.127 S 
ATOM     69  O   UNL A   1      50.856  26.389  28.172  1.00  0.00    -0.237 OA
ATOM     70  O   UNL A   1      49.797  24.203  27.770  1.00  0.00    -0.237 OA
ATOM     71  O   UNL A   1      51.482  25.052  26.196  1.00  0.00    -0.744 OA
ENDBRANCH  65  68
ENDBRANCH  47  61
BRANCH  48  72
ATOM     72  C   UNL A   1      38.752  30.405  30.906  1.00  0.00     0.023 A 
ATOM     73  C   UNL A   1      38.626  30.106  32.278  1.00  0.00     0.012 A 
ATOM     74  C   UNL A   1      37.737  31.145  30.270  1.00  0.00     0.148 A 
ATOM     75  C   UNL A   1      37.497  30.506  32.993  1.00  0.00     0.002 A 
ATOM     76  C   UNL A   1      36.642  31.588  31.002  1.00  0.00     0.091 A 
ATOM     77  F   UNL A   1      37.870  31.410  28.962  1.00  0.00    -0.205 F 
ATOM     78  C   UNL A   1      36.510  31.255  32.359  1.00  0.00     0.022 A 
BRANCH  76  79
ATOM     79  S   UNL A   1      35.388  32.667  30.302  1.00  0.00     0.127 S 
ATOM     80  O   UNL A   1      36.157  33.875  30.014  1.00  0.00    -0.237 OA
ATOM     81  O   UNL A   1      34.961  31.911  29.123  1.00  0.00    -0.237 OA
ATOM     82  O   UNL A   1      34.364  32.799  31.330  1.00  0.00    -0.744 OA
ENDBRANCH  76  79
ENDBRANCH  48  72
BRANCH  60  83
ATOM     83  C   UNL A   1      44.843  33.447  29.361  1.00  0.00     0.023 A 
ATOM     84  C   UNL A   1      45.503  33.702  30.580  1.00  0.00     0.012 A 
ATOM     85  C   UNL A   1      44.772  34.463  28.387  1.00  0.00     0.148 A 
ATOM     86  C   UNL A   1      46.051  34.958  30.839  1.00  0.00     0.002 A 
ATOM     87  C   UNL A   1      45.365  35.696  28.634  1.00  0.00     0.091 A 
ATOM     88  F   UNL A   1      44.124  34.208  27.242  1.00  0.00    -0.205 F 
ATOM     89  C   UNL A   1      45.993  35.950  29.863  1.00  0.00     0.022 A 
BRANCH  87  90
ATOM     90  S   UNL A   1      45.423  36.998  27.397  1.00  0.00     0.127 S 
ATOM     91  O   UNL A   1      46.112  36.332  26.294  1.00  0.00    -0.237 OA
ATOM     92  O   UNL A   1      44.004  37.264  27.158  1.00  0.00    -0.237 OA
ATOM     93  O   UNL A   1      46.146  38.103  28.014  1.00  0.00    -0.744 OA
ENDBRANCH  87  90
ENDBRANCH  60  83
ENDBRANCH  34  35
ENDBRANCH  26  29
ENDBRANCH  24  25
ENDBRANCH  23  24
ENDBRANCH  22  23
ENDBRANCH   1  22
TORSDOF 20
ENDMDL
MODEL 2
REMARK VINA RESULT:      -9.7      5.359      8.310
REMARK SMILES C[NH2+]C[C@H](C)C(=O)NC[C@](C)(O)C(=O)NCCCCNC(=O)c1ccc(-c2c3nc(c(-c4cccc(S(=O)(=O)[O-])c4F)c4ccc([nH]4)c(-c4cccc(S(=O)(=O)[O-])c4F)c4nc(c(-c5cccc(S(=O)(=O)[O-])c5F)c5ccc2[nH]5)C=C4)C=C3)cc1
REMARK SMILES IDX 16 1 15 2 13 3 14 4 10 6 11 7 9 8 8 9 6 10 7 11 4 13 5 14
REMARK SMILES IDX 3 15 2 16 1 17 12 20 17 22 18 23 19 24 20 25 21 26 22 28
REMARK SMILES IDX 23 29 24 30 85 31 25 32 84 33 26 34 27 35 28 36 78 37 29 38
REMARK SMILES IDX 83 39 77 40 79 41 30 42 82 43 76 44 75 45 31 47 63 48 43 49
REMARK SMILES IDX 62 50 44 51 47 52 61 53 80 54 45 55 46 56 60 58 81 59 48 60
REMARK SMILES IDX 32 61 33 62 41 63 34 64 36 65 42 66 35 67 37 68 38 69 39 70
REMARK SMILES IDX 40 71 64 72 65 73 73 74 66 75 68 76 74 77 67 78 69 79 70 80
REMARK SMILES IDX 71 81 72 82 49 83 50 84 58 85 51 86 53 87 59 88 52 89 54 90
REMARK SMILES IDX 55 91 56 92 57 93
REMARK H PARENT 15 5 8 12 2 18 2 19 12 21 20 27 79 46 47 57
REMARK Flexibility Score: inf
ROOT
ATOM      1  C   UNL A   1      32.288  29.595  25.345  1.00  0.00     0.116 C 
ENDROOT
BRANCH   1   2
ATOM      2  N   UNL A   1      32.672  28.797  24.197  1.00  0.00    -0.354 N 
ATOM      3  C   UNL A   1      32.618  27.444  24.003  1.00  0.00     0.253 C 
ATOM      4  O   UNL A   1      32.884  27.031  22.869  1.00  0.00    -0.272 OA
ATOM      5  H   UNL A   1      33.026  29.310  23.436  1.00  0.00     0.163 HD
BRANCH   3   6
ATOM      6  C   UNL A   1      32.209  26.451  25.145  1.00  0.00     0.157 C 
ATOM      7  C   UNL A   1      33.420  26.322  26.095  1.00  0.00     0.055 C 
BRANCH   6   8
ATOM      8  C   UNL A   1      31.886  25.029  24.617  1.00  0.00     0.160 C 
BRANCH   8   9
ATOM      9  N   UNL A   1      30.995  24.261  25.461  1.00  0.00    -0.352 N 
ATOM     10  C   UNL A   1      31.200  23.055  26.055  1.00  0.00     0.228 C 
ATOM     11  O   UNL A   1      30.207  22.406  26.393  1.00  0.00    -0.275 OA
ATOM     12  H   UNL A   1      30.116  24.671  25.629  1.00  0.00     0.163 HD
BRANCH  10  13
ATOM     13  C   UNL A   1      32.606  22.578  26.396  1.00  0.00     0.130 C 
ATOM     14  C   UNL A   1      32.892  22.565  27.899  1.00  0.00     0.024 C 
BRANCH  13  15
ATOM     15  C   UNL A   1      32.961  21.238  25.708  1.00  0.00     0.273 C 
BRANCH  15  16
ATOM     16  N   UNL A   1      34.206  20.575  26.119  1.00  0.00    -0.348 N 
ATOM     17  C   UNL A   1      35.115  20.327  25.005  1.00  0.00     0.330 C 
ATOM     18  H   UNL A   1      34.682  21.168  26.799  1.00  0.00     0.346 HD
ATOM     19  H   UNL A   1      33.954  19.668  26.512  1.00  0.00     0.346 HD
ENDBRANCH  15  16
ENDBRANCH  13  15
ENDBRANCH  10  13
ENDBRANCH   8   9
ENDBRANCH   6   8
BRANCH   6  20
ATOM     20  O   UNL A   1      31.094  26.871  25.938  1.00  0.00    -0.378 OA
ATOM     21  H   UNL A   1      30.654  26.094  26.317  1.00  0.00     0.212 HD
ENDBRANCH   6  20
ENDBRANCH   3   6
ENDBRANCH   1   2
BRANCH   1  22
ATOM     22  C   UNL A   1      31.099  30.511  25.084  1.00  0.00     0.023 C 
BRANCH  22  23
ATOM     23  C   UNL A   1      30.960  31.690  26.049  1.00  0.00     0.023 C 
BRANCH  23  24
ATOM     24  C   UNL A   1      32.206  32.043  26.858  1.00  0.00     0.116 C 
BRANCH  24  25
ATOM     25  N   UNL A   1      32.263  33.446  27.248  1.00  0.00    -0.352 N 
ATOM     26  C   UNL A   1      33.176  34.098  28.044  1.00  0.00     0.251 C 
ATOM     27  H   UNL A   1      31.542  34.011  26.887  1.00  0.00     0.163 HD
ATOM     28  O   UNL A   1      32.991  35.272  28.356  1.00  0.00    -0.269 OA
BRANCH  26  29
ATOM     29  C   UNL A   1      34.359  33.374  28.555  1.00  0.00     0.039 A 
ATOM     30  C   UNL A   1      35.610  33.993  28.494  1.00  0.00     0.014 A 
ATOM     31  C   UNL A   1      34.233  32.101  29.116  1.00  0.00     0.014 A 
ATOM     32  C   UNL A   1      36.719  33.371  29.074  1.00  0.00     0.010 A 
ATOM     33  C   UNL A   1      35.321  31.523  29.766  1.00  0.00     0.010 A 
ATOM     34  C   UNL A   1      36.576  32.150  29.753  1.00  0.00    -0.014 A 
BRANCH  34  35
ATOM     35  C   UNL A   1      37.718  31.531  30.476  1.00  0.00     0.031 A 
ATOM     36  C   UNL A   1      38.565  30.481  29.807  1.00  0.00     0.074 A 
ATOM     37  C   UNL A   1      37.939  31.847  31.768  1.00  0.00     0.049 A 
ATOM     38  N   UNL A   1      39.570  29.800  30.294  1.00  0.00    -0.248 NA
ATOM     39  C   UNL A   1      38.222  30.130  28.419  1.00  0.00     0.031 C 
ATOM     40  C   UNL A   1      37.137  32.781  32.560  1.00  0.00     0.029 A 
ATOM     41  N   UNL A   1      38.889  31.397  32.652  1.00  0.00    -0.354 N 
ATOM     42  C   UNL A   1      39.955  28.918  29.290  1.00  0.00     0.074 A 
ATOM     43  C   UNL A   1      39.052  29.124  28.180  1.00  0.00     0.031 C 
ATOM     44  C   UNL A   1      37.631  32.841  33.808  1.00  0.00     0.029 A 
ATOM     45  C   UNL A   1      38.767  31.932  33.914  1.00  0.00     0.049 A 
ATOM     46  H   UNL A   1      39.593  30.754  32.405  1.00  0.00     0.167 HD
ATOM     47  C   UNL A   1      40.986  28.038  29.280  1.00  0.00     0.034 A 
ATOM     48  C   UNL A   1      39.485  31.711  35.034  1.00  0.00     0.034 A 
ATOM     49  C   UNL A   1      41.910  27.866  30.367  1.00  0.00     0.049 A 
ATOM     50  C   UNL A   1      40.655  30.766  34.979  1.00  0.00     0.074 A 
ATOM     51  C   UNL A   1      43.040  27.068  30.418  1.00  0.00     0.029 A 
ATOM     52  N   UNL A   1      41.810  28.494  31.600  1.00  0.00    -0.354 N 
ATOM     53  N   UNL A   1      41.105  30.067  33.966  1.00  0.00    -0.248 NA
ATOM     54  C   UNL A   1      41.441  30.610  36.212  1.00  0.00     0.031 C 
ATOM     55  C   UNL A   1      43.611  27.198  31.688  1.00  0.00     0.029 A 
ATOM     56  C   UNL A   1      42.853  28.098  32.420  1.00  0.00     0.049 A 
ATOM     57  H   UNL A   1      41.102  29.130  31.852  1.00  0.00     0.167 HD
ATOM     58  C   UNL A   1      42.245  29.418  34.426  1.00  0.00     0.074 A 
ATOM     59  C   UNL A   1      42.430  29.826  35.803  1.00  0.00     0.031 C 
ATOM     60  C   UNL A   1      43.058  28.552  33.771  1.00  0.00     0.034 A 
BRANCH  47  61
ATOM     61  C   UNL A   1      41.203  27.232  28.025  1.00  0.00     0.023 A 
ATOM     62  C   UNL A   1      41.732  27.860  26.879  1.00  0.00     0.012 A 
ATOM     63  C   UNL A   1      40.940  25.848  27.994  1.00  0.00     0.148 A 
ATOM     64  C   UNL A   1      41.962  27.135  25.712  1.00  0.00     0.002 A 
ATOM     65  C   UNL A   1      41.215  25.123  26.840  1.00  0.00     0.091 A 
ATOM     66  F   UNL A   1      40.418  25.271  29.085  1.00  0.00    -0.205 F 
ATOM     67  C   UNL A   1      41.714  25.766  25.695  1.00  0.00     0.022 A 
BRANCH  65  68
ATOM     68  S   UNL A   1      41.009  23.340  26.744  1.00  0.00     0.127 S 
ATOM     69  O   UNL A   1      41.859  23.006  25.602  1.00  0.00    -0.237 OA
ATOM     70  O   UNL A   1      41.528  22.899  28.039  1.00  0.00    -0.237 OA
ATOM     71  O   UNL A   1      39.584  23.110  26.550  1.00  0.00    -0.744 OA
ENDBRANCH  65  68
ENDBRANCH  47  61
BRANCH  48  72
ATOM     72  C   UNL A   1      39.164  32.456  36.285  1.00  0.00     0.023 A 
ATOM     73  C   UNL A   1      39.718  33.736  36.488  1.00  0.00     0.012 A 
ATOM     74  C   UNL A   1      38.298  31.921  37.258  1.00  0.00     0.148 A 
ATOM     75  C   UNL A   1      39.446  34.452  37.654  1.00  0.00     0.002 A 
ATOM     76  C   UNL A   1      37.987  32.664  38.391  1.00  0.00     0.091 A 
ATOM     77  F   UNL A   1      37.789  30.698  37.051  1.00  0.00    -0.205 F 
ATOM     78  C   UNL A   1      38.573  33.922  38.600  1.00  0.00     0.022 A 
BRANCH  76  79
ATOM     79  S   UNL A   1      36.774  32.119  39.598  1.00  0.00     0.127 S 
ATOM     80  O   UNL A   1      37.185  32.855  40.791  1.00  0.00    -0.237 OA
ATOM     81  O   UNL A   1      35.520  32.573  38.994  1.00  0.00    -0.237 OA
ATOM     82  O   UNL A   1      36.913  30.670  39.668  1.00  0.00    -0.744 OA
ENDBRANCH  76  79
ENDBRANCH  48  72
BRANCH  60  83
ATOM     83  C   UNL A   1      44.248  28.009  34.519  1.00  0.00     0.023 A 
ATOM     84  C   UNL A   1      45.454  28.737  34.544  1.00  0.00     0.012 A 
ATOM     85  C   UNL A   1      44.149  26.810  35.253  1.00  0.00     0.148 A 
ATOM     86  C   UNL A   1      46.555  28.262  35.256  1.00  0.00     0.002 A 
ATOM     87  C   UNL A   1      45.234  26.369  36.001  1.00  0.00     0.091 A 
ATOM     88  F   UNL A   1      43.000  26.121  35.202  1.00  0.00    -0.205 F 
ATOM     89  C   UNL A   1      46.441  27.085  35.994  1.00  0.00     0.022 A 
BRANCH  87  90
ATOM     90  S   UNL A   1      45.146  24.917  37.057  1.00  0.00     0.127 S 
ATOM     91  O   UNL A   1      44.064  25.278  37.971  1.00  0.00    -0.237 OA
ATOM     92  O   UNL A   1      44.813  23.858  36.104  1.00  0.00    -0.237 OA
ATOM     93  O   UNL A   1      46.464  24.786  37.665  1.00  0.00    -0.744 OA
ENDBRANCH  87  90
ENDBRANCH  60  83
ENDBRANCH  34  35
ENDBRANCH  26  29
ENDBRANCH  24  25
ENDBRANCH  23  24
ENDBRANCH  22  23
ENDBRANCH   1  22
TORSDOF 20
ENDMDL
MODEL 3
REMARK VINA RESULT:      -9.5      4.429      7.402
REMARK SMILES C[NH2+]C[C@H](C)C(=O)NC[C@](C)(O)C(=O)NCCCCNC(=O)c1ccc(-c2c3nc(c(-c4cccc(S(=O)(=O)[O-])c4F)c4ccc([nH]4)c(-c4cccc(S(=O)(=O)[O-])c4F)c4nc(c(-c5cccc(S(=O)(=O)[O-])c5F)c5ccc2[nH]5)C=C4)C=C3)cc1
REMARK SMILES IDX 16 1 15 2 13 3 14 4 10 6 11 7 9 8 8 9 6 10 7 11 4 13 5 14
REMARK SMILES IDX 3 15 2 16 1 17 12 20 17 22 18 23 19 24 20 25 21 26 22 28
REMARK SMILES IDX 23 29 24 30 85 31 25 32 84 33 26 34 27 35 28 36 78 37 29 38
REMARK SMILES IDX 83 39 77 40 79 41 30 42 82 43 76 44 75 45 31 47 63 48 43 49
REMARK SMILES IDX 62 50 44 51 47 52 61 53 80 54 45 55 46 56 60 58 81 59 48 60
REMARK SMILES IDX 32 61 33 62 41 63 34 64 36 65 42 66 35 67 37 68 38 69 39 70
REMARK SMILES IDX 40 71 64 72 65 73 73 74 66 75 68 76 74 77 67 78 69 79 70 80
REMARK SMILES IDX 71 81 72 82 49 83 50 84 58 85 51 86 53 87 59 88 52 89 54 90
REMARK SMILES IDX 55 91 56 92 57 93
REMARK H PARENT 15 5 8 12 2 18 2 19 12 21 20 27 79 46 47 57
REMARK Flexibility Score: inf
ROOT
ATOM      1  C   UNL A   1      32.526  26.923  24.816  1.00  0.00     0.116 C 
ENDROOT
BRANCH   1   2
ATOM      2  N   UNL A   1      33.275  27.642  23.803  1.00  0.00    -0.354 N 
ATOM      3  C   UNL A   1      33.483  27.350  22.483  1.00  0.00     0.253 C 
ATOM      4  O   UNL A   1      34.053  28.209  21.804  1.00  0.00    -0.272 OA
ATOM      5  H   UNL A   1      33.702  28.472  24.115  1.00  0.00     0.163 HD
BRANCH   3   6
ATOM      6  C   UNL A   1      32.997  26.007  21.837  1.00  0.00     0.157 C 
ATOM      7  C   UNL A   1      31.462  25.948  22.004  1.00  0.00     0.055 C 
BRANCH   6   8
ATOM      8  C   UNL A   1      33.583  24.754  22.540  1.00  0.00     0.160 C 
BRANCH   8   9
ATOM      9  N   UNL A   1      32.596  23.783  22.961  1.00  0.00    -0.352 N 
ATOM     10  C   UNL A   1      32.601  22.967  24.050  1.00  0.00     0.228 C 
ATOM     11  O   UNL A   1      31.887  21.963  24.018  1.00  0.00    -0.275 OA
ATOM     12  H   UNL A   1      31.808  23.701  22.376  1.00  0.00     0.163 HD
BRANCH  10  13
ATOM     13  C   UNL A   1      33.373  23.345  25.308  1.00  0.00     0.130 C 
ATOM     14  C   UNL A   1      32.466  23.686  26.492  1.00  0.00     0.024 C 
BRANCH  13  15
ATOM     15  C   UNL A   1      34.465  22.310  25.668  1.00  0.00     0.273 C 
BRANCH  15  16
ATOM     16  N   UNL A   1      35.214  21.702  24.559  1.00  0.00    -0.348 N 
ATOM     17  C   UNL A   1      36.190  20.713  25.004  1.00  0.00     0.330 C 
ATOM     18  H   UNL A   1      34.552  21.245  23.931  1.00  0.00     0.346 HD
ATOM     19  H   UNL A   1      35.729  22.449  24.094  1.00  0.00     0.346 HD
ENDBRANCH  15  16
ENDBRANCH  13  15
ENDBRANCH  10  13
ENDBRANCH   8   9
ENDBRANCH   6   8
BRANCH   6  20
ATOM     20  O   UNL A   1      33.274  25.875  20.439  1.00  0.00    -0.378 OA
ATOM     21  H   UNL A   1      32.835  26.590  19.953  1.00  0.00     0.212 HD
ENDBRANCH   6  20
ENDBRANCH   3   6
ENDBRANCH   1   2
BRANCH   1  22
ATOM     22  C   UNL A   1      31.710  27.827  25.730  1.00  0.00     0.023 C 
BRANCH  22  23
ATOM     23  C   UNL A   1      32.255  27.982  27.150  1.00  0.00     0.023 C 
BRANCH  23  24
ATOM     24  C   UNL A   1      33.667  28.552  27.267  1.00  0.00     0.116 C 
BRANCH  24  25
ATOM     25  N   UNL A   1      33.692  29.991  27.499  1.00  0.00    -0.352 N 
ATOM     26  C   UNL A   1      34.694  30.777  28.016  1.00  0.00     0.251 C 
ATOM     27  H   UNL A   1      32.869  30.470  27.249  1.00  0.00     0.163 HD
ATOM     28  O   UNL A   1      34.486  31.966  28.247  1.00  0.00    -0.269 OA
BRANCH  26  29
ATOM     29  C   UNL A   1      36.012  30.183  28.329  1.00  0.00     0.039 A 
ATOM     30  C   UNL A   1      37.013  30.207  27.355  1.00  0.00     0.014 A 
ATOM     31  C   UNL A   1      36.268  29.629  29.585  1.00  0.00     0.014 A 
ATOM     32  C   UNL A   1      38.297  29.752  27.671  1.00  0.00     0.010 A 
ATOM     33  C   UNL A   1      37.566  29.255  29.923  1.00  0.00     0.010 A 
ATOM     34  C   UNL A   1      38.596  29.313  28.971  1.00  0.00    -0.014 A 
BRANCH  34  35
ATOM     35  C   UNL A   1      39.981  28.936  29.359  1.00  0.00     0.031 A 
ATOM     36  C   UNL A   1      40.660  27.758  28.713  1.00  0.00     0.074 A 
ATOM     37  C   UNL A   1      40.596  29.599  30.359  1.00  0.00     0.049 A 
ATOM     38  N   UNL A   1      41.844  27.255  28.954  1.00  0.00    -0.248 NA
ATOM     39  C   UNL A   1      39.901  27.033  27.680  1.00  0.00     0.031 C 
ATOM     40  C   UNL A   1      40.015  30.702  31.128  1.00  0.00     0.029 A 
ATOM     41  N   UNL A   1      41.839  29.427  30.918  1.00  0.00    -0.354 N 
ATOM     42  C   UNL A   1      41.957  26.138  28.134  1.00  0.00     0.074 A 
ATOM     43  C   UNL A   1      40.709  26.015  27.415  1.00  0.00     0.031 C 
ATOM     44  C   UNL A   1      40.899  31.111  32.052  1.00  0.00     0.029 A 
ATOM     45  C   UNL A   1      42.099  30.286  31.962  1.00  0.00     0.049 A 
ATOM     46  H   UNL A   1      42.483  28.754  30.602  1.00  0.00     0.167 HD
ATOM     47  C   UNL A   1      43.015  25.308  27.969  1.00  0.00     0.034 A 
ATOM     48  C   UNL A   1      43.180  30.395  32.760  1.00  0.00     0.034 A 
ATOM     49  C   UNL A   1      44.272  25.457  28.652  1.00  0.00     0.049 A 
ATOM     50  C   UNL A   1      44.361  29.492  32.521  1.00  0.00     0.074 A 
ATOM     51  C   UNL A   1      45.434  24.725  28.485  1.00  0.00     0.029 A 
ATOM     52  N   UNL A   1      44.531  26.399  29.637  1.00  0.00    -0.354 N 
ATOM     53  N   UNL A   1      44.510  28.549  31.623  1.00  0.00    -0.248 NA
ATOM     54  C   UNL A   1      45.536  29.694  33.380  1.00  0.00     0.031 C 
ATOM     55  C   UNL A   1      46.389  25.209  29.385  1.00  0.00     0.029 A 
ATOM     56  C   UNL A   1      45.832  26.261  30.092  1.00  0.00     0.049 A 
ATOM     57  H   UNL A   1      43.886  27.067  29.962  1.00  0.00     0.167 HD
ATOM     58  C   UNL A   1      45.806  28.072  31.783  1.00  0.00     0.074 A 
ATOM     59  C   UNL A   1      46.407  28.846  32.849  1.00  0.00     0.031 C 
ATOM     60  C   UNL A   1      46.437  27.073  31.117  1.00  0.00     0.034 A 
BRANCH  47  61
ATOM     61  C   UNL A   1      42.877  24.191  26.966  1.00  0.00     0.023 A 
ATOM     62  C   UNL A   1      43.472  24.324  25.694  1.00  0.00     0.012 A 
ATOM     63  C   UNL A   1      42.214  22.994  27.297  1.00  0.00     0.148 A 
ATOM     64  C   UNL A   1      43.377  23.299  24.754  1.00  0.00     0.002 A 
ATOM     65  C   UNL A   1      42.164  21.958  26.370  1.00  0.00     0.091 A 
ATOM     66  F   UNL A   1      41.638  22.892  28.502  1.00  0.00    -0.205 F 
ATOM     67  C   UNL A   1      42.734  22.113  25.095  1.00  0.00     0.022 A 
BRANCH  65  68
ATOM     68  S   UNL A   1      41.430  20.360  26.740  1.00  0.00     0.127 S 
ATOM     69  O   UNL A   1      40.027  20.719  26.942  1.00  0.00    -0.237 OA
ATOM     70  O   UNL A   1      41.696  19.607  25.514  1.00  0.00    -0.237 OA
ATOM     71  O   UNL A   1      42.125  19.863  27.920  1.00  0.00    -0.744 OA
ENDBRANCH  65  68
ENDBRANCH  47  61
BRANCH  48  72
ATOM     72  C   UNL A   1      43.227  31.449  33.813  1.00  0.00     0.023 A 
ATOM     73  C   UNL A   1      43.877  32.669  33.540  1.00  0.00     0.012 A 
ATOM     74  C   UNL A   1      42.615  31.264  35.068  1.00  0.00     0.148 A 
ATOM     75  C   UNL A   1      43.947  33.671  34.509  1.00  0.00     0.002 A 
ATOM     76  C   UNL A   1      42.641  32.287  36.008  1.00  0.00     0.091 A 
ATOM     77  F   UNL A   1      42.011  30.092  35.312  1.00  0.00    -0.205 F 
ATOM     78  C   UNL A   1      43.322  33.485  35.738  1.00  0.00     0.022 A 
BRANCH  76  79
ATOM     79  S   UNL A   1      41.753  32.187  37.566  1.00  0.00     0.127 S 
ATOM     80  O   UNL A   1      42.530  31.184  38.291  1.00  0.00    -0.237 OA
ATOM     81  O   UNL A   1      41.879  33.553  38.075  1.00  0.00    -0.237 OA
ATOM     82  O   UNL A   1      40.391  31.803  37.218  1.00  0.00    -0.744 OA
ENDBRANCH  76  79
ENDBRANCH  48  72
BRANCH  60  83
ATOM     83  C   UNL A   1      47.867  26.778  31.490  1.00  0.00     0.023 A 
ATOM     84  C   UNL A   1      48.917  27.451  30.835  1.00  0.00     0.012 A 
ATOM     85  C   UNL A   1      48.165  25.883  32.537  1.00  0.00     0.148 A 
ATOM     86  C   UNL A   1      50.244  27.210  31.191  1.00  0.00     0.002 A 
ATOM     87  C   UNL A   1      49.487  25.686  32.918  1.00  0.00     0.091 A 
ATOM     88  F   UNL A   1      47.155  25.237  33.135  1.00  0.00    -0.205 F 
ATOM     89  C   UNL A   1      50.528  26.338  32.239  1.00  0.00     0.022 A 
BRANCH  87  90
ATOM     90  S   UNL A   1      49.939  24.656  34.320  1.00  0.00     0.127 S 
ATOM     91  O   UNL A   1      49.390  25.418  35.440  1.00  0.00    -0.237 OA
ATOM     92  O   UNL A   1      49.235  23.407  34.028  1.00  0.00    -0.237 OA
ATOM     93  O   UNL A   1      51.392  24.550  34.286  1.00  0.00    -0.744 OA
ENDBRANCH  87  90
ENDBRANCH  60  83
ENDBRANCH  34  35
ENDBRANCH  26  29
ENDBRANCH  24  25
ENDBRANCH  23  24
ENDBRANCH  22  23
ENDBRANCH   1  22
TORSDOF 20
ENDMDL
