MODEL 1
REMARK VINA RESULT:     -12.6      0.000      0.000
REMARK SMILES C[C@@H]1CCC[C@H](Oc2ccc(F)cc2C(=O)NCCCCNC(=O)c2ccc(-c3c4nc(c(-c5cccc(S(=O)(=O)[O-])c5F)c5ccc([nH]5)c(-c5cccc(S(=O)(=O)[O-])c5F)c5nc(c(-c6cccc(S(=O)(=O)[O-])c6F)c6ccc3[nH]6)C=C5)C=C4)cc2)C1
REMARK SMILES IDX 20 1 19 2 18 3 17 4 15 5 16 6 14 8 8 9 9 10 10 11 13 12
REMARK SMILES IDX 11 13 12 14 7 15 6 16 1 17 2 18 3 19 88 20 4 21 5 22 21 23
REMARK SMILES IDX 22 24 23 25 24 27 25 28 26 29 87 30 27 31 86 32 28 33 29 34
REMARK SMILES IDX 30 35 80 36 31 37 85 38 79 39 81 40 32 41 84 42 78 43 77 44
REMARK SMILES IDX 33 46 65 47 45 48 64 49 46 50 49 51 63 52 82 53 47 54 48 55
REMARK SMILES IDX 62 57 83 58 50 59 34 60 35 61 43 62 36 63 38 64 44 65 37 66
REMARK SMILES IDX 39 67 40 68 41 69 42 70 66 71 67 72 75 73 68 74 70 75 76 76
REMARK SMILES IDX 69 77 71 78 72 79 73 80 74 81 51 82 52 83 60 84 53 85 55 86
REMARK SMILES IDX 61 87 54 88 56 89 57 90 58 91 59 92
REMARK H PARENT 17 7 22 26 81 45 49 56
REMARK Flexibility Score: inf
ROOT
ATOM      1  C   UNL A   1      32.447  29.523  25.010  1.00  0.00     0.023 C 
ENDROOT
BRANCH   1   2
ATOM      2  C   UNL A   1      33.623  28.717  24.484  1.00  0.00     0.023 C 
BRANCH   2   3
ATOM      3  C   UNL A   1      33.973  28.996  23.022  1.00  0.00     0.116 C 
BRANCH   3   4
ATOM      4  N   UNL A   1      33.847  27.810  22.217  1.00  0.00    -0.352 N 
ATOM      5  C   UNL A   1      32.976  26.770  22.101  1.00  0.00     0.255 C 
ATOM      6  O   UNL A   1      33.303  25.981  21.202  1.00  0.00    -0.269 OA
ATOM      7  H   UNL A   1      34.591  27.730  21.578  1.00  0.00     0.163 HD
BRANCH   5   8
ATOM      8  C   UNL A   1      31.704  26.471  22.855  1.00  0.00     0.084 A 
ATOM      9  C   UNL A   1      31.372  25.485  23.805  1.00  0.00     0.132 A 
ATOM     10  C   UNL A   1      30.172  25.599  24.537  1.00  0.00     0.050 A 
ATOM     11  C   UNL A   1      29.203  26.546  24.223  1.00  0.00     0.043 A 
ATOM     12  C   UNL A   1      30.683  27.413  22.547  1.00  0.00     0.057 A 
ATOM     13  C   UNL A   1      29.458  27.430  23.201  1.00  0.00     0.124 A 
ATOM     14  F   UNL A   1      28.534  28.336  22.862  1.00  0.00    -0.207 F 
BRANCH   9  15
ATOM     15  O   UNL A   1      32.196  24.487  24.211  1.00  0.00    -0.490 OA
BRANCH  15  16
ATOM     16  C   UNL A   1      33.022  24.638  25.392  1.00  0.00     0.173 C 
ATOM     17  C   UNL A   1      35.828  23.463  23.849  1.00  0.00     0.008 C 
ATOM     18  C   UNL A   1      35.592  24.133  25.200  1.00  0.00    -0.011 C 
ATOM     19  C   UNL A   1      35.422  23.121  26.334  1.00  0.00     0.003 C 
ATOM     20  C   UNL A   1      34.451  25.154  25.156  1.00  0.00     0.048 C 
ATOM     21  C   UNL A   1      34.032  22.498  26.389  1.00  0.00     0.004 C 
ATOM     22  C   UNL A   1      32.929  23.550  26.467  1.00  0.00     0.045 C 
ENDBRANCH  15  16
ENDBRANCH   9  15
ENDBRANCH   5   8
ENDBRANCH   3   4
ENDBRANCH   2   3
ENDBRANCH   1   2
BRANCH   1  23
ATOM     23  C   UNL A   1      32.485  29.806  26.505  1.00  0.00     0.116 C 
BRANCH  23  24
ATOM     24  N   UNL A   1      32.364  31.221  26.853  1.00  0.00    -0.352 N 
ATOM     25  C   UNL A   1      33.307  32.053  27.409  1.00  0.00     0.251 C 
ATOM     26  H   UNL A   1      31.490  31.635  26.664  1.00  0.00     0.163 HD
ATOM     27  O   UNL A   1      33.032  33.214  27.702  1.00  0.00    -0.269 OA
BRANCH  25  28
ATOM     28  C   UNL A   1      34.642  31.498  27.696  1.00  0.00     0.039 A 
ATOM     29  C   UNL A   1      35.712  32.371  27.896  1.00  0.00     0.014 A 
ATOM     30  C   UNL A   1      34.780  30.130  27.936  1.00  0.00     0.014 A 
ATOM     31  C   UNL A   1      36.893  31.882  28.456  1.00  0.00     0.010 A 
ATOM     32  C   UNL A   1      35.905  29.674  28.605  1.00  0.00     0.010 A 
ATOM     33  C   UNL A   1      36.971  30.544  28.882  1.00  0.00    -0.014 A 
BRANCH  33  34
ATOM     34  C   UNL A   1      38.137  30.034  29.650  1.00  0.00     0.031 A 
ATOM     35  C   UNL A   1      38.368  30.501  31.062  1.00  0.00     0.074 A 
ATOM     36  C   UNL A   1      39.049  29.246  29.042  1.00  0.00     0.049 A 
ATOM     37  N   UNL A   1      39.381  30.260  31.851  1.00  0.00    -0.248 NA
ATOM     38  C   UNL A   1      37.354  31.395  31.648  1.00  0.00     0.031 C 
ATOM     39  C   UNL A   1      38.999  28.811  27.642  1.00  0.00     0.029 A 
ATOM     40  N   UNL A   1      40.209  28.685  29.516  1.00  0.00    -0.354 N 
ATOM     41  C   UNL A   1      39.153  31.013  32.997  1.00  0.00     0.074 A 
ATOM     42  C   UNL A   1      37.932  31.755  32.784  1.00  0.00     0.031 C 
ATOM     43  C   UNL A   1      40.058  28.027  27.384  1.00  0.00     0.029 A 
ATOM     44  C   UNL A   1      40.881  27.927  28.585  1.00  0.00     0.049 A 
ATOM     45  H   UNL A   1      40.530  28.813  30.438  1.00  0.00     0.167 HD
ATOM     46  C   UNL A   1      39.868  31.047  34.144  1.00  0.00     0.034 A 
ATOM     47  C   UNL A   1      42.026  27.221  28.689  1.00  0.00     0.034 A 
ATOM     48  C   UNL A   1      41.023  30.231  34.391  1.00  0.00     0.049 A 
ATOM     49  C   UNL A   1      42.744  27.191  30.010  1.00  0.00     0.074 A 
ATOM     50  C   UNL A   1      41.754  30.110  35.558  1.00  0.00     0.029 A 
ATOM     51  N   UNL A   1      41.602  29.380  33.462  1.00  0.00    -0.354 N 
ATOM     52  N   UNL A   1      42.429  27.794  31.131  1.00  0.00    -0.248 NA
ATOM     53  C   UNL A   1      43.953  26.359  30.098  1.00  0.00     0.031 C 
ATOM     54  C   UNL A   1      42.775  29.182  35.336  1.00  0.00     0.029 A 
ATOM     55  C   UNL A   1      42.674  28.720  34.033  1.00  0.00     0.049 A 
ATOM     56  H   UNL A   1      41.293  29.263  32.534  1.00  0.00     0.167 HD
ATOM     57  C   UNL A   1      43.377  27.390  32.063  1.00  0.00     0.074 A 
ATOM     58  C   UNL A   1      44.270  26.476  31.381  1.00  0.00     0.031 C 
ATOM     59  C   UNL A   1      43.507  27.758  33.360  1.00  0.00     0.034 A 
BRANCH  46  60
ATOM     60  C   UNL A   1      39.365  31.921  35.261  1.00  0.00     0.023 A 
ATOM     61  C   UNL A   1      38.484  31.375  36.216  1.00  0.00     0.012 A 
ATOM     62  C   UNL A   1      39.815  33.247  35.411  1.00  0.00     0.148 A 
ATOM     63  C   UNL A   1      38.035  32.143  37.289  1.00  0.00     0.002 A 
ATOM     64  C   UNL A   1      39.398  33.992  36.508  1.00  0.00     0.091 A 
ATOM     65  F   UNL A   1      40.635  33.754  34.480  1.00  0.00    -0.205 F 
ATOM     66  C   UNL A   1      38.500  33.446  37.441  1.00  0.00     0.022 A 
BRANCH  64  67
ATOM     67  S   UNL A   1      40.002  35.651  36.841  1.00  0.00     0.127 S 
ATOM     68  O   UNL A   1      39.355  35.949  38.118  1.00  0.00    -0.237 OA
ATOM     69  O   UNL A   1      41.448  35.439  36.927  1.00  0.00    -0.237 OA
ATOM     70  O   UNL A   1      39.574  36.469  35.717  1.00  0.00    -0.744 OA
ENDBRANCH  64  67
ENDBRANCH  46  60
BRANCH  47  71
ATOM     71  C   UNL A   1      42.492  26.394  27.538  1.00  0.00     0.023 A 
ATOM     72  C   UNL A   1      43.402  26.954  26.621  1.00  0.00     0.012 A 
ATOM     73  C   UNL A   1      42.097  25.051  27.379  1.00  0.00     0.148 A 
ATOM     74  C   UNL A   1      43.896  26.202  25.554  1.00  0.00     0.002 A 
ATOM     75  C   UNL A   1      42.632  24.292  26.343  1.00  0.00     0.091 A 
ATOM     76  F   UNL A   1      41.220  24.538  28.253  1.00  0.00    -0.205 F 
ATOM     77  C   UNL A   1      43.521  24.869  25.422  1.00  0.00     0.022 A 
BRANCH  75  78
ATOM     78  S   UNL A   1      42.315  22.530  26.178  1.00  0.00     0.127 S 
ATOM     79  O   UNL A   1      43.067  22.202  24.970  1.00  0.00    -0.237 OA
ATOM     80  O   UNL A   1      42.880  22.001  27.419  1.00  0.00    -0.237 OA
ATOM     81  O   UNL A   1      40.867  22.403  26.080  1.00  0.00    -0.744 OA
ENDBRANCH  75  78
ENDBRANCH  47  71
BRANCH  59  82
ATOM     82  C   UNL A   1      44.633  27.163  34.159  1.00  0.00     0.023 A 
ATOM     83  C   UNL A   1      45.878  27.820  34.194  1.00  0.00     0.012 A 
ATOM     84  C   UNL A   1      44.414  26.041  34.984  1.00  0.00     0.148 A 
ATOM     85  C   UNL A   1      46.894  27.363  35.032  1.00  0.00     0.002 A 
ATOM     86  C   UNL A   1      45.416  25.618  35.847  1.00  0.00     0.091 A 
ATOM     87  F   UNL A   1      43.226  25.424  34.920  1.00  0.00    -0.205 F 
ATOM     88  C   UNL A   1      46.659  26.273  35.869  1.00  0.00     0.022 A 
BRANCH  86  89
ATOM     89  S   UNL A   1      45.167  24.291  37.033  1.00  0.00     0.127 S 
ATOM     90  O   UNL A   1      46.497  24.170  37.626  1.00  0.00    -0.237 OA
ATOM     91  O   UNL A   1      44.151  24.852  37.922  1.00  0.00    -0.237 OA
ATOM     92  O   UNL A   1      44.723  23.140  36.257  1.00  0.00    -0.744 OA
ENDBRANCH  86  89
ENDBRANCH  59  82
ENDBRANCH  33  34
ENDBRANCH  25  28
ENDBRANCH  23  24
ENDBRANCH   1  23
TORSDOF 16
ENDMDL
MODEL 2
REMARK VINA RESULT:     -12.1      5.307      7.800
REMARK SMILES C[C@@H]1CCC[C@H](Oc2ccc(F)cc2C(=O)NCCCCNC(=O)c2ccc(-c3c4nc(c(-c5cccc(S(=O)(=O)[O-])c5F)c5ccc([nH]5)c(-c5cccc(S(=O)(=O)[O-])c5F)c5nc(c(-c6cccc(S(=O)(=O)[O-])c6F)c6ccc3[nH]6)C=C5)C=C4)cc2)C1
REMARK SMILES IDX 20 1 19 2 18 3 17 4 15 5 16 6 14 8 8 9 9 10 10 11 13 12
REMARK SMILES IDX 11 13 12 14 7 15 6 16 1 17 2 18 3 19 88 20 4 21 5 22 21 23
REMARK SMILES IDX 22 24 23 25 24 27 25 28 26 29 87 30 27 31 86 32 28 33 29 34
REMARK SMILES IDX 30 35 80 36 31 37 85 38 79 39 81 40 32 41 84 42 78 43 77 44
REMARK SMILES IDX 33 46 65 47 45 48 64 49 46 50 49 51 63 52 82 53 47 54 48 55
REMARK SMILES IDX 62 57 83 58 50 59 34 60 35 61 43 62 36 63 38 64 44 65 37 66
REMARK SMILES IDX 39 67 40 68 41 69 42 70 66 71 67 72 75 73 68 74 70 75 76 76
REMARK SMILES IDX 69 77 71 78 72 79 73 80 74 81 51 82 52 83 60 84 53 85 55 86
REMARK SMILES IDX 61 87 54 88 56 89 57 90 58 91 59 92
REMARK H PARENT 17 7 22 26 81 45 49 56
REMARK Flexibility Score: inf
ROOT
ATOM      1  C   UNL A   1      35.391  21.507  25.631  1.00  0.00     0.023 C 
ENDROOT
BRANCH   1   2
ATOM      2  C   UNL A   1      34.917  22.235  26.879  1.00  0.00     0.023 C 
BRANCH   2   3
ATOM      3  C   UNL A   1      33.781  21.535  27.624  1.00  0.00     0.116 C 
BRANCH   3   4
ATOM      4  N   UNL A   1      32.588  22.338  27.635  1.00  0.00    -0.352 N 
ATOM      5  C   UNL A   1      31.879  23.085  26.744  1.00  0.00     0.255 C 
ATOM      6  O   UNL A   1      30.862  23.582  27.252  1.00  0.00    -0.269 OA
ATOM      7  H   UNL A   1      32.172  22.350  28.527  1.00  0.00     0.163 HD
BRANCH   5   8
ATOM      8  C   UNL A   1      32.124  23.355  25.280  1.00  0.00     0.084 A 
ATOM      9  C   UNL A   1      32.574  24.496  24.587  1.00  0.00     0.132 A 
ATOM     10  C   UNL A   1      32.954  24.384  23.233  1.00  0.00     0.050 A 
ATOM     11  C   UNL A   1      32.720  23.229  22.495  1.00  0.00     0.043 A 
ATOM     12  C   UNL A   1      31.880  22.197  24.490  1.00  0.00     0.057 A 
ATOM     13  C   UNL A   1      32.151  22.149  23.129  1.00  0.00     0.124 A 
ATOM     14  F   UNL A   1      31.892  21.034  22.436  1.00  0.00    -0.207 F 
BRANCH   9  15
ATOM     15  O   UNL A   1      32.836  25.699  25.156  1.00  0.00    -0.490 OA
BRANCH  15  16
ATOM     16  C   UNL A   1      31.765  26.626  25.463  1.00  0.00     0.173 C 
ATOM     17  C   UNL A   1      33.282  29.243  23.888  1.00  0.00     0.008 C 
ATOM     18  C   UNL A   1      31.885  29.056  24.475  1.00  0.00    -0.011 C 
ATOM     19  C   UNL A   1      31.776  29.584  25.906  1.00  0.00     0.003 C 
ATOM     20  C   UNL A   1      31.385  27.614  24.348  1.00  0.00     0.048 C 
ATOM     21  C   UNL A   1      32.353  28.635  26.949  1.00  0.00     0.004 C 
ATOM     22  C   UNL A   1      31.739  27.240  26.866  1.00  0.00     0.045 C 
ENDBRANCH  15  16
ENDBRANCH   9  15
ENDBRANCH   5   8
ENDBRANCH   3   4
ENDBRANCH   2   3
ENDBRANCH   1   2
BRANCH   1  23
ATOM     23  C   UNL A   1      36.769  21.919  25.135  1.00  0.00     0.116 C 
BRANCH  23  24
ATOM     24  N   UNL A   1      37.778  20.863  25.216  1.00  0.00    -0.352 N 
ATOM     25  C   UNL A   1      39.009  20.895  25.828  1.00  0.00     0.251 C 
ATOM     26  H   UNL A   1      37.545  20.014  24.772  1.00  0.00     0.163 HD
ATOM     27  O   UNL A   1      39.776  19.938  25.756  1.00  0.00    -0.269 OA
BRANCH  25  28
ATOM     28  C   UNL A   1      39.406  22.131  26.527  1.00  0.00     0.039 A 
ATOM     29  C   UNL A   1      40.447  22.081  27.455  1.00  0.00     0.014 A 
ATOM     30  C   UNL A   1      38.862  23.351  26.127  1.00  0.00     0.014 A 
ATOM     31  C   UNL A   1      41.024  23.273  27.894  1.00  0.00     0.010 A 
ATOM     32  C   UNL A   1      39.518  24.524  26.466  1.00  0.00     0.010 A 
ATOM     33  C   UNL A   1      40.612  24.500  27.346  1.00  0.00    -0.014 A 
BRANCH  33  34
ATOM     34  C   UNL A   1      41.325  25.770  27.644  1.00  0.00     0.031 A 
ATOM     35  C   UNL A   1      40.631  26.855  28.423  1.00  0.00     0.074 A 
ATOM     36  C   UNL A   1      42.547  25.994  27.115  1.00  0.00     0.049 A 
ATOM     37  N   UNL A   1      41.040  28.067  28.686  1.00  0.00    -0.248 NA
ATOM     38  C   UNL A   1      39.281  26.556  28.932  1.00  0.00     0.031 C 
ATOM     39  C   UNL A   1      43.283  25.068  26.250  1.00  0.00     0.029 A 
ATOM     40  N   UNL A   1      43.379  27.082  27.211  1.00  0.00    -0.354 N 
ATOM     41  C   UNL A   1      39.982  28.689  29.337  1.00  0.00     0.074 A 
ATOM     42  C   UNL A   1      38.896  27.738  29.390  1.00  0.00     0.031 C 
ATOM     43  C   UNL A   1      44.467  25.611  25.924  1.00  0.00     0.029 A 
ATOM     44  C   UNL A   1      44.566  26.936  26.527  1.00  0.00     0.049 A 
ATOM     45  H   UNL A   1      43.150  27.891  27.723  1.00  0.00     0.167 HD
ATOM     46  C   UNL A   1      39.934  29.923  29.888  1.00  0.00     0.034 A 
ATOM     47  C   UNL A   1      45.618  27.770  26.408  1.00  0.00     0.034 A 
ATOM     48  C   UNL A   1      41.049  30.827  29.924  1.00  0.00     0.049 A 
ATOM     49  C   UNL A   1      45.581  29.094  27.121  1.00  0.00     0.074 A 
ATOM     50  C   UNL A   1      41.137  32.055  30.551  1.00  0.00     0.029 A 
ATOM     51  N   UNL A   1      42.277  30.589  29.326  1.00  0.00    -0.354 N 
ATOM     52  N   UNL A   1      44.625  29.604  27.860  1.00  0.00    -0.248 NA
ATOM     53  C   UNL A   1      46.775  29.946  27.017  1.00  0.00     0.031 C 
ATOM     54  C   UNL A   1      42.422  32.561  30.336  1.00  0.00     0.029 A 
ATOM     55  C   UNL A   1      43.135  31.643  29.580  1.00  0.00     0.049 A 
ATOM     56  H   UNL A   1      42.504  29.789  28.799  1.00  0.00     0.167 HD
ATOM     57  C   UNL A   1      45.112  30.815  28.335  1.00  0.00     0.074 A 
ATOM     58  C   UNL A   1      46.456  30.958  27.814  1.00  0.00     0.031 C 
ATOM     59  C   UNL A   1      44.495  31.735  29.115  1.00  0.00     0.034 A 
BRANCH  46  60
ATOM     60  C   UNL A   1      38.666  30.333  30.587  1.00  0.00     0.023 A 
ATOM     61  C   UNL A   1      38.517  30.049  31.960  1.00  0.00     0.012 A 
ATOM     62  C   UNL A   1      37.662  31.057  29.916  1.00  0.00     0.148 A 
ATOM     63  C   UNL A   1      37.375  30.455  32.648  1.00  0.00     0.002 A 
ATOM     64  C   UNL A   1      36.547  31.497  30.620  1.00  0.00     0.091 A 
ATOM     65  F   UNL A   1      37.813  31.297  28.605  1.00  0.00    -0.205 F 
ATOM     66  C   UNL A   1      36.397  31.188  31.983  1.00  0.00     0.022 A 
BRANCH  64  67
ATOM     67  S   UNL A   1      35.270  32.518  29.876  1.00  0.00     0.127 S 
ATOM     68  O   UNL A   1      36.037  33.692  29.459  1.00  0.00    -0.237 OA
ATOM     69  O   UNL A   1      34.804  31.673  28.776  1.00  0.00    -0.237 OA
ATOM     70  O   UNL A   1      34.284  32.754  30.920  1.00  0.00    -0.744 OA
ENDBRANCH  64  67
ENDBRANCH  46  60
BRANCH  47  71
ATOM     71  C   UNL A   1      46.840  27.320  25.679  1.00  0.00     0.023 A 
ATOM     72  C   UNL A   1      47.725  26.430  26.319  1.00  0.00     0.012 A 
ATOM     73  C   UNL A   1      47.100  27.709  24.351  1.00  0.00     0.148 A 
ATOM     74  C   UNL A   1      48.857  25.952  25.659  1.00  0.00     0.002 A 
ATOM     75  C   UNL A   1      48.203  27.188  23.681  1.00  0.00     0.091 A 
ATOM     76  F   UNL A   1      46.254  28.567  23.762  1.00  0.00    -0.205 F 
ATOM     77  C   UNL A   1      49.090  26.320  24.338  1.00  0.00     0.022 A 
BRANCH  75  78
ATOM     78  S   UNL A   1      48.503  27.497  21.936  1.00  0.00     0.127 S 
ATOM     79  O   UNL A   1      49.735  28.279  21.978  1.00  0.00    -0.237 OA
ATOM     80  O   UNL A   1      48.651  26.141  21.407  1.00  0.00    -0.237 OA
ATOM     81  O   UNL A   1      47.321  28.199  21.456  1.00  0.00    -0.744 OA
ENDBRANCH  75  78
ENDBRANCH  47  71
BRANCH  59  82
ATOM     82  C   UNL A   1      45.256  32.974  29.492  1.00  0.00     0.023 A 
ATOM     83  C   UNL A   1      46.096  32.953  30.622  1.00  0.00     0.012 A 
ATOM     84  C   UNL A   1      45.249  34.105  28.651  1.00  0.00     0.148 A 
ATOM     85  C   UNL A   1      46.914  34.043  30.914  1.00  0.00     0.002 A 
ATOM     86  C   UNL A   1      46.098  35.170  28.925  1.00  0.00     0.091 A 
ATOM     87  F   UNL A   1      44.428  34.108  27.591  1.00  0.00    -0.205 F 
ATOM     88  C   UNL A   1      46.926  35.144  30.059  1.00  0.00     0.022 A 
BRANCH  86  89
ATOM     89  S   UNL A   1      46.257  36.581  27.824  1.00  0.00     0.127 S 
ATOM     90  O   UNL A   1      44.928  37.183  27.919  1.00  0.00    -0.237 OA
ATOM     91  O   UNL A   1      47.323  37.355  28.459  1.00  0.00    -0.237 OA
ATOM     92  O   UNL A   1      46.602  36.034  26.519  1.00  0.00    -0.744 OA
ENDBRANCH  86  89
ENDBRANCH  59  82
ENDBRANCH  33  34
ENDBRANCH  25  28
ENDBRANCH  23  24
ENDBRANCH   1  23
TORSDOF 16
ENDMDL
MODEL 3
REMARK VINA RESULT:     -12.1      2.076      3.441
REMARK SMILES C[C@@H]1CCC[C@H](Oc2ccc(F)cc2C(=O)NCCCCNC(=O)c2ccc(-c3c4nc(c(-c5cccc(S(=O)(=O)[O-])c5F)c5ccc([nH]5)c(-c5cccc(S(=O)(=O)[O-])c5F)c5nc(c(-c6cccc(S(=O)(=O)[O-])c6F)c6ccc3[nH]6)C=C5)C=C4)cc2)C1
REMARK SMILES IDX 20 1 19 2 18 3 17 4 15 5 16 6 14 8 8 9 9 10 10 11 13 12
REMARK SMILES IDX 11 13 12 14 7 15 6 16 1 17 2 18 3 19 88 20 4 21 5 22 21 23
REMARK SMILES IDX 22 24 23 25 24 27 25 28 26 29 87 30 27 31 86 32 28 33 29 34
REMARK SMILES IDX 30 35 80 36 31 37 85 38 79 39 81 40 32 41 84 42 78 43 77 44
REMARK SMILES IDX 33 46 65 47 45 48 64 49 46 50 49 51 63 52 82 53 47 54 48 55
REMARK SMILES IDX 62 57 83 58 50 59 34 60 35 61 43 62 36 63 38 64 44 65 37 66
REMARK SMILES IDX 39 67 40 68 41 69 42 70 66 71 67 72 75 73 68 74 70 75 76 76
REMARK SMILES IDX 69 77 71 78 72 79 73 80 74 81 51 82 52 83 60 84 53 85 55 86
REMARK SMILES IDX 61 87 54 88 56 89 57 90 58 91 59 92
REMARK H PARENT 17 7 22 26 81 45 49 56
REMARK Flexibility Score: inf
ROOT
ATOM      1  C   UNL A   1      31.453  32.112  26.828  1.00  0.00     0.023 C 
ENDROOT
BRANCH   1   2
ATOM      2  C   UNL A   1      31.816  30.657  26.583  1.00  0.00     0.023 C 
BRANCH   2   3
ATOM      3  C   UNL A   1      33.304  30.345  26.733  1.00  0.00     0.116 C 
BRANCH   3   4
ATOM      4  N   UNL A   1      33.820  29.676  25.569  1.00  0.00    -0.352 N 
ATOM      5  C   UNL A   1      33.671  28.465  24.965  1.00  0.00     0.255 C 
ATOM      6  O   UNL A   1      34.338  28.374  23.923  1.00  0.00    -0.269 OA
ATOM      7  H   UNL A   1      34.451  30.249  25.076  1.00  0.00     0.163 HD
BRANCH   5   8
ATOM      8  C   UNL A   1      32.820  27.280  25.347  1.00  0.00     0.084 A 
ATOM      9  C   UNL A   1      31.429  27.057  25.308  1.00  0.00     0.132 A 
ATOM     10  C   UNL A   1      30.927  25.751  25.493  1.00  0.00     0.050 A 
ATOM     11  C   UNL A   1      31.739  24.701  25.904  1.00  0.00     0.043 A 
ATOM     12  C   UNL A   1      33.617  26.188  25.789  1.00  0.00     0.057 A 
ATOM     13  C   UNL A   1      33.082  24.940  26.080  1.00  0.00     0.124 A 
ATOM     14  F   UNL A   1      33.882  23.953  26.499  1.00  0.00    -0.207 F 
BRANCH   9  15
ATOM     15  O   UNL A   1      30.503  27.978  24.943  1.00  0.00    -0.490 OA
BRANCH  15  16
ATOM     16  C   UNL A   1      30.006  28.035  23.583  1.00  0.00     0.173 C 
ATOM     17  C   UNL A   1      29.098  31.314  23.818  1.00  0.00     0.008 C 
ATOM     18  C   UNL A   1      29.182  30.344  22.642  1.00  0.00    -0.011 C 
ATOM     19  C   UNL A   1      27.840  29.677  22.336  1.00  0.00     0.003 C 
ATOM     20  C   UNL A   1      30.313  29.324  22.804  1.00  0.00     0.048 C 
ATOM     21  C   UNL A   1      27.505  28.526  23.276  1.00  0.00     0.004 C 
ATOM     22  C   UNL A   1      28.607  27.471  23.315  1.00  0.00     0.045 C 
ENDBRANCH  15  16
ENDBRANCH   9  15
ENDBRANCH   5   8
ENDBRANCH   3   4
ENDBRANCH   2   3
ENDBRANCH   1   2
BRANCH   1  23
ATOM     23  C   UNL A   1      32.628  33.078  26.793  1.00  0.00     0.116 C 
BRANCH  23  24
ATOM     24  N   UNL A   1      32.575  34.127  27.811  1.00  0.00    -0.352 N 
ATOM     25  C   UNL A   1      33.445  34.361  28.851  1.00  0.00     0.251 C 
ATOM     26  H   UNL A   1      31.815  34.750  27.744  1.00  0.00     0.163 HD
ATOM     27  O   UNL A   1      33.230  35.254  29.666  1.00  0.00    -0.269 OA
BRANCH  25  28
ATOM     28  C   UNL A   1      34.614  33.475  28.992  1.00  0.00     0.039 A 
ATOM     29  C   UNL A   1      35.888  33.985  28.737  1.00  0.00     0.014 A 
ATOM     30  C   UNL A   1      34.450  32.203  29.542  1.00  0.00     0.014 A 
ATOM     31  C   UNL A   1      37.006  33.260  29.150  1.00  0.00     0.010 A 
ATOM     32  C   UNL A   1      35.555  31.546  30.061  1.00  0.00     0.010 A 
ATOM     33  C   UNL A   1      36.845  32.070  29.880  1.00  0.00    -0.014 A 
BRANCH  33  34
ATOM     34  C   UNL A   1      38.000  31.367  30.498  1.00  0.00     0.031 A 
ATOM     35  C   UNL A   1      38.415  31.702  31.906  1.00  0.00     0.074 A 
ATOM     36  C   UNL A   1      38.745  30.519  29.758  1.00  0.00     0.049 A 
ATOM     37  N   UNL A   1      39.456  31.284  32.577  1.00  0.00    -0.248 NA
ATOM     38  C   UNL A   1      37.581  32.669  32.640  1.00  0.00     0.031 C 
ATOM     39  C   UNL A   1      38.515  30.194  28.347  1.00  0.00     0.029 A 
ATOM     40  N   UNL A   1      39.862  29.790  30.083  1.00  0.00    -0.354 N 
ATOM     41  C   UNL A   1      39.431  31.976  33.781  1.00  0.00     0.074 A 
ATOM     42  C   UNL A   1      38.300  32.875  33.733  1.00  0.00     0.031 C 
ATOM     43  C   UNL A   1      39.437  29.307  27.941  1.00  0.00     0.029 A 
ATOM     44  C   UNL A   1      40.345  29.023  29.046  1.00  0.00     0.049 A 
ATOM     45  H   UNL A   1      40.278  29.812  30.975  1.00  0.00     0.167 HD
ATOM     46  C   UNL A   1      40.244  31.841  34.853  1.00  0.00     0.034 A 
ATOM     47  C   UNL A   1      41.395  28.178  28.996  1.00  0.00     0.034 A 
ATOM     48  C   UNL A   1      41.303  30.875  34.936  1.00  0.00     0.049 A 
ATOM     49  C   UNL A   1      42.218  27.966  30.236  1.00  0.00     0.074 A 
ATOM     50  C   UNL A   1      42.115  30.584  36.017  1.00  0.00     0.029 A 
ATOM     51  N   UNL A   1      41.682  30.028  33.907  1.00  0.00    -0.354 N 
ATOM     52  N   UNL A   1      42.086  28.522  31.416  1.00  0.00    -0.248 NA
ATOM     53  C   UNL A   1      43.314  26.989  30.156  1.00  0.00     0.031 C 
ATOM     54  C   UNL A   1      42.984  29.556  35.642  1.00  0.00     0.029 A 
ATOM     55  C   UNL A   1      42.707  29.204  34.330  1.00  0.00     0.049 A 
ATOM     56  H   UNL A   1      41.278  30.016  33.008  1.00  0.00     0.167 HD
ATOM     57  C   UNL A   1      43.054  27.941  32.225  1.00  0.00     0.074 A 
ATOM     58  C   UNL A   1      43.758  26.975  31.406  1.00  0.00     0.031 C 
ATOM     59  C   UNL A   1      43.347  28.197  33.523  1.00  0.00     0.034 A 
BRANCH  46  60
ATOM     60  C   UNL A   1      39.960  32.690  36.063  1.00  0.00     0.023 A 
ATOM     61  C   UNL A   1      40.582  33.950  36.180  1.00  0.00     0.012 A 
ATOM     62  C   UNL A   1      39.032  32.282  37.040  1.00  0.00     0.148 A 
ATOM     63  C   UNL A   1      40.306  34.780  37.264  1.00  0.00     0.002 A 
ATOM     64  C   UNL A   1      38.728  33.135  38.095  1.00  0.00     0.091 A 
ATOM     65  F   UNL A   1      38.469  31.071  36.922  1.00  0.00    -0.205 F 
ATOM     66  C   UNL A   1      39.372  34.378  38.214  1.00  0.00     0.022 A 
BRANCH  64  67
ATOM     67  S   UNL A   1      37.479  32.748  39.328  1.00  0.00     0.127 S 
ATOM     68  O   UNL A   1      37.630  33.864  40.260  1.00  0.00    -0.237 OA
ATOM     69  O   UNL A   1      36.249  32.777  38.536  1.00  0.00    -0.237 OA
ATOM     70  O   UNL A   1      37.829  31.439  39.858  1.00  0.00    -0.744 OA
ENDBRANCH  64  67
ENDBRANCH  46  60
BRANCH  47  71
ATOM     71  C   UNL A   1      41.645  27.383  27.759  1.00  0.00     0.023 A 
ATOM     72  C   UNL A   1      42.172  28.034  26.626  1.00  0.00     0.012 A 
ATOM     73  C   UNL A   1      41.429  25.991  27.710  1.00  0.00     0.148 A 
ATOM     74  C   UNL A   1      42.460  27.322  25.461  1.00  0.00     0.002 A 
ATOM     75  C   UNL A   1      41.767  25.279  26.564  1.00  0.00     0.091 A 
ATOM     76  F   UNL A   1      40.915  25.390  28.792  1.00  0.00    -0.205 F 
ATOM     77  C   UNL A   1      42.270  25.944  25.434  1.00  0.00     0.022 A 
BRANCH  75  78
ATOM     78  S   UNL A   1      41.687  23.485  26.488  1.00  0.00     0.127 S 
ATOM     79  O   UNL A   1      40.246  23.249  26.485  1.00  0.00    -0.237 OA
ATOM     80  O   UNL A   1      42.359  23.203  25.219  1.00  0.00    -0.237 OA
ATOM     81  O   UNL A   1      42.407  23.013  27.662  1.00  0.00    -0.744 OA
ENDBRANCH  75  78
ENDBRANCH  47  71
BRANCH  59  82
ATOM     82  C   UNL A   1      44.455  27.415  34.171  1.00  0.00     0.023 A 
ATOM     83  C   UNL A   1      45.754  27.957  34.209  1.00  0.00     0.012 A 
ATOM     84  C   UNL A   1      44.179  26.218  34.863  1.00  0.00     0.148 A 
ATOM     85  C   UNL A   1      46.766  27.315  34.920  1.00  0.00     0.002 A 
ATOM     86  C   UNL A   1      45.183  25.607  35.603  1.00  0.00     0.091 A 
ATOM     87  F   UNL A   1      42.939  25.714  34.797  1.00  0.00    -0.205 F 
ATOM     88  C   UNL A   1      46.478  26.150  35.628  1.00  0.00     0.022 A 
BRANCH  86  89
ATOM     89  S   UNL A   1      44.877  24.163  36.629  1.00  0.00     0.127 S 
ATOM     90  O   UNL A   1      46.236  23.759  36.984  1.00  0.00    -0.237 OA
ATOM     91  O   UNL A   1      44.100  24.724  37.734  1.00  0.00    -0.237 OA
ATOM     92  O   UNL A   1      44.144  23.224  35.790  1.00  0.00    -0.744 OA
ENDBRANCH  86  89
ENDBRANCH  59  82
ENDBRANCH  33  34
ENDBRANCH  25  28
ENDBRANCH  23  24
ENDBRANCH   1  23
TORSDOF 16
ENDMDL
