MODEL 1
REMARK VINA RESULT:     -11.8      0.000      0.000
REMARK SMILES CC(=O)[C@H]1CC(C)=C(C)C[C@@H]1C(=O)NCCCCNC(=O)c1ccc(-c2c3nc(c(-c4cccc(S(=O)(=O)[O-])c4F)c4ccc([nH]4)c(-c4cccc(S(=O)(=O)[O-])c4F)c4nc(c(-c5cccc(S(=O)(=O)[O-])c5F)c5ccc2[nH]5)C=C4)C=C3)cc1
REMARK SMILES IDX 17 1 16 2 15 3 14 4 12 5 13 6 11 8 4 9 5 10 6 11 10 12 7 13
REMARK SMILES IDX 8 14 9 15 2 16 1 17 3 18 18 19 19 20 20 21 21 23 22 24 23 25
REMARK SMILES IDX 84 26 24 27 83 28 25 29 26 30 27 31 77 32 28 33 82 34 76 35
REMARK SMILES IDX 78 36 29 37 81 38 75 39 74 40 30 42 62 43 42 44 61 45 43 46
REMARK SMILES IDX 46 47 60 48 79 49 44 50 45 51 59 53 80 54 47 55 31 56 32 57
REMARK SMILES IDX 40 58 33 59 35 60 41 61 34 62 36 63 37 64 38 65 39 66 63 67
REMARK SMILES IDX 64 68 72 69 65 70 67 71 73 72 66 73 68 74 69 75 70 76 71 77
REMARK SMILES IDX 48 78 49 79 57 80 50 81 52 82 58 83 51 84 53 85 54 86 55 87
REMARK SMILES IDX 56 88
REMARK H PARENT 14 7 19 22 78 41 46 52
REMARK Flexibility Score: inf
ROOT
ATOM      1  C   UNL A   1      31.633  29.064  27.253  1.00  0.00     0.023 C 
ENDROOT
BRANCH   1   2
ATOM      2  C   UNL A   1      31.746  27.547  27.081  1.00  0.00     0.023 C 
BRANCH   2   3
ATOM      3  C   UNL A   1      31.103  27.001  25.808  1.00  0.00     0.116 C 
BRANCH   3   4
ATOM      4  N   UNL A   1      31.066  25.549  25.811  1.00  0.00    -0.356 N 
ATOM      5  C   UNL A   1      31.944  24.634  25.319  1.00  0.00     0.224 C 
ATOM      6  O   UNL A   1      31.640  23.441  25.384  1.00  0.00    -0.275 OA
ATOM      7  H   UNL A   1      30.270  25.161  26.243  1.00  0.00     0.163 HD
BRANCH   5   8
ATOM      8  C   UNL A   1      33.260  25.078  24.694  1.00  0.00     0.093 C 
ATOM      9  C   UNL A   1      33.311  24.536  23.253  1.00  0.00     0.072 C 
ATOM     10  C   UNL A   1      34.450  23.572  22.902  1.00  0.00     0.043 C 
ATOM     11  C   UNL A   1      35.582  23.405  23.878  1.00  0.00    -0.074 C 
ATOM     12  C   UNL A   1      34.389  24.695  25.658  1.00  0.00     0.045 C 
ATOM     13  C   UNL A   1      36.724  22.579  23.337  1.00  0.00     0.039 C 
ATOM     14  C   UNL A   1      35.554  23.913  25.123  1.00  0.00    -0.074 C 
ATOM     15  C   UNL A   1      36.667  23.706  26.120  1.00  0.00     0.039 C 
BRANCH   9  16
ATOM     16  C   UNL A   1      33.300  25.686  22.239  1.00  0.00     0.134 C 
ATOM     17  C   UNL A   1      33.296  27.090  22.799  1.00  0.00     0.088 C 
ATOM     18  O   UNL A   1      33.256  25.504  21.021  1.00  0.00    -0.300 OA
ENDBRANCH   9  16
ENDBRANCH   5   8
ENDBRANCH   3   4
ENDBRANCH   2   3
ENDBRANCH   1   2
BRANCH   1  19
ATOM     19  C   UNL A   1      32.479  29.899  26.296  1.00  0.00     0.116 C 
BRANCH  19  20
ATOM     20  N   UNL A   1      32.394  31.329  26.555  1.00  0.00    -0.352 N 
ATOM     21  C   UNL A   1      33.244  32.123  27.288  1.00  0.00     0.251 C 
ATOM     22  H   UNL A   1      31.624  31.790  26.151  1.00  0.00     0.163 HD
ATOM     23  O   UNL A   1      32.963  33.300  27.498  1.00  0.00    -0.269 OA
BRANCH  21  24
ATOM     24  C   UNL A   1      34.482  31.540  27.849  1.00  0.00     0.039 A 
ATOM     25  C   UNL A   1      35.596  32.365  28.025  1.00  0.00     0.014 A 
ATOM     26  C   UNL A   1      34.530  30.198  28.230  1.00  0.00     0.014 A 
ATOM     27  C   UNL A   1      36.738  31.860  28.651  1.00  0.00     0.010 A 
ATOM     28  C   UNL A   1      35.643  29.715  28.913  1.00  0.00     0.010 A 
ATOM     29  C   UNL A   1      36.757  30.541  29.134  1.00  0.00    -0.014 A 
BRANCH  29  30
ATOM     30  C   UNL A   1      37.917  30.010  29.893  1.00  0.00     0.031 A 
ATOM     31  C   UNL A   1      38.192  30.495  31.291  1.00  0.00     0.074 A 
ATOM     32  C   UNL A   1      38.782  29.174  29.286  1.00  0.00     0.049 A 
ATOM     33  N   UNL A   1      39.197  30.211  32.078  1.00  0.00    -0.248 NA
ATOM     34  C   UNL A   1      37.227  31.446  31.869  1.00  0.00     0.031 C 
ATOM     35  C   UNL A   1      38.671  28.695  27.907  1.00  0.00     0.029 A 
ATOM     36  N   UNL A   1      39.945  28.603  29.742  1.00  0.00    -0.354 N 
ATOM     37  C   UNL A   1      39.010  30.976  33.223  1.00  0.00     0.074 A 
ATOM     38  C   UNL A   1      37.809  31.757  33.018  1.00  0.00     0.031 C 
ATOM     39  C   UNL A   1      39.721  27.906  27.629  1.00  0.00     0.029 A 
ATOM     40  C   UNL A   1      40.594  27.842  28.796  1.00  0.00     0.049 A 
ATOM     41  H   UNL A   1      40.283  28.727  30.658  1.00  0.00     0.167 HD
ATOM     42  C   UNL A   1      39.753  31.004  34.355  1.00  0.00     0.034 A 
ATOM     43  C   UNL A   1      41.763  27.174  28.860  1.00  0.00     0.034 A 
ATOM     44  C   UNL A   1      40.913  30.184  34.578  1.00  0.00     0.049 A 
ATOM     45  C   UNL A   1      42.540  27.183  30.148  1.00  0.00     0.074 A 
ATOM     46  C   UNL A   1      41.672  30.064  35.728  1.00  0.00     0.029 A 
ATOM     47  N   UNL A   1      41.484  29.349  33.631  1.00  0.00    -0.354 N 
ATOM     48  N   UNL A   1      42.254  27.778  31.280  1.00  0.00    -0.248 NA
ATOM     49  C   UNL A   1      43.783  26.397  30.180  1.00  0.00     0.031 C 
ATOM     50  C   UNL A   1      42.713  29.166  35.472  1.00  0.00     0.029 A 
ATOM     51  C   UNL A   1      42.591  28.714  34.168  1.00  0.00     0.049 A 
ATOM     52  H   UNL A   1      41.152  29.225  32.713  1.00  0.00     0.167 HD
ATOM     53  C   UNL A   1      43.259  27.412  32.169  1.00  0.00     0.074 A 
ATOM     54  C   UNL A   1      44.151  26.526  31.449  1.00  0.00     0.031 C 
ATOM     55  C   UNL A   1      43.435  27.788  33.459  1.00  0.00     0.034 A 
BRANCH  42  56
ATOM     56  C   UNL A   1      39.298  31.910  35.469  1.00  0.00     0.023 A 
ATOM     57  C   UNL A   1      38.421  31.412  36.453  1.00  0.00     0.012 A 
ATOM     58  C   UNL A   1      39.783  33.228  35.578  1.00  0.00     0.148 A 
ATOM     59  C   UNL A   1      38.007  32.218  37.511  1.00  0.00     0.002 A 
ATOM     60  C   UNL A   1      39.399  34.013  36.660  1.00  0.00     0.091 A 
ATOM     61  F   UNL A   1      40.598  33.693  34.621  1.00  0.00    -0.205 F 
ATOM     62  C   UNL A   1      38.504  33.514  37.621  1.00  0.00     0.022 A 
BRANCH  60  63
ATOM     63  S   UNL A   1      40.044  35.668  36.931  1.00  0.00     0.127 S 
ATOM     64  O   UNL A   1      39.391  36.037  38.186  1.00  0.00    -0.237 OA
ATOM     65  O   UNL A   1      41.483  35.424  37.042  1.00  0.00    -0.237 OA
ATOM     66  O   UNL A   1      39.650  36.446  35.766  1.00  0.00    -0.744 OA
ENDBRANCH  60  63
ENDBRANCH  42  56
BRANCH  43  67
ATOM     67  C   UNL A   1      42.229  26.377  27.690  1.00  0.00     0.023 A 
ATOM     68  C   UNL A   1      43.102  26.972  26.758  1.00  0.00     0.012 A 
ATOM     69  C   UNL A   1      41.845  25.035  27.511  1.00  0.00     0.148 A 
ATOM     70  C   UNL A   1      43.558  26.255  25.651  1.00  0.00     0.002 A 
ATOM     71  C   UNL A   1      42.346  24.310  26.435  1.00  0.00     0.091 A 
ATOM     72  F   UNL A   1      41.004  24.489  28.401  1.00  0.00    -0.205 F 
ATOM     73  C   UNL A   1      43.188  24.923  25.495  1.00  0.00     0.022 A 
BRANCH  71  74
ATOM     74  S   UNL A   1      42.028  22.553  26.229  1.00  0.00     0.127 S 
ATOM     75  O   UNL A   1      42.788  22.250  25.019  1.00  0.00    -0.237 OA
ATOM     76  O   UNL A   1      42.585  21.997  27.462  1.00  0.00    -0.237 OA
ATOM     77  O   UNL A   1      40.581  22.429  26.119  1.00  0.00    -0.744 OA
ENDBRANCH  71  74
ENDBRANCH  43  67
BRANCH  55  78
ATOM     78  C   UNL A   1      44.619  27.220  34.200  1.00  0.00     0.023 A 
ATOM     79  C   UNL A   1      45.821  27.951  34.258  1.00  0.00     0.012 A 
ATOM     80  C   UNL A   1      44.509  26.007  34.908  1.00  0.00     0.148 A 
ATOM     81  C   UNL A   1      46.907  27.470  34.989  1.00  0.00     0.002 A 
ATOM     82  C   UNL A   1      45.579  25.557  35.671  1.00  0.00     0.091 A 
ATOM     83  F   UNL A   1      43.363  25.317  34.822  1.00  0.00    -0.205 F 
ATOM     84  C   UNL A   1      46.782  26.280  35.705  1.00  0.00     0.022 A 
BRANCH  82  85
ATOM     85  S   UNL A   1      45.475  24.087  36.701  1.00  0.00     0.127 S 
ATOM     86  O   UNL A   1      44.771  23.156  35.821  1.00  0.00    -0.237 OA
ATOM     87  O   UNL A   1      46.884  23.766  36.928  1.00  0.00    -0.237 OA
ATOM     88  O   UNL A   1      44.749  24.490  37.898  1.00  0.00    -0.744 OA
ENDBRANCH  82  85
ENDBRANCH  55  78
ENDBRANCH  29  30
ENDBRANCH  21  24
ENDBRANCH  19  20
ENDBRANCH   1  19
TORSDOF 15
ENDMDL
MODEL 2
REMARK VINA RESULT:     -11.6      1.736      7.933
REMARK SMILES CC(=O)[C@H]1CC(C)=C(C)C[C@@H]1C(=O)NCCCCNC(=O)c1ccc(-c2c3nc(c(-c4cccc(S(=O)(=O)[O-])c4F)c4ccc([nH]4)c(-c4cccc(S(=O)(=O)[O-])c4F)c4nc(c(-c5cccc(S(=O)(=O)[O-])c5F)c5ccc2[nH]5)C=C4)C=C3)cc1
REMARK SMILES IDX 17 1 16 2 15 3 14 4 12 5 13 6 11 8 4 9 5 10 6 11 10 12 7 13
REMARK SMILES IDX 8 14 9 15 2 16 1 17 3 18 18 19 19 20 20 21 21 23 22 24 23 25
REMARK SMILES IDX 84 26 24 27 83 28 25 29 26 30 27 31 77 32 28 33 82 34 76 35
REMARK SMILES IDX 78 36 29 37 81 38 75 39 74 40 30 42 62 43 42 44 61 45 43 46
REMARK SMILES IDX 46 47 60 48 79 49 44 50 45 51 59 53 80 54 47 55 31 56 32 57
REMARK SMILES IDX 40 58 33 59 35 60 41 61 34 62 36 63 37 64 38 65 39 66 63 67
REMARK SMILES IDX 64 68 72 69 65 70 67 71 73 72 66 73 68 74 69 75 70 76 71 77
REMARK SMILES IDX 48 78 49 79 57 80 50 81 52 82 58 83 51 84 53 85 54 86 55 87
REMARK SMILES IDX 56 88
REMARK H PARENT 14 7 19 22 78 41 46 52
REMARK Flexibility Score: inf
ROOT
ATOM      1  C   UNL A   1      31.667  29.068  26.674  1.00  0.00     0.023 C 
ENDROOT
BRANCH   1   2
ATOM      2  C   UNL A   1      32.209  27.640  26.786  1.00  0.00     0.023 C 
BRANCH   2   3
ATOM      3  C   UNL A   1      31.348  26.576  26.108  1.00  0.00     0.116 C 
BRANCH   3   4
ATOM      4  N   UNL A   1      31.299  25.354  26.891  1.00  0.00    -0.356 N 
ATOM      5  C   UNL A   1      31.848  24.130  26.666  1.00  0.00     0.224 C 
ATOM      6  O   UNL A   1      31.592  23.223  27.461  1.00  0.00    -0.275 OA
ATOM      7  H   UNL A   1      30.780  25.423  27.726  1.00  0.00     0.163 HD
BRANCH   5   8
ATOM      8  C   UNL A   1      32.743  23.890  25.458  1.00  0.00     0.093 C 
ATOM      9  C   UNL A   1      32.459  22.472  24.927  1.00  0.00     0.072 C 
ATOM     10  C   UNL A   1      33.623  21.475  24.920  1.00  0.00     0.043 C 
ATOM     11  C   UNL A   1      35.013  21.985  25.182  1.00  0.00    -0.074 C 
ATOM     12  C   UNL A   1      34.180  24.243  25.862  1.00  0.00     0.045 C 
ATOM     13  C   UNL A   1      36.086  20.945  24.964  1.00  0.00     0.039 C 
ATOM     14  C   UNL A   1      35.264  23.236  25.608  1.00  0.00    -0.074 C 
ATOM     15  C   UNL A   1      36.653  23.736  25.917  1.00  0.00     0.039 C 
BRANCH   9  16
ATOM     16  C   UNL A   1      31.843  22.530  23.524  1.00  0.00     0.134 C 
ATOM     17  C   UNL A   1      32.195  21.406  22.577  1.00  0.00     0.088 C 
ATOM     18  O   UNL A   1      31.123  23.456  23.148  1.00  0.00    -0.300 OA
ENDBRANCH   9  16
ENDBRANCH   5   8
ENDBRANCH   3   4
ENDBRANCH   2   3
ENDBRANCH   1   2
BRANCH   1  19
ATOM     19  C   UNL A   1      32.608  30.081  26.029  1.00  0.00     0.116 C 
BRANCH  19  20
ATOM     20  N   UNL A   1      32.316  31.456  26.407  1.00  0.00    -0.352 N 
ATOM     21  C   UNL A   1      33.030  32.292  27.233  1.00  0.00     0.251 C 
ATOM     22  H   UNL A   1      31.497  31.840  26.019  1.00  0.00     0.163 HD
ATOM     23  O   UNL A   1      32.581  33.394  27.534  1.00  0.00    -0.269 OA
BRANCH  21  24
ATOM     24  C   UNL A   1      34.327  31.839  27.781  1.00  0.00     0.039 A 
ATOM     25  C   UNL A   1      35.367  32.765  27.903  1.00  0.00     0.014 A 
ATOM     26  C   UNL A   1      34.502  30.520  28.202  1.00  0.00     0.014 A 
ATOM     27  C   UNL A   1      36.563  32.383  28.516  1.00  0.00     0.010 A 
ATOM     28  C   UNL A   1      35.668  30.160  28.873  1.00  0.00     0.010 A 
ATOM     29  C   UNL A   1      36.709  31.088  29.040  1.00  0.00    -0.014 A 
BRANCH  29  30
ATOM     30  C   UNL A   1      37.928  30.687  29.787  1.00  0.00     0.031 A 
ATOM     31  C   UNL A   1      38.899  29.709  29.181  1.00  0.00     0.074 A 
ATOM     32  C   UNL A   1      38.105  31.120  31.051  1.00  0.00     0.049 A 
ATOM     33  N   UNL A   1      39.971  29.180  29.710  1.00  0.00    -0.248 NA
ATOM     34  C   UNL A   1      38.611  29.245  27.814  1.00  0.00     0.031 C 
ATOM     35  C   UNL A   1      37.194  32.004  31.779  1.00  0.00     0.029 A 
ATOM     36  N   UNL A   1      39.098  30.847  31.960  1.00  0.00    -0.354 N 
ATOM     37  C   UNL A   1      40.462  28.291  28.762  1.00  0.00     0.074 A 
ATOM     38  C   UNL A   1      39.556  28.332  27.634  1.00  0.00     0.031 C 
ATOM     39  C   UNL A   1      37.667  32.200  33.020  1.00  0.00     0.029 A 
ATOM     40  C   UNL A   1      38.899  31.437  33.187  1.00  0.00     0.049 A 
ATOM     41  H   UNL A   1      39.877  30.283  31.753  1.00  0.00     0.167 HD
ATOM     42  C   UNL A   1      41.581  27.530  28.811  1.00  0.00     0.034 A 
ATOM     43  C   UNL A   1      39.624  31.365  34.322  1.00  0.00     0.034 A 
ATOM     44  C   UNL A   1      42.510  27.534  29.910  1.00  0.00     0.049 A 
ATOM     45  C   UNL A   1      40.891  30.553  34.330  1.00  0.00     0.074 A 
ATOM     46  C   UNL A   1      43.724  26.879  30.010  1.00  0.00     0.029 A 
ATOM     47  N   UNL A   1      42.326  28.222  31.098  1.00  0.00    -0.354 N 
ATOM     48  N   UNL A   1      41.429  29.854  33.360  1.00  0.00    -0.248 NA
ATOM     49  C   UNL A   1      41.670  30.549  35.577  1.00  0.00     0.031 C 
ATOM     50  C   UNL A   1      44.269  27.160  31.268  1.00  0.00     0.029 A 
ATOM     51  C   UNL A   1      43.401  28.003  31.942  1.00  0.00     0.049 A 
ATOM     52  H   UNL A   1      41.547  28.785  31.310  1.00  0.00     0.167 HD
ATOM     53  C   UNL A   1      42.625  29.358  33.866  1.00  0.00     0.074 A 
ATOM     54  C   UNL A   1      42.742  29.852  35.222  1.00  0.00     0.031 C 
ATOM     55  C   UNL A   1      43.535  28.552  33.267  1.00  0.00     0.034 A 
BRANCH  42  56
ATOM     56  C   UNL A   1      41.899  26.672  27.615  1.00  0.00     0.023 A 
ATOM     57  C   UNL A   1      42.600  27.232  26.528  1.00  0.00     0.012 A 
ATOM     58  C   UNL A   1      41.562  25.305  27.590  1.00  0.00     0.148 A 
ATOM     59  C   UNL A   1      42.934  26.455  25.421  1.00  0.00     0.002 A 
ATOM     60  C   UNL A   1      41.935  24.526  26.501  1.00  0.00     0.091 A 
ATOM     61  F   UNL A   1      40.875  24.795  28.622  1.00  0.00    -0.205 F 
ATOM     62  C   UNL A   1      42.611  25.101  25.411  1.00  0.00     0.022 A 
BRANCH  60  63
ATOM     63  S   UNL A   1      41.634  22.756  26.429  1.00  0.00     0.127 S 
ATOM     64  O   UNL A   1      42.387  22.377  25.235  1.00  0.00    -0.237 OA
ATOM     65  O   UNL A   1      42.215  22.292  27.690  1.00  0.00    -0.237 OA
ATOM     66  O   UNL A   1      40.190  22.600  26.335  1.00  0.00    -0.744 OA
ENDBRANCH  60  63
ENDBRANCH  42  56
BRANCH  43  67
ATOM     67  C   UNL A   1      39.209  32.148  35.520  1.00  0.00     0.023 A 
ATOM     68  C   UNL A   1      39.501  33.524  35.576  1.00  0.00     0.012 A 
ATOM     69  C   UNL A   1      38.506  31.551  36.584  1.00  0.00     0.148 A 
ATOM     70  C   UNL A   1      39.128  34.287  36.684  1.00  0.00     0.002 A 
ATOM     71  C   UNL A   1      38.090  32.328  37.660  1.00  0.00     0.091 A 
ATOM     72  F   UNL A   1      38.248  30.237  36.520  1.00  0.00    -0.205 F 
ATOM     73  C   UNL A   1      38.415  33.692  37.720  1.00  0.00     0.022 A 
BRANCH  71  74
ATOM     74  S   UNL A   1      37.054  31.674  38.974  1.00  0.00     0.127 S 
ATOM     75  O   UNL A   1      36.782  30.321  38.497  1.00  0.00    -0.237 OA
ATOM     76  O   UNL A   1      37.946  31.751  40.132  1.00  0.00    -0.237 OA
ATOM     77  O   UNL A   1      35.905  32.566  39.046  1.00  0.00    -0.744 OA
ENDBRANCH  71  74
ENDBRANCH  43  67
BRANCH  55  78
ATOM     78  C   UNL A   1      44.764  28.175  34.054  1.00  0.00     0.023 A 
ATOM     79  C   UNL A   1      45.882  29.032  34.055  1.00  0.00     0.012 A 
ATOM     80  C   UNL A   1      44.775  27.018  34.858  1.00  0.00     0.148 A 
ATOM     81  C   UNL A   1      47.004  28.729  34.826  1.00  0.00     0.002 A 
ATOM     82  C   UNL A   1      45.878  26.748  35.658  1.00  0.00     0.091 A 
ATOM     83  F   UNL A   1      43.709  26.206  34.827  1.00  0.00    -0.205 F 
ATOM     84  C   UNL A   1      46.998  27.595  35.636  1.00  0.00     0.022 A 
BRANCH  82  85
ATOM     85  S   UNL A   1      45.918  25.364  36.805  1.00  0.00     0.127 S 
ATOM     86  O   UNL A   1      47.293  25.426  37.299  1.00  0.00    -0.237 OA
ATOM     87  O   UNL A   1      44.900  25.741  37.785  1.00  0.00    -0.237 OA
ATOM     88  O   UNL A   1      45.588  24.184  36.017  1.00  0.00    -0.744 OA
ENDBRANCH  82  85
ENDBRANCH  55  78
ENDBRANCH  29  30
ENDBRANCH  21  24
ENDBRANCH  19  20
ENDBRANCH   1  19
TORSDOF 15
ENDMDL
MODEL 3
REMARK VINA RESULT:     -11.6      2.240      2.981
REMARK SMILES CC(=O)[C@H]1CC(C)=C(C)C[C@@H]1C(=O)NCCCCNC(=O)c1ccc(-c2c3nc(c(-c4cccc(S(=O)(=O)[O-])c4F)c4ccc([nH]4)c(-c4cccc(S(=O)(=O)[O-])c4F)c4nc(c(-c5cccc(S(=O)(=O)[O-])c5F)c5ccc2[nH]5)C=C4)C=C3)cc1
REMARK SMILES IDX 17 1 16 2 15 3 14 4 12 5 13 6 11 8 4 9 5 10 6 11 10 12 7 13
REMARK SMILES IDX 8 14 9 15 2 16 1 17 3 18 18 19 19 20 20 21 21 23 22 24 23 25
REMARK SMILES IDX 84 26 24 27 83 28 25 29 26 30 27 31 77 32 28 33 82 34 76 35
REMARK SMILES IDX 78 36 29 37 81 38 75 39 74 40 30 42 62 43 42 44 61 45 43 46
REMARK SMILES IDX 46 47 60 48 79 49 44 50 45 51 59 53 80 54 47 55 31 56 32 57
REMARK SMILES IDX 40 58 33 59 35 60 41 61 34 62 36 63 37 64 38 65 39 66 63 67
REMARK SMILES IDX 64 68 72 69 65 70 67 71 73 72 66 73 68 74 69 75 70 76 71 77
REMARK SMILES IDX 48 78 49 79 57 80 50 81 52 82 58 83 51 84 53 85 54 86 55 87
REMARK SMILES IDX 56 88
REMARK H PARENT 14 7 19 22 78 41 46 52
REMARK Flexibility Score: inf
ROOT
ATOM      1  C   UNL A   1      32.219  28.555  26.098  1.00  0.00     0.023 C 
ENDROOT
BRANCH   1   2
ATOM      2  C   UNL A   1      31.471  27.453  26.853  1.00  0.00     0.023 C 
BRANCH   2   3
ATOM      3  C   UNL A   1      31.259  26.166  26.058  1.00  0.00     0.116 C 
BRANCH   3   4
ATOM      4  N   UNL A   1      31.389  24.992  26.902  1.00  0.00    -0.356 N 
ATOM      5  C   UNL A   1      32.106  23.848  26.732  1.00  0.00     0.224 C 
ATOM      6  O   UNL A   1      31.986  22.956  27.574  1.00  0.00    -0.275 OA
ATOM      7  H   UNL A   1      30.870  25.030  27.738  1.00  0.00     0.163 HD
BRANCH   5   8
ATOM      8  C   UNL A   1      33.020  23.675  25.526  1.00  0.00     0.093 C 
ATOM      9  C   UNL A   1      32.810  22.255  24.968  1.00  0.00     0.072 C 
ATOM     10  C   UNL A   1      34.022  21.317  24.951  1.00  0.00     0.043 C 
ATOM     11  C   UNL A   1      35.383  21.891  25.233  1.00  0.00    -0.074 C 
ATOM     12  C   UNL A   1      34.434  24.092  25.948  1.00  0.00     0.045 C 
ATOM     13  C   UNL A   1      36.507  20.910  25.003  1.00  0.00     0.039 C 
ATOM     14  C   UNL A   1      35.568  23.145  25.683  1.00  0.00    -0.074 C 
ATOM     15  C   UNL A   1      36.929  23.707  26.012  1.00  0.00     0.039 C 
BRANCH   9  16
ATOM     16  C   UNL A   1      32.201  22.309  23.561  1.00  0.00     0.134 C 
ATOM     17  C   UNL A   1      31.606  23.628  23.125  1.00  0.00     0.088 C 
ATOM     18  O   UNL A   1      32.150  21.330  22.816  1.00  0.00    -0.300 OA
ENDBRANCH   9  16
ENDBRANCH   5   8
ENDBRANCH   3   4
ENDBRANCH   2   3
ENDBRANCH   1   2
BRANCH   1  19
ATOM     19  C   UNL A   1      33.554  28.978  26.703  1.00  0.00     0.116 C 
BRANCH  19  20
ATOM     20  N   UNL A   1      33.601  30.388  27.062  1.00  0.00    -0.352 N 
ATOM     21  C   UNL A   1      34.570  31.065  27.764  1.00  0.00     0.251 C 
ATOM     22  H   UNL A   1      32.836  30.929  26.763  1.00  0.00     0.163 HD
ATOM     23  O   UNL A   1      34.398  32.240  28.076  1.00  0.00    -0.269 OA
BRANCH  21  24
ATOM     24  C   UNL A   1      35.804  30.359  28.168  1.00  0.00     0.039 A 
ATOM     25  C   UNL A   1      36.897  30.359  27.296  1.00  0.00     0.014 A 
ATOM     26  C   UNL A   1      35.893  29.730  29.411  1.00  0.00     0.014 A 
ATOM     27  C   UNL A   1      38.106  29.789  27.704  1.00  0.00     0.010 A 
ATOM     28  C   UNL A   1      37.116  29.223  29.842  1.00  0.00     0.010 A 
ATOM     29  C   UNL A   1      38.236  29.250  28.994  1.00  0.00    -0.014 A 
BRANCH  29  30
ATOM     30  C   UNL A   1      39.536  28.731  29.490  1.00  0.00     0.031 A 
ATOM     31  C   UNL A   1      40.261  29.444  30.600  1.00  0.00     0.074 A 
ATOM     32  C   UNL A   1      40.113  27.682  28.871  1.00  0.00     0.049 A 
ATOM     33  N   UNL A   1      41.438  29.191  31.109  1.00  0.00    -0.248 NA
ATOM     34  C   UNL A   1      39.587  30.611  31.194  1.00  0.00     0.031 C 
ATOM     35  C   UNL A   1      39.549  26.957  27.731  1.00  0.00     0.029 A 
ATOM     36  N   UNL A   1      41.319  27.064  29.093  1.00  0.00    -0.354 N 
ATOM     37  C   UNL A   1      41.666  30.187  32.051  1.00  0.00     0.074 A 
ATOM     38  C   UNL A   1      40.516  31.065  32.024  1.00  0.00     0.031 C 
ATOM     39  C   UNL A   1      40.406  25.995  27.353  1.00  0.00     0.029 A 
ATOM     40  C   UNL A   1      41.591  26.050  28.203  1.00  0.00     0.049 A 
ATOM     41  H   UNL A   1      41.931  27.322  29.819  1.00  0.00     0.167 HD
ATOM     42  C   UNL A   1      42.723  30.342  32.883  1.00  0.00     0.034 A 
ATOM     43  C   UNL A   1      42.675  25.259  28.081  1.00  0.00     0.034 A 
ATOM     44  C   UNL A   1      43.838  29.436  32.947  1.00  0.00     0.049 A 
ATOM     45  C   UNL A   1      43.812  25.420  29.054  1.00  0.00     0.074 A 
ATOM     46  C   UNL A   1      44.905  29.447  33.827  1.00  0.00     0.029 A 
ATOM     47  N   UNL A   1      44.031  28.360  32.096  1.00  0.00    -0.354 N 
ATOM     48  N   UNL A   1      43.930  26.263  30.052  1.00  0.00    -0.248 NA
ATOM     49  C   UNL A   1      44.948  24.498  28.909  1.00  0.00     0.031 C 
ATOM     50  C   UNL A   1      45.754  28.385  33.497  1.00  0.00     0.029 A 
ATOM     51  C   UNL A   1      45.205  27.703  32.424  1.00  0.00     0.049 A 
ATOM     52  H   UNL A   1      43.423  28.100  31.367  1.00  0.00     0.167 HD
ATOM     53  C   UNL A   1      45.133  25.950  30.675  1.00  0.00     0.074 A 
ATOM     54  C   UNL A   1      45.698  24.828  29.953  1.00  0.00     0.031 C 
ATOM     55  C   UNL A   1      45.725  26.549  31.737  1.00  0.00     0.034 A 
BRANCH  42  56
ATOM     56  C   UNL A   1      42.696  31.504  33.841  1.00  0.00     0.023 A 
ATOM     57  C   UNL A   1      43.220  32.748  33.435  1.00  0.00     0.012 A 
ATOM     58  C   UNL A   1      42.100  31.386  35.112  1.00  0.00     0.148 A 
ATOM     59  C   UNL A   1      43.182  33.848  34.289  1.00  0.00     0.002 A 
ATOM     60  C   UNL A   1      42.027  32.499  35.942  1.00  0.00     0.091 A 
ATOM     61  F   UNL A   1      41.627  30.190  35.489  1.00  0.00    -0.205 F 
ATOM     62  C   UNL A   1      42.577  33.727  35.537  1.00  0.00     0.022 A 
BRANCH  60  63
ATOM     63  S   UNL A   1      41.200  32.464  37.536  1.00  0.00     0.127 S 
ATOM     64  O   UNL A   1      41.228  33.876  37.914  1.00  0.00    -0.237 OA
ATOM     65  O   UNL A   1      39.874  31.953  37.185  1.00  0.00    -0.237 OA
ATOM     66  O   UNL A   1      41.988  31.574  38.376  1.00  0.00    -0.744 OA
ENDBRANCH  60  63
ENDBRANCH  42  56
BRANCH  43  67
ATOM     67  C   UNL A   1      42.703  24.189  27.044  1.00  0.00     0.023 A 
ATOM     68  C   UNL A   1      43.432  24.402  25.857  1.00  0.00     0.012 A 
ATOM     69  C   UNL A   1      42.045  22.959  27.233  1.00  0.00     0.148 A 
ATOM     70  C   UNL A   1      43.479  23.423  24.865  1.00  0.00     0.002 A 
ATOM     71  C   UNL A   1      42.141  21.967  26.264  1.00  0.00     0.091 A 
ATOM     72  F   UNL A   1      41.345  22.779  28.362  1.00  0.00    -0.205 F 
ATOM     73  C   UNL A   1      42.843  22.203  25.072  1.00  0.00     0.022 A 
BRANCH  71  74
ATOM     74  S   UNL A   1      41.463  20.320  26.504  1.00  0.00     0.127 S 
ATOM     75  O   UNL A   1      40.030  20.560  26.353  1.00  0.00    -0.237 OA
ATOM     76  O   UNL A   1      42.082  19.573  25.409  1.00  0.00    -0.237 OA
ATOM     77  O   UNL A   1      41.903  19.908  27.831  1.00  0.00    -0.744 OA
ENDBRANCH  71  74
ENDBRANCH  43  67
BRANCH  55  78
ATOM     78  C   UNL A   1      47.038  25.988  32.217  1.00  0.00     0.023 A 
ATOM     79  C   UNL A   1      48.243  26.461  31.663  1.00  0.00     0.012 A 
ATOM     80  C   UNL A   1      47.079  25.059  33.275  1.00  0.00     0.148 A 
ATOM     81  C   UNL A   1      49.470  25.998  32.137  1.00  0.00     0.002 A 
ATOM     82  C   UNL A   1      48.305  24.637  33.773  1.00  0.00     0.091 A 
ATOM     83  F   UNL A   1      45.920  24.606  33.775  1.00  0.00    -0.205 F 
ATOM     84  C   UNL A   1      49.502  25.096  33.199  1.00  0.00     0.022 A 
BRANCH  82  85
ATOM     85  S   UNL A   1      48.442  23.553  35.200  1.00  0.00     0.127 S 
ATOM     86  O   UNL A   1      47.702  22.374  34.752  1.00  0.00    -0.237 OA
ATOM     87  O   UNL A   1      49.889  23.360  35.307  1.00  0.00    -0.237 OA
ATOM     88  O   UNL A   1      47.848  24.281  36.313  1.00  0.00    -0.744 OA
ENDBRANCH  82  85
ENDBRANCH  55  78
ENDBRANCH  29  30
ENDBRANCH  21  24
ENDBRANCH  19  20
ENDBRANCH   1  19
TORSDOF 15
ENDMDL
