MODEL 1
REMARK VINA RESULT:     -12.5      0.000      0.000
REMARK SMILES Cc1c(C(=O)NCCCCNC(=O)c2ccc(-c3c4nc(c(-c5cccc(S(=O)(=O)[O-])c5F)c5ccc([nH]5)c(-c5cccc(S(=O)(=O)[O-])c5F)c5nc(c(-c6cccc(S(=O)(=O)[O-])c6F)c6ccc3[nH]6)C=C5)C=C4)cc2)sc2ncnc(NCc3cn4c(n3)SCC4)c12
REMARK SMILES IDX 8 1 7 2 6 3 4 4 5 5 3 7 1 8 2 9 93 10 77 11 78 12 82 13
REMARK SMILES IDX 79 14 81 15 80 16 83 17 84 19 85 20 86 21 89 22 87 23 88 24
REMARK SMILES IDX 92 25 90 26 91 27 9 28 10 29 11 30 12 31 13 33 14 34 15 35
REMARK SMILES IDX 76 36 16 37 75 38 17 39 18 40 19 41 69 42 20 43 74 44 68 45
REMARK SMILES IDX 70 46 21 47 73 48 67 49 66 50 22 52 54 53 34 54 53 55 35 56
REMARK SMILES IDX 38 57 52 58 71 59 36 60 37 61 51 63 72 64 39 65 23 66 24 67
REMARK SMILES IDX 32 68 25 69 27 70 33 71 26 72 28 73 29 74 30 75 31 76 55 77
REMARK SMILES IDX 56 78 64 79 57 80 59 81 65 82 58 83 60 84 61 85 62 86 63 87
REMARK SMILES IDX 40 88 41 89 49 90 42 91 44 92 50 93 43 94 45 95 46 96 47 97
REMARK SMILES IDX 48 98
REMARK H PARENT 6 6 83 18 11 32 70 51 38 62
REMARK Flexibility Score: inf
ROOT
ATOM      1  C   UNL A   1      39.020  22.177  26.031  1.00  0.00     0.023 C 
ENDROOT
BRANCH   1   2
ATOM      2  C   UNL A   1      37.621  22.761  25.842  1.00  0.00     0.116 C 
BRANCH   2   3
ATOM      3  N   UNL A   1      37.306  22.924  24.442  1.00  0.00    -0.351 N 
ATOM      4  C   UNL A   1      36.145  23.080  23.731  1.00  0.00     0.261 C 
ATOM      5  O   UNL A   1      36.343  23.096  22.512  1.00  0.00    -0.268 OA
ATOM      6  H   UNL A   1      38.107  22.923  23.869  1.00  0.00     0.163 HD
BRANCH   4   7
ATOM      7  C   UNL A   1      34.807  23.241  24.319  1.00  0.00     0.098 A 
ATOM      8  C   UNL A   1      34.048  25.162  22.850  1.00  0.00     0.047 C 
ATOM      9  C   UNL A   1      33.860  24.232  24.006  1.00  0.00    -0.014 A 
ATOM     10  C   UNL A   1      32.725  24.253  24.952  1.00  0.00     0.057 A 
ATOM     11  S   UNL A   1      34.151  22.162  25.454  1.00  0.00    -0.110 S 
ATOM     12  C   UNL A   1      32.816  23.135  25.771  1.00  0.00     0.129 A 
ATOM     13  C   UNL A   1      31.599  25.081  25.237  1.00  0.00     0.138 A 
ATOM     14  N   UNL A   1      31.987  22.746  26.752  1.00  0.00    -0.225 NA
ATOM     15  N   UNL A   1      30.754  24.705  26.236  1.00  0.00    -0.219 NA
ATOM     16  C   UNL A   1      30.981  23.588  26.923  1.00  0.00     0.225 A 
BRANCH  13  17
ATOM     17  N   UNL A   1      31.186  26.281  24.725  1.00  0.00    -0.364 N 
ATOM     18  H   UNL A   1      31.173  27.020  25.375  1.00  0.00     0.162 HD
BRANCH  17  19
ATOM     19  C   UNL A   1      30.770  26.641  23.402  1.00  0.00     0.172 C 
BRANCH  19  20
ATOM     20  C   UNL A   1      30.454  28.086  23.155  1.00  0.00     0.079 A 
ATOM     21  C   UNL A   1      30.499  29.132  24.067  1.00  0.00     0.113 A 
ATOM     22  N   UNL A   1      29.926  28.508  21.939  1.00  0.00    -0.226 NA
ATOM     23  N   UNL A   1      29.881  30.149  23.419  1.00  0.00    -0.325 N 
ATOM     24  C   UNL A   1      29.596  29.749  22.149  1.00  0.00     0.168 A 
ATOM     25  C   UNL A   1      29.099  31.258  23.929  1.00  0.00     0.135 C 
ATOM     26  S   UNL A   1      28.372  30.722  21.412  1.00  0.00    -0.086 SA
ATOM     27  C   UNL A   1      27.822  31.249  23.085  1.00  0.00     0.100 C 
ENDBRANCH  19  20
ENDBRANCH  17  19
ENDBRANCH  13  17
ENDBRANCH   4   7
ENDBRANCH   2   3
ENDBRANCH   1   2
BRANCH   1  28
ATOM     28  C   UNL A   1      39.221  20.783  25.416  1.00  0.00     0.023 C 
BRANCH  28  29
ATOM     29  C   UNL A   1      39.775  19.738  26.379  1.00  0.00     0.116 C 
BRANCH  29  30
ATOM     30  N   UNL A   1      41.028  19.146  25.905  1.00  0.00    -0.352 N 
ATOM     31  C   UNL A   1      42.223  19.790  25.664  1.00  0.00     0.251 C 
ATOM     32  H   UNL A   1      41.016  18.175  25.740  1.00  0.00     0.163 HD
ATOM     33  O   UNL A   1      43.073  19.298  24.921  1.00  0.00    -0.269 OA
BRANCH  31  34
ATOM     34  C   UNL A   1      42.474  21.065  26.349  1.00  0.00     0.039 A 
ATOM     35  C   UNL A   1      42.748  22.243  25.655  1.00  0.00     0.014 A 
ATOM     36  C   UNL A   1      42.378  21.054  27.739  1.00  0.00     0.014 A 
ATOM     37  C   UNL A   1      42.850  23.426  26.381  1.00  0.00     0.010 A 
ATOM     38  C   UNL A   1      42.312  22.233  28.430  1.00  0.00     0.010 A 
ATOM     39  C   UNL A   1      42.614  23.412  27.768  1.00  0.00    -0.014 A 
BRANCH  39  40
ATOM     40  C   UNL A   1      42.557  24.647  28.534  1.00  0.00     0.031 A 
ATOM     41  C   UNL A   1      41.325  25.439  28.298  1.00  0.00     0.074 A 
ATOM     42  C   UNL A   1      43.447  24.961  29.500  1.00  0.00     0.049 A 
ATOM     43  N   UNL A   1      41.217  26.496  27.566  1.00  0.00    -0.248 NA
ATOM     44  C   UNL A   1      40.038  24.895  28.752  1.00  0.00     0.031 C 
ATOM     45  C   UNL A   1      44.532  24.139  30.056  1.00  0.00     0.029 A 
ATOM     46  N   UNL A   1      43.500  26.075  30.273  1.00  0.00    -0.354 N 
ATOM     47  C   UNL A   1      39.895  26.910  27.699  1.00  0.00     0.074 A 
ATOM     48  C   UNL A   1      39.184  25.775  28.222  1.00  0.00     0.031 C 
ATOM     49  C   UNL A   1      44.970  24.686  31.213  1.00  0.00     0.029 A 
ATOM     50  C   UNL A   1      44.340  25.980  31.379  1.00  0.00     0.049 A 
ATOM     51  H   UNL A   1      42.983  26.889  30.069  1.00  0.00     0.167 HD
ATOM     52  C   UNL A   1      39.579  28.234  27.635  1.00  0.00     0.034 A 
ATOM     53  C   UNL A   1      44.496  26.905  32.356  1.00  0.00     0.034 A 
ATOM     54  C   UNL A   1      40.681  28.994  27.082  1.00  0.00     0.049 A 
ATOM     55  C   UNL A   1      44.073  28.201  31.776  1.00  0.00     0.074 A 
ATOM     56  C   UNL A   1      41.389  28.974  25.897  1.00  0.00     0.029 A 
ATOM     57  N   UNL A   1      41.476  29.664  27.982  1.00  0.00    -0.354 N 
ATOM     58  N   UNL A   1      44.703  28.782  30.793  1.00  0.00    -0.248 NA
ATOM     59  C   UNL A   1      42.697  28.615  31.978  1.00  0.00     0.031 C 
ATOM     60  C   UNL A   1      42.746  29.204  26.276  1.00  0.00     0.029 A 
ATOM     61  C   UNL A   1      42.784  29.431  27.654  1.00  0.00     0.049 A 
ATOM     62  H   UNL A   1      41.159  30.217  28.733  1.00  0.00     0.167 HD
ATOM     63  C   UNL A   1      43.689  29.261  29.975  1.00  0.00     0.074 A 
ATOM     64  C   UNL A   1      42.486  29.225  30.808  1.00  0.00     0.031 C 
ATOM     65  C   UNL A   1      43.859  29.362  28.623  1.00  0.00     0.034 A 
BRANCH  52  66
ATOM     66  C   UNL A   1      38.483  28.919  28.433  1.00  0.00     0.023 A 
ATOM     67  C   UNL A   1      37.617  29.775  27.710  1.00  0.00     0.012 A 
ATOM     68  C   UNL A   1      38.416  28.999  29.843  1.00  0.00     0.148 A 
ATOM     69  C   UNL A   1      36.810  30.722  28.349  1.00  0.00     0.002 A 
ATOM     70  C   UNL A   1      37.559  29.895  30.476  1.00  0.00     0.091 A 
ATOM     71  F   UNL A   1      39.256  28.297  30.602  1.00  0.00    -0.205 F 
ATOM     72  C   UNL A   1      36.783  30.785  29.734  1.00  0.00     0.022 A 
BRANCH  70  73
ATOM     73  S   UNL A   1      37.445  29.989  32.269  1.00  0.00     0.127 S 
ATOM     74  O   UNL A   1      36.345  30.933  32.442  1.00  0.00    -0.237 OA
ATOM     75  O   UNL A   1      37.134  28.602  32.619  1.00  0.00    -0.237 OA
ATOM     76  O   UNL A   1      38.753  30.441  32.727  1.00  0.00    -0.744 OA
ENDBRANCH  70  73
ENDBRANCH  52  66
BRANCH  53  77
ATOM     77  C   UNL A   1      44.710  26.736  33.813  1.00  0.00     0.023 A 
ATOM     78  C   UNL A   1      45.904  27.203  34.402  1.00  0.00     0.012 A 
ATOM     79  C   UNL A   1      43.627  26.419  34.662  1.00  0.00     0.148 A 
ATOM     80  C   UNL A   1      46.002  27.390  35.787  1.00  0.00     0.002 A 
ATOM     81  C   UNL A   1      43.727  26.614  36.038  1.00  0.00     0.091 A 
ATOM     82  F   UNL A   1      42.476  26.015  34.109  1.00  0.00    -0.205 F 
ATOM     83  C   UNL A   1      44.908  27.112  36.602  1.00  0.00     0.022 A 
BRANCH  81  84
ATOM     84  S   UNL A   1      42.346  26.335  37.156  1.00  0.00     0.127 S 
ATOM     85  O   UNL A   1      41.924  24.984  36.781  1.00  0.00    -0.237 OA
ATOM     86  O   UNL A   1      42.991  26.431  38.464  1.00  0.00    -0.237 OA
ATOM     87  O   UNL A   1      41.373  27.376  36.858  1.00  0.00    -0.744 OA
ENDBRANCH  81  84
ENDBRANCH  53  77
BRANCH  65  88
ATOM     88  C   UNL A   1      45.247  29.145  28.059  1.00  0.00     0.023 A 
ATOM     89  C   UNL A   1      46.255  30.130  28.126  1.00  0.00     0.012 A 
ATOM     90  C   UNL A   1      45.598  27.851  27.638  1.00  0.00     0.148 A 
ATOM     91  C   UNL A   1      47.578  29.834  27.776  1.00  0.00     0.002 A 
ATOM     92  C   UNL A   1      46.922  27.547  27.338  1.00  0.00     0.091 A 
ATOM     93  F   UNL A   1      44.631  26.922  27.580  1.00  0.00    -0.205 F 
ATOM     94  C   UNL A   1      47.913  28.538  27.398  1.00  0.00     0.022 A 
BRANCH  92  95
ATOM     95  S   UNL A   1      47.446  25.869  26.980  1.00  0.00     0.127 S 
ATOM     96  O   UNL A   1      47.228  25.201  28.261  1.00  0.00    -0.237 OA
ATOM     97  O   UNL A   1      46.520  25.473  25.918  1.00  0.00    -0.237 OA
ATOM     98  O   UNL A   1      48.837  25.962  26.553  1.00  0.00    -0.744 OA
ENDBRANCH  92  95
ENDBRANCH  65  88
ENDBRANCH  39  40
ENDBRANCH  31  34
ENDBRANCH  29  30
ENDBRANCH  28  29
ENDBRANCH   1  28
TORSDOF 17
ENDMDL
MODEL 2
REMARK VINA RESULT:     -11.9      3.069      8.153
REMARK SMILES Cc1c(C(=O)NCCCCNC(=O)c2ccc(-c3c4nc(c(-c5cccc(S(=O)(=O)[O-])c5F)c5ccc([nH]5)c(-c5cccc(S(=O)(=O)[O-])c5F)c5nc(c(-c6cccc(S(=O)(=O)[O-])c6F)c6ccc3[nH]6)C=C5)C=C4)cc2)sc2ncnc(NCc3cn4c(n3)SCC4)c12
REMARK SMILES IDX 8 1 7 2 6 3 4 4 5 5 3 7 1 8 2 9 93 10 77 11 78 12 82 13
REMARK SMILES IDX 79 14 81 15 80 16 83 17 84 19 85 20 86 21 89 22 87 23 88 24
REMARK SMILES IDX 92 25 90 26 91 27 9 28 10 29 11 30 12 31 13 33 14 34 15 35
REMARK SMILES IDX 76 36 16 37 75 38 17 39 18 40 19 41 69 42 20 43 74 44 68 45
REMARK SMILES IDX 70 46 21 47 73 48 67 49 66 50 22 52 54 53 34 54 53 55 35 56
REMARK SMILES IDX 38 57 52 58 71 59 36 60 37 61 51 63 72 64 39 65 23 66 24 67
REMARK SMILES IDX 32 68 25 69 27 70 33 71 26 72 28 73 29 74 30 75 31 76 55 77
REMARK SMILES IDX 56 78 64 79 57 80 59 81 65 82 58 83 60 84 61 85 62 86 63 87
REMARK SMILES IDX 40 88 41 89 49 90 42 91 44 92 50 93 43 94 45 95 46 96 47 97
REMARK SMILES IDX 48 98
REMARK H PARENT 6 6 83 18 11 32 70 51 38 62
REMARK Flexibility Score: inf
ROOT
ATOM      1  C   UNL A   1      32.308  30.027  25.876  1.00  0.00     0.023 C 
ENDROOT
BRANCH   1   2
ATOM      2  C   UNL A   1      32.694  29.304  24.586  1.00  0.00     0.116 C 
BRANCH   2   3
ATOM      3  N   UNL A   1      31.666  29.441  23.581  1.00  0.00    -0.351 N 
ATOM      4  C   UNL A   1      31.093  28.591  22.672  1.00  0.00     0.261 C 
ATOM      5  O   UNL A   1      30.292  29.170  21.932  1.00  0.00    -0.268 OA
ATOM      6  H   UNL A   1      31.292  30.351  23.541  1.00  0.00     0.163 HD
BRANCH   4   7
ATOM      7  C   UNL A   1      31.359  27.148  22.577  1.00  0.00     0.098 A 
ATOM      8  C   UNL A   1      29.653  26.403  24.298  1.00  0.00     0.047 C 
ATOM      9  C   UNL A   1      30.788  26.131  23.362  1.00  0.00    -0.014 A 
ATOM     10  C   UNL A   1      31.455  24.825  23.175  1.00  0.00     0.057 A 
ATOM     11  S   UNL A   1      32.377  26.461  21.405  1.00  0.00    -0.110 S 
ATOM     12  C   UNL A   1      32.335  24.932  22.106  1.00  0.00     0.129 A 
ATOM     13  C   UNL A   1      31.435  23.531  23.773  1.00  0.00     0.138 A 
ATOM     14  N   UNL A   1      33.127  23.987  21.575  1.00  0.00    -0.225 NA
ATOM     15  N   UNL A   1      32.240  22.564  23.252  1.00  0.00    -0.219 NA
ATOM     16  C   UNL A   1      33.022  22.831  22.208  1.00  0.00     0.225 A 
BRANCH  13  17
ATOM     17  N   UNL A   1      30.779  23.031  24.864  1.00  0.00    -0.364 N 
ATOM     18  H   UNL A   1      29.813  22.895  24.734  1.00  0.00     0.162 HD
BRANCH  17  19
ATOM     19  C   UNL A   1      31.263  22.673  26.165  1.00  0.00     0.172 C 
BRANCH  19  20
ATOM     20  C   UNL A   1      32.748  22.543  26.329  1.00  0.00     0.079 A 
ATOM     21  C   UNL A   1      33.658  23.545  26.638  1.00  0.00     0.113 A 
ATOM     22  N   UNL A   1      33.401  21.350  26.035  1.00  0.00    -0.226 NA
ATOM     23  N   UNL A   1      34.862  22.967  26.409  1.00  0.00    -0.325 N 
ATOM     24  C   UNL A   1      34.664  21.656  26.094  1.00  0.00     0.168 A 
ATOM     25  C   UNL A   1      36.121  23.542  25.978  1.00  0.00     0.135 C 
ATOM     26  S   UNL A   1      36.023  20.963  25.281  1.00  0.00    -0.086 SA
ATOM     27  C   UNL A   1      36.574  22.654  24.818  1.00  0.00     0.100 C 
ENDBRANCH  19  20
ENDBRANCH  17  19
ENDBRANCH  13  17
ENDBRANCH   4   7
ENDBRANCH   2   3
ENDBRANCH   1   2
BRANCH   1  28
ATOM     28  C   UNL A   1      33.140  29.630  27.106  1.00  0.00     0.023 C 
BRANCH  28  29
ATOM     29  C   UNL A   1      34.532  30.250  27.157  1.00  0.00     0.116 C 
BRANCH  29  30
ATOM     30  N   UNL A   1      34.544  31.552  27.827  1.00  0.00    -0.352 N 
ATOM     31  C   UNL A   1      35.234  31.903  28.967  1.00  0.00     0.251 C 
ATOM     32  H   UNL A   1      33.995  32.259  27.415  1.00  0.00     0.163 HD
ATOM     33  O   UNL A   1      34.886  32.866  29.651  1.00  0.00    -0.269 OA
BRANCH  31  34
ATOM     34  C   UNL A   1      36.424  31.122  29.326  1.00  0.00     0.039 A 
ATOM     35  C   UNL A   1      36.344  29.803  29.773  1.00  0.00     0.014 A 
ATOM     36  C   UNL A   1      37.656  31.748  29.150  1.00  0.00     0.014 A 
ATOM     37  C   UNL A   1      37.529  29.101  29.971  1.00  0.00     0.010 A 
ATOM     38  C   UNL A   1      38.810  31.013  29.183  1.00  0.00     0.010 A 
ATOM     39  C   UNL A   1      38.757  29.712  29.657  1.00  0.00    -0.014 A 
BRANCH  39  40
ATOM     40  C   UNL A   1      40.003  28.962  29.701  1.00  0.00     0.031 A 
ATOM     41  C   UNL A   1      40.533  28.768  31.073  1.00  0.00     0.074 A 
ATOM     42  C   UNL A   1      40.537  28.346  28.624  1.00  0.00     0.049 A 
ATOM     43  N   UNL A   1      41.505  29.415  31.623  1.00  0.00    -0.248 NA
ATOM     44  C   UNL A   1      39.785  27.913  32.006  1.00  0.00     0.031 C 
ATOM     45  C   UNL A   1      39.969  28.190  27.278  1.00  0.00     0.029 A 
ATOM     46  N   UNL A   1      41.685  27.628  28.543  1.00  0.00    -0.354 N 
ATOM     47  C   UNL A   1      41.670  28.845  32.882  1.00  0.00     0.074 A 
ATOM     48  C   UNL A   1      40.454  28.123  33.143  1.00  0.00     0.031 C 
ATOM     49  C   UNL A   1      40.657  27.242  26.601  1.00  0.00     0.029 A 
ATOM     50  C   UNL A   1      41.816  26.867  27.384  1.00  0.00     0.049 A 
ATOM     51  H   UNL A   1      42.373  27.643  29.247  1.00  0.00     0.167 HD
ATOM     52  C   UNL A   1      42.904  28.792  33.457  1.00  0.00     0.034 A 
ATOM     53  C   UNL A   1      42.811  25.991  27.102  1.00  0.00     0.034 A 
ATOM     54  C   UNL A   1      43.823  29.675  32.771  1.00  0.00     0.049 A 
ATOM     55  C   UNL A   1      43.967  26.388  27.939  1.00  0.00     0.074 A 
ATOM     56  C   UNL A   1      43.867  31.029  32.502  1.00  0.00     0.029 A 
ATOM     57  N   UNL A   1      44.684  29.087  31.874  1.00  0.00    -0.354 N 
ATOM     58  N   UNL A   1      44.597  27.521  27.795  1.00  0.00    -0.248 NA
ATOM     59  C   UNL A   1      44.125  25.736  29.227  1.00  0.00     0.031 C 
ATOM     60  C   UNL A   1      44.371  31.123  31.170  1.00  0.00     0.029 A 
ATOM     61  C   UNL A   1      44.683  29.835  30.728  1.00  0.00     0.049 A 
ATOM     62  H   UNL A   1      45.212  28.271  32.030  1.00  0.00     0.167 HD
ATOM     63  C   UNL A   1      44.826  27.951  29.096  1.00  0.00     0.074 A 
ATOM     64  C   UNL A   1      44.613  26.764  29.926  1.00  0.00     0.031 C 
ATOM     65  C   UNL A   1      44.876  29.281  29.403  1.00  0.00     0.034 A 
BRANCH  52  66
ATOM     66  C   UNL A   1      43.416  27.669  34.343  1.00  0.00     0.023 A 
ATOM     67  C   UNL A   1      43.977  28.051  35.585  1.00  0.00     0.012 A 
ATOM     68  C   UNL A   1      43.634  26.332  33.937  1.00  0.00     0.148 A 
ATOM     69  C   UNL A   1      44.789  27.188  36.328  1.00  0.00     0.002 A 
ATOM     70  C   UNL A   1      44.386  25.455  34.714  1.00  0.00     0.091 A 
ATOM     71  F   UNL A   1      43.221  25.910  32.743  1.00  0.00    -0.205 F 
ATOM     72  C   UNL A   1      44.997  25.889  35.890  1.00  0.00     0.022 A 
BRANCH  70  73
ATOM     73  S   UNL A   1      44.650  23.744  34.223  1.00  0.00     0.127 S 
ATOM     74  O   UNL A   1      45.219  23.909  32.888  1.00  0.00    -0.237 OA
ATOM     75  O   UNL A   1      45.589  23.285  35.246  1.00  0.00    -0.237 OA
ATOM     76  O   UNL A   1      43.341  23.107  34.285  1.00  0.00    -0.744 OA
ENDBRANCH  70  73
ENDBRANCH  52  66
BRANCH  53  77
ATOM     77  C   UNL A   1      42.773  24.691  26.393  1.00  0.00     0.023 A 
ATOM     78  C   UNL A   1      43.890  24.275  25.637  1.00  0.00     0.012 A 
ATOM     79  C   UNL A   1      41.791  23.729  26.716  1.00  0.00     0.148 A 
ATOM     80  C   UNL A   1      44.045  22.936  25.254  1.00  0.00     0.002 A 
ATOM     81  C   UNL A   1      41.954  22.398  26.340  1.00  0.00     0.091 A 
ATOM     82  F   UNL A   1      40.748  24.105  27.469  1.00  0.00    -0.205 F 
ATOM     83  C   UNL A   1      43.086  21.995  25.620  1.00  0.00     0.022 A 
BRANCH  81  84
ATOM     84  S   UNL A   1      40.794  21.108  26.819  1.00  0.00     0.127 S 
ATOM     85  O   UNL A   1      40.809  21.219  28.278  1.00  0.00    -0.237 OA
ATOM     86  O   UNL A   1      39.558  21.562  26.185  1.00  0.00    -0.237 OA
ATOM     87  O   UNL A   1      41.345  19.863  26.302  1.00  0.00    -0.744 OA
ENDBRANCH  81  84
ENDBRANCH  53  77
BRANCH  65  88
ATOM     88  C   UNL A   1      44.891  30.278  28.264  1.00  0.00     0.023 A 
ATOM     89  C   UNL A   1      43.710  30.725  27.633  1.00  0.00     0.012 A 
ATOM     90  C   UNL A   1      46.100  30.926  27.963  1.00  0.00     0.148 A 
ATOM     91  C   UNL A   1      43.736  31.788  26.721  1.00  0.00     0.002 A 
ATOM     92  C   UNL A   1      46.116  32.013  27.095  1.00  0.00     0.091 A 
ATOM     93  F   UNL A   1      47.216  30.494  28.571  1.00  0.00    -0.205 F 
ATOM     94  C   UNL A   1      44.937  32.441  26.466  1.00  0.00     0.022 A 
BRANCH  92  95
ATOM     95  S   UNL A   1      47.599  32.986  26.830  1.00  0.00     0.127 S 
ATOM     96  O   UNL A   1      47.807  33.592  28.143  1.00  0.00    -0.237 OA
ATOM     97  O   UNL A   1      48.582  31.965  26.465  1.00  0.00    -0.237 OA
ATOM     98  O   UNL A   1      47.284  33.920  25.755  1.00  0.00    -0.744 OA
ENDBRANCH  92  95
ENDBRANCH  65  88
ENDBRANCH  39  40
ENDBRANCH  31  34
ENDBRANCH  29  30
ENDBRANCH  28  29
ENDBRANCH   1  28
TORSDOF 17
ENDMDL
MODEL 3
REMARK VINA RESULT:     -11.8      3.037      8.427
REMARK SMILES Cc1c(C(=O)NCCCCNC(=O)c2ccc(-c3c4nc(c(-c5cccc(S(=O)(=O)[O-])c5F)c5ccc([nH]5)c(-c5cccc(S(=O)(=O)[O-])c5F)c5nc(c(-c6cccc(S(=O)(=O)[O-])c6F)c6ccc3[nH]6)C=C5)C=C4)cc2)sc2ncnc(NCc3cn4c(n3)SCC4)c12
REMARK SMILES IDX 8 1 7 2 6 3 4 4 5 5 3 7 1 8 2 9 93 10 77 11 78 12 82 13
REMARK SMILES IDX 79 14 81 15 80 16 83 17 84 19 85 20 86 21 89 22 87 23 88 24
REMARK SMILES IDX 92 25 90 26 91 27 9 28 10 29 11 30 12 31 13 33 14 34 15 35
REMARK SMILES IDX 76 36 16 37 75 38 17 39 18 40 19 41 69 42 20 43 74 44 68 45
REMARK SMILES IDX 70 46 21 47 73 48 67 49 66 50 22 52 54 53 34 54 53 55 35 56
REMARK SMILES IDX 38 57 52 58 71 59 36 60 37 61 51 63 72 64 39 65 23 66 24 67
REMARK SMILES IDX 32 68 25 69 27 70 33 71 26 72 28 73 29 74 30 75 31 76 55 77
REMARK SMILES IDX 56 78 64 79 57 80 59 81 65 82 58 83 60 84 61 85 62 86 63 87
REMARK SMILES IDX 40 88 41 89 49 90 42 91 44 92 50 93 43 94 45 95 46 96 47 97
REMARK SMILES IDX 48 98
REMARK H PARENT 6 6 83 18 11 32 70 51 38 62
REMARK Flexibility Score: inf
ROOT
ATOM      1  C   UNL A   1      32.162  29.230  26.604  1.00  0.00     0.023 C 
ENDROOT
BRANCH   1   2
ATOM      2  C   UNL A   1      32.147  29.436  25.089  1.00  0.00     0.116 C 
BRANCH   2   3
ATOM      3  N   UNL A   1      30.881  29.039  24.519  1.00  0.00    -0.351 N 
ATOM      4  C   UNL A   1      30.436  27.931  23.847  1.00  0.00     0.261 C 
ATOM      5  O   UNL A   1      29.271  28.058  23.457  1.00  0.00    -0.268 OA
ATOM      6  H   UNL A   1      30.179  29.718  24.641  1.00  0.00     0.163 HD
BRANCH   4   7
ATOM      7  C   UNL A   1      31.218  26.706  23.621  1.00  0.00     0.098 A 
ATOM      8  C   UNL A   1      31.033  25.779  25.973  1.00  0.00     0.047 C 
ATOM      9  C   UNL A   1      31.586  25.749  24.583  1.00  0.00    -0.014 A 
ATOM     10  C   UNL A   1      32.574  24.777  24.071  1.00  0.00     0.057 A 
ATOM     11  S   UNL A   1      31.748  26.207  22.087  1.00  0.00    -0.110 S 
ATOM     12  C   UNL A   1      32.704  24.965  22.701  1.00  0.00     0.129 A 
ATOM     13  C   UNL A   1      33.397  23.733  24.586  1.00  0.00     0.138 A 
ATOM     14  N   UNL A   1      33.472  24.290  21.832  1.00  0.00    -0.225 NA
ATOM     15  N   UNL A   1      34.189  23.045  23.718  1.00  0.00    -0.219 NA
ATOM     16  C   UNL A   1      34.186  23.346  22.422  1.00  0.00     0.225 A 
BRANCH  13  17
ATOM     17  N   UNL A   1      33.619  23.278  25.857  1.00  0.00    -0.364 N 
ATOM     18  H   UNL A   1      33.347  23.902  26.568  1.00  0.00     0.162 HD
BRANCH  17  19
ATOM     19  C   UNL A   1      34.181  22.046  26.325  1.00  0.00     0.172 C 
BRANCH  19  20
ATOM     20  C   UNL A   1      33.827  20.802  25.566  1.00  0.00     0.079 A 
ATOM     21  C   UNL A   1      32.590  20.176  25.491  1.00  0.00     0.113 A 
ATOM     22  N   UNL A   1      34.807  20.042  24.934  1.00  0.00    -0.226 NA
ATOM     23  N   UNL A   1      32.867  18.983  24.914  1.00  0.00    -0.325 N 
ATOM     24  C   UNL A   1      34.184  18.963  24.564  1.00  0.00     0.168 A 
ATOM     25  C   UNL A   1      32.228  17.690  25.060  1.00  0.00     0.135 C 
ATOM     26  S   UNL A   1      34.774  17.357  24.318  1.00  0.00    -0.086 SA
ATOM     27  C   UNL A   1      33.378  16.718  25.328  1.00  0.00     0.100 C 
ENDBRANCH  19  20
ENDBRANCH  17  19
ENDBRANCH  13  17
ENDBRANCH   4   7
ENDBRANCH   2   3
ENDBRANCH   1   2
BRANCH   1  28
ATOM     28  C   UNL A   1      33.491  28.701  27.165  1.00  0.00     0.023 C 
BRANCH  28  29
ATOM     29  C   UNL A   1      34.708  29.554  26.822  1.00  0.00     0.116 C 
BRANCH  29  30
ATOM     30  N   UNL A   1      34.602  30.920  27.341  1.00  0.00    -0.352 N 
ATOM     31  C   UNL A   1      35.172  31.428  28.488  1.00  0.00     0.251 C 
ATOM     32  H   UNL A   1      34.060  31.547  26.809  1.00  0.00     0.163 HD
ATOM     33  O   UNL A   1      34.722  32.439  29.029  1.00  0.00    -0.269 OA
BRANCH  31  34
ATOM     34  C   UNL A   1      36.360  30.755  29.030  1.00  0.00     0.039 A 
ATOM     35  C   UNL A   1      36.272  29.608  29.818  1.00  0.00     0.014 A 
ATOM     36  C   UNL A   1      37.595  31.292  28.676  1.00  0.00     0.014 A 
ATOM     37  C   UNL A   1      37.453  28.968  30.184  1.00  0.00     0.010 A 
ATOM     38  C   UNL A   1      38.741  30.576  28.892  1.00  0.00     0.010 A 
ATOM     39  C   UNL A   1      38.682  29.452  29.700  1.00  0.00    -0.014 A 
BRANCH  39  40
ATOM     40  C   UNL A   1      39.920  28.724  29.930  1.00  0.00     0.031 A 
ATOM     41  C   UNL A   1      40.356  28.722  31.348  1.00  0.00     0.074 A 
ATOM     42  C   UNL A   1      40.524  27.972  28.985  1.00  0.00     0.049 A 
ATOM     43  N   UNL A   1      41.291  29.444  31.869  1.00  0.00    -0.248 NA
ATOM     44  C   UNL A   1      39.544  27.997  32.336  1.00  0.00     0.031 C 
ATOM     45  C   UNL A   1      40.048  27.630  27.637  1.00  0.00     0.029 A 
ATOM     46  N   UNL A   1      41.674  27.257  29.079  1.00  0.00    -0.354 N 
ATOM     47  C   UNL A   1      41.368  29.052  33.201  1.00  0.00     0.074 A 
ATOM     48  C   UNL A   1      40.136  28.363  33.476  1.00  0.00     0.031 C 
ATOM     49  C   UNL A   1      40.778  26.604  27.143  1.00  0.00     0.029 A 
ATOM     50  C   UNL A   1      41.881  26.346  28.046  1.00  0.00     0.049 A 
ATOM     51  H   UNL A   1      42.312  27.372  29.820  1.00  0.00     0.167 HD
ATOM     52  C   UNL A   1      42.561  29.086  33.860  1.00  0.00     0.034 A 
ATOM     53  C   UNL A   1      42.891  25.448  27.953  1.00  0.00     0.034 A 
ATOM     54  C   UNL A   1      43.526  29.874  33.124  1.00  0.00     0.049 A 
ATOM     55  C   UNL A   1      43.988  25.962  28.805  1.00  0.00     0.074 A 
ATOM     56  C   UNL A   1      43.591  31.179  32.677  1.00  0.00     0.029 A 
ATOM     57  N   UNL A   1      44.445  29.176  32.375  1.00  0.00    -0.354 N 
ATOM     58  N   UNL A   1      44.629  27.069  28.551  1.00  0.00    -0.248 NA
ATOM     59  C   UNL A   1      44.058  25.492  30.176  1.00  0.00     0.031 C 
ATOM     60  C   UNL A   1      44.184  31.095  31.381  1.00  0.00     0.029 A 
ATOM     61  C   UNL A   1      44.522  29.761  31.140  1.00  0.00     0.049 A 
ATOM     62  H   UNL A   1      44.958  28.391  32.676  1.00  0.00     0.167 HD
ATOM     63  C   UNL A   1      44.771  27.674  29.793  1.00  0.00     0.074 A 
ATOM     64  C   UNL A   1      44.500  26.609  30.761  1.00  0.00     0.031 C 
ATOM     65  C   UNL A   1      44.803  29.033  29.919  1.00  0.00     0.034 A 
BRANCH  52  66
ATOM     66  C   UNL A   1      43.009  28.097  34.923  1.00  0.00     0.023 A 
ATOM     67  C   UNL A   1      43.495  28.648  36.133  1.00  0.00     0.012 A 
ATOM     68  C   UNL A   1      43.243  26.717  34.720  1.00  0.00     0.148 A 
ATOM     69  C   UNL A   1      44.254  27.898  37.037  1.00  0.00     0.002 A 
ATOM     70  C   UNL A   1      43.939  25.957  35.656  1.00  0.00     0.091 A 
ATOM     71  F   UNL A   1      42.902  26.133  33.573  1.00  0.00    -0.205 F 
ATOM     72  C   UNL A   1      44.479  26.550  36.797  1.00  0.00     0.022 A 
BRANCH  70  73
ATOM     73  S   UNL A   1      44.220  24.195  35.423  1.00  0.00     0.127 S 
ATOM     74  O   UNL A   1      45.054  24.190  34.225  1.00  0.00    -0.237 OA
ATOM     75  O   UNL A   1      44.913  23.840  36.662  1.00  0.00    -0.237 OA
ATOM     76  O   UNL A   1      42.899  23.596  35.285  1.00  0.00    -0.744 OA
ENDBRANCH  70  73
ENDBRANCH  52  66
BRANCH  53  77
ATOM     77  C   UNL A   1      42.898  24.063  27.426  1.00  0.00     0.023 A 
ATOM     78  C   UNL A   1      41.721  23.286  27.487  1.00  0.00     0.012 A 
ATOM     79  C   UNL A   1      43.943  23.624  26.583  1.00  0.00     0.148 A 
ATOM     80  C   UNL A   1      41.573  22.135  26.702  1.00  0.00     0.002 A 
ATOM     81  C   UNL A   1      43.787  22.483  25.799  1.00  0.00     0.091 A 
ATOM     82  F   UNL A   1      45.047  24.377  26.487  1.00  0.00    -0.205 F 
ATOM     83  C   UNL A   1      42.598  21.744  25.847  1.00  0.00     0.022 A 
BRANCH  81  84
ATOM     84  S   UNL A   1      45.037  21.939  24.625  1.00  0.00     0.127 S 
ATOM     85  O   UNL A   1      44.428  20.725  24.080  1.00  0.00    -0.237 OA
ATOM     86  O   UNL A   1      45.090  23.066  23.695  1.00  0.00    -0.237 OA
ATOM     87  O   UNL A   1      46.245  21.711  25.405  1.00  0.00    -0.744 OA
ENDBRANCH  81  84
ENDBRANCH  53  77
BRANCH  65  88
ATOM     88  C   UNL A   1      44.897  29.866  28.658  1.00  0.00     0.023 A 
ATOM     89  C   UNL A   1      43.762  30.219  27.896  1.00  0.00     0.012 A 
ATOM     90  C   UNL A   1      46.127  30.474  28.353  1.00  0.00     0.148 A 
ATOM     91  C   UNL A   1      43.853  31.147  26.853  1.00  0.00     0.002 A 
ATOM     92  C   UNL A   1      46.204  31.433  27.349  1.00  0.00     0.091 A 
ATOM     93  F   UNL A   1      47.198  30.133  29.086  1.00  0.00    -0.205 F 
ATOM     94  C   UNL A   1      45.071  31.766  26.590  1.00  0.00     0.022 A 
BRANCH  92  95
ATOM     95  S   UNL A   1      47.706  32.368  27.052  1.00  0.00     0.127 S 
ATOM     96  O   UNL A   1      48.622  31.333  26.580  1.00  0.00    -0.237 OA
ATOM     97  O   UNL A   1      47.281  33.323  26.027  1.00  0.00    -0.237 OA
ATOM     98  O   UNL A   1      48.059  32.981  28.327  1.00  0.00    -0.744 OA
ENDBRANCH  92  95
ENDBRANCH  65  88
ENDBRANCH  39  40
ENDBRANCH  31  34
ENDBRANCH  29  30
ENDBRANCH  28  29
ENDBRANCH   1  28
TORSDOF 17
ENDMDL
