MODEL 1
REMARK VINA RESULT:     -13.2      0.000      0.000
REMARK SMILES Cc1c(CC(=O)NCCCCNC(=O)c2ccc(-c3c4nc(c(-c5cccc(S(=O)(=O)[O-])c5F)c5ccc([nH]5)c(-c5cccc(S(=O)(=O)[O-])c5F)c5nc(c(-c6cccc(S(=O)(=O)[O-])c6F)c6ccc3[nH]6)C=C5)C=C4)cc2)cc(-c2ccccc2)cc1-c1ccccc1
REMARK SMILES IDX 10 1 9 2 8 3 7 4 5 5 6 6 4 8 3 9 1 10 2 11 87 12 78 13 86 14
REMARK SMILES IDX 79 15 88 16 89 17 93 18 90 19 92 20 91 21 80 22 81 23 85 24
REMARK SMILES IDX 82 25 84 26 83 27 11 28 12 29 13 30 14 32 15 33 16 34 77 35
REMARK SMILES IDX 17 36 76 37 18 38 19 39 20 40 70 41 21 42 75 43 69 44 71 45
REMARK SMILES IDX 22 46 74 47 68 48 67 49 23 51 55 52 35 53 54 54 36 55 39 56
REMARK SMILES IDX 53 57 72 58 37 59 38 60 52 62 73 63 40 64 24 65 25 66 33 67
REMARK SMILES IDX 26 68 28 69 34 70 27 71 29 72 30 73 31 74 32 75 56 76 57 77
REMARK SMILES IDX 65 78 58 79 60 80 66 81 59 82 61 83 62 84 63 85 64 86 41 87
REMARK SMILES IDX 42 88 50 89 43 90 45 91 51 92 44 93 46 94 47 95 48 96 49 97
REMARK H PARENT 7 7 12 31 71 50 39 61
REMARK Flexibility Score: inf
ROOT
ATOM      1  C   UNL A   1      34.800  33.477  28.092  1.00  0.00     0.023 C 
ENDROOT
BRANCH   1   2
ATOM      2  C   UNL A   1      33.360  33.231  27.639  1.00  0.00     0.023 C 
BRANCH   2   3
ATOM      3  C   UNL A   1      32.941  31.754  27.548  1.00  0.00     0.116 C 
BRANCH   3   4
ATOM      4  N   UNL A   1      34.020  30.880  27.121  1.00  0.00    -0.356 N 
ATOM      5  C   UNL A   1      34.043  29.520  27.005  1.00  0.00     0.224 C 
ATOM      6  O   UNL A   1      35.092  28.979  26.646  1.00  0.00    -0.275 OA
ATOM      7  H   UNL A   1      34.859  31.336  26.882  1.00  0.00     0.163 HD
BRANCH   5   8
ATOM      8  C   UNL A   1      32.793  28.690  27.280  1.00  0.00     0.135 C 
BRANCH   8   9
ATOM      9  C   UNL A   1      32.128  28.152  26.027  1.00  0.00    -0.035 A 
ATOM     10  C   UNL A   1      33.183  25.850  26.295  1.00  0.00     0.045 C 
ATOM     11  C   UNL A   1      32.371  26.855  25.505  1.00  0.00    -0.040 A 
ATOM     12  C   UNL A   1      31.820  26.507  24.242  1.00  0.00    -0.015 A 
ATOM     13  C   UNL A   1      31.279  29.037  25.330  1.00  0.00     0.013 A 
ATOM     14  C   UNL A   1      31.009  27.444  23.565  1.00  0.00     0.017 A 
ATOM     15  C   UNL A   1      30.715  28.705  24.096  1.00  0.00    -0.017 A 
BRANCH  12  16
ATOM     16  C   UNL A   1      32.099  25.222  23.569  1.00  0.00    -0.018 A 
ATOM     17  C   UNL A   1      31.299  24.094  23.829  1.00  0.00     0.009 A 
ATOM     18  C   UNL A   1      33.152  25.088  22.652  1.00  0.00     0.009 A 
ATOM     19  C   UNL A   1      31.538  22.879  23.184  1.00  0.00     0.001 A 
ATOM     20  C   UNL A   1      33.382  23.878  21.994  1.00  0.00     0.001 A 
ATOM     21  C   UNL A   1      32.576  22.773  22.261  1.00  0.00     0.000 A 
ENDBRANCH  12  16
BRANCH  15  22
ATOM     22  C   UNL A   1      29.858  29.661  23.382  1.00  0.00    -0.018 A 
ATOM     23  C   UNL A   1      29.454  30.868  23.979  1.00  0.00     0.009 A 
ATOM     24  C   UNL A   1      29.395  29.377  22.087  1.00  0.00     0.009 A 
ATOM     25  C   UNL A   1      28.605  31.754  23.309  1.00  0.00     0.001 A 
ATOM     26  C   UNL A   1      28.544  30.259  21.417  1.00  0.00     0.001 A 
ATOM     27  C   UNL A   1      28.147  31.447  22.030  1.00  0.00     0.000 A 
ENDBRANCH  15  22
ENDBRANCH   8   9
ENDBRANCH   5   8
ENDBRANCH   3   4
ENDBRANCH   2   3
ENDBRANCH   1   2
BRANCH   1  28
ATOM     28  C   UNL A   1      35.017  34.871  28.646  1.00  0.00     0.116 C 
BRANCH  28  29
ATOM     29  N   UNL A   1      34.003  35.313  29.580  1.00  0.00    -0.352 N 
ATOM     30  C   UNL A   1      33.687  34.841  30.847  1.00  0.00     0.251 C 
ATOM     31  H   UNL A   1      33.452  36.067  29.268  1.00  0.00     0.163 HD
ATOM     32  O   UNL A   1      32.621  35.172  31.325  1.00  0.00    -0.269 OA
BRANCH  30  33
ATOM     33  C   UNL A   1      34.695  34.085  31.655  1.00  0.00     0.039 A 
ATOM     34  C   UNL A   1      35.804  34.797  32.138  1.00  0.00     0.014 A 
ATOM     35  C   UNL A   1      34.704  32.698  31.723  1.00  0.00     0.014 A 
ATOM     36  C   UNL A   1      36.998  34.127  32.408  1.00  0.00     0.010 A 
ATOM     37  C   UNL A   1      35.905  32.043  31.850  1.00  0.00     0.010 A 
ATOM     38  C   UNL A   1      37.062  32.768  32.133  1.00  0.00    -0.014 A 
BRANCH  38  39
ATOM     39  C   UNL A   1      38.278  31.982  32.063  1.00  0.00     0.031 A 
ATOM     40  C   UNL A   1      38.302  30.743  31.268  1.00  0.00     0.074 A 
ATOM     41  C   UNL A   1      39.420  32.557  32.501  1.00  0.00     0.049 A 
ATOM     42  N   UNL A   1      39.203  29.831  31.386  1.00  0.00    -0.248 NA
ATOM     43  C   UNL A   1      37.284  30.435  30.272  1.00  0.00     0.031 C 
ATOM     44  C   UNL A   1      40.785  32.209  32.130  1.00  0.00     0.029 A 
ATOM     45  N   UNL A   1      39.570  33.485  33.536  1.00  0.00    -0.354 N 
ATOM     46  C   UNL A   1      39.053  28.971  30.318  1.00  0.00     0.074 A 
ATOM     47  C   UNL A   1      37.801  29.342  29.703  1.00  0.00     0.031 C 
ATOM     48  C   UNL A   1      41.618  32.682  33.071  1.00  0.00     0.029 A 
ATOM     49  C   UNL A   1      40.792  33.180  34.159  1.00  0.00     0.049 A 
ATOM     50  H   UNL A   1      38.945  34.206  33.780  1.00  0.00     0.167 HD
ATOM     51  C   UNL A   1      40.089  28.156  29.973  1.00  0.00     0.034 A 
ATOM     52  C   UNL A   1      40.902  32.812  35.470  1.00  0.00     0.034 A 
ATOM     53  C   UNL A   1      41.234  28.372  30.865  1.00  0.00     0.049 A 
ATOM     54  C   UNL A   1      41.542  31.447  35.643  1.00  0.00     0.074 A 
ATOM     55  C   UNL A   1      42.359  29.172  30.746  1.00  0.00     0.029 A 
ATOM     56  N   UNL A   1      41.172  27.968  32.191  1.00  0.00    -0.354 N 
ATOM     57  N   UNL A   1      41.747  30.611  34.664  1.00  0.00    -0.248 NA
ATOM     58  C   UNL A   1      41.981  30.906  36.926  1.00  0.00     0.031 C 
ATOM     59  C   UNL A   1      42.942  29.301  32.031  1.00  0.00     0.029 A 
ATOM     60  C   UNL A   1      42.188  28.561  32.926  1.00  0.00     0.049 A 
ATOM     61  H   UNL A   1      40.502  27.348  32.558  1.00  0.00     0.167 HD
ATOM     62  C   UNL A   1      42.203  29.415  35.154  1.00  0.00     0.074 A 
ATOM     63  C   UNL A   1      42.402  29.678  36.570  1.00  0.00     0.031 C 
ATOM     64  C   UNL A   1      42.318  28.307  34.357  1.00  0.00     0.034 A 
BRANCH  51  65
ATOM     65  C   UNL A   1      40.217  27.438  28.640  1.00  0.00     0.023 A 
ATOM     66  C   UNL A   1      39.353  26.341  28.419  1.00  0.00     0.012 A 
ATOM     67  C   UNL A   1      41.143  27.716  27.611  1.00  0.00     0.148 A 
ATOM     68  C   UNL A   1      39.472  25.497  27.311  1.00  0.00     0.002 A 
ATOM     69  C   UNL A   1      41.307  26.837  26.532  1.00  0.00     0.091 A 
ATOM     70  F   UNL A   1      41.818  28.870  27.619  1.00  0.00    -0.205 F 
ATOM     71  C   UNL A   1      40.476  25.722  26.385  1.00  0.00     0.022 A 
BRANCH  69  72
ATOM     72  S   UNL A   1      42.635  27.013  25.328  1.00  0.00     0.127 S 
ATOM     73  O   UNL A   1      43.816  27.142  26.186  1.00  0.00    -0.237 OA
ATOM     74  O   UNL A   1      42.559  25.758  24.585  1.00  0.00    -0.237 OA
ATOM     75  O   UNL A   1      42.327  28.219  24.566  1.00  0.00    -0.744 OA
ENDBRANCH  69  72
ENDBRANCH  51  65
BRANCH  52  76
ATOM     76  C   UNL A   1      39.834  33.383  36.342  1.00  0.00     0.023 A 
ATOM     77  C   UNL A   1      38.787  32.508  36.721  1.00  0.00     0.012 A 
ATOM     78  C   UNL A   1      40.053  34.547  37.100  1.00  0.00     0.148 A 
ATOM     79  C   UNL A   1      38.080  32.708  37.909  1.00  0.00     0.002 A 
ATOM     80  C   UNL A   1      39.339  34.741  38.284  1.00  0.00     0.091 A 
ATOM     81  F   UNL A   1      41.008  35.398  36.707  1.00  0.00    -0.205 F 
ATOM     82  C   UNL A   1      38.385  33.802  38.710  1.00  0.00     0.022 A 
BRANCH  80  83
ATOM     83  S   UNL A   1      39.704  36.119  39.381  1.00  0.00     0.127 S 
ATOM     84  O   UNL A   1      38.786  35.863  40.487  1.00  0.00    -0.237 OA
ATOM     85  O   UNL A   1      41.117  35.910  39.694  1.00  0.00    -0.237 OA
ATOM     86  O   UNL A   1      39.443  37.307  38.582  1.00  0.00    -0.744 OA
ENDBRANCH  80  83
ENDBRANCH  52  76
BRANCH  64  87
ATOM     87  C   UNL A   1      42.556  26.882  34.828  1.00  0.00     0.023 A 
ATOM     88  C   UNL A   1      41.646  26.198  35.655  1.00  0.00     0.012 A 
ATOM     89  C   UNL A   1      43.644  26.121  34.321  1.00  0.00     0.148 A 
ATOM     90  C   UNL A   1      41.824  24.852  36.001  1.00  0.00     0.002 A 
ATOM     91  C   UNL A   1      43.750  24.754  34.571  1.00  0.00     0.091 A 
ATOM     92  F   UNL A   1      44.606  26.718  33.603  1.00  0.00    -0.205 F 
ATOM     93  C   UNL A   1      42.859  24.122  35.436  1.00  0.00     0.022 A 
BRANCH  91  94
ATOM     94  S   UNL A   1      44.924  23.741  33.659  1.00  0.00     0.127 S 
ATOM     95  O   UNL A   1      44.593  22.396  34.123  1.00  0.00    -0.237 OA
ATOM     96  O   UNL A   1      44.561  24.011  32.266  1.00  0.00    -0.237 OA
ATOM     97  O   UNL A   1      46.234  24.255  34.041  1.00  0.00    -0.744 OA
ENDBRANCH  91  94
ENDBRANCH  64  87
ENDBRANCH  38  39
ENDBRANCH  30  33
ENDBRANCH  28  29
ENDBRANCH   1  28
TORSDOF 17
ENDMDL
MODEL 2
REMARK VINA RESULT:     -13.2      3.359      5.928
REMARK SMILES Cc1c(CC(=O)NCCCCNC(=O)c2ccc(-c3c4nc(c(-c5cccc(S(=O)(=O)[O-])c5F)c5ccc([nH]5)c(-c5cccc(S(=O)(=O)[O-])c5F)c5nc(c(-c6cccc(S(=O)(=O)[O-])c6F)c6ccc3[nH]6)C=C5)C=C4)cc2)cc(-c2ccccc2)cc1-c1ccccc1
REMARK SMILES IDX 10 1 9 2 8 3 7 4 5 5 6 6 4 8 3 9 1 10 2 11 87 12 78 13 86 14
REMARK SMILES IDX 79 15 88 16 89 17 93 18 90 19 92 20 91 21 80 22 81 23 85 24
REMARK SMILES IDX 82 25 84 26 83 27 11 28 12 29 13 30 14 32 15 33 16 34 77 35
REMARK SMILES IDX 17 36 76 37 18 38 19 39 20 40 70 41 21 42 75 43 69 44 71 45
REMARK SMILES IDX 22 46 74 47 68 48 67 49 23 51 55 52 35 53 54 54 36 55 39 56
REMARK SMILES IDX 53 57 72 58 37 59 38 60 52 62 73 63 40 64 24 65 25 66 33 67
REMARK SMILES IDX 26 68 28 69 34 70 27 71 29 72 30 73 31 74 32 75 56 76 57 77
REMARK SMILES IDX 65 78 58 79 60 80 66 81 59 82 61 83 62 84 63 85 64 86 41 87
REMARK SMILES IDX 42 88 50 89 43 90 45 91 51 92 44 93 46 94 47 95 48 96 49 97
REMARK H PARENT 7 7 12 31 71 50 39 61
REMARK Flexibility Score: inf
ROOT
ATOM      1  C   UNL A   1      33.038  29.040  25.628  1.00  0.00     0.023 C 
ENDROOT
BRANCH   1   2
ATOM      2  C   UNL A   1      34.026  28.103  24.931  1.00  0.00     0.023 C 
BRANCH   2   3
ATOM      3  C   UNL A   1      33.397  26.897  24.214  1.00  0.00     0.116 C 
BRANCH   3   4
ATOM      4  N   UNL A   1      32.719  25.985  25.119  1.00  0.00    -0.356 N 
ATOM      5  C   UNL A   1      32.476  24.648  24.986  1.00  0.00     0.224 C 
ATOM      6  O   UNL A   1      31.849  24.073  25.880  1.00  0.00    -0.275 OA
ATOM      7  H   UNL A   1      32.384  26.391  25.951  1.00  0.00     0.163 HD
BRANCH   5   8
ATOM      8  C   UNL A   1      32.995  23.875  23.778  1.00  0.00     0.135 C 
BRANCH   8   9
ATOM      9  C   UNL A   1      33.861  22.683  24.140  1.00  0.00    -0.035 A 
ATOM     10  C   UNL A   1      32.086  21.006  23.418  1.00  0.00     0.045 C 
ATOM     11  C   UNL A   1      33.416  21.338  24.061  1.00  0.00    -0.040 A 
ATOM     12  C   UNL A   1      34.250  20.306  24.572  1.00  0.00    -0.015 A 
ATOM     13  C   UNL A   1      35.149  22.964  24.641  1.00  0.00     0.013 A 
ATOM     14  C   UNL A   1      35.515  20.645  25.101  1.00  0.00     0.017 A 
ATOM     15  C   UNL A   1      35.988  21.962  25.132  1.00  0.00    -0.017 A 
BRANCH  12  16
ATOM     16  C   UNL A   1      33.835  18.890  24.628  1.00  0.00    -0.018 A 
ATOM     17  C   UNL A   1      32.877  18.465  25.567  1.00  0.00     0.009 A 
ATOM     18  C   UNL A   1      34.369  17.935  23.750  1.00  0.00     0.009 A 
ATOM     19  C   UNL A   1      32.459  17.134  25.616  1.00  0.00     0.001 A 
ATOM     20  C   UNL A   1      33.940  16.606  23.788  1.00  0.00     0.001 A 
ATOM     21  C   UNL A   1      32.987  16.206  24.722  1.00  0.00     0.000 A 
ENDBRANCH  12  16
BRANCH  15  22
ATOM     22  C   UNL A   1      37.314  22.292  25.675  1.00  0.00    -0.018 A 
ATOM     23  C   UNL A   1      37.599  23.574  26.174  1.00  0.00     0.009 A 
ATOM     24  C   UNL A   1      38.341  21.336  25.681  1.00  0.00     0.009 A 
ATOM     25  C   UNL A   1      38.874  23.893  26.651  1.00  0.00     0.001 A 
ATOM     26  C   UNL A   1      39.617  21.653  26.153  1.00  0.00     0.001 A 
ATOM     27  C   UNL A   1      39.883  22.933  26.636  1.00  0.00     0.000 A 
ENDBRANCH  15  22
ENDBRANCH   8   9
ENDBRANCH   5   8
ENDBRANCH   3   4
ENDBRANCH   2   3
ENDBRANCH   1   2
BRANCH   1  28
ATOM     28  C   UNL A   1      33.414  29.332  27.067  1.00  0.00     0.116 C 
BRANCH  28  29
ATOM     29  N   UNL A   1      33.998  30.639  27.285  1.00  0.00    -0.352 N 
ATOM     30  C   UNL A   1      35.179  30.996  27.923  1.00  0.00     0.251 C 
ATOM     31  H   UNL A   1      33.477  31.392  26.923  1.00  0.00     0.163 HD
ATOM     32  O   UNL A   1      35.323  32.160  28.236  1.00  0.00    -0.269 OA
BRANCH  30  33
ATOM     33  C   UNL A   1      36.296  30.010  28.071  1.00  0.00     0.039 A 
ATOM     34  C   UNL A   1      36.510  29.459  29.344  1.00  0.00     0.014 A 
ATOM     35  C   UNL A   1      37.256  29.822  27.085  1.00  0.00     0.014 A 
ATOM     36  C   UNL A   1      37.777  28.990  29.695  1.00  0.00     0.010 A 
ATOM     37  C   UNL A   1      38.538  29.495  27.455  1.00  0.00     0.010 A 
ATOM     38  C   UNL A   1      38.807  29.138  28.776  1.00  0.00    -0.014 A 
BRANCH  38  39
ATOM     39  C   UNL A   1      40.219  28.992  29.068  1.00  0.00     0.031 A 
ATOM     40  C   UNL A   1      40.944  27.801  28.596  1.00  0.00     0.074 A 
ATOM     41  C   UNL A   1      40.880  30.081  29.521  1.00  0.00     0.049 A 
ATOM     42  N   UNL A   1      42.088  27.428  29.052  1.00  0.00    -0.248 NA
ATOM     43  C   UNL A   1      40.411  26.922  27.562  1.00  0.00     0.031 C 
ATOM     44  C   UNL A   1      42.310  30.346  29.442  1.00  0.00     0.029 A 
ATOM     45  N   UNL A   1      40.382  31.114  30.322  1.00  0.00    -0.354 N 
ATOM     46  C   UNL A   1      42.565  26.450  28.204  1.00  0.00     0.074 A 
ATOM     47  C   UNL A   1      41.454  26.116  27.344  1.00  0.00     0.031 C 
ATOM     48  C   UNL A   1      42.625  31.276  30.358  1.00  0.00     0.029 A 
ATOM     49  C   UNL A   1      41.437  31.493  31.168  1.00  0.00     0.049 A 
ATOM     50  H   UNL A   1      39.476  31.497  30.298  1.00  0.00     0.167 HD
ATOM     51  C   UNL A   1      43.896  26.157  28.211  1.00  0.00     0.034 A 
ATOM     52  C   UNL A   1      41.382  31.409  32.530  1.00  0.00     0.034 A 
ATOM     53  C   UNL A   1      44.602  26.998  29.184  1.00  0.00     0.049 A 
ATOM     54  C   UNL A   1      42.474  30.527  33.107  1.00  0.00     0.074 A 
ATOM     55  C   UNL A   1      45.284  28.197  29.046  1.00  0.00     0.029 A 
ATOM     56  N   UNL A   1      44.408  26.806  30.545  1.00  0.00    -0.354 N 
ATOM     57  N   UNL A   1      43.232  29.746  32.391  1.00  0.00    -0.248 NA
ATOM     58  C   UNL A   1      42.786  30.438  34.531  1.00  0.00     0.031 C 
ATOM     59  C   UNL A   1      45.442  28.762  30.336  1.00  0.00     0.029 A 
ATOM     60  C   UNL A   1      44.881  27.897  31.260  1.00  0.00     0.049 A 
ATOM     61  H   UNL A   1      43.993  26.009  30.945  1.00  0.00     0.167 HD
ATOM     62  C   UNL A   1      44.017  28.974  33.206  1.00  0.00     0.074 A 
ATOM     63  C   UNL A   1      43.752  29.500  34.535  1.00  0.00     0.031 C 
ATOM     64  C   UNL A   1      44.767  27.939  32.714  1.00  0.00     0.034 A 
BRANCH  51  65
ATOM     65  C   UNL A   1      44.619  25.393  27.115  1.00  0.00     0.023 A 
ATOM     66  C   UNL A   1      45.672  26.066  26.454  1.00  0.00     0.012 A 
ATOM     67  C   UNL A   1      44.322  24.094  26.647  1.00  0.00     0.148 A 
ATOM     68  C   UNL A   1      46.312  25.545  25.326  1.00  0.00     0.002 A 
ATOM     69  C   UNL A   1      44.917  23.596  25.480  1.00  0.00     0.091 A 
ATOM     70  F   UNL A   1      43.525  23.296  27.365  1.00  0.00    -0.205 F 
ATOM     71  C   UNL A   1      45.907  24.324  24.815  1.00  0.00     0.022 A 
BRANCH  69  72
ATOM     72  S   UNL A   1      44.395  22.055  24.706  1.00  0.00     0.127 S 
ATOM     73  O   UNL A   1      42.957  22.038  24.988  1.00  0.00    -0.237 OA
ATOM     74  O   UNL A   1      44.734  22.274  23.303  1.00  0.00    -0.237 OA
ATOM     75  O   UNL A   1      45.139  20.996  25.380  1.00  0.00    -0.744 OA
ENDBRANCH  69  72
ENDBRANCH  51  65
BRANCH  52  76
ATOM     76  C   UNL A   1      40.002  31.549  33.082  1.00  0.00     0.023 A 
ATOM     77  C   UNL A   1      39.250  30.357  33.223  1.00  0.00     0.012 A 
ATOM     78  C   UNL A   1      39.620  32.684  33.820  1.00  0.00     0.148 A 
ATOM     79  C   UNL A   1      38.244  30.255  34.187  1.00  0.00     0.002 A 
ATOM     80  C   UNL A   1      38.611  32.573  34.778  1.00  0.00     0.091 A 
ATOM     81  F   UNL A   1      40.301  33.822  33.643  1.00  0.00    -0.205 F 
ATOM     82  C   UNL A   1      37.953  31.351  34.991  1.00  0.00     0.022 A 
BRANCH  80  83
ATOM     83  S   UNL A   1      38.206  33.943  35.871  1.00  0.00     0.127 S 
ATOM     84  O   UNL A   1      37.982  35.023  34.916  1.00  0.00    -0.237 OA
ATOM     85  O   UNL A   1      37.003  33.463  36.549  1.00  0.00    -0.237 OA
ATOM     86  O   UNL A   1      39.365  34.075  36.742  1.00  0.00    -0.744 OA
ENDBRANCH  80  83
ENDBRANCH  52  76
BRANCH  64  87
ATOM     87  C   UNL A   1      45.462  26.864  33.533  1.00  0.00     0.023 A 
ATOM     88  C   UNL A   1      46.751  27.041  34.072  1.00  0.00     0.012 A 
ATOM     89  C   UNL A   1      44.770  25.685  33.923  1.00  0.00     0.148 A 
ATOM     90  C   UNL A   1      47.342  26.086  34.911  1.00  0.00     0.002 A 
ATOM     91  C   UNL A   1      45.316  24.800  34.850  1.00  0.00     0.091 A 
ATOM     92  F   UNL A   1      43.579  25.395  33.382  1.00  0.00    -0.205 F 
ATOM     93  C   UNL A   1      46.614  24.980  35.323  1.00  0.00     0.022 A 
BRANCH  91  94
ATOM     94  S   UNL A   1      44.307  23.505  35.588  1.00  0.00     0.127 S 
ATOM     95  O   UNL A   1      44.133  22.580  34.472  1.00  0.00    -0.237 OA
ATOM     96  O   UNL A   1      45.167  23.007  36.664  1.00  0.00    -0.237 OA
ATOM     97  O   UNL A   1      43.108  24.190  36.056  1.00  0.00    -0.744 OA
ENDBRANCH  91  94
ENDBRANCH  64  87
ENDBRANCH  38  39
ENDBRANCH  30  33
ENDBRANCH  28  29
ENDBRANCH   1  28
TORSDOF 17
ENDMDL
MODEL 3
REMARK VINA RESULT:     -12.9      2.888      5.241
REMARK SMILES Cc1c(CC(=O)NCCCCNC(=O)c2ccc(-c3c4nc(c(-c5cccc(S(=O)(=O)[O-])c5F)c5ccc([nH]5)c(-c5cccc(S(=O)(=O)[O-])c5F)c5nc(c(-c6cccc(S(=O)(=O)[O-])c6F)c6ccc3[nH]6)C=C5)C=C4)cc2)cc(-c2ccccc2)cc1-c1ccccc1
REMARK SMILES IDX 10 1 9 2 8 3 7 4 5 5 6 6 4 8 3 9 1 10 2 11 87 12 78 13 86 14
REMARK SMILES IDX 79 15 88 16 89 17 93 18 90 19 92 20 91 21 80 22 81 23 85 24
REMARK SMILES IDX 82 25 84 26 83 27 11 28 12 29 13 30 14 32 15 33 16 34 77 35
REMARK SMILES IDX 17 36 76 37 18 38 19 39 20 40 70 41 21 42 75 43 69 44 71 45
REMARK SMILES IDX 22 46 74 47 68 48 67 49 23 51 55 52 35 53 54 54 36 55 39 56
REMARK SMILES IDX 53 57 72 58 37 59 38 60 52 62 73 63 40 64 24 65 25 66 33 67
REMARK SMILES IDX 26 68 28 69 34 70 27 71 29 72 30 73 31 74 32 75 56 76 57 77
REMARK SMILES IDX 65 78 58 79 60 80 66 81 59 82 61 83 62 84 63 85 64 86 41 87
REMARK SMILES IDX 42 88 50 89 43 90 45 91 51 92 44 93 46 94 47 95 48 96 49 97
REMARK H PARENT 7 7 12 31 71 50 39 61
REMARK Flexibility Score: inf
ROOT
ATOM      1  C   UNL A   1      33.889  28.357  26.793  1.00  0.00     0.023 C 
ENDROOT
BRANCH   1   2
ATOM      2  C   UNL A   1      33.754  28.461  25.273  1.00  0.00     0.023 C 
BRANCH   2   3
ATOM      3  C   UNL A   1      33.682  27.121  24.523  1.00  0.00     0.116 C 
BRANCH   3   4
ATOM      4  N   UNL A   1      32.773  26.170  25.141  1.00  0.00    -0.356 N 
ATOM      5  C   UNL A   1      32.513  24.872  24.805  1.00  0.00     0.224 C 
ATOM      6  O   UNL A   1      31.671  24.254  25.461  1.00  0.00    -0.275 OA
ATOM      7  H   UNL A   1      32.270  26.512  25.915  1.00  0.00     0.163 HD
BRANCH   5   8
ATOM      8  C   UNL A   1      33.268  24.191  23.668  1.00  0.00     0.135 C 
BRANCH   8   9
ATOM      9  C   UNL A   1      34.118  23.017  24.115  1.00  0.00    -0.035 A 
ATOM     10  C   UNL A   1      32.347  21.312  23.451  1.00  0.00     0.045 C 
ATOM     11  C   UNL A   1      33.665  21.672  24.103  1.00  0.00    -0.040 A 
ATOM     12  C   UNL A   1      34.481  20.665  24.689  1.00  0.00    -0.015 A 
ATOM     13  C   UNL A   1      35.397  23.318  24.627  1.00  0.00     0.013 A 
ATOM     14  C   UNL A   1      35.737  21.026  25.225  1.00  0.00     0.017 A 
ATOM     15  C   UNL A   1      36.219  22.340  25.192  1.00  0.00    -0.017 A 
BRANCH  12  16
ATOM     16  C   UNL A   1      34.054  19.257  24.816  1.00  0.00    -0.018 A 
ATOM     17  C   UNL A   1      34.805  18.229  24.217  1.00  0.00     0.009 A 
ATOM     18  C   UNL A   1      32.905  18.902  25.538  1.00  0.00     0.009 A 
ATOM     19  C   UNL A   1      34.426  16.892  24.348  1.00  0.00     0.001 A 
ATOM     20  C   UNL A   1      32.533  17.564  25.683  1.00  0.00     0.001 A 
ATOM     21  C   UNL A   1      33.292  16.559  25.086  1.00  0.00     0.000 A 
ENDBRANCH  12  16
BRANCH  15  22
ATOM     22  C   UNL A   1      37.534  22.692  25.744  1.00  0.00    -0.018 A 
ATOM     23  C   UNL A   1      38.563  21.739  25.844  1.00  0.00     0.009 A 
ATOM     24  C   UNL A   1      37.788  23.990  26.213  1.00  0.00     0.009 A 
ATOM     25  C   UNL A   1      39.798  22.071  26.408  1.00  0.00     0.001 A 
ATOM     26  C   UNL A   1      39.021  24.323  26.780  1.00  0.00     0.001 A 
ATOM     27  C   UNL A   1      40.025  23.362  26.879  1.00  0.00     0.000 A 
ENDBRANCH  15  22
ENDBRANCH   8   9
ENDBRANCH   5   8
ENDBRANCH   3   4
ENDBRANCH   2   3
ENDBRANCH   1   2
BRANCH   1  28
ATOM     28  C   UNL A   1      34.932  29.299  27.361  1.00  0.00     0.116 C 
BRANCH  28  29
ATOM     29  N   UNL A   1      34.561  30.698  27.331  1.00  0.00    -0.352 N 
ATOM     30  C   UNL A   1      34.833  31.715  28.237  1.00  0.00     0.251 C 
ATOM     31  H   UNL A   1      34.033  30.971  26.546  1.00  0.00     0.163 HD
ATOM     32  O   UNL A   1      34.183  32.737  28.153  1.00  0.00    -0.269 OA
BRANCH  30  33
ATOM     33  C   UNL A   1      35.994  31.612  29.176  1.00  0.00     0.039 A 
ATOM     34  C   UNL A   1      37.054  32.514  28.998  1.00  0.00     0.014 A 
ATOM     35  C   UNL A   1      36.169  30.526  30.024  1.00  0.00     0.014 A 
ATOM     36  C   UNL A   1      38.338  32.174  29.427  1.00  0.00     0.010 A 
ATOM     37  C   UNL A   1      37.445  30.115  30.328  1.00  0.00     0.010 A 
ATOM     38  C   UNL A   1      38.532  30.913  29.974  1.00  0.00    -0.014 A 
BRANCH  38  39
ATOM     39  C   UNL A   1      39.819  30.282  30.192  1.00  0.00     0.031 A 
ATOM     40  C   UNL A   1      40.148  29.034  29.485  1.00  0.00     0.074 A 
ATOM     41  C   UNL A   1      40.772  31.006  30.820  1.00  0.00     0.049 A 
ATOM     42  N   UNL A   1      41.105  28.244  29.830  1.00  0.00    -0.248 NA
ATOM     43  C   UNL A   1      39.400  28.574  28.323  1.00  0.00     0.031 C 
ATOM     44  C   UNL A   1      42.215  30.820  30.750  1.00  0.00     0.029 A 
ATOM     45  N   UNL A   1      40.597  31.975  31.813  1.00  0.00    -0.354 N 
ATOM     46  C   UNL A   1      41.278  27.341  28.802  1.00  0.00     0.074 A 
ATOM     47  C   UNL A   1      40.145  27.537  27.928  1.00  0.00     0.031 C 
ATOM     48  C   UNL A   1      42.776  31.418  31.813  1.00  0.00     0.029 A 
ATOM     49  C   UNL A   1      41.691  31.841  32.684  1.00  0.00     0.049 A 
ATOM     50  H   UNL A   1      39.857  32.619  31.887  1.00  0.00     0.167 HD
ATOM     51  C   UNL A   1      42.450  26.651  28.716  1.00  0.00     0.034 A 
ATOM     52  C   UNL A   1      41.571  31.527  34.008  1.00  0.00     0.034 A 
ATOM     53  C   UNL A   1      43.353  27.033  29.807  1.00  0.00     0.049 A 
ATOM     54  C   UNL A   1      42.314  30.257  34.378  1.00  0.00     0.074 A 
ATOM     55  C   UNL A   1      44.379  27.962  29.875  1.00  0.00     0.029 A 
ATOM     56  N   UNL A   1      43.067  26.662  31.113  1.00  0.00    -0.354 N 
ATOM     57  N   UNL A   1      42.812  29.425  33.507  1.00  0.00    -0.248 NA
ATOM     58  C   UNL A   1      42.538  29.812  35.751  1.00  0.00     0.031 C 
ATOM     59  C   UNL A   1      44.666  28.199  31.242  1.00  0.00     0.029 A 
ATOM     60  C   UNL A   1      43.834  27.397  32.005  1.00  0.00     0.049 A 
ATOM     61  H   UNL A   1      42.411  25.975  31.370  1.00  0.00     0.167 HD
ATOM     62  C   UNL A   1      43.291  28.309  34.142  1.00  0.00     0.074 A 
ATOM     63  C   UNL A   1      43.162  28.636  35.553  1.00  0.00     0.031 C 
ATOM     64  C   UNL A   1      43.694  27.202  33.444  1.00  0.00     0.034 A 
BRANCH  51  65
ATOM     65  C   UNL A   1      42.931  25.917  27.476  1.00  0.00     0.023 A 
ATOM     66  C   UNL A   1      42.848  26.612  26.248  1.00  0.00     0.012 A 
ATOM     67  C   UNL A   1      43.411  24.590  27.407  1.00  0.00     0.148 A 
ATOM     68  C   UNL A   1      43.104  26.004  25.016  1.00  0.00     0.002 A 
ATOM     69  C   UNL A   1      43.607  23.959  26.171  1.00  0.00     0.091 A 
ATOM     70  F   UNL A   1      43.758  23.950  28.528  1.00  0.00    -0.205 F 
ATOM     71  C   UNL A   1      43.447  24.663  24.975  1.00  0.00     0.022 A 
BRANCH  69  72
ATOM     72  S   UNL A   1      43.977  22.202  26.027  1.00  0.00     0.127 S 
ATOM     73  O   UNL A   1      43.571  21.911  24.649  1.00  0.00    -0.237 OA
ATOM     74  O   UNL A   1      45.420  22.162  26.254  1.00  0.00    -0.237 OA
ATOM     75  O   UNL A   1      43.159  21.535  27.034  1.00  0.00    -0.744 OA
ENDBRANCH  69  72
ENDBRANCH  51  65
BRANCH  52  76
ATOM     76  C   UNL A   1      40.287  31.986  34.616  1.00  0.00     0.023 A 
ATOM     77  C   UNL A   1      39.201  31.079  34.570  1.00  0.00     0.012 A 
ATOM     78  C   UNL A   1      40.255  33.036  35.552  1.00  0.00     0.148 A 
ATOM     79  C   UNL A   1      38.187  31.124  35.530  1.00  0.00     0.002 A 
ATOM     80  C   UNL A   1      39.236  33.075  36.505  1.00  0.00     0.091 A 
ATOM     81  F   UNL A   1      41.258  33.922  35.556  1.00  0.00    -0.205 F 
ATOM     82  C   UNL A   1      38.228  32.098  36.521  1.00  0.00     0.022 A 
BRANCH  80  83
ATOM     83  S   UNL A   1      39.245  34.289  37.832  1.00  0.00     0.127 S 
ATOM     84  O   UNL A   1      38.034  33.930  38.565  1.00  0.00    -0.237 OA
ATOM     85  O   UNL A   1      40.495  33.990  38.529  1.00  0.00    -0.237 OA
ATOM     86  O   UNL A   1      39.236  35.577  37.155  1.00  0.00    -0.744 OA
ENDBRANCH  80  83
ENDBRANCH  52  76
BRANCH  64  87
ATOM     87  C   UNL A   1      43.993  25.831  34.028  1.00  0.00     0.023 A 
ATOM     88  C   UNL A   1      43.037  24.799  34.060  1.00  0.00     0.012 A 
ATOM     89  C   UNL A   1      45.312  25.484  34.430  1.00  0.00     0.148 A 
ATOM     90  C   UNL A   1      43.352  23.509  34.507  1.00  0.00     0.002 A 
ATOM     91  C   UNL A   1      45.645  24.172  34.759  1.00  0.00     0.091 A 
ATOM     92  F   UNL A   1      46.259  26.428  34.519  1.00  0.00    -0.205 F 
ATOM     93  C   UNL A   1      44.662  23.187  34.830  1.00  0.00     0.022 A 
BRANCH  91  94
ATOM     94  S   UNL A   1      47.367  23.677  34.935  1.00  0.00     0.127 S 
ATOM     95  O   UNL A   1      47.280  22.224  34.820  1.00  0.00    -0.237 OA
ATOM     96  O   UNL A   1      48.005  24.341  33.795  1.00  0.00    -0.237 OA
ATOM     97  O   UNL A   1      47.774  24.203  36.232  1.00  0.00    -0.744 OA
ENDBRANCH  91  94
ENDBRANCH  64  87
ENDBRANCH  38  39
ENDBRANCH  30  33
ENDBRANCH  28  29
ENDBRANCH   1  28
TORSDOF 17
ENDMDL
