MODEL 1
REMARK VINA RESULT:     -12.5      0.000      0.000
REMARK SMILES Cc1cc(=O)cc(C)n1C[C@H]1CCCC[C@@H]1C(=O)NCCCCNC(=O)c1ccc(-c2c3nc(c(-c4cccc(S(=O)(=O)[O-])c4F)c4ccc([nH]4)c(-c4cccc(S(=O)(=O)[O-])c4F)c4nc(c(-c5cccc(S(=O)(=O)[O-])c5F)c5ccc2[nH]5)C=C4)C=C3)cc1
REMARK SMILES IDX 22 1 21 2 20 3 19 4 17 5 18 6 16 8 11 9 12 10 13 11 15 12
REMARK SMILES IDX 14 13 10 14 9 15 1 16 2 17 3 18 4 19 7 20 5 21 6 22 8 23
REMARK SMILES IDX 23 24 24 25 25 26 26 28 27 29 28 30 89 31 29 32 88 33 30 34
REMARK SMILES IDX 31 35 32 36 82 37 33 38 87 39 81 40 83 41 34 42 86 43 80 44
REMARK SMILES IDX 79 45 35 47 67 48 47 49 66 50 48 51 51 52 65 53 84 54 49 55
REMARK SMILES IDX 50 56 64 58 85 59 52 60 36 61 37 62 45 63 38 64 40 65 46 66
REMARK SMILES IDX 39 67 41 68 42 69 43 70 44 71 68 72 69 73 77 74 70 75 72 76
REMARK SMILES IDX 78 77 71 78 73 79 74 80 75 81 76 82 53 83 54 84 62 85 55 86
REMARK SMILES IDX 57 87 63 88 56 89 58 90 59 91 60 92 61 93
REMARK H PARENT 19 7 24 27 83 46 51 57
REMARK Flexibility Score: inf
ROOT
ATOM      1  C   UNL A   1      31.681  29.087  25.227  1.00  0.00     0.023 C 
ENDROOT
BRANCH   1   2
ATOM      2  C   UNL A   1      31.974  28.877  23.751  1.00  0.00     0.023 C 
BRANCH   2   3
ATOM      3  C   UNL A   1      33.429  28.552  23.400  1.00  0.00     0.116 C 
BRANCH   3   4
ATOM      4  N   UNL A   1      33.542  27.556  22.355  1.00  0.00    -0.356 N 
ATOM      5  C   UNL A   1      33.523  26.197  22.397  1.00  0.00     0.223 C 
ATOM      6  O   UNL A   1      33.509  25.624  21.304  1.00  0.00    -0.275 OA
ATOM      7  H   UNL A   1      33.654  27.931  21.452  1.00  0.00     0.163 HD
BRANCH   5   8
ATOM      8  C   UNL A   1      33.439  25.399  23.722  1.00  0.00     0.083 C 
ATOM      9  C   UNL A   1      34.082  23.991  23.700  1.00  0.00     0.021 C 
ATOM     10  C   UNL A   1      33.322  23.126  22.681  1.00  0.00     0.006 C 
ATOM     11  C   UNL A   1      31.850  22.960  23.034  1.00  0.00     0.000 C 
ATOM     12  C   UNL A   1      31.955  25.259  24.146  1.00  0.00     0.014 C 
ATOM     13  C   UNL A   1      31.164  24.307  23.237  1.00  0.00     0.001 C 
BRANCH   9  14
ATOM     14  C   UNL A   1      34.197  23.354  25.111  1.00  0.00     0.126 C 
BRANCH  14  15
ATOM     15  N   UNL A   1      35.230  22.269  25.145  1.00  0.00    -0.349 N 
ATOM     16  C   UNL A   1      37.045  24.023  25.499  1.00  0.00     0.064 C 
ATOM     17  C   UNL A   1      36.612  22.597  25.249  1.00  0.00     0.018 A 
ATOM     18  C   UNL A   1      37.587  21.673  25.159  1.00  0.00     0.073 A 
ATOM     19  C   UNL A   1      37.238  20.259  24.962  1.00  0.00     0.182 A 
ATOM     20  C   UNL A   1      34.881  20.896  25.023  1.00  0.00     0.018 A 
ATOM     21  O   UNL A   1      38.101  19.393  24.874  1.00  0.00    -0.290 OA
ATOM     22  C   UNL A   1      35.808  19.924  24.921  1.00  0.00     0.073 A 
ATOM     23  C   UNL A   1      33.447  20.424  25.049  1.00  0.00     0.064 C 
ENDBRANCH  14  15
ENDBRANCH   9  14
ENDBRANCH   5   8
ENDBRANCH   3   4
ENDBRANCH   2   3
ENDBRANCH   1   2
BRANCH   1  24
ATOM     24  C   UNL A   1      32.797  29.757  26.003  1.00  0.00     0.116 C 
BRANCH  24  25
ATOM     25  N   UNL A   1      32.461  31.095  26.475  1.00  0.00    -0.352 N 
ATOM     26  C   UNL A   1      33.220  31.922  27.275  1.00  0.00     0.251 C 
ATOM     27  H   UNL A   1      31.588  31.449  26.188  1.00  0.00     0.163 HD
ATOM     28  O   UNL A   1      32.800  32.998  27.652  1.00  0.00    -0.269 OA
BRANCH  26  29
ATOM     29  C   UNL A   1      34.546  31.428  27.697  1.00  0.00     0.039 A 
ATOM     30  C   UNL A   1      35.581  32.348  27.864  1.00  0.00     0.014 A 
ATOM     31  C   UNL A   1      34.704  30.088  28.057  1.00  0.00     0.014 A 
ATOM     32  C   UNL A   1      36.767  31.930  28.467  1.00  0.00     0.010 A 
ATOM     33  C   UNL A   1      35.848  29.699  28.738  1.00  0.00     0.010 A 
ATOM     34  C   UNL A   1      36.892  30.614  28.943  1.00  0.00    -0.014 A 
BRANCH  34  35
ATOM     35  C   UNL A   1      38.115  30.173  29.651  1.00  0.00     0.031 A 
ATOM     36  C   UNL A   1      38.381  30.657  31.048  1.00  0.00     0.074 A 
ATOM     37  C   UNL A   1      39.010  29.392  29.015  1.00  0.00     0.049 A 
ATOM     38  N   UNL A   1      39.379  30.370  31.840  1.00  0.00    -0.248 NA
ATOM     39  C   UNL A   1      37.416  31.611  31.624  1.00  0.00     0.031 C 
ATOM     40  C   UNL A   1      38.903  28.942  27.625  1.00  0.00     0.029 A 
ATOM     41  N   UNL A   1      40.188  28.843  29.451  1.00  0.00    -0.354 N 
ATOM     42  C   UNL A   1      39.176  31.119  32.990  1.00  0.00     0.074 A 
ATOM     43  C   UNL A   1      37.992  31.920  32.776  1.00  0.00     0.031 C 
ATOM     44  C   UNL A   1      39.955  28.160  27.334  1.00  0.00     0.029 A 
ATOM     45  C   UNL A   1      40.816  28.061  28.509  1.00  0.00     0.049 A 
ATOM     46  H   UNL A   1      40.552  28.993  30.354  1.00  0.00     0.167 HD
ATOM     47  C   UNL A   1      39.878  31.100  34.145  1.00  0.00     0.034 A 
ATOM     48  C   UNL A   1      41.944  27.328  28.595  1.00  0.00     0.034 A 
ATOM     49  C   UNL A   1      41.010  30.249  34.374  1.00  0.00     0.049 A 
ATOM     50  C   UNL A   1      42.679  27.280  29.910  1.00  0.00     0.074 A 
ATOM     51  C   UNL A   1      41.735  30.082  35.538  1.00  0.00     0.029 A 
ATOM     52  N   UNL A   1      41.574  29.416  33.421  1.00  0.00    -0.354 N 
ATOM     53  N   UNL A   1      42.373  27.863  31.044  1.00  0.00    -0.248 NA
ATOM     54  C   UNL A   1      43.891  26.450  29.969  1.00  0.00     0.031 C 
ATOM     55  C   UNL A   1      42.744  29.147  35.287  1.00  0.00     0.029 A 
ATOM     56  C   UNL A   1      42.643  28.732  33.968  1.00  0.00     0.049 A 
ATOM     57  H   UNL A   1      41.261  29.326  32.492  1.00  0.00     0.167 HD
ATOM     58  C   UNL A   1      43.333  27.448  31.958  1.00  0.00     0.074 A 
ATOM     59  C   UNL A   1      44.223  26.549  31.251  1.00  0.00     0.031 C 
ATOM     60  C   UNL A   1      43.479  27.795  33.261  1.00  0.00     0.034 A 
BRANCH  47  61
ATOM     61  C   UNL A   1      39.376  31.951  35.279  1.00  0.00     0.023 A 
ATOM     62  C   UNL A   1      38.465  31.393  36.200  1.00  0.00     0.012 A 
ATOM     63  C   UNL A   1      39.839  33.265  35.472  1.00  0.00     0.148 A 
ATOM     64  C   UNL A   1      37.999  32.139  37.280  1.00  0.00     0.002 A 
ATOM     65  C   UNL A   1      39.400  33.991  36.575  1.00  0.00     0.091 A 
ATOM     66  F   UNL A   1      40.685  33.786  34.571  1.00  0.00    -0.205 F 
ATOM     67  C   UNL A   1      38.475  33.433  37.473  1.00  0.00     0.022 A 
BRANCH  65  68
ATOM     68  S   UNL A   1      40.005  35.640  36.952  1.00  0.00     0.127 S 
ATOM     69  O   UNL A   1      39.312  35.927  38.207  1.00  0.00    -0.237 OA
ATOM     70  O   UNL A   1      41.445  35.416  37.088  1.00  0.00    -0.237 OA
ATOM     71  O   UNL A   1      39.623  36.474  35.822  1.00  0.00    -0.744 OA
ENDBRANCH  65  68
ENDBRANCH  47  61
BRANCH  48  72
ATOM     72  C   UNL A   1      42.366  26.482  27.442  1.00  0.00     0.023 A 
ATOM     73  C   UNL A   1      43.200  27.044  26.455  1.00  0.00     0.012 A 
ATOM     74  C   UNL A   1      42.011  25.123  27.346  1.00  0.00     0.148 A 
ATOM     75  C   UNL A   1      43.657  26.274  25.384  1.00  0.00     0.002 A 
ATOM     76  C   UNL A   1      42.509  24.349  26.303  1.00  0.00     0.091 A 
ATOM     77  F   UNL A   1      41.206  24.609  28.286  1.00  0.00    -0.205 F 
ATOM     78  C   UNL A   1      43.322  24.926  25.314  1.00  0.00     0.022 A 
BRANCH  76  79
ATOM     79  S   UNL A   1      42.238  22.574  26.206  1.00  0.00     0.127 S 
ATOM     80  O   UNL A   1      42.927  22.233  24.965  1.00  0.00    -0.237 OA
ATOM     81  O   UNL A   1      42.893  22.099  27.426  1.00  0.00    -0.237 OA
ATOM     82  O   UNL A   1      40.792  22.402  26.201  1.00  0.00    -0.744 OA
ENDBRANCH  76  79
ENDBRANCH  48  72
BRANCH  60  83
ATOM     83  C   UNL A   1      44.633  27.212  34.027  1.00  0.00     0.023 A 
ATOM     84  C   UNL A   1      45.878  27.868  33.995  1.00  0.00     0.012 A 
ATOM     85  C   UNL A   1      44.444  26.118  34.896  1.00  0.00     0.148 A 
ATOM     86  C   UNL A   1      46.923  27.441  34.813  1.00  0.00     0.002 A 
ATOM     87  C   UNL A   1      45.475  25.726  35.740  1.00  0.00     0.091 A 
ATOM     88  F   UNL A   1      43.252  25.504  34.899  1.00  0.00    -0.205 F 
ATOM     89  C   UNL A   1      46.717  26.382  35.696  1.00  0.00     0.022 A 
BRANCH  87  90
ATOM     90  S   UNL A   1      45.273  24.445  36.984  1.00  0.00     0.127 S 
ATOM     91  O   UNL A   1      45.096  23.253  36.155  1.00  0.00    -0.237 OA
ATOM     92  O   UNL A   1      46.546  24.506  37.702  1.00  0.00    -0.237 OA
ATOM     93  O   UNL A   1      44.112  24.831  37.774  1.00  0.00    -0.744 OA
ENDBRANCH  87  90
ENDBRANCH  60  83
ENDBRANCH  34  35
ENDBRANCH  26  29
ENDBRANCH  24  25
ENDBRANCH   1  24
TORSDOF 16
ENDMDL
MODEL 2
REMARK VINA RESULT:     -12.0      4.936     10.384
REMARK SMILES Cc1cc(=O)cc(C)n1C[C@H]1CCCC[C@@H]1C(=O)NCCCCNC(=O)c1ccc(-c2c3nc(c(-c4cccc(S(=O)(=O)[O-])c4F)c4ccc([nH]4)c(-c4cccc(S(=O)(=O)[O-])c4F)c4nc(c(-c5cccc(S(=O)(=O)[O-])c5F)c5ccc2[nH]5)C=C4)C=C3)cc1
REMARK SMILES IDX 22 1 21 2 20 3 19 4 17 5 18 6 16 8 11 9 12 10 13 11 15 12
REMARK SMILES IDX 14 13 10 14 9 15 1 16 2 17 3 18 4 19 7 20 5 21 6 22 8 23
REMARK SMILES IDX 23 24 24 25 25 26 26 28 27 29 28 30 89 31 29 32 88 33 30 34
REMARK SMILES IDX 31 35 32 36 82 37 33 38 87 39 81 40 83 41 34 42 86 43 80 44
REMARK SMILES IDX 79 45 35 47 67 48 47 49 66 50 48 51 51 52 65 53 84 54 49 55
REMARK SMILES IDX 50 56 64 58 85 59 52 60 36 61 37 62 45 63 38 64 40 65 46 66
REMARK SMILES IDX 39 67 41 68 42 69 43 70 44 71 68 72 69 73 77 74 70 75 72 76
REMARK SMILES IDX 78 77 71 78 73 79 74 80 75 81 76 82 53 83 54 84 62 85 55 86
REMARK SMILES IDX 57 87 63 88 56 89 58 90 59 91 60 92 61 93
REMARK H PARENT 19 7 24 27 83 46 51 57
REMARK Flexibility Score: inf
ROOT
ATOM      1  C   UNL A   1      35.926  21.617  24.785  1.00  0.00     0.023 C 
ENDROOT
BRANCH   1   2
ATOM      2  C   UNL A   1      34.916  21.664  25.920  1.00  0.00     0.023 C 
BRANCH   2   3
ATOM      3  C   UNL A   1      33.443  21.680  25.501  1.00  0.00     0.116 C 
BRANCH   3   4
ATOM      4  N   UNL A   1      32.602  22.384  26.445  1.00  0.00    -0.356 N 
ATOM      5  C   UNL A   1      32.161  23.669  26.479  1.00  0.00     0.223 C 
ATOM      6  O   UNL A   1      31.336  23.934  27.358  1.00  0.00    -0.275 OA
ATOM      7  H   UNL A   1      32.294  21.832  27.200  1.00  0.00     0.163 HD
BRANCH   5   8
ATOM      8  C   UNL A   1      32.589  24.732  25.435  1.00  0.00     0.083 C 
ATOM      9  C   UNL A   1      31.972  26.139  25.618  1.00  0.00     0.021 C 
ATOM     10  C   UNL A   1      30.447  26.027  25.450  1.00  0.00     0.006 C 
ATOM     11  C   UNL A   1      30.045  25.518  24.072  1.00  0.00     0.000 C 
ATOM     12  C   UNL A   1      32.248  24.223  24.012  1.00  0.00     0.014 C 
ATOM     13  C   UNL A   1      30.738  24.202  23.733  1.00  0.00     0.001 C 
BRANCH   9  14
ATOM     14  C   UNL A   1      32.633  27.214  24.713  1.00  0.00     0.126 C 
BRANCH  14  15
ATOM     15  N   UNL A   1      32.311  28.602  25.178  1.00  0.00    -0.349 N 
ATOM     16  C   UNL A   1      34.152  28.427  26.933  1.00  0.00     0.064 C 
ATOM     17  C   UNL A   1      32.988  29.155  26.303  1.00  0.00     0.018 A 
ATOM     18  C   UNL A   1      32.653  30.344  26.839  1.00  0.00     0.073 A 
ATOM     19  C   UNL A   1      31.561  31.131  26.249  1.00  0.00     0.182 A 
ATOM     20  C   UNL A   1      31.299  29.386  24.560  1.00  0.00     0.018 A 
ATOM     21  O   UNL A   1      31.230  32.215  26.713  1.00  0.00    -0.290 OA
ATOM     22  C   UNL A   1      30.914  30.579  25.051  1.00  0.00     0.073 A 
ATOM     23  C   UNL A   1      30.619  28.960  23.281  1.00  0.00     0.064 C 
ENDBRANCH  14  15
ENDBRANCH   9  14
ENDBRANCH   5   8
ENDBRANCH   3   4
ENDBRANCH   2   3
ENDBRANCH   1   2
BRANCH   1  24
ATOM     24  C   UNL A   1      37.315  22.098  25.155  1.00  0.00     0.116 C 
BRANCH  24  25
ATOM     25  N   UNL A   1      38.259  21.017  25.413  1.00  0.00    -0.352 N 
ATOM     26  C   UNL A   1      39.441  21.082  26.119  1.00  0.00     0.251 C 
ATOM     27  H   UNL A   1      38.025  20.138  25.037  1.00  0.00     0.163 HD
ATOM     28  O   UNL A   1      40.176  20.119  26.213  1.00  0.00    -0.269 OA
BRANCH  26  29
ATOM     29  C   UNL A   1      39.804  22.382  26.718  1.00  0.00     0.039 A 
ATOM     30  C   UNL A   1      40.757  22.408  27.736  1.00  0.00     0.014 A 
ATOM     31  C   UNL A   1      39.305  23.563  26.166  1.00  0.00     0.014 A 
ATOM     32  C   UNL A   1      41.265  23.636  28.156  1.00  0.00     0.010 A 
ATOM     33  C   UNL A   1      39.878  24.775  26.521  1.00  0.00     0.010 A 
ATOM     34  C   UNL A   1      40.858  24.823  27.524  1.00  0.00    -0.014 A 
BRANCH  34  35
ATOM     35  C   UNL A   1      41.442  26.128  27.907  1.00  0.00     0.031 A 
ATOM     36  C   UNL A   1      42.850  26.462  27.502  1.00  0.00     0.074 A 
ATOM     37  C   UNL A   1      40.729  26.981  28.669  1.00  0.00     0.049 A 
ATOM     38  N   UNL A   1      43.529  27.555  27.721  1.00  0.00    -0.248 NA
ATOM     39  C   UNL A   1      43.605  25.422  26.780  1.00  0.00     0.031 C 
ATOM     40  C   UNL A   1      39.389  26.721  29.203  1.00  0.00     0.029 A 
ATOM     41  N   UNL A   1      41.031  28.236  29.132  1.00  0.00    -0.354 N 
ATOM     42  C   UNL A   1      44.790  27.328  27.188  1.00  0.00     0.074 A 
ATOM     43  C   UNL A   1      44.805  25.974  26.684  1.00  0.00     0.031 C 
ATOM     44  C   UNL A   1      38.975  27.796  29.892  1.00  0.00     0.029 A 
ATOM     45  C   UNL A   1      40.018  28.816  29.860  1.00  0.00     0.049 A 
ATOM     46  H   UNL A   1      41.892  28.681  28.959  1.00  0.00     0.167 HD
ATOM     47  C   UNL A   1      45.826  28.190  27.073  1.00  0.00     0.034 A 
ATOM     48  C   UNL A   1      39.935  30.042  30.415  1.00  0.00     0.034 A 
ATOM     49  C   UNL A   1      45.777  29.555  27.511  1.00  0.00     0.049 A 
ATOM     50  C   UNL A   1      41.080  31.003  30.227  1.00  0.00     0.074 A 
ATOM     51  C   UNL A   1      46.735  30.539  27.358  1.00  0.00     0.029 A 
ATOM     52  N   UNL A   1      44.708  30.129  28.180  1.00  0.00    -0.354 N 
ATOM     53  N   UNL A   1      42.200  30.828  29.567  1.00  0.00    -0.248 NA
ATOM     54  C   UNL A   1      40.939  32.337  30.826  1.00  0.00     0.031 C 
ATOM     55  C   UNL A   1      46.245  31.711  27.940  1.00  0.00     0.029 A 
ATOM     56  C   UNL A   1      44.981  31.457  28.451  1.00  0.00     0.049 A 
ATOM     57  H   UNL A   1      43.877  29.662  28.426  1.00  0.00     0.167 HD
ATOM     58  C   UNL A   1      42.883  32.034  29.646  1.00  0.00     0.074 A 
ATOM     59  C   UNL A   1      42.043  32.941  30.402  1.00  0.00     0.031 C 
ATOM     60  C   UNL A   1      44.104  32.358  29.154  1.00  0.00     0.034 A 
BRANCH  47  61
ATOM     61  C   UNL A   1      47.057  27.707  26.358  1.00  0.00     0.023 A 
ATOM     62  C   UNL A   1      48.037  27.001  27.087  1.00  0.00     0.012 A 
ATOM     63  C   UNL A   1      47.224  27.894  24.974  1.00  0.00     0.148 A 
ATOM     64  C   UNL A   1      49.178  26.512  26.456  1.00  0.00     0.002 A 
ATOM     65  C   UNL A   1      48.347  27.368  24.343  1.00  0.00     0.091 A 
ATOM     66  F   UNL A   1      46.295  28.590  24.304  1.00  0.00    -0.205 F 
ATOM     67  C   UNL A   1      49.327  26.687  25.083  1.00  0.00     0.022 A 
BRANCH  65  68
ATOM     68  S   UNL A   1      48.600  27.478  22.568  1.00  0.00     0.127 S 
ATOM     69  O   UNL A   1      47.441  28.267  22.154  1.00  0.00    -0.237 OA
ATOM     70  O   UNL A   1      49.880  28.184  22.483  1.00  0.00    -0.237 OA
ATOM     71  O   UNL A   1      48.630  26.106  22.081  1.00  0.00    -0.744 OA
ENDBRANCH  65  68
ENDBRANCH  47  61
BRANCH  48  72
ATOM     72  C   UNL A   1      38.670  30.467  31.082  1.00  0.00     0.023 A 
ATOM     73  C   UNL A   1      38.524  30.248  32.466  1.00  0.00     0.012 A 
ATOM     74  C   UNL A   1      37.649  31.139  30.383  1.00  0.00     0.148 A 
ATOM     75  C   UNL A   1      37.378  30.672  33.139  1.00  0.00     0.002 A 
ATOM     76  C   UNL A   1      36.531  31.603  31.069  1.00  0.00     0.091 A 
ATOM     77  F   UNL A   1      37.799  31.326  29.064  1.00  0.00    -0.205 F 
ATOM     78  C   UNL A   1      36.388  31.359  32.444  1.00  0.00     0.022 A 
BRANCH  76  79
ATOM     79  S   UNL A   1      35.269  32.612  30.281  1.00  0.00     0.127 S 
ATOM     80  O   UNL A   1      36.035  33.788  29.877  1.00  0.00    -0.237 OA
ATOM     81  O   UNL A   1      34.833  31.751  29.180  1.00  0.00    -0.237 OA
ATOM     82  O   UNL A   1      34.254  32.832  31.302  1.00  0.00    -0.744 OA
ENDBRANCH  76  79
ENDBRANCH  48  72
BRANCH  60  83
ATOM     83  C   UNL A   1      44.626  33.747  29.403  1.00  0.00     0.023 A 
ATOM     84  C   UNL A   1      45.335  34.009  30.590  1.00  0.00     0.012 A 
ATOM     85  C   UNL A   1      44.553  34.736  28.402  1.00  0.00     0.148 A 
ATOM     86  C   UNL A   1      45.961  35.239  30.782  1.00  0.00     0.002 A 
ATOM     87  C   UNL A   1      45.216  35.943  28.581  1.00  0.00     0.091 A 
ATOM     88  F   UNL A   1      43.861  34.465  27.286  1.00  0.00    -0.205 F 
ATOM     89  C   UNL A   1      45.916  36.198  29.772  1.00  0.00     0.022 A 
BRANCH  87  90
ATOM     90  S   UNL A   1      45.304  37.197  27.297  1.00  0.00     0.127 S 
ATOM     91  O   UNL A   1      43.890  37.406  26.990  1.00  0.00    -0.237 OA
ATOM     92  O   UNL A   1      45.947  38.311  27.995  1.00  0.00    -0.237 OA
ATOM     93  O   UNL A   1      46.096  36.618  26.222  1.00  0.00    -0.744 OA
ENDBRANCH  87  90
ENDBRANCH  60  83
ENDBRANCH  34  35
ENDBRANCH  26  29
ENDBRANCH  24  25
ENDBRANCH   1  24
TORSDOF 16
ENDMDL
MODEL 3
REMARK VINA RESULT:     -12.0      4.672     10.224
REMARK SMILES Cc1cc(=O)cc(C)n1C[C@H]1CCCC[C@@H]1C(=O)NCCCCNC(=O)c1ccc(-c2c3nc(c(-c4cccc(S(=O)(=O)[O-])c4F)c4ccc([nH]4)c(-c4cccc(S(=O)(=O)[O-])c4F)c4nc(c(-c5cccc(S(=O)(=O)[O-])c5F)c5ccc2[nH]5)C=C4)C=C3)cc1
REMARK SMILES IDX 22 1 21 2 20 3 19 4 17 5 18 6 16 8 11 9 12 10 13 11 15 12
REMARK SMILES IDX 14 13 10 14 9 15 1 16 2 17 3 18 4 19 7 20 5 21 6 22 8 23
REMARK SMILES IDX 23 24 24 25 25 26 26 28 27 29 28 30 89 31 29 32 88 33 30 34
REMARK SMILES IDX 31 35 32 36 82 37 33 38 87 39 81 40 83 41 34 42 86 43 80 44
REMARK SMILES IDX 79 45 35 47 67 48 47 49 66 50 48 51 51 52 65 53 84 54 49 55
REMARK SMILES IDX 50 56 64 58 85 59 52 60 36 61 37 62 45 63 38 64 40 65 46 66
REMARK SMILES IDX 39 67 41 68 42 69 43 70 44 71 68 72 69 73 77 74 70 75 72 76
REMARK SMILES IDX 78 77 71 78 73 79 74 80 75 81 76 82 53 83 54 84 62 85 55 86
REMARK SMILES IDX 57 87 63 88 56 89 58 90 59 91 60 92 61 93
REMARK H PARENT 19 7 24 27 83 46 51 57
REMARK Flexibility Score: inf
ROOT
ATOM      1  C   UNL A   1      35.366  21.610  25.122  1.00  0.00     0.023 C 
ENDROOT
BRANCH   1   2
ATOM      2  C   UNL A   1      34.341  21.995  26.176  1.00  0.00     0.023 C 
BRANCH   2   3
ATOM      3  C   UNL A   1      32.893  21.594  25.877  1.00  0.00     0.116 C 
BRANCH   3   4
ATOM      4  N   UNL A   1      31.932  22.372  26.629  1.00  0.00    -0.356 N 
ATOM      5  C   UNL A   1      31.524  23.663  26.510  1.00  0.00     0.223 C 
ATOM      6  O   UNL A   1      30.578  23.998  27.228  1.00  0.00    -0.275 OA
ATOM      7  H   UNL A   1      31.494  21.876  27.358  1.00  0.00     0.163 HD
BRANCH   5   8
ATOM      8  C   UNL A   1      32.139  24.647  25.484  1.00  0.00     0.083 C 
ATOM      9  C   UNL A   1      31.461  26.036  25.396  1.00  0.00     0.021 C 
ATOM     10  C   UNL A   1      30.012  25.840  24.920  1.00  0.00     0.006 C 
ATOM     11  C   UNL A   1      29.928  25.193  23.544  1.00  0.00     0.000 C 
ATOM     12  C   UNL A   1      32.125  24.000  24.076  1.00  0.00     0.014 C 
ATOM     13  C   UNL A   1      30.711  23.885  23.487  1.00  0.00     0.001 C 
BRANCH   9  14
ATOM     14  C   UNL A   1      32.274  27.055  24.552  1.00  0.00     0.126 C 
BRANCH  14  15
ATOM     15  N   UNL A   1      32.091  28.456  25.051  1.00  0.00    -0.349 N 
ATOM     16  C   UNL A   1      33.999  28.102  26.704  1.00  0.00     0.064 C 
ATOM     17  C   UNL A   1      32.867  28.933  26.146  1.00  0.00     0.018 A 
ATOM     18  C   UNL A   1      32.660  30.136  26.715  1.00  0.00     0.073 A 
ATOM     19  C   UNL A   1      31.607  31.019  26.194  1.00  0.00     0.182 A 
ATOM     20  C   UNL A   1      31.116  29.330  24.498  1.00  0.00     0.018 A 
ATOM     21  O   UNL A   1      31.390  32.118  26.689  1.00  0.00    -0.290 OA
ATOM     22  C   UNL A   1      30.855  30.543  25.024  1.00  0.00     0.073 A 
ATOM     23  C   UNL A   1      30.338  28.983  23.251  1.00  0.00     0.064 C 
ENDBRANCH  14  15
ENDBRANCH   9  14
ENDBRANCH   5   8
ENDBRANCH   3   4
ENDBRANCH   2   3
ENDBRANCH   1   2
BRANCH   1  24
ATOM     24  C   UNL A   1      36.769  22.114  25.391  1.00  0.00     0.116 C 
BRANCH  24  25
ATOM     25  N   UNL A   1      37.773  21.058  25.426  1.00  0.00    -0.352 N 
ATOM     26  C   UNL A   1      39.050  21.125  25.944  1.00  0.00     0.251 C 
ATOM     27  H   UNL A   1      37.509  20.195  25.034  1.00  0.00     0.163 HD
ATOM     28  O   UNL A   1      39.818  20.188  25.858  1.00  0.00    -0.269 OA
BRANCH  26  29
ATOM     29  C   UNL A   1      39.464  22.400  26.565  1.00  0.00     0.039 A 
ATOM     30  C   UNL A   1      40.426  22.371  27.573  1.00  0.00     0.014 A 
ATOM     31  C   UNL A   1      39.000  23.609  26.042  1.00  0.00     0.014 A 
ATOM     32  C   UNL A   1      40.981  23.572  28.013  1.00  0.00     0.010 A 
ATOM     33  C   UNL A   1      39.619  24.792  26.416  1.00  0.00     0.010 A 
ATOM     34  C   UNL A   1      40.610  24.785  27.410  1.00  0.00    -0.014 A 
BRANCH  34  35
ATOM     35  C   UNL A   1      41.243  26.061  27.813  1.00  0.00     0.031 A 
ATOM     36  C   UNL A   1      42.670  26.337  27.433  1.00  0.00     0.074 A 
ATOM     37  C   UNL A   1      40.555  26.938  28.570  1.00  0.00     0.049 A 
ATOM     38  N   UNL A   1      43.392  27.398  27.672  1.00  0.00    -0.248 NA
ATOM     39  C   UNL A   1      43.392  25.271  26.715  1.00  0.00     0.031 C 
ATOM     40  C   UNL A   1      39.196  26.732  29.080  1.00  0.00     0.029 A 
ATOM     41  N   UNL A   1      40.902  28.175  29.048  1.00  0.00    -0.354 N 
ATOM     42  C   UNL A   1      44.650  27.122  27.157  1.00  0.00     0.074 A 
ATOM     43  C   UNL A   1      44.616  25.772  26.643  1.00  0.00     0.031 C 
ATOM     44  C   UNL A   1      38.817  27.819  29.771  1.00  0.00     0.029 A 
ATOM     45  C   UNL A   1      39.904  28.793  29.764  1.00  0.00     0.049 A 
ATOM     46  H   UNL A   1      41.785  28.584  28.892  1.00  0.00     0.167 HD
ATOM     47  C   UNL A   1      45.724  27.939  27.067  1.00  0.00     0.034 A 
ATOM     48  C   UNL A   1      39.863  30.017  30.328  1.00  0.00     0.034 A 
ATOM     49  C   UNL A   1      45.727  29.301  27.515  1.00  0.00     0.049 A 
ATOM     50  C   UNL A   1      41.052  30.929  30.166  1.00  0.00     0.074 A 
ATOM     51  C   UNL A   1      46.729  30.244  27.386  1.00  0.00     0.029 A 
ATOM     52  N   UNL A   1      44.672  29.916  28.171  1.00  0.00    -0.354 N 
ATOM     53  N   UNL A   1      42.174  30.711  29.524  1.00  0.00    -0.248 NA
ATOM     54  C   UNL A   1      40.959  32.264  30.774  1.00  0.00     0.031 C 
ATOM     55  C   UNL A   1      46.280  31.432  27.970  1.00  0.00     0.029 A 
ATOM     56  C   UNL A   1      44.998  31.228  28.458  1.00  0.00     0.049 A 
ATOM     57  H   UNL A   1      43.819  29.483  28.400  1.00  0.00     0.167 HD
ATOM     58  C   UNL A   1      42.907  31.887  29.623  1.00  0.00     0.074 A 
ATOM     59  C   UNL A   1      42.094  32.823  30.374  1.00  0.00     0.031 C 
ATOM     60  C   UNL A   1      44.149  32.161  29.154  1.00  0.00     0.034 A 
BRANCH  47  61
ATOM     61  C   UNL A   1      46.946  27.409  26.368  1.00  0.00     0.023 A 
ATOM     62  C   UNL A   1      47.093  27.638  24.984  1.00  0.00     0.012 A 
ATOM     63  C   UNL A   1      47.965  26.744  27.073  1.00  0.00     0.148 A 
ATOM     64  C   UNL A   1      48.224  27.189  24.305  1.00  0.00     0.002 A 
ATOM     65  C   UNL A   1      49.109  26.333  26.396  1.00  0.00     0.091 A 
ATOM     66  F   UNL A   1      47.794  26.512  28.382  1.00  0.00    -0.205 F 
ATOM     67  C   UNL A   1      49.235  26.546  25.014  1.00  0.00     0.022 A 
BRANCH  65  68
ATOM     68  S   UNL A   1      50.500  25.558  27.228  1.00  0.00     0.127 S 
ATOM     69  O   UNL A   1      49.893  24.329  27.734  1.00  0.00    -0.237 OA
ATOM     70  O   UNL A   1      51.447  25.363  26.129  1.00  0.00    -0.237 OA
ATOM     71  O   UNL A   1      50.937  26.505  28.245  1.00  0.00    -0.744 OA
ENDBRANCH  65  68
ENDBRANCH  47  61
BRANCH  48  72
ATOM     72  C   UNL A   1      38.608  30.491  30.978  1.00  0.00     0.023 A 
ATOM     73  C   UNL A   1      38.445  30.299  32.364  1.00  0.00     0.012 A 
ATOM     74  C   UNL A   1      37.612  31.181  30.260  1.00  0.00     0.148 A 
ATOM     75  C   UNL A   1      37.307  30.769  33.021  1.00  0.00     0.002 A 
ATOM     76  C   UNL A   1      36.503  31.690  30.929  1.00  0.00     0.091 A 
ATOM     77  F   UNL A   1      37.777  31.342  28.939  1.00  0.00    -0.205 F 
ATOM     78  C   UNL A   1      36.343  31.474  32.307  1.00  0.00     0.022 A 
BRANCH  76  79
ATOM     79  S   UNL A   1      35.279  32.724  30.115  1.00  0.00     0.127 S 
ATOM     80  O   UNL A   1      34.664  31.783  29.184  1.00  0.00    -0.237 OA
ATOM     81  O   UNL A   1      34.428  33.129  31.235  1.00  0.00    -0.237 OA
ATOM     82  O   UNL A   1      36.030  33.816  29.513  1.00  0.00    -0.744 OA
ENDBRANCH  76  79
ENDBRANCH  48  72
BRANCH  60  83
ATOM     83  C   UNL A   1      44.725  33.524  29.423  1.00  0.00     0.023 A 
ATOM     84  C   UNL A   1      45.490  33.726  30.588  1.00  0.00     0.012 A 
ATOM     85  C   UNL A   1      44.645  34.546  28.455  1.00  0.00     0.148 A 
ATOM     86  C   UNL A   1      46.163  34.930  30.790  1.00  0.00     0.002 A 
ATOM     87  C   UNL A   1      45.354  35.726  28.643  1.00  0.00     0.091 A 
ATOM     88  F   UNL A   1      43.900  34.332  27.361  1.00  0.00    -0.205 F 
ATOM     89  C   UNL A   1      46.109  35.921  29.812  1.00  0.00     0.022 A 
BRANCH  87  90
ATOM     90  S   UNL A   1      45.432  37.016  27.396  1.00  0.00     0.127 S 
ATOM     91  O   UNL A   1      46.237  38.032  28.070  1.00  0.00    -0.237 OA
ATOM     92  O   UNL A   1      46.107  36.338  26.289  1.00  0.00    -0.237 OA
ATOM     93  O   UNL A   1      44.053  37.396  27.123  1.00  0.00    -0.744 OA
ENDBRANCH  87  90
ENDBRANCH  60  83
ENDBRANCH  34  35
ENDBRANCH  26  29
ENDBRANCH  24  25
ENDBRANCH   1  24
TORSDOF 16
ENDMDL
