MODEL 1
REMARK VINA RESULT:     -11.2      0.000      0.000
REMARK SMILES Cc1c(NC(=S)NC(=O)CSc2ccc(Cl)cc2)cccc1C(=O)NCCCCNC(=O)c1ccc(-c2c3nc(c(-c4cccc(S(=O)(=O)[O-])c4F)c4ccc([nH]4)c(-c4cccc(S(=O)(=O)[O-])c4F)c4nc(c(-c5cccc(S(=O)(=O)[O-])c5F)c5ccc2[nH]5)C=C4)C=C3)cc1
REMARK SMILES IDX 26 1 25 2 23 3 24 4 22 6 1 7 2 8 3 9 19 10 21 11 20 12 4 13
REMARK SMILES IDX 5 15 6 16 7 17 8 18 9 20 10 21 11 22 12 23 13 24 18 25 14 26
REMARK SMILES IDX 17 27 15 28 16 29 27 30 28 31 29 32 30 33 31 34 32 36 33 37
REMARK SMILES IDX 34 38 95 39 35 40 94 41 36 42 37 43 38 44 88 45 39 46 93 47
REMARK SMILES IDX 87 48 89 49 40 50 92 51 86 52 85 53 41 55 73 56 53 57 72 58
REMARK SMILES IDX 54 59 57 60 71 61 90 62 55 63 56 64 70 66 91 67 58 68 42 69
REMARK SMILES IDX 43 70 51 71 44 72 46 73 52 74 45 75 47 76 48 77 49 78 50 79
REMARK SMILES IDX 74 80 75 81 83 82 76 83 78 84 84 85 77 86 79 87 80 88 81 89
REMARK SMILES IDX 82 90 59 91 60 92 68 93 61 94 63 95 69 96 62 97 64 98 65 99
REMARK SMILES IDX 66 100 67 101
REMARK H PARENT 25 5 4 14 7 19 30 35 89 54 57 65
REMARK Flexibility Score: inf
ROOT
ATOM      1  C   UNL A   1      37.335  21.165  25.289  1.00  0.00     0.116 C 
ENDROOT
BRANCH   1   2
ATOM      2  N   UNL A   1      37.009  22.029  24.177  1.00  0.00    -0.352 N 
ATOM      3  C   UNL A   1      35.932  22.676  23.654  1.00  0.00     0.251 C 
ATOM      4  O   UNL A   1      36.229  23.366  22.666  1.00  0.00    -0.269 OA
ATOM      5  H   UNL A   1      37.811  22.203  23.632  1.00  0.00     0.163 HD
BRANCH   3   6
ATOM      6  C   UNL A   1      34.472  22.664  24.054  1.00  0.00     0.044 A 
ATOM      7  C   UNL A   1      34.488  23.696  26.402  1.00  0.00     0.047 C 
ATOM      8  C   UNL A   1      33.789  23.226  25.164  1.00  0.00    -0.015 A 
ATOM      9  C   UNL A   1      32.362  23.359  25.098  1.00  0.00     0.044 A 
ATOM     10  C   UNL A   1      31.630  22.677  24.129  1.00  0.00     0.026 A 
ATOM     11  C   UNL A   1      33.673  22.084  23.033  1.00  0.00     0.014 A 
ATOM     12  C   UNL A   1      32.285  22.039  23.091  1.00  0.00     0.003 A 
BRANCH   9  13
ATOM     13  N   UNL A   1      31.704  24.212  26.010  1.00  0.00    -0.332 N 
ATOM     14  H   UNL A   1      31.685  23.849  26.926  1.00  0.00     0.169 HD
BRANCH  13  15
ATOM     15  C   UNL A   1      31.097  25.402  25.915  1.00  0.00     0.177 C 
ATOM     16  S   UNL A   1      30.146  25.664  24.555  1.00  0.00    -0.040 S 
BRANCH  15  17
ATOM     17  N   UNL A   1      31.132  26.405  26.836  1.00  0.00    -0.302 N 
ATOM     18  C   UNL A   1      31.875  27.493  27.263  1.00  0.00     0.236 C 
ATOM     19  H   UNL A   1      30.336  26.327  27.411  1.00  0.00     0.172 HD
ATOM     20  O   UNL A   1      31.315  28.225  28.096  1.00  0.00    -0.274 OA
BRANCH  18  21
ATOM     21  C   UNL A   1      33.264  27.853  26.785  1.00  0.00     0.175 C 
BRANCH  21  22
ATOM     22  S   UNL A   1      33.333  29.108  25.482  1.00  0.00    -0.116 SA
BRANCH  22  23
ATOM     23  C   UNL A   1      33.089  28.062  24.077  1.00  0.00     0.008 A 
ATOM     24  C   UNL A   1      32.236  28.435  23.034  1.00  0.00     0.016 A 
ATOM     25  C   UNL A   1      33.792  26.857  24.012  1.00  0.00     0.016 A 
ATOM     26  C   UNL A   1      32.105  27.609  21.916  1.00  0.00     0.021 A 
ATOM     27  C   UNL A   1      33.663  26.035  22.895  1.00  0.00     0.021 A 
ATOM     28  C   UNL A   1      32.825  26.416  21.850  1.00  0.00     0.041 A 
ATOM     29  Cl  UNL A   1      32.692  25.408  20.463  1.00  0.00    -0.084 Cl
ENDBRANCH  22  23
ENDBRANCH  21  22
ENDBRANCH  18  21
ENDBRANCH  15  17
ENDBRANCH  13  15
ENDBRANCH   9  13
ENDBRANCH   3   6
ENDBRANCH   1   2
BRANCH   1  30
ATOM     30  C   UNL A   1      38.020  19.857  24.894  1.00  0.00     0.023 C 
BRANCH  30  31
ATOM     31  C   UNL A   1      39.312  19.489  25.628  1.00  0.00     0.023 C 
BRANCH  31  32
ATOM     32  C   UNL A   1      40.147  20.638  26.205  1.00  0.00     0.116 C 
BRANCH  32  33
ATOM     33  N   UNL A   1      41.593  20.421  26.105  1.00  0.00    -0.352 N 
ATOM     34  C   UNL A   1      42.614  21.301  25.796  1.00  0.00     0.251 C 
ATOM     35  H   UNL A   1      41.885  19.498  26.289  1.00  0.00     0.163 HD
ATOM     36  O   UNL A   1      43.672  20.835  25.361  1.00  0.00    -0.269 OA
BRANCH  34  37
ATOM     37  C   UNL A   1      42.467  22.751  26.050  1.00  0.00     0.039 A 
ATOM     38  C   UNL A   1      42.907  23.752  25.173  1.00  0.00     0.014 A 
ATOM     39  C   UNL A   1      41.992  23.116  27.296  1.00  0.00     0.014 A 
ATOM     40  C   UNL A   1      42.909  25.093  25.590  1.00  0.00     0.010 A 
ATOM     41  C   UNL A   1      41.774  24.420  27.622  1.00  0.00     0.010 A 
ATOM     42  C   UNL A   1      42.377  25.404  26.839  1.00  0.00    -0.014 A 
BRANCH  42  43
ATOM     43  C   UNL A   1      42.580  26.628  27.605  1.00  0.00     0.031 A 
ATOM     44  C   UNL A   1      41.549  27.657  27.735  1.00  0.00     0.074 A 
ATOM     45  C   UNL A   1      43.535  26.482  28.554  1.00  0.00     0.049 A 
ATOM     46  N   UNL A   1      41.709  28.751  28.399  1.00  0.00    -0.248 NA
ATOM     47  C   UNL A   1      40.243  27.539  27.105  1.00  0.00     0.031 C 
ATOM     48  C   UNL A   1      43.573  27.030  29.897  1.00  0.00     0.029 A 
ATOM     49  N   UNL A   1      44.708  25.723  28.465  1.00  0.00    -0.354 N 
ATOM     50  C   UNL A   1      40.451  29.285  28.590  1.00  0.00     0.074 A 
ATOM     51  C   UNL A   1      39.630  28.614  27.611  1.00  0.00     0.031 C 
ATOM     52  C   UNL A   1      44.795  26.809  30.412  1.00  0.00     0.029 A 
ATOM     53  C   UNL A   1      45.632  26.311  29.330  1.00  0.00     0.049 A 
ATOM     54  H   UNL A   1      44.853  24.929  27.902  1.00  0.00     0.167 HD
ATOM     55  C   UNL A   1      40.236  30.071  29.686  1.00  0.00     0.034 A 
ATOM     56  C   UNL A   1      46.772  26.902  28.865  1.00  0.00     0.034 A 
ATOM     57  C   UNL A   1      41.506  30.328  30.403  1.00  0.00     0.049 A 
ATOM     58  C   UNL A   1      46.772  28.401  29.114  1.00  0.00     0.074 A 
ATOM     59  C   UNL A   1      42.038  29.855  31.592  1.00  0.00     0.029 A 
ATOM     60  N   UNL A   1      42.552  30.977  29.748  1.00  0.00    -0.354 N 
ATOM     61  N   UNL A   1      45.794  29.051  29.685  1.00  0.00    -0.248 NA
ATOM     62  C   UNL A   1      47.859  29.293  28.727  1.00  0.00     0.031 C 
ATOM     63  C   UNL A   1      43.441  30.110  31.581  1.00  0.00     0.029 A 
ATOM     64  C   UNL A   1      43.759  30.779  30.410  1.00  0.00     0.049 A 
ATOM     65  H   UNL A   1      42.450  31.505  28.924  1.00  0.00     0.167 HD
ATOM     66  C   UNL A   1      45.997  30.398  29.581  1.00  0.00     0.074 A 
ATOM     67  C   UNL A   1      47.357  30.493  29.074  1.00  0.00     0.031 C 
ATOM     68  C   UNL A   1      45.004  31.307  29.842  1.00  0.00     0.034 A 
BRANCH  55  69
ATOM     69  C   UNL A   1      38.872  30.394  30.312  1.00  0.00     0.023 A 
ATOM     70  C   UNL A   1      38.281  29.395  31.122  1.00  0.00     0.012 A 
ATOM     71  C   UNL A   1      38.078  31.553  30.117  1.00  0.00     0.148 A 
ATOM     72  C   UNL A   1      36.980  29.502  31.638  1.00  0.00     0.002 A 
ATOM     73  C   UNL A   1      36.781  31.666  30.632  1.00  0.00     0.091 A 
ATOM     74  F   UNL A   1      38.552  32.588  29.433  1.00  0.00    -0.205 F 
ATOM     75  C   UNL A   1      36.222  30.635  31.384  1.00  0.00     0.022 A 
BRANCH  73  76
ATOM     76  S   UNL A   1      35.742  33.115  30.338  1.00  0.00     0.127 S 
ATOM     77  O   UNL A   1      34.431  32.652  30.797  1.00  0.00    -0.237 OA
ATOM     78  O   UNL A   1      36.365  34.124  31.194  1.00  0.00    -0.237 OA
ATOM     79  O   UNL A   1      35.812  33.399  28.909  1.00  0.00    -0.744 OA
ENDBRANCH  73  76
ENDBRANCH  55  69
BRANCH  56  80
ATOM     80  C   UNL A   1      47.350  26.196  27.675  1.00  0.00     0.023 A 
ATOM     81  C   UNL A   1      46.551  26.184  26.505  1.00  0.00     0.012 A 
ATOM     82  C   UNL A   1      48.738  25.992  27.546  1.00  0.00     0.148 A 
ATOM     83  C   UNL A   1      47.130  26.105  25.236  1.00  0.00     0.002 A 
ATOM     84  C   UNL A   1      49.313  25.945  26.273  1.00  0.00     0.091 A 
ATOM     85  F   UNL A   1      49.485  25.976  28.657  1.00  0.00    -0.205 F 
ATOM     86  C   UNL A   1      48.514  26.028  25.121  1.00  0.00     0.022 A 
BRANCH  84  87
ATOM     87  S   UNL A   1      51.098  25.961  26.035  1.00  0.00     0.127 S 
ATOM     88  O   UNL A   1      51.473  24.644  26.545  1.00  0.00    -0.237 OA
ATOM     89  O   UNL A   1      51.224  26.115  24.587  1.00  0.00    -0.237 OA
ATOM     90  O   UNL A   1      51.573  27.105  26.797  1.00  0.00    -0.744 OA
ENDBRANCH  84  87
ENDBRANCH  56  80
BRANCH  68  91
ATOM     91  C   UNL A   1      45.095  32.790  29.544  1.00  0.00     0.023 A 
ATOM     92  C   UNL A   1      45.462  33.737  30.519  1.00  0.00     0.012 A 
ATOM     93  C   UNL A   1      44.966  33.263  28.213  1.00  0.00     0.148 A 
ATOM     94  C   UNL A   1      45.633  35.090  30.208  1.00  0.00     0.002 A 
ATOM     95  C   UNL A   1      45.259  34.585  27.888  1.00  0.00     0.091 A 
ATOM     96  F   UNL A   1      44.542  32.434  27.247  1.00  0.00    -0.205 F 
ATOM     97  C   UNL A   1      45.558  35.512  28.887  1.00  0.00     0.022 A 
BRANCH  95  98
ATOM     98  S   UNL A   1      45.433  35.083  26.170  1.00  0.00     0.127 S 
ATOM     99  O   UNL A   1      45.926  36.452  26.294  1.00  0.00    -0.237 OA
ATOM    100  O   UNL A   1      46.417  34.126  25.658  1.00  0.00    -0.237 OA
ATOM    101  O   UNL A   1      44.101  34.923  25.602  1.00  0.00    -0.744 OA
ENDBRANCH  95  98
ENDBRANCH  68  91
ENDBRANCH  42  43
ENDBRANCH  34  37
ENDBRANCH  32  33
ENDBRANCH  31  32
ENDBRANCH  30  31
ENDBRANCH   1  30
TORSDOF 20
ENDMDL
MODEL 2
REMARK VINA RESULT:     -11.0      2.323      2.920
REMARK SMILES Cc1c(NC(=S)NC(=O)CSc2ccc(Cl)cc2)cccc1C(=O)NCCCCNC(=O)c1ccc(-c2c3nc(c(-c4cccc(S(=O)(=O)[O-])c4F)c4ccc([nH]4)c(-c4cccc(S(=O)(=O)[O-])c4F)c4nc(c(-c5cccc(S(=O)(=O)[O-])c5F)c5ccc2[nH]5)C=C4)C=C3)cc1
REMARK SMILES IDX 26 1 25 2 23 3 24 4 22 6 1 7 2 8 3 9 19 10 21 11 20 12 4 13
REMARK SMILES IDX 5 15 6 16 7 17 8 18 9 20 10 21 11 22 12 23 13 24 18 25 14 26
REMARK SMILES IDX 17 27 15 28 16 29 27 30 28 31 29 32 30 33 31 34 32 36 33 37
REMARK SMILES IDX 34 38 95 39 35 40 94 41 36 42 37 43 38 44 88 45 39 46 93 47
REMARK SMILES IDX 87 48 89 49 40 50 92 51 86 52 85 53 41 55 73 56 53 57 72 58
REMARK SMILES IDX 54 59 57 60 71 61 90 62 55 63 56 64 70 66 91 67 58 68 42 69
REMARK SMILES IDX 43 70 51 71 44 72 46 73 52 74 45 75 47 76 48 77 49 78 50 79
REMARK SMILES IDX 74 80 75 81 83 82 76 83 78 84 84 85 77 86 79 87 80 88 81 89
REMARK SMILES IDX 82 90 59 91 60 92 68 93 61 94 63 95 69 96 62 97 64 98 65 99
REMARK SMILES IDX 66 100 67 101
REMARK H PARENT 25 5 4 14 7 19 30 35 89 54 57 65
REMARK Flexibility Score: inf
ROOT
ATOM      1  C   UNL A   1      38.302  22.208  25.773  1.00  0.00     0.116 C 
ENDROOT
BRANCH   1   2
ATOM      2  N   UNL A   1      37.772  22.586  24.483  1.00  0.00    -0.352 N 
ATOM      3  C   UNL A   1      36.571  22.687  23.850  1.00  0.00     0.251 C 
ATOM      4  O   UNL A   1      36.681  23.140  22.699  1.00  0.00    -0.269 OA
ATOM      5  H   UNL A   1      38.502  22.852  23.878  1.00  0.00     0.163 HD
BRANCH   3   6
ATOM      6  C   UNL A   1      35.174  22.318  24.299  1.00  0.00     0.044 A 
ATOM      7  C   UNL A   1      33.992  24.587  24.495  1.00  0.00     0.047 C 
ATOM      8  C   UNL A   1      33.991  23.089  24.446  1.00  0.00    -0.015 A 
ATOM      9  C   UNL A   1      32.733  22.408  24.548  1.00  0.00     0.044 A 
ATOM     10  C   UNL A   1      32.687  21.042  24.814  1.00  0.00     0.026 A 
ATOM     11  C   UNL A   1      35.051  20.914  24.465  1.00  0.00     0.014 A 
ATOM     12  C   UNL A   1      33.846  20.289  24.772  1.00  0.00     0.003 A 
BRANCH   9  13
ATOM     13  N   UNL A   1      31.537  23.129  24.346  1.00  0.00    -0.332 N 
ATOM     14  H   UNL A   1      31.201  23.059  23.422  1.00  0.00     0.169 HD
BRANCH  13  15
ATOM     15  C   UNL A   1      30.754  23.888  25.123  1.00  0.00     0.177 C 
ATOM     16  S   UNL A   1      30.904  23.684  26.784  1.00  0.00    -0.040 S 
BRANCH  15  17
ATOM     17  N   UNL A   1      29.883  24.848  24.704  1.00  0.00    -0.302 N 
ATOM     18  C   UNL A   1      29.804  26.057  24.032  1.00  0.00     0.236 C 
ATOM     19  H   UNL A   1      28.975  24.587  24.982  1.00  0.00     0.172 HD
ATOM     20  O   UNL A   1      28.654  26.436  23.752  1.00  0.00    -0.274 OA
BRANCH  18  21
ATOM     21  C   UNL A   1      30.981  26.907  23.608  1.00  0.00     0.175 C 
BRANCH  21  22
ATOM     22  S   UNL A   1      30.763  28.692  23.821  1.00  0.00    -0.116 SA
BRANCH  22  23
ATOM     23  C   UNL A   1      32.020  28.980  25.032  1.00  0.00     0.008 A 
ATOM     24  C   UNL A   1      31.747  29.684  26.209  1.00  0.00     0.016 A 
ATOM     25  C   UNL A   1      33.298  28.464  24.805  1.00  0.00     0.016 A 
ATOM     26  C   UNL A   1      32.749  29.851  27.166  1.00  0.00     0.021 A 
ATOM     27  C   UNL A   1      34.296  28.628  25.761  1.00  0.00     0.021 A 
ATOM     28  C   UNL A   1      34.017  29.315  26.941  1.00  0.00     0.041 A 
ATOM     29  Cl  UNL A   1      35.248  29.490  28.128  1.00  0.00    -0.084 Cl
ENDBRANCH  22  23
ENDBRANCH  21  22
ENDBRANCH  18  21
ENDBRANCH  15  17
ENDBRANCH  13  15
ENDBRANCH   9  13
ENDBRANCH   3   6
ENDBRANCH   1   2
BRANCH   1  30
ATOM     30  C   UNL A   1      39.023  20.860  25.791  1.00  0.00     0.023 C 
BRANCH  30  31
ATOM     31  C   UNL A   1      40.419  20.817  26.416  1.00  0.00     0.023 C 
BRANCH  31  32
ATOM     32  C   UNL A   1      41.402  21.926  26.025  1.00  0.00     0.116 C 
BRANCH  32  33
ATOM     33  N   UNL A   1      42.642  21.427  25.423  1.00  0.00    -0.352 N 
ATOM     34  C   UNL A   1      43.823  22.082  25.124  1.00  0.00     0.251 C 
ATOM     35  H   UNL A   1      42.632  20.469  25.194  1.00  0.00     0.163 HD
ATOM     36  O   UNL A   1      44.557  21.594  24.258  1.00  0.00    -0.269 OA
BRANCH  34  37
ATOM     37  C   UNL A   1      44.228  23.292  25.872  1.00  0.00     0.039 A 
ATOM     38  C   UNL A   1      44.525  23.308  27.242  1.00  0.00     0.014 A 
ATOM     39  C   UNL A   1      44.166  24.493  25.189  1.00  0.00     0.014 A 
ATOM     40  C   UNL A   1      44.700  24.533  27.905  1.00  0.00     0.010 A 
ATOM     41  C   UNL A   1      44.558  25.662  25.766  1.00  0.00     0.010 A 
ATOM     42  C   UNL A   1      44.669  25.706  27.155  1.00  0.00    -0.014 A 
BRANCH  42  43
ATOM     43  C   UNL A   1      44.482  27.065  27.650  1.00  0.00     0.031 A 
ATOM     44  C   UNL A   1      43.173  27.718  27.686  1.00  0.00     0.074 A 
ATOM     45  C   UNL A   1      45.463  27.434  28.508  1.00  0.00     0.049 A 
ATOM     46  N   UNL A   1      42.985  28.921  28.110  1.00  0.00    -0.248 NA
ATOM     47  C   UNL A   1      41.959  27.062  27.225  1.00  0.00     0.031 C 
ATOM     48  C   UNL A   1      45.362  28.239  29.712  1.00  0.00     0.029 A 
ATOM     49  N   UNL A   1      46.817  27.084  28.446  1.00  0.00    -0.354 N 
ATOM     50  C   UNL A   1      41.629  29.057  28.323  1.00  0.00     0.074 A 
ATOM     51  C   UNL A   1      41.043  27.970  27.577  1.00  0.00     0.031 C 
ATOM     52  C   UNL A   1      46.605  28.530  30.133  1.00  0.00     0.029 A 
ATOM     53  C   UNL A   1      47.523  28.104  29.086  1.00  0.00     0.049 A 
ATOM     54  H   UNL A   1      47.197  26.276  28.033  1.00  0.00     0.167 HD
ATOM     55  C   UNL A   1      41.202  29.949  29.266  1.00  0.00     0.034 A 
ATOM     56  C   UNL A   1      48.387  28.913  28.405  1.00  0.00     0.034 A 
ATOM     57  C   UNL A   1      42.340  30.741  29.788  1.00  0.00     0.049 A 
ATOM     58  C   UNL A   1      47.900  30.351  28.363  1.00  0.00     0.074 A 
ATOM     59  C   UNL A   1      43.037  30.725  30.985  1.00  0.00     0.029 A 
ATOM     60  N   UNL A   1      43.090  31.533  28.919  1.00  0.00    -0.354 N 
ATOM     61  N   UNL A   1      46.782  30.764  28.896  1.00  0.00    -0.248 NA
ATOM     62  C   UNL A   1      48.618  31.438  27.705  1.00  0.00     0.031 C 
ATOM     63  C   UNL A   1      44.276  31.402  30.784  1.00  0.00     0.029 A 
ATOM     64  C   UNL A   1      44.316  31.873  29.482  1.00  0.00     0.049 A 
ATOM     65  H   UNL A   1      42.792  31.814  28.025  1.00  0.00     0.167 HD
ATOM     66  C   UNL A   1      46.525  32.052  28.518  1.00  0.00     0.074 A 
ATOM     67  C   UNL A   1      47.760  32.462  27.868  1.00  0.00     0.031 C 
ATOM     68  C   UNL A   1      45.297  32.633  28.701  1.00  0.00     0.034 A 
BRANCH  55  69
ATOM     69  C   UNL A   1      39.830  29.950  29.954  1.00  0.00     0.023 A 
ATOM     70  C   UNL A   1      39.348  28.708  30.432  1.00  0.00     0.012 A 
ATOM     71  C   UNL A   1      38.933  31.037  30.104  1.00  0.00     0.148 A 
ATOM     72  C   UNL A   1      38.055  28.540  30.951  1.00  0.00     0.002 A 
ATOM     73  C   UNL A   1      37.643  30.877  30.624  1.00  0.00     0.091 A 
ATOM     74  F   UNL A   1      39.299  32.266  29.758  1.00  0.00    -0.205 F 
ATOM     75  C   UNL A   1      37.195  29.624  31.037  1.00  0.00     0.022 A 
BRANCH  73  76
ATOM     76  S   UNL A   1      36.474  32.248  30.765  1.00  0.00     0.127 S 
ATOM     77  O   UNL A   1      35.289  31.586  31.313  1.00  0.00    -0.237 OA
ATOM     78  O   UNL A   1      37.156  33.143  31.699  1.00  0.00    -0.237 OA
ATOM     79  O   UNL A   1      36.295  32.786  29.422  1.00  0.00    -0.744 OA
ENDBRANCH  73  76
ENDBRANCH  55  69
BRANCH  56  80
ATOM     80  C   UNL A   1      49.125  28.190  27.319  1.00  0.00     0.023 A 
ATOM     81  C   UNL A   1      50.160  27.318  27.737  1.00  0.00     0.012 A 
ATOM     82  C   UNL A   1      48.551  27.993  26.047  1.00  0.00     0.148 A 
ATOM     83  C   UNL A   1      50.520  26.205  26.972  1.00  0.00     0.002 A 
ATOM     84  C   UNL A   1      48.894  26.861  25.302  1.00  0.00     0.091 A 
ATOM     85  F   UNL A   1      47.593  28.837  25.644  1.00  0.00    -0.205 F 
ATOM     86  C   UNL A   1      49.857  25.955  25.776  1.00  0.00     0.022 A 
BRANCH  84  87
ATOM     87  S   UNL A   1      48.006  26.403  23.804  1.00  0.00     0.127 S 
ATOM     88  O   UNL A   1      49.041  26.573  22.787  1.00  0.00    -0.237 OA
ATOM     89  O   UNL A   1      47.630  25.016  24.069  1.00  0.00    -0.237 OA
ATOM     90  O   UNL A   1      46.880  27.321  23.735  1.00  0.00    -0.744 OA
ENDBRANCH  84  87
ENDBRANCH  56  80
BRANCH  68  91
ATOM     91  C   UNL A   1      44.883  33.970  28.119  1.00  0.00     0.023 A 
ATOM     92  C   UNL A   1      44.213  34.082  26.885  1.00  0.00     0.012 A 
ATOM     93  C   UNL A   1      45.016  35.158  28.882  1.00  0.00     0.148 A 
ATOM     94  C   UNL A   1      43.753  35.313  26.403  1.00  0.00     0.002 A 
ATOM     95  C   UNL A   1      44.448  36.354  28.454  1.00  0.00     0.091 A 
ATOM     96  F   UNL A   1      45.712  35.141  30.029  1.00  0.00    -0.205 F 
ATOM     97  C   UNL A   1      43.846  36.446  27.199  1.00  0.00     0.022 A 
BRANCH  95  98
ATOM     98  S   UNL A   1      44.317  37.753  29.577  1.00  0.00     0.127 S 
ATOM     99  O   UNL A   1      43.743  37.138  30.770  1.00  0.00    -0.237 OA
ATOM    100  O   UNL A   1      45.712  38.177  29.721  1.00  0.00    -0.237 OA
ATOM    101  O   UNL A   1      43.476  38.713  28.874  1.00  0.00    -0.744 OA
ENDBRANCH  95  98
ENDBRANCH  68  91
ENDBRANCH  42  43
ENDBRANCH  34  37
ENDBRANCH  32  33
ENDBRANCH  31  32
ENDBRANCH  30  31
ENDBRANCH   1  30
TORSDOF 20
ENDMDL
MODEL 3
REMARK VINA RESULT:     -10.8      5.500     11.447
REMARK SMILES Cc1c(NC(=S)NC(=O)CSc2ccc(Cl)cc2)cccc1C(=O)NCCCCNC(=O)c1ccc(-c2c3nc(c(-c4cccc(S(=O)(=O)[O-])c4F)c4ccc([nH]4)c(-c4cccc(S(=O)(=O)[O-])c4F)c4nc(c(-c5cccc(S(=O)(=O)[O-])c5F)c5ccc2[nH]5)C=C4)C=C3)cc1
REMARK SMILES IDX 26 1 25 2 23 3 24 4 22 6 1 7 2 8 3 9 19 10 21 11 20 12 4 13
REMARK SMILES IDX 5 15 6 16 7 17 8 18 9 20 10 21 11 22 12 23 13 24 18 25 14 26
REMARK SMILES IDX 17 27 15 28 16 29 27 30 28 31 29 32 30 33 31 34 32 36 33 37
REMARK SMILES IDX 34 38 95 39 35 40 94 41 36 42 37 43 38 44 88 45 39 46 93 47
REMARK SMILES IDX 87 48 89 49 40 50 92 51 86 52 85 53 41 55 73 56 53 57 72 58
REMARK SMILES IDX 54 59 57 60 71 61 90 62 55 63 56 64 70 66 91 67 58 68 42 69
REMARK SMILES IDX 43 70 51 71 44 72 46 73 52 74 45 75 47 76 48 77 49 78 50 79
REMARK SMILES IDX 74 80 75 81 83 82 76 83 78 84 84 85 77 86 79 87 80 88 81 89
REMARK SMILES IDX 82 90 59 91 60 92 68 93 61 94 63 95 69 96 62 97 64 98 65 99
REMARK SMILES IDX 66 100 67 101
REMARK H PARENT 25 5 4 14 7 19 30 35 89 54 57 65
REMARK Flexibility Score: inf
ROOT
ATOM      1  C   UNL A   1      39.775  31.518  32.232  1.00  0.00     0.116 C 
ENDROOT
BRANCH   1   2
ATOM      2  N   UNL A   1      39.288  32.143  33.440  1.00  0.00    -0.352 N 
ATOM      3  C   UNL A   1      38.111  32.560  33.984  1.00  0.00     0.251 C 
ATOM      4  O   UNL A   1      38.254  33.004  35.135  1.00  0.00    -0.269 OA
ATOM      5  H   UNL A   1      40.033  32.322  34.058  1.00  0.00     0.163 HD
BRANCH   3   6
ATOM      6  C   UNL A   1      36.709  32.597  33.416  1.00  0.00     0.044 A 
ATOM      7  C   UNL A   1      35.443  34.117  35.050  1.00  0.00     0.047 C 
ATOM      8  C   UNL A   1      35.568  33.370  33.757  1.00  0.00    -0.015 A 
ATOM      9  C   UNL A   1      34.484  33.448  32.822  1.00  0.00     0.044 A 
ATOM     10  C   UNL A   1      34.400  32.552  31.758  1.00  0.00     0.026 A 
ATOM     11  C   UNL A   1      36.613  31.788  32.253  1.00  0.00     0.014 A 
ATOM     12  C   UNL A   1      35.466  31.720  31.470  1.00  0.00     0.003 A 
BRANCH   9  13
ATOM     13  N   UNL A   1      33.513  34.462  32.970  1.00  0.00    -0.332 N 
ATOM     14  H   UNL A   1      32.769  34.193  33.556  1.00  0.00     0.169 HD
BRANCH  13  15
ATOM     15  C   UNL A   1      33.372  35.706  32.494  1.00  0.00     0.177 C 
ATOM     16  S   UNL A   1      33.928  36.958  33.466  1.00  0.00    -0.040 S 
BRANCH  15  17
ATOM     17  N   UNL A   1      32.870  36.056  31.277  1.00  0.00    -0.302 N 
ATOM     18  C   UNL A   1      32.959  35.787  29.921  1.00  0.00     0.236 C 
ATOM     19  H   UNL A   1      32.195  36.760  31.410  1.00  0.00     0.172 HD
ATOM     20  O   UNL A   1      32.078  36.306  29.217  1.00  0.00    -0.274 OA
BRANCH  18  21
ATOM     21  C   UNL A   1      34.006  34.915  29.264  1.00  0.00     0.175 C 
BRANCH  21  22
ATOM     22  S   UNL A   1      33.448  34.004  27.803  1.00  0.00    -0.116 SA
BRANCH  22  23
ATOM     23  C   UNL A   1      34.539  32.616  27.909  1.00  0.00     0.008 A 
ATOM     24  C   UNL A   1      34.057  31.305  27.831  1.00  0.00     0.016 A 
ATOM     25  C   UNL A   1      35.908  32.852  28.047  1.00  0.00     0.016 A 
ATOM     26  C   UNL A   1      34.951  30.234  27.869  1.00  0.00     0.021 A 
ATOM     27  C   UNL A   1      36.800  31.783  28.081  1.00  0.00     0.021 A 
ATOM     28  C   UNL A   1      36.319  30.479  27.986  1.00  0.00     0.041 A 
ATOM     29  Cl  UNL A   1      37.429  29.166  28.002  1.00  0.00    -0.084 Cl
ENDBRANCH  22  23
ENDBRANCH  21  22
ENDBRANCH  18  21
ENDBRANCH  15  17
ENDBRANCH  13  15
ENDBRANCH   9  13
ENDBRANCH   3   6
ENDBRANCH   1   2
BRANCH   1  30
ATOM     30  C   UNL A   1      40.007  30.012  32.349  1.00  0.00     0.023 C 
BRANCH  30  31
ATOM     31  C   UNL A   1      39.373  29.116  31.282  1.00  0.00     0.023 C 
BRANCH  31  32
ATOM     32  C   UNL A   1      40.265  28.052  30.633  1.00  0.00     0.116 C 
BRANCH  32  33
ATOM     33  N   UNL A   1      39.600  27.299  29.565  1.00  0.00    -0.352 N 
ATOM     34  C   UNL A   1      40.124  26.650  28.462  1.00  0.00     0.251 C 
ATOM     35  H   UNL A   1      38.620  27.246  29.648  1.00  0.00     0.163 HD
ATOM     36  O   UNL A   1      39.381  26.453  27.495  1.00  0.00    -0.269 OA
BRANCH  34  37
ATOM     37  C   UNL A   1      41.513  26.143  28.472  1.00  0.00     0.039 A 
ATOM     38  C   UNL A   1      41.864  24.815  28.755  1.00  0.00     0.014 A 
ATOM     39  C   UNL A   1      42.517  27.082  28.330  1.00  0.00     0.014 A 
ATOM     40  C   UNL A   1      43.214  24.475  28.941  1.00  0.00     0.010 A 
ATOM     41  C   UNL A   1      43.829  26.723  28.279  1.00  0.00     0.010 A 
ATOM     42  C   UNL A   1      44.182  25.455  28.741  1.00  0.00    -0.014 A 
BRANCH  42  43
ATOM     43  C   UNL A   1      45.567  25.434  29.199  1.00  0.00     0.031 A 
ATOM     44  C   UNL A   1      46.670  24.986  28.349  1.00  0.00     0.074 A 
ATOM     45  C   UNL A   1      45.783  26.308  30.210  1.00  0.00     0.049 A 
ATOM     46  N   UNL A   1      47.901  24.949  28.735  1.00  0.00    -0.248 NA
ATOM     47  C   UNL A   1      46.470  24.523  26.985  1.00  0.00     0.031 C 
ATOM     48  C   UNL A   1      46.947  27.139  30.460  1.00  0.00     0.029 A 
ATOM     49  N   UNL A   1      44.899  26.644  31.242  1.00  0.00    -0.354 N 
ATOM     50  C   UNL A   1      48.668  24.822  27.596  1.00  0.00     0.074 A 
ATOM     51  C   UNL A   1      47.737  24.365  26.592  1.00  0.00     0.031 C 
ATOM     52  C   UNL A   1      46.821  27.689  31.680  1.00  0.00     0.029 A 
ATOM     53  C   UNL A   1      45.682  27.049  32.324  1.00  0.00     0.049 A 
ATOM     54  H   UNL A   1      43.916  26.602  31.212  1.00  0.00     0.167 HD
ATOM     55  C   UNL A   1      49.941  25.316  27.608  1.00  0.00     0.034 A 
ATOM     56  C   UNL A   1      45.720  26.337  33.488  1.00  0.00     0.034 A 
ATOM     57  C   UNL A   1      50.310  25.776  28.966  1.00  0.00     0.049 A 
ATOM     58  C   UNL A   1      47.092  25.732  33.735  1.00  0.00     0.074 A 
ATOM     59  C   UNL A   1      50.460  27.031  29.536  1.00  0.00     0.029 A 
ATOM     60  N   UNL A   1      50.311  24.872  30.028  1.00  0.00    -0.354 N 
ATOM     61  N   UNL A   1      48.108  25.860  32.925  1.00  0.00    -0.248 NA
ATOM     62  C   UNL A   1      47.429  24.920  34.900  1.00  0.00     0.031 C 
ATOM     63  C   UNL A   1      50.415  26.880  30.953  1.00  0.00     0.029 A 
ATOM     64  C   UNL A   1      50.286  25.534  31.251  1.00  0.00     0.049 A 
ATOM     65  H   UNL A   1      50.326  23.894  29.926  1.00  0.00     0.167 HD
ATOM     66  C   UNL A   1      49.129  25.041  33.316  1.00  0.00     0.074 A 
ATOM     67  C   UNL A   1      48.695  24.562  34.618  1.00  0.00     0.031 C 
ATOM     68  C   UNL A   1      50.197  24.769  32.499  1.00  0.00     0.034 A 
BRANCH  55  69
ATOM     69  C   UNL A   1      50.786  25.668  26.375  1.00  0.00     0.023 A 
ATOM     70  C   UNL A   1      52.052  25.046  26.263  1.00  0.00     0.012 A 
ATOM     71  C   UNL A   1      50.490  26.611  25.358  1.00  0.00     0.148 A 
ATOM     72  C   UNL A   1      52.982  25.383  25.266  1.00  0.00     0.002 A 
ATOM     73  C   UNL A   1      51.412  26.948  24.360  1.00  0.00     0.091 A 
ATOM     74  F   UNL A   1      49.305  27.208  25.316  1.00  0.00    -0.205 F 
ATOM     75  C   UNL A   1      52.667  26.344  24.319  1.00  0.00     0.022 A 
BRANCH  73  76
ATOM     76  S   UNL A   1      51.064  28.191  23.095  1.00  0.00     0.127 S 
ATOM     77  O   UNL A   1      51.451  29.432  23.769  1.00  0.00    -0.237 OA
ATOM     78  O   UNL A   1      51.953  27.787  22.008  1.00  0.00    -0.237 OA
ATOM     79  O   UNL A   1      49.641  28.091  22.790  1.00  0.00    -0.744 OA
ENDBRANCH  73  76
ENDBRANCH  55  69
BRANCH  56  80
ATOM     80  C   UNL A   1      44.399  25.720  33.835  1.00  0.00     0.023 A 
ATOM     81  C   UNL A   1      44.270  24.331  33.585  1.00  0.00     0.012 A 
ATOM     82  C   UNL A   1      43.532  26.319  34.771  1.00  0.00     0.148 A 
ATOM     83  C   UNL A   1      43.399  23.539  34.338  1.00  0.00     0.002 A 
ATOM     84  C   UNL A   1      42.686  25.516  35.541  1.00  0.00     0.091 A 
ATOM     85  F   UNL A   1      43.638  27.637  34.983  1.00  0.00    -0.205 F 
ATOM     86  C   UNL A   1      42.639  24.127  35.344  1.00  0.00     0.022 A 
BRANCH  84  87
ATOM     87  S   UNL A   1      41.758  26.177  36.936  1.00  0.00     0.127 S 
ATOM     88  O   UNL A   1      41.105  27.336  36.330  1.00  0.00    -0.237 OA
ATOM     89  O   UNL A   1      40.859  25.074  37.271  1.00  0.00    -0.237 OA
ATOM     90  O   UNL A   1      42.755  26.461  37.956  1.00  0.00    -0.744 OA
ENDBRANCH  84  87
ENDBRANCH  56  80
BRANCH  68  91
ATOM     91  C   UNL A   1      51.247  23.712  32.780  1.00  0.00     0.023 A 
ATOM     92  C   UNL A   1      52.627  23.987  32.735  1.00  0.00     0.012 A 
ATOM     93  C   UNL A   1      50.868  22.432  33.260  1.00  0.00     0.148 A 
ATOM     94  C   UNL A   1      53.584  23.029  33.087  1.00  0.00     0.002 A 
ATOM     95  C   UNL A   1      51.818  21.529  33.725  1.00  0.00     0.091 A 
ATOM     96  F   UNL A   1      49.575  22.073  33.255  1.00  0.00    -0.205 F 
ATOM     97  C   UNL A   1      53.180  21.807  33.608  1.00  0.00     0.022 A 
BRANCH  95  98
ATOM     98  S   UNL A   1      51.313  20.070  34.647  1.00  0.00     0.127 S 
ATOM     99  O   UNL A   1      50.091  19.675  33.953  1.00  0.00    -0.237 OA
ATOM    100  O   UNL A   1      52.445  19.162  34.452  1.00  0.00    -0.237 OA
ATOM    101  O   UNL A   1      51.157  20.536  36.019  1.00  0.00    -0.744 OA
ENDBRANCH  95  98
ENDBRANCH  68  91
ENDBRANCH  42  43
ENDBRANCH  34  37
ENDBRANCH  32  33
ENDBRANCH  31  32
ENDBRANCH  30  31
ENDBRANCH   1  30
TORSDOF 20
ENDMDL
