MODEL 1
REMARK VINA RESULT:     -14.3      0.000      0.000
REMARK SMILES Cc1cccc(-c2ncc(C[NH+]3CCC4(CC3)NC(=O)C[C@H]4C(=O)NCCCCNC(=O)c3ccc(-c4c5nc(c(-c6cccc(S(=O)(=O)[O-])c6F)c6ccc([nH]6)c(-c6cccc(S(=O)(=O)[O-])c6F)c6nc(c(-c7cccc(S(=O)(=O)[O-])c7F)c7ccc4[nH]7)C=C6)C=C5)cc3)cn2)c1
REMARK SMILES IDX 27 1 26 2 25 3 23 4 24 5 22 7 12 8 13 9 17 10 14 12 16 13
REMARK SMILES IDX 15 14 18 15 19 16 21 18 20 19 11 20 10 21 7 22 8 23 97 24
REMARK SMILES IDX 9 25 96 26 6 27 1 28 2 29 3 30 98 31 4 32 5 33 28 34 29 35
REMARK SMILES IDX 30 36 31 37 32 39 33 40 34 41 95 42 35 43 94 44 36 45 37 46
REMARK SMILES IDX 38 47 88 48 39 49 93 50 87 51 89 52 40 53 92 54 86 55 85 56
REMARK SMILES IDX 41 58 73 59 53 60 72 61 54 62 57 63 71 64 90 65 55 66 56 67
REMARK SMILES IDX 70 69 91 70 58 71 42 72 43 73 51 74 44 75 46 76 52 77 45 78
REMARK SMILES IDX 47 79 48 80 49 81 50 82 74 83 75 84 83 85 76 86 78 87 84 88
REMARK SMILES IDX 77 89 79 90 80 91 81 92 82 93 59 94 60 95 68 96 61 97 63 98
REMARK SMILES IDX 69 99 62 100 64 101 65 102 66 103 67 104
REMARK H PARENT 25 6 12 11 18 17 30 38 89 57 57 68
REMARK Flexibility Score: inf
ROOT
ATOM      1  C   UNL A   1      32.817  29.914  25.227  1.00  0.00     0.023 C 
ENDROOT
BRANCH   1   2
ATOM      2  C   UNL A   1      31.295  29.680  25.061  1.00  0.00     0.116 C 
BRANCH   2   3
ATOM      3  N   UNL A   1      30.807  29.104  23.800  1.00  0.00    -0.356 N 
ATOM      4  C   UNL A   1      31.192  28.093  22.965  1.00  0.00     0.226 C 
ATOM      5  O   UNL A   1      30.449  27.873  22.000  1.00  0.00    -0.275 OA
ATOM      6  H   UNL A   1      29.999  29.562  23.475  1.00  0.00     0.163 HD
BRANCH   4   7
ATOM      7  C   UNL A   1      32.487  27.258  23.072  1.00  0.00     0.114 C 
ATOM      8  N   UNL A   1      32.129  25.038  26.594  1.00  0.00    -0.331 N 
ATOM      9  C   UNL A   1      33.455  25.214  26.014  1.00  0.00     0.264 C 
ATOM     10  C   UNL A   1      31.207  25.987  26.006  1.00  0.00     0.264 C 
ATOM     11  H   UNL A   1      32.273  25.257  27.581  1.00  0.00     0.348 HD
ATOM     12  C   UNL A   1      33.561  25.274  24.478  1.00  0.00     0.091 C 
ATOM     13  C   UNL A   1      31.070  25.740  24.524  1.00  0.00     0.091 C 
ATOM     14  C   UNL A   1      32.344  25.853  23.689  1.00  0.00     0.063 C 
ATOM     15  N   UNL A   1      32.295  25.045  22.474  1.00  0.00    -0.349 N 
ATOM     16  C   UNL A   1      32.840  25.650  21.369  1.00  0.00     0.221 C 
ATOM     17  H   UNL A   1      31.903  24.142  22.450  1.00  0.00     0.164 HD
ATOM     18  C   UNL A   1      33.133  27.080  21.695  1.00  0.00     0.116 C 
ATOM     19  O   UNL A   1      33.057  25.091  20.297  1.00  0.00    -0.275 OA
BRANCH   8  20
ATOM     20  C   UNL A   1      31.588  23.684  26.849  1.00  0.00     0.302 C 
BRANCH  20  21
ATOM     21  C   UNL A   1      32.259  22.500  26.203  1.00  0.00     0.043 A 
ATOM     22  C   UNL A   1      33.047  20.044  25.293  1.00  0.00     0.159 A 
ATOM     23  N   UNL A   1      32.128  20.727  24.580  1.00  0.00    -0.236 NA
ATOM     24  N   UNL A   1      33.688  20.546  26.368  1.00  0.00    -0.236 NA
ATOM     25  C   UNL A   1      31.797  21.955  25.026  1.00  0.00     0.124 A 
ATOM     26  C   UNL A   1      33.275  21.764  26.801  1.00  0.00     0.124 A 
BRANCH  22  27
ATOM     27  C   UNL A   1      33.251  18.628  24.938  1.00  0.00     0.019 A 
ATOM     28  C   UNL A   1      32.090  15.179  26.152  1.00  0.00     0.044 C 
ATOM     29  C   UNL A   1      32.783  16.237  25.343  1.00  0.00    -0.050 A 
ATOM     30  C   UNL A   1      33.545  15.904  24.223  1.00  0.00     0.003 A 
ATOM     31  C   UNL A   1      32.635  17.593  25.677  1.00  0.00     0.015 A 
ATOM     32  C   UNL A   1      34.176  16.903  23.483  1.00  0.00     0.001 A 
ATOM     33  C   UNL A   1      34.043  18.251  23.846  1.00  0.00     0.012 A 
ENDBRANCH  22  27
ENDBRANCH  20  21
ENDBRANCH   8  20
ENDBRANCH   4   7
ENDBRANCH   2   3
ENDBRANCH   1   2
BRANCH   1  34
ATOM     34  C   UNL A   1      33.622  29.090  26.248  1.00  0.00     0.023 C 
BRANCH  34  35
ATOM     35  C   UNL A   1      33.899  29.805  27.559  1.00  0.00     0.116 C 
BRANCH  35  36
ATOM     36  N   UNL A   1      34.800  30.957  27.376  1.00  0.00    -0.352 N 
ATOM     37  C   UNL A   1      36.056  31.235  27.892  1.00  0.00     0.251 C 
ATOM     38  H   UNL A   1      34.444  31.655  26.781  1.00  0.00     0.163 HD
ATOM     39  O   UNL A   1      36.414  32.403  27.987  1.00  0.00    -0.269 OA
BRANCH  37  40
ATOM     40  C   UNL A   1      36.960  30.123  28.235  1.00  0.00     0.039 A 
ATOM     41  C   UNL A   1      36.877  29.345  29.390  1.00  0.00     0.014 A 
ATOM     42  C   UNL A   1      38.074  29.995  27.431  1.00  0.00     0.014 A 
ATOM     43  C   UNL A   1      37.997  28.592  29.750  1.00  0.00     0.010 A 
ATOM     44  C   UNL A   1      38.911  28.951  27.534  1.00  0.00     0.010 A 
ATOM     45  C   UNL A   1      39.036  28.499  28.829  1.00  0.00    -0.014 A 
BRANCH  45  46
ATOM     46  C   UNL A   1      40.394  28.067  29.052  1.00  0.00     0.031 A 
ATOM     47  C   UNL A   1      40.691  26.668  28.813  1.00  0.00     0.074 A 
ATOM     48  C   UNL A   1      41.314  29.064  29.033  1.00  0.00     0.049 A 
ATOM     49  N   UNL A   1      41.803  26.115  29.117  1.00  0.00    -0.248 NA
ATOM     50  C   UNL A   1      39.710  25.762  28.228  1.00  0.00     0.031 C 
ATOM     51  C   UNL A   1      42.693  29.062  28.571  1.00  0.00     0.029 A 
ATOM     52  N   UNL A   1      41.126  30.379  29.457  1.00  0.00    -0.354 N 
ATOM     53  C   UNL A   1      41.816  24.908  28.459  1.00  0.00     0.074 A 
ATOM     54  C   UNL A   1      40.440  24.651  28.122  1.00  0.00     0.031 C 
ATOM     55  C   UNL A   1      43.296  30.194  28.989  1.00  0.00     0.029 A 
ATOM     56  C   UNL A   1      42.364  30.875  29.874  1.00  0.00     0.049 A 
ATOM     57  H   UNL A   1      40.273  30.870  29.461  1.00  0.00     0.167 HD
ATOM     58  C   UNL A   1      43.024  24.403  28.094  1.00  0.00     0.034 A 
ATOM     59  C   UNL A   1      42.539  31.086  31.218  1.00  0.00     0.034 A 
ATOM     60  C   UNL A   1      44.101  25.288  28.591  1.00  0.00     0.049 A 
ATOM     61  C   UNL A   1      43.500  30.078  31.822  1.00  0.00     0.074 A 
ATOM     62  C   UNL A   1      44.878  26.264  27.986  1.00  0.00     0.029 A 
ATOM     63  N   UNL A   1      44.232  25.488  29.963  1.00  0.00    -0.354 N 
ATOM     64  N   UNL A   1      43.923  29.014  31.196  1.00  0.00    -0.248 NA
ATOM     65  C   UNL A   1      44.097  30.202  33.147  1.00  0.00     0.031 C 
ATOM     66  C   UNL A   1      45.395  27.112  29.010  1.00  0.00     0.029 A 
ATOM     67  C   UNL A   1      44.960  26.637  30.237  1.00  0.00     0.049 A 
ATOM     68  H   UNL A   1      43.855  24.891  30.649  1.00  0.00     0.167 HD
ATOM     69  C   UNL A   1      44.735  28.272  32.003  1.00  0.00     0.074 A 
ATOM     70  C   UNL A   1      44.866  29.096  33.195  1.00  0.00     0.031 C 
ATOM     71  C   UNL A   1      45.188  27.033  31.629  1.00  0.00     0.034 A 
BRANCH  58  72
ATOM     72  C   UNL A   1      43.266  23.301  27.075  1.00  0.00     0.023 A 
ATOM     73  C   UNL A   1      44.071  23.637  25.966  1.00  0.00     0.012 A 
ATOM     74  C   UNL A   1      42.753  21.979  27.079  1.00  0.00     0.148 A 
ATOM     75  C   UNL A   1      44.317  22.749  24.913  1.00  0.00     0.002 A 
ATOM     76  C   UNL A   1      42.991  21.090  26.028  1.00  0.00     0.091 A 
ATOM     77  F   UNL A   1      42.038  21.531  28.106  1.00  0.00    -0.205 F 
ATOM     78  C   UNL A   1      43.769  21.475  24.938  1.00  0.00     0.022 A 
BRANCH  76  79
ATOM     79  S   UNL A   1      42.315  19.415  25.997  1.00  0.00     0.127 S 
ATOM     80  O   UNL A   1      42.691  18.910  27.320  1.00  0.00    -0.237 OA
ATOM     81  O   UNL A   1      40.884  19.660  25.824  1.00  0.00    -0.237 OA
ATOM     82  O   UNL A   1      42.958  18.722  24.887  1.00  0.00    -0.744 OA
ENDBRANCH  76  79
ENDBRANCH  58  72
BRANCH  59  83
ATOM     83  C   UNL A   1      41.267  31.613  31.843  1.00  0.00     0.023 A 
ATOM     84  C   UNL A   1      40.712  32.758  31.210  1.00  0.00     0.012 A 
ATOM     85  C   UNL A   1      40.409  30.780  32.582  1.00  0.00     0.148 A 
ATOM     86  C   UNL A   1      39.328  32.907  31.093  1.00  0.00     0.002 A 
ATOM     87  C   UNL A   1      39.025  30.975  32.509  1.00  0.00     0.091 A 
ATOM     88  F   UNL A   1      40.937  29.775  33.293  1.00  0.00    -0.205 F 
ATOM     89  C   UNL A   1      38.483  31.992  31.708  1.00  0.00     0.022 A 
BRANCH  87  90
ATOM     90  S   UNL A   1      37.891  29.877  33.370  1.00  0.00     0.127 S 
ATOM     91  O   UNL A   1      36.609  30.263  32.787  1.00  0.00    -0.237 OA
ATOM     92  O   UNL A   1      38.349  28.542  32.985  1.00  0.00    -0.237 OA
ATOM     93  O   UNL A   1      38.078  30.184  34.781  1.00  0.00    -0.744 OA
ENDBRANCH  87  90
ENDBRANCH  59  83
BRANCH  71  94
ATOM     94  C   UNL A   1      45.873  26.035  32.545  1.00  0.00     0.023 A 
ATOM     95  C   UNL A   1      47.267  25.993  32.713  1.00  0.00     0.012 A 
ATOM     96  C   UNL A   1      45.102  25.213  33.411  1.00  0.00     0.148 A 
ATOM     97  C   UNL A   1      47.872  25.148  33.649  1.00  0.00     0.002 A 
ATOM     98  C   UNL A   1      45.700  24.490  34.436  1.00  0.00     0.091 A 
ATOM     99  F   UNL A   1      43.777  25.107  33.239  1.00  0.00    -0.205 F 
ATOM    100  C   UNL A   1      47.088  24.422  34.534  1.00  0.00     0.022 A 
BRANCH  98 101
ATOM    101  S   UNL A   1      44.716  23.785  35.766  1.00  0.00     0.127 S 
ATOM    102  O   UNL A   1      44.028  22.691  35.085  1.00  0.00    -0.237 OA
ATOM    103  O   UNL A   1      45.743  23.361  36.719  1.00  0.00    -0.237 OA
ATOM    104  O   UNL A   1      43.874  24.874  36.243  1.00  0.00    -0.744 OA
ENDBRANCH  98 101
ENDBRANCH  71  94
ENDBRANCH  45  46
ENDBRANCH  37  40
ENDBRANCH  35  36
ENDBRANCH  34  35
ENDBRANCH   1  34
TORSDOF 17
ENDMDL
MODEL 2
REMARK VINA RESULT:     -13.0      3.541      4.861
REMARK SMILES Cc1cccc(-c2ncc(C[NH+]3CCC4(CC3)NC(=O)C[C@H]4C(=O)NCCCCNC(=O)c3ccc(-c4c5nc(c(-c6cccc(S(=O)(=O)[O-])c6F)c6ccc([nH]6)c(-c6cccc(S(=O)(=O)[O-])c6F)c6nc(c(-c7cccc(S(=O)(=O)[O-])c7F)c7ccc4[nH]7)C=C6)C=C5)cc3)cn2)c1
REMARK SMILES IDX 27 1 26 2 25 3 23 4 24 5 22 7 12 8 13 9 17 10 14 12 16 13
REMARK SMILES IDX 15 14 18 15 19 16 21 18 20 19 11 20 10 21 7 22 8 23 97 24
REMARK SMILES IDX 9 25 96 26 6 27 1 28 2 29 3 30 98 31 4 32 5 33 28 34 29 35
REMARK SMILES IDX 30 36 31 37 32 39 33 40 34 41 95 42 35 43 94 44 36 45 37 46
REMARK SMILES IDX 38 47 88 48 39 49 93 50 87 51 89 52 40 53 92 54 86 55 85 56
REMARK SMILES IDX 41 58 73 59 53 60 72 61 54 62 57 63 71 64 90 65 55 66 56 67
REMARK SMILES IDX 70 69 91 70 58 71 42 72 43 73 51 74 44 75 46 76 52 77 45 78
REMARK SMILES IDX 47 79 48 80 49 81 50 82 74 83 75 84 83 85 76 86 78 87 84 88
REMARK SMILES IDX 77 89 79 90 80 91 81 92 82 93 59 94 60 95 68 96 61 97 63 98
REMARK SMILES IDX 69 99 62 100 64 101 65 102 66 103 67 104
REMARK H PARENT 25 6 12 11 18 17 30 38 89 57 57 68
REMARK Flexibility Score: inf
ROOT
ATOM      1  C   UNL A   1      35.205  31.026  27.714  1.00  0.00     0.023 C 
ENDROOT
BRANCH   1   2
ATOM      2  C   UNL A   1      34.891  29.519  27.548  1.00  0.00     0.116 C 
BRANCH   2   3
ATOM      3  N   UNL A   1      33.496  29.076  27.671  1.00  0.00    -0.356 N 
ATOM      4  C   UNL A   1      32.512  28.671  26.813  1.00  0.00     0.226 C 
ATOM      5  O   UNL A   1      31.453  28.303  27.337  1.00  0.00    -0.275 OA
ATOM      6  H   UNL A   1      33.194  29.068  28.607  1.00  0.00     0.163 HD
BRANCH   4   7
ATOM      7  C   UNL A   1      32.572  28.697  25.271  1.00  0.00     0.114 C 
ATOM      8  N   UNL A   1      33.512  24.798  24.097  1.00  0.00    -0.331 N 
ATOM      9  C   UNL A   1      33.728  25.882  23.145  1.00  0.00     0.264 C 
ATOM     10  C   UNL A   1      33.332  25.341  25.427  1.00  0.00     0.264 C 
ATOM     11  H   UNL A   1      34.383  24.268  24.051  1.00  0.00     0.348 HD
ATOM     12  C   UNL A   1      32.743  27.067  23.178  1.00  0.00     0.091 C 
ATOM     13  C   UNL A   1      32.104  26.215  25.477  1.00  0.00     0.091 C 
ATOM     14  C   UNL A   1      32.084  27.426  24.547  1.00  0.00     0.063 C 
ATOM     15  N   UNL A   1      30.732  27.841  24.189  1.00  0.00    -0.349 N 
ATOM     16  C   UNL A   1      30.546  29.201  24.151  1.00  0.00     0.221 C 
ATOM     17  H   UNL A   1      30.012  27.199  23.991  1.00  0.00     0.164 HD
ATOM     18  C   UNL A   1      31.759  29.869  24.715  1.00  0.00     0.116 C 
ATOM     19  O   UNL A   1      29.547  29.762  23.711  1.00  0.00    -0.275 OA
BRANCH   8  20
ATOM     20  C   UNL A   1      32.653  23.645  23.747  1.00  0.00     0.302 C 
BRANCH  20  21
ATOM     21  C   UNL A   1      32.934  22.308  24.384  1.00  0.00     0.043 A 
ATOM     22  C   UNL A   1      33.420  19.685  24.984  1.00  0.00     0.159 A 
ATOM     23  N   UNL A   1      34.465  20.471  24.658  1.00  0.00    -0.236 NA
ATOM     24  N   UNL A   1      32.160  20.139  25.144  1.00  0.00    -0.236 NA
ATOM     25  C   UNL A   1      34.202  21.771  24.415  1.00  0.00     0.124 A 
ATOM     26  C   UNL A   1      31.946  21.442  24.836  1.00  0.00     0.124 A 
BRANCH  22  27
ATOM     27  C   UNL A   1      33.666  18.232  25.036  1.00  0.00     0.019 A 
ATOM     28  C   UNL A   1      31.806  15.052  26.104  1.00  0.00     0.044 C 
ATOM     29  C   UNL A   1      32.884  15.952  25.572  1.00  0.00    -0.050 A 
ATOM     30  C   UNL A   1      34.070  15.430  25.058  1.00  0.00     0.003 A 
ATOM     31  C   UNL A   1      32.692  17.343  25.542  1.00  0.00     0.015 A 
ATOM     32  C   UNL A   1      35.055  16.284  24.565  1.00  0.00     0.001 A 
ATOM     33  C   UNL A   1      34.862  17.673  24.567  1.00  0.00     0.012 A 
ENDBRANCH  22  27
ENDBRANCH  20  21
ENDBRANCH   8  20
ENDBRANCH   4   7
ENDBRANCH   2   3
ENDBRANCH   1   2
BRANCH   1  34
ATOM     34  C   UNL A   1      34.499  31.851  28.806  1.00  0.00     0.023 C 
BRANCH  34  35
ATOM     35  C   UNL A   1      34.246  33.303  28.437  1.00  0.00     0.116 C 
BRANCH  35  36
ATOM     36  N   UNL A   1      33.749  34.082  29.584  1.00  0.00    -0.352 N 
ATOM     37  C   UNL A   1      34.168  34.148  30.904  1.00  0.00     0.251 C 
ATOM     38  H   UNL A   1      32.980  34.661  29.376  1.00  0.00     0.163 HD
ATOM     39  O   UNL A   1      33.364  34.483  31.766  1.00  0.00    -0.269 OA
BRANCH  37  40
ATOM     40  C   UNL A   1      35.583  33.893  31.228  1.00  0.00     0.039 A 
ATOM     41  C   UNL A   1      36.675  34.420  30.537  1.00  0.00     0.014 A 
ATOM     42  C   UNL A   1      35.808  32.904  32.164  1.00  0.00     0.014 A 
ATOM     43  C   UNL A   1      37.917  33.809  30.720  1.00  0.00     0.010 A 
ATOM     44  C   UNL A   1      37.030  32.657  32.659  1.00  0.00     0.010 A 
ATOM     45  C   UNL A   1      38.028  32.861  31.732  1.00  0.00    -0.014 A 
BRANCH  45  46
ATOM     46  C   UNL A   1      39.068  31.880  31.930  1.00  0.00     0.031 A 
ATOM     47  C   UNL A   1      38.931  30.620  31.225  1.00  0.00     0.074 A 
ATOM     48  C   UNL A   1      40.242  32.386  32.382  1.00  0.00     0.049 A 
ATOM     49  N   UNL A   1      39.686  29.609  31.425  1.00  0.00    -0.248 NA
ATOM     50  C   UNL A   1      37.878  30.399  30.242  1.00  0.00     0.031 C 
ATOM     51  C   UNL A   1      41.610  31.975  32.109  1.00  0.00     0.029 A 
ATOM     52  N   UNL A   1      40.406  33.475  33.239  1.00  0.00    -0.354 N 
ATOM     53  C   UNL A   1      39.456  28.753  30.374  1.00  0.00     0.074 A 
ATOM     54  C   UNL A   1      38.199  29.177  29.815  1.00  0.00     0.031 C 
ATOM     55  C   UNL A   1      42.435  32.593  32.980  1.00  0.00     0.029 A 
ATOM     56  C   UNL A   1      41.598  33.289  33.944  1.00  0.00     0.049 A 
ATOM     57  H   UNL A   1      39.791  34.238  33.329  1.00  0.00     0.167 HD
ATOM     58  C   UNL A   1      40.477  27.945  29.985  1.00  0.00     0.034 A 
ATOM     59  C   UNL A   1      41.500  33.000  35.282  1.00  0.00     0.034 A 
ATOM     60  C   UNL A   1      41.632  28.136  30.890  1.00  0.00     0.049 A 
ATOM     61  C   UNL A   1      41.893  31.563  35.574  1.00  0.00     0.074 A 
ATOM     62  C   UNL A   1      42.812  28.856  30.780  1.00  0.00     0.029 A 
ATOM     63  N   UNL A   1      41.484  27.847  32.245  1.00  0.00    -0.354 N 
ATOM     64  N   UNL A   1      42.077  30.659  34.651  1.00  0.00    -0.248 NA
ATOM     65  C   UNL A   1      42.157  31.037  36.908  1.00  0.00     0.031 C 
ATOM     66  C   UNL A   1      43.317  29.079  32.095  1.00  0.00     0.029 A 
ATOM     67  C   UNL A   1      42.463  28.473  33.003  1.00  0.00     0.049 A 
ATOM     68  H   UNL A   1      40.776  27.273  32.615  1.00  0.00     0.167 HD
ATOM     69  C   UNL A   1      42.374  29.451  35.211  1.00  0.00     0.074 A 
ATOM     70  C   UNL A   1      42.477  29.758  36.630  1.00  0.00     0.031 C 
ATOM     71  C   UNL A   1      42.465  28.309  34.458  1.00  0.00     0.034 A 
BRANCH  58  72
ATOM     72  C   UNL A   1      40.578  27.198  28.665  1.00  0.00     0.023 A 
ATOM     73  C   UNL A   1      39.575  26.238  28.409  1.00  0.00     0.012 A 
ATOM     74  C   UNL A   1      41.577  27.318  27.667  1.00  0.00     0.148 A 
ATOM     75  C   UNL A   1      39.581  25.423  27.272  1.00  0.00     0.002 A 
ATOM     76  C   UNL A   1      41.591  26.503  26.531  1.00  0.00     0.091 A 
ATOM     77  F   UNL A   1      42.533  28.235  27.769  1.00  0.00    -0.205 F 
ATOM     78  C   UNL A   1      40.595  25.549  26.335  1.00  0.00     0.022 A 
BRANCH  76  79
ATOM     79  S   UNL A   1      42.876  26.615  25.268  1.00  0.00     0.127 S 
ATOM     80  O   UNL A   1      42.481  27.821  24.536  1.00  0.00    -0.237 OA
ATOM     81  O   UNL A   1      44.090  26.761  26.070  1.00  0.00    -0.237 OA
ATOM     82  O   UNL A   1      42.804  25.388  24.484  1.00  0.00    -0.744 OA
ENDBRANCH  76  79
ENDBRANCH  58  72
BRANCH  59  83
ATOM     83  C   UNL A   1      40.366  33.775  35.912  1.00  0.00     0.023 A 
ATOM     84  C   UNL A   1      39.105  33.119  35.901  1.00  0.00     0.012 A 
ATOM     85  C   UNL A   1      40.598  34.753  36.896  1.00  0.00     0.148 A 
ATOM     86  C   UNL A   1      38.232  33.237  36.985  1.00  0.00     0.002 A 
ATOM     87  C   UNL A   1      39.685  34.908  37.945  1.00  0.00     0.091 A 
ATOM     88  F   UNL A   1      41.726  35.473  36.837  1.00  0.00    -0.205 F 
ATOM     89  C   UNL A   1      38.541  34.100  38.028  1.00  0.00     0.022 A 
BRANCH  87  90
ATOM     90  S   UNL A   1      39.992  36.085  39.268  1.00  0.00     0.127 S 
ATOM     91  O   UNL A   1      39.758  37.357  38.589  1.00  0.00    -0.237 OA
ATOM     92  O   UNL A   1      38.982  35.745  40.271  1.00  0.00    -0.237 OA
ATOM     93  O   UNL A   1      41.360  35.821  39.691  1.00  0.00    -0.744 OA
ENDBRANCH  87  90
ENDBRANCH  59  83
BRANCH  71  94
ATOM     94  C   UNL A   1      42.534  26.897  35.011  1.00  0.00     0.023 A 
ATOM     95  C   UNL A   1      41.459  26.293  35.685  1.00  0.00     0.012 A 
ATOM     96  C   UNL A   1      43.643  26.062  34.705  1.00  0.00     0.148 A 
ATOM     97  C   UNL A   1      41.496  24.953  36.083  1.00  0.00     0.002 A 
ATOM     98  C   UNL A   1      43.610  24.699  34.971  1.00  0.00     0.091 A 
ATOM     99  F   UNL A   1      44.754  26.585  34.169  1.00  0.00    -0.205 F 
ATOM    100  C   UNL A   1      42.557  24.146  35.697  1.00  0.00     0.022 A 
BRANCH  98 101
ATOM    101  S   UNL A   1      44.814  23.584  34.233  1.00  0.00     0.127 S 
ATOM    102  O   UNL A   1      44.923  24.114  32.876  1.00  0.00    -0.237 OA
ATOM    103  O   UNL A   1      45.994  23.805  35.071  1.00  0.00    -0.237 OA
ATOM    104  O   UNL A   1      44.235  22.253  34.358  1.00  0.00    -0.744 OA
ENDBRANCH  98 101
ENDBRANCH  71  94
ENDBRANCH  45  46
ENDBRANCH  37  40
ENDBRANCH  35  36
ENDBRANCH  34  35
ENDBRANCH   1  34
TORSDOF 17
ENDMDL
MODEL 3
REMARK VINA RESULT:     -12.6      4.282     10.193
REMARK SMILES Cc1cccc(-c2ncc(C[NH+]3CCC4(CC3)NC(=O)C[C@H]4C(=O)NCCCCNC(=O)c3ccc(-c4c5nc(c(-c6cccc(S(=O)(=O)[O-])c6F)c6ccc([nH]6)c(-c6cccc(S(=O)(=O)[O-])c6F)c6nc(c(-c7cccc(S(=O)(=O)[O-])c7F)c7ccc4[nH]7)C=C6)C=C5)cc3)cn2)c1
REMARK SMILES IDX 27 1 26 2 25 3 23 4 24 5 22 7 12 8 13 9 17 10 14 12 16 13
REMARK SMILES IDX 15 14 18 15 19 16 21 18 20 19 11 20 10 21 7 22 8 23 97 24
REMARK SMILES IDX 9 25 96 26 6 27 1 28 2 29 3 30 98 31 4 32 5 33 28 34 29 35
REMARK SMILES IDX 30 36 31 37 32 39 33 40 34 41 95 42 35 43 94 44 36 45 37 46
REMARK SMILES IDX 38 47 88 48 39 49 93 50 87 51 89 52 40 53 92 54 86 55 85 56
REMARK SMILES IDX 41 58 73 59 53 60 72 61 54 62 57 63 71 64 90 65 55 66 56 67
REMARK SMILES IDX 70 69 91 70 58 71 42 72 43 73 51 74 44 75 46 76 52 77 45 78
REMARK SMILES IDX 47 79 48 80 49 81 50 82 74 83 75 84 83 85 76 86 78 87 84 88
REMARK SMILES IDX 77 89 79 90 80 91 81 92 82 93 59 94 60 95 68 96 61 97 63 98
REMARK SMILES IDX 69 99 62 100 64 101 65 102 66 103 67 104
REMARK H PARENT 25 6 12 11 18 17 30 38 89 57 57 68
REMARK Flexibility Score: inf
ROOT
ATOM      1  C   UNL A   1      38.102  21.306  25.373  1.00  0.00     0.023 C 
ENDROOT
BRANCH   1   2
ATOM      2  C   UNL A   1      37.570  22.720  25.035  1.00  0.00     0.116 C 
BRANCH   2   3
ATOM      3  N   UNL A   1      36.573  22.857  23.964  1.00  0.00    -0.356 N 
ATOM      4  C   UNL A   1      35.230  22.636  23.834  1.00  0.00     0.226 C 
ATOM      5  O   UNL A   1      34.732  22.949  22.745  1.00  0.00    -0.275 OA
ATOM      6  H   UNL A   1      36.973  23.192  23.130  1.00  0.00     0.163 HD
BRANCH   4   7
ATOM      7  C   UNL A   1      34.304  21.976  24.878  1.00  0.00     0.114 C 
ATOM      8  N   UNL A   1      31.735  24.995  26.199  1.00  0.00    -0.331 N 
ATOM      9  C   UNL A   1      31.885  23.800  27.021  1.00  0.00     0.264 C 
ATOM     10  C   UNL A   1      32.803  25.056  25.223  1.00  0.00     0.264 C 
ATOM     11  H   UNL A   1      31.832  25.757  26.871  1.00  0.00     0.348 HD
ATOM     12  C   UNL A   1      32.109  22.458  26.297  1.00  0.00     0.091 C 
ATOM     13  C   UNL A   1      32.732  23.874  24.289  1.00  0.00     0.091 C 
ATOM     14  C   UNL A   1      32.852  22.489  24.924  1.00  0.00     0.063 C 
ATOM     15  N   UNL A   1      32.189  21.451  24.141  1.00  0.00    -0.349 N 
ATOM     16  C   UNL A   1      32.876  20.263  24.079  1.00  0.00     0.221 C 
ATOM     17  H   UNL A   1      31.323  21.590  23.695  1.00  0.00     0.164 HD
ATOM     18  C   UNL A   1      34.238  20.461  24.665  1.00  0.00     0.116 C 
ATOM     19  O   UNL A   1      32.427  19.215  23.624  1.00  0.00    -0.275 OA
BRANCH   8  20
ATOM     20  C   UNL A   1      30.400  25.424  25.724  1.00  0.00     0.302 C 
BRANCH  20  21
ATOM     21  C   UNL A   1      30.305  26.598  24.784  1.00  0.00     0.043 A 
ATOM     22  C   UNL A   1      29.757  28.939  23.481  1.00  0.00     0.159 A 
ATOM     23  N   UNL A   1      30.745  28.933  24.399  1.00  0.00    -0.236 NA
ATOM     24  N   UNL A   1      29.096  27.833  23.082  1.00  0.00    -0.236 NA
ATOM     25  C   UNL A   1      31.025  27.753  24.989  1.00  0.00     0.124 A 
ATOM     26  C   UNL A   1      29.384  26.687  23.747  1.00  0.00     0.124 A 
BRANCH  22  27
ATOM     27  C   UNL A   1      29.303  30.255  22.997  1.00  0.00     0.019 A 
ATOM     28  C   UNL A   1      27.854  31.778  19.787  1.00  0.00     0.044 C 
ATOM     29  C   UNL A   1      28.361  31.658  21.196  1.00  0.00    -0.050 A 
ATOM     30  C   UNL A   1      28.333  32.747  22.067  1.00  0.00     0.003 A 
ATOM     31  C   UNL A   1      28.832  30.426  21.675  1.00  0.00     0.015 A 
ATOM     32  C   UNL A   1      28.804  32.612  23.372  1.00  0.00     0.001 A 
ATOM     33  C   UNL A   1      29.298  31.382  23.828  1.00  0.00     0.012 A 
ENDBRANCH  22  27
ENDBRANCH  20  21
ENDBRANCH   8  20
ENDBRANCH   4   7
ENDBRANCH   2   3
ENDBRANCH   1   2
BRANCH   1  34
ATOM     34  C   UNL A   1      39.273  21.132  26.357  1.00  0.00     0.023 C 
BRANCH  34  35
ATOM     35  C   UNL A   1      40.487  21.993  26.054  1.00  0.00     0.116 C 
BRANCH  35  36
ATOM     36  N   UNL A   1      41.687  21.179  25.791  1.00  0.00    -0.352 N 
ATOM     37  C   UNL A   1      43.034  21.505  25.763  1.00  0.00     0.251 C 
ATOM     38  H   UNL A   1      41.496  20.231  25.601  1.00  0.00     0.163 HD
ATOM     39  O   UNL A   1      43.797  20.818  25.093  1.00  0.00    -0.269 OA
BRANCH  37  40
ATOM     40  C   UNL A   1      43.528  22.613  26.599  1.00  0.00     0.039 A 
ATOM     41  C   UNL A   1      43.515  22.637  27.994  1.00  0.00     0.014 A 
ATOM     42  C   UNL A   1      43.838  23.774  25.920  1.00  0.00     0.014 A 
ATOM     43  C   UNL A   1      43.666  23.875  28.625  1.00  0.00     0.010 A 
ATOM     44  C   UNL A   1      44.427  24.817  26.526  1.00  0.00     0.010 A 
ATOM     45  C   UNL A   1      44.031  24.961  27.837  1.00  0.00    -0.014 A 
BRANCH  45  46
ATOM     46  C   UNL A   1      43.951  26.366  28.157  1.00  0.00     0.031 A 
ATOM     47  C   UNL A   1      42.634  26.974  28.138  1.00  0.00     0.074 A 
ATOM     48  C   UNL A   1      45.013  26.849  28.848  1.00  0.00     0.049 A 
ATOM     49  N   UNL A   1      42.431  28.231  28.246  1.00  0.00    -0.248 NA
ATOM     50  C   UNL A   1      41.424  26.183  27.957  1.00  0.00     0.031 C 
ATOM     51  C   UNL A   1      45.078  27.880  29.871  1.00  0.00     0.029 A 
ATOM     52  N   UNL A   1      46.339  26.431  28.738  1.00  0.00    -0.354 N 
ATOM     53  C   UNL A   1      41.089  28.375  28.503  1.00  0.00     0.074 A 
ATOM     54  C   UNL A   1      40.494  27.129  28.096  1.00  0.00     0.031 C 
ATOM     55  C   UNL A   1      46.370  28.208  30.081  1.00  0.00     0.029 A 
ATOM     56  C   UNL A   1      47.157  27.512  29.075  1.00  0.00     0.049 A 
ATOM     57  H   UNL A   1      46.643  25.534  28.470  1.00  0.00     0.167 HD
ATOM     58  C   UNL A   1      40.700  29.452  29.237  1.00  0.00     0.034 A 
ATOM     59  C   UNL A   1      47.873  28.101  28.064  1.00  0.00     0.034 A 
ATOM     60  C   UNL A   1      41.876  30.300  29.533  1.00  0.00     0.049 A 
ATOM     61  C   UNL A   1      47.338  29.482  27.730  1.00  0.00     0.074 A 
ATOM     62  C   UNL A   1      42.680  30.446  30.652  1.00  0.00     0.029 A 
ATOM     63  N   UNL A   1      42.584  30.864  28.474  1.00  0.00    -0.354 N 
ATOM     64  N   UNL A   1      46.208  29.951  28.185  1.00  0.00    -0.248 NA
ATOM     65  C   UNL A   1      48.039  30.460  26.907  1.00  0.00     0.031 C 
ATOM     66  C   UNL A   1      43.919  31.015  30.233  1.00  0.00     0.029 A 
ATOM     67  C   UNL A   1      43.860  31.242  28.867  1.00  0.00     0.049 A 
ATOM     68  H   UNL A   1      42.225  30.979  27.565  1.00  0.00     0.167 HD
ATOM     69  C   UNL A   1      45.964  31.194  27.679  1.00  0.00     0.074 A 
ATOM     70  C   UNL A   1      47.177  31.495  26.934  1.00  0.00     0.031 C 
ATOM     71  C   UNL A   1      44.771  31.838  27.888  1.00  0.00     0.034 A 
BRANCH  58  72
ATOM     72  C   UNL A   1      39.360  29.627  29.933  1.00  0.00     0.023 A 
ATOM     73  C   UNL A   1      38.977  28.602  30.825  1.00  0.00     0.012 A 
ATOM     74  C   UNL A   1      38.423  30.679  29.775  1.00  0.00     0.148 A 
ATOM     75  C   UNL A   1      37.740  28.591  31.478  1.00  0.00     0.002 A 
ATOM     76  C   UNL A   1      37.184  30.671  30.420  1.00  0.00     0.091 A 
ATOM     77  F   UNL A   1      38.705  31.731  29.012  1.00  0.00    -0.205 F 
ATOM     78  C   UNL A   1      36.837  29.622  31.270  1.00  0.00     0.022 A 
BRANCH  76  79
ATOM     79  S   UNL A   1      35.962  31.983  30.200  1.00  0.00     0.127 S 
ATOM     80  O   UNL A   1      35.349  31.617  28.922  1.00  0.00    -0.237 OA
ATOM     81  O   UNL A   1      35.097  31.801  31.364  1.00  0.00    -0.237 OA
ATOM     82  O   UNL A   1      36.697  33.242  30.174  1.00  0.00    -0.744 OA
ENDBRANCH  76  79
ENDBRANCH  58  72
BRANCH  59  83
ATOM     83  C   UNL A   1      48.366  27.060  27.086  1.00  0.00     0.023 A 
ATOM     84  C   UNL A   1      47.588  26.922  25.905  1.00  0.00     0.012 A 
ATOM     85  C   UNL A   1      49.718  26.673  27.041  1.00  0.00     0.148 A 
ATOM     86  C   UNL A   1      48.200  26.674  24.673  1.00  0.00     0.002 A 
ATOM     87  C   UNL A   1      50.308  26.364  25.809  1.00  0.00     0.091 A 
ATOM     88  F   UNL A   1      50.427  26.670  28.177  1.00  0.00    -0.205 F 
ATOM     89  C   UNL A   1      49.568  26.436  24.619  1.00  0.00     0.022 A 
BRANCH  87  90
ATOM     90  S   UNL A   1      52.054  25.951  25.700  1.00  0.00     0.127 S 
ATOM     91  O   UNL A   1      52.313  26.148  24.277  1.00  0.00    -0.237 OA
ATOM     92  O   UNL A   1      52.694  26.937  26.571  1.00  0.00    -0.237 OA
ATOM     93  O   UNL A   1      52.141  24.582  26.189  1.00  0.00    -0.744 OA
ENDBRANCH  87  90
ENDBRANCH  59  83
BRANCH  71  94
ATOM     94  C   UNL A   1      44.312  33.091  27.165  1.00  0.00     0.023 A 
ATOM     95  C   UNL A   1      44.119  33.136  25.774  1.00  0.00     0.012 A 
ATOM     96  C   UNL A   1      43.884  34.228  27.904  1.00  0.00     0.148 A 
ATOM     97  C   UNL A   1      43.583  34.261  25.139  1.00  0.00     0.002 A 
ATOM     98  C   UNL A   1      43.218  35.277  27.285  1.00  0.00     0.091 A 
ATOM     99  F   UNL A   1      44.138  34.313  29.217  1.00  0.00    -0.205 F 
ATOM    100  C   UNL A   1      43.101  35.319  25.897  1.00  0.00     0.022 A 
BRANCH  98 101
ATOM    101  S   UNL A   1      42.328  36.506  28.252  1.00  0.00     0.127 S 
ATOM    102  O   UNL A   1      43.393  37.065  29.081  1.00  0.00    -0.237 OA
ATOM    103  O   UNL A   1      41.823  37.409  27.216  1.00  0.00    -0.237 OA
ATOM    104  O   UNL A   1      41.289  35.766  28.955  1.00  0.00    -0.744 OA
ENDBRANCH  98 101
ENDBRANCH  71  94
ENDBRANCH  45  46
ENDBRANCH  37  40
ENDBRANCH  35  36
ENDBRANCH  34  35
ENDBRANCH   1  34
TORSDOF 17
ENDMDL
