MODEL 1
REMARK VINA RESULT:     -12.4      0.000      0.000
REMARK SMILES Cc1ccc(C(=O)NCCCCNC(=O)c2ccc(-c3c4nc(c(-c5cccc(S(=O)(=O)[O-])c5F)c5ccc([nH]5)c(-c5cccc(S(=O)(=O)[O-])c5F)c5nc(c(-c6cccc(S(=O)(=O)[O-])c6F)c6ccc3[nH]6)C=C5)C=C4)cc2)cc1O[C@@H](C)C(=O)N[C@@H]1CCS(=O)(=O)C1
REMARK SMILES IDX 10 1 9 2 8 3 6 4 7 5 5 7 1 8 2 9 3 10 80 11 4 12 79 13 81 14
REMARK SMILES IDX 82 15 83 16 84 17 85 18 86 19 87 21 88 22 93 23 89 24 90 25
REMARK SMILES IDX 91 26 92 27 11 28 12 29 13 30 14 31 15 33 16 34 17 35 78 36
REMARK SMILES IDX 18 37 77 38 19 39 20 40 21 41 71 42 22 43 76 44 70 45 72 46
REMARK SMILES IDX 23 47 75 48 69 49 68 50 24 52 56 53 36 54 55 55 37 56 40 57
REMARK SMILES IDX 54 58 73 59 38 60 39 61 53 63 74 64 41 65 25 66 26 67 34 68
REMARK SMILES IDX 27 69 29 70 35 71 28 72 30 73 31 74 32 75 33 76 57 77 58 78
REMARK SMILES IDX 66 79 59 80 61 81 67 82 60 83 62 84 63 85 64 86 65 87 42 88
REMARK SMILES IDX 43 89 51 90 44 91 46 92 52 93 45 94 47 95 48 96 49 97 50 98
REMARK H PARENT 8 6 86 20 13 32 72 51 40 62
REMARK Flexibility Score: inf
ROOT
ATOM      1  C   UNL A   1      37.055  21.319  24.259  1.00  0.00     0.023 C 
ENDROOT
BRANCH   1   2
ATOM      2  C   UNL A   1      36.713  20.190  25.243  1.00  0.00     0.116 C 
BRANCH   2   3
ATOM      3  N   UNL A   1      35.615  19.319  24.850  1.00  0.00    -0.352 N 
ATOM      4  C   UNL A   1      34.255  19.492  24.722  1.00  0.00     0.251 C 
ATOM      5  O   UNL A   1      33.602  18.520  24.334  1.00  0.00    -0.269 OA
ATOM      6  H   UNL A   1      35.910  18.407  24.627  1.00  0.00     0.163 HD
BRANCH   4   7
ATOM      7  C   UNL A   1      33.498  20.721  25.127  1.00  0.00     0.043 A 
ATOM      8  C   UNL A   1      31.922  24.491  26.630  1.00  0.00     0.048 C 
ATOM      9  C   UNL A   1      32.462  23.215  26.054  1.00  0.00    -0.009 A 
ATOM     10  C   UNL A   1      32.964  22.253  26.949  1.00  0.00     0.008 A 
ATOM     11  C   UNL A   1      32.498  22.915  24.690  1.00  0.00     0.124 A 
ATOM     12  C   UNL A   1      33.518  21.052  26.489  1.00  0.00     0.014 A 
ATOM     13  C   UNL A   1      32.875  21.619  24.260  1.00  0.00     0.060 A 
BRANCH  11  14
ATOM     14  O   UNL A   1      32.262  23.746  23.646  1.00  0.00    -0.481 OA
BRANCH  14  15
ATOM     15  C   UNL A   1      32.958  24.927  23.298  1.00  0.00     0.258 C 
ATOM     16  C   UNL A   1      34.449  24.548  23.425  1.00  0.00     0.064 C 
BRANCH  15  17
ATOM     17  C   UNL A   1      32.828  26.156  22.274  1.00  0.00     0.261 C 
ATOM     18  O   UNL A   1      33.459  26.142  21.206  1.00  0.00    -0.271 OA
ATOM     19  N   UNL A   1      32.164  27.323  22.506  1.00  0.00    -0.349 N 
ATOM     20  H   UNL A   1      32.367  28.048  21.871  1.00  0.00     0.163 HD
BRANCH  19  21
ATOM     21  C   UNL A   1      31.208  27.665  23.534  1.00  0.00     0.098 C 
ATOM     22  C   UNL A   1      29.864  26.916  23.426  1.00  0.00     0.042 C 
ATOM     23  C   UNL A   1      30.958  29.155  23.629  1.00  0.00     0.161 C 
ATOM     24  C   UNL A   1      28.721  27.900  23.242  1.00  0.00     0.139 C 
ATOM     25  S   UNL A   1      29.427  29.455  22.827  1.00  0.00     0.152 S 
ATOM     26  O   UNL A   1      29.656  29.510  21.393  1.00  0.00    -0.229 OA
ATOM     27  O   UNL A   1      28.689  30.460  23.539  1.00  0.00    -0.229 OA
ENDBRANCH  19  21
ENDBRANCH  15  17
ENDBRANCH  14  15
ENDBRANCH  11  14
ENDBRANCH   4   7
ENDBRANCH   2   3
ENDBRANCH   1   2
BRANCH   1  28
ATOM     28  C   UNL A   1      37.686  22.595  24.795  1.00  0.00     0.023 C 
BRANCH  28  29
ATOM     29  C   UNL A   1      37.767  22.613  26.297  1.00  0.00     0.116 C 
BRANCH  29  30
ATOM     30  N   UNL A   1      39.108  22.493  26.818  1.00  0.00    -0.352 N 
ATOM     31  C   UNL A   1      40.035  23.482  27.068  1.00  0.00     0.251 C 
ATOM     32  H   UNL A   1      39.402  21.575  27.024  1.00  0.00     0.163 HD
ATOM     33  O   UNL A   1      41.190  23.124  27.291  1.00  0.00    -0.269 OA
BRANCH  31  34
ATOM     34  C   UNL A   1      39.622  24.904  27.254  1.00  0.00     0.039 A 
ATOM     35  C   UNL A   1      40.254  25.858  26.447  1.00  0.00     0.014 A 
ATOM     36  C   UNL A   1      38.967  25.326  28.404  1.00  0.00     0.014 A 
ATOM     37  C   UNL A   1      40.515  27.118  26.962  1.00  0.00     0.010 A 
ATOM     38  C   UNL A   1      39.367  26.487  28.991  1.00  0.00     0.010 A 
ATOM     39  C   UNL A   1      40.213  27.340  28.291  1.00  0.00    -0.014 A 
BRANCH  39  40
ATOM     40  C   UNL A   1      40.567  28.502  29.064  1.00  0.00     0.031 A 
ATOM     41  C   UNL A   1      39.678  29.657  28.919  1.00  0.00     0.074 A 
ATOM     42  C   UNL A   1      41.317  28.223  30.152  1.00  0.00     0.049 A 
ATOM     43  N   UNL A   1      39.796  30.738  29.594  1.00  0.00    -0.248 NA
ATOM     44  C   UNL A   1      38.545  29.675  27.987  1.00  0.00     0.031 C 
ATOM     45  C   UNL A   1      41.318  28.841  31.469  1.00  0.00     0.029 A 
ATOM     46  N   UNL A   1      42.374  27.315  30.216  1.00  0.00    -0.354 N 
ATOM     47  C   UNL A   1      38.596  31.401  29.473  1.00  0.00     0.074 A 
ATOM     48  C   UNL A   1      37.935  30.808  28.344  1.00  0.00     0.031 C 
ATOM     49  C   UNL A   1      42.459  28.514  32.106  1.00  0.00     0.029 A 
ATOM     50  C   UNL A   1      43.303  27.836  31.132  1.00  0.00     0.049 A 
ATOM     51  H   UNL A   1      42.454  26.473  29.715  1.00  0.00     0.167 HD
ATOM     52  C   UNL A   1      38.242  32.239  30.480  1.00  0.00     0.034 A 
ATOM     53  C   UNL A   1      44.479  28.342  30.635  1.00  0.00     0.034 A 
ATOM     54  C   UNL A   1      39.386  32.433  31.387  1.00  0.00     0.049 A 
ATOM     55  C   UNL A   1      44.555  29.853  30.778  1.00  0.00     0.074 A 
ATOM     56  C   UNL A   1      39.701  31.914  32.630  1.00  0.00     0.029 A 
ATOM     57  N   UNL A   1      40.572  32.954  30.866  1.00  0.00    -0.354 N 
ATOM     58  N   UNL A   1      43.522  30.623  30.999  1.00  0.00    -0.248 NA
ATOM     59  C   UNL A   1      45.805  30.608  30.759  1.00  0.00     0.031 C 
ATOM     60  C   UNL A   1      41.120  31.989  32.779  1.00  0.00     0.029 A 
ATOM     61  C   UNL A   1      41.657  32.596  31.654  1.00  0.00     0.049 A 
ATOM     62  H   UNL A   1      40.630  33.501  30.050  1.00  0.00     0.167 HD
ATOM     63  C   UNL A   1      43.910  31.928  31.098  1.00  0.00     0.074 A 
ATOM     64  C   UNL A   1      45.360  31.859  30.984  1.00  0.00     0.031 C 
ATOM     65  C   UNL A   1      43.015  32.956  31.246  1.00  0.00     0.034 A 
BRANCH  52  66
ATOM     66  C   UNL A   1      36.841  32.731  30.788  1.00  0.00     0.023 A 
ATOM     67  C   UNL A   1      36.318  32.373  32.050  1.00  0.00     0.012 A 
ATOM     68  C   UNL A   1      35.956  33.428  29.922  1.00  0.00     0.148 A 
ATOM     69  C   UNL A   1      35.008  32.680  32.435  1.00  0.00     0.002 A 
ATOM     70  C   UNL A   1      34.669  33.793  30.333  1.00  0.00     0.091 A 
ATOM     71  F   UNL A   1      36.302  33.672  28.656  1.00  0.00    -0.205 F 
ATOM     72  C   UNL A   1      34.188  33.407  31.584  1.00  0.00     0.022 A 
BRANCH  70  73
ATOM     73  S   UNL A   1      33.559  34.787  29.311  1.00  0.00     0.127 S 
ATOM     74  O   UNL A   1      33.058  33.802  28.353  1.00  0.00    -0.237 OA
ATOM     75  O   UNL A   1      32.567  35.246  30.284  1.00  0.00    -0.237 OA
ATOM     76  O   UNL A   1      34.374  35.851  28.737  1.00  0.00    -0.744 OA
ENDBRANCH  70  73
ENDBRANCH  52  66
BRANCH  53  77
ATOM     77  C   UNL A   1      44.958  27.524  29.461  1.00  0.00     0.023 A 
ATOM     78  C   UNL A   1      45.161  26.141  29.722  1.00  0.00     0.012 A 
ATOM     79  C   UNL A   1      44.698  27.922  28.136  1.00  0.00     0.148 A 
ATOM     80  C   UNL A   1      44.839  25.180  28.761  1.00  0.00     0.002 A 
ATOM     81  C   UNL A   1      44.436  26.952  27.164  1.00  0.00     0.091 A 
ATOM     82  F   UNL A   1      44.646  29.232  27.855  1.00  0.00    -0.205 F 
ATOM     83  C   UNL A   1      44.422  25.587  27.498  1.00  0.00     0.022 A 
BRANCH  81  84
ATOM     84  S   UNL A   1      44.039  27.413  25.471  1.00  0.00     0.127 S 
ATOM     85  O   UNL A   1      43.446  26.180  24.962  1.00  0.00    -0.237 OA
ATOM     86  O   UNL A   1      43.092  28.516  25.636  1.00  0.00    -0.237 OA
ATOM     87  O   UNL A   1      45.310  27.806  24.879  1.00  0.00    -0.744 OA
ENDBRANCH  81  84
ENDBRANCH  53  77
BRANCH  65  88
ATOM     88  C   UNL A   1      43.358  34.421  31.037  1.00  0.00     0.023 A 
ATOM     89  C   UNL A   1      43.633  35.282  32.116  1.00  0.00     0.012 A 
ATOM     90  C   UNL A   1      43.564  34.948  29.736  1.00  0.00     0.148 A 
ATOM     91  C   UNL A   1      43.990  36.620  31.925  1.00  0.00     0.002 A 
ATOM     92  C   UNL A   1      44.048  36.239  29.553  1.00  0.00     0.091 A 
ATOM     93  F   UNL A   1      43.276  34.208  28.657  1.00  0.00    -0.205 F 
ATOM     94  C   UNL A   1      44.217  37.094  30.643  1.00  0.00     0.022 A 
BRANCH  92  95
ATOM     95  S   UNL A   1      44.619  36.812  27.948  1.00  0.00     0.127 S 
ATOM     96  O   UNL A   1      43.430  36.619  27.120  1.00  0.00    -0.237 OA
ATOM     97  O   UNL A   1      44.952  38.212  28.220  1.00  0.00    -0.237 OA
ATOM     98  O   UNL A   1      45.769  35.980  27.619  1.00  0.00    -0.744 OA
ENDBRANCH  92  95
ENDBRANCH  65  88
ENDBRANCH  39  40
ENDBRANCH  31  34
ENDBRANCH  29  30
ENDBRANCH  28  29
ENDBRANCH   1  28
TORSDOF 18
ENDMDL
MODEL 2
REMARK VINA RESULT:     -12.2      4.090      6.112
REMARK SMILES Cc1ccc(C(=O)NCCCCNC(=O)c2ccc(-c3c4nc(c(-c5cccc(S(=O)(=O)[O-])c5F)c5ccc([nH]5)c(-c5cccc(S(=O)(=O)[O-])c5F)c5nc(c(-c6cccc(S(=O)(=O)[O-])c6F)c6ccc3[nH]6)C=C5)C=C4)cc2)cc1O[C@@H](C)C(=O)N[C@@H]1CCS(=O)(=O)C1
REMARK SMILES IDX 10 1 9 2 8 3 6 4 7 5 5 7 1 8 2 9 3 10 80 11 4 12 79 13 81 14
REMARK SMILES IDX 82 15 83 16 84 17 85 18 86 19 87 21 88 22 93 23 89 24 90 25
REMARK SMILES IDX 91 26 92 27 11 28 12 29 13 30 14 31 15 33 16 34 17 35 78 36
REMARK SMILES IDX 18 37 77 38 19 39 20 40 21 41 71 42 22 43 76 44 70 45 72 46
REMARK SMILES IDX 23 47 75 48 69 49 68 50 24 52 56 53 36 54 55 55 37 56 40 57
REMARK SMILES IDX 54 58 73 59 38 60 39 61 53 63 74 64 41 65 25 66 26 67 34 68
REMARK SMILES IDX 27 69 29 70 35 71 28 72 30 73 31 74 32 75 33 76 57 77 58 78
REMARK SMILES IDX 66 79 59 80 61 81 67 82 60 83 62 84 63 85 64 86 65 87 42 88
REMARK SMILES IDX 43 89 51 90 44 91 46 92 52 93 45 94 47 95 48 96 49 97 50 98
REMARK H PARENT 8 6 86 20 13 32 72 51 40 62
REMARK Flexibility Score: inf
ROOT
ATOM      1  C   UNL A   1      40.440  23.346  27.543  1.00  0.00     0.023 C 
ENDROOT
BRANCH   1   2
ATOM      2  C   UNL A   1      39.070  23.429  26.854  1.00  0.00     0.116 C 
BRANCH   2   3
ATOM      3  N   UNL A   1      38.552  22.177  26.321  1.00  0.00    -0.352 N 
ATOM      4  C   UNL A   1      37.526  21.855  25.460  1.00  0.00     0.251 C 
ATOM      5  O   UNL A   1      37.372  20.660  25.197  1.00  0.00    -0.269 OA
ATOM      6  H   UNL A   1      39.043  21.389  26.647  1.00  0.00     0.163 HD
BRANCH   4   7
ATOM      7  C   UNL A   1      36.517  22.822  24.917  1.00  0.00     0.043 A 
ATOM      8  C   UNL A   1      33.258  25.036  23.066  1.00  0.00     0.048 C 
ATOM      9  C   UNL A   1      34.357  24.288  23.760  1.00  0.00    -0.009 A 
ATOM     10  C   UNL A   1      35.206  23.490  22.972  1.00  0.00     0.008 A 
ATOM     11  C   UNL A   1      34.598  24.330  25.135  1.00  0.00     0.124 A 
ATOM     12  C   UNL A   1      36.234  22.732  23.548  1.00  0.00     0.014 A 
ATOM     13  C   UNL A   1      35.759  23.719  25.670  1.00  0.00     0.060 A 
BRANCH  11  14
ATOM     14  O   UNL A   1      33.811  24.857  26.104  1.00  0.00    -0.481 OA
BRANCH  14  15
ATOM     15  C   UNL A   1      32.537  24.413  26.528  1.00  0.00     0.258 C 
ATOM     16  C   UNL A   1      31.549  25.427  25.911  1.00  0.00     0.064 C 
BRANCH  15  17
ATOM     17  C   UNL A   1      31.757  23.037  26.793  1.00  0.00     0.261 C 
ATOM     18  O   UNL A   1      30.837  22.995  27.625  1.00  0.00    -0.271 OA
ATOM     19  N   UNL A   1      32.080  21.821  26.268  1.00  0.00    -0.349 N 
ATOM     20  H   UNL A   1      31.641  21.053  26.701  1.00  0.00     0.163 HD
BRANCH  19  21
ATOM     21  C   UNL A   1      32.963  21.480  25.177  1.00  0.00     0.098 C 
ATOM     22  C   UNL A   1      32.244  21.197  23.842  1.00  0.00     0.042 C 
ATOM     23  C   UNL A   1      33.891  20.332  25.511  1.00  0.00     0.161 C 
ATOM     24  C   UNL A   1      32.525  19.779  23.377  1.00  0.00     0.139 C 
ATOM     25  S   UNL A   1      33.222  18.908  24.735  1.00  0.00     0.152 S 
ATOM     26  O   UNL A   1      32.153  18.383  25.568  1.00  0.00    -0.229 OA
ATOM     27  O   UNL A   1      34.281  18.089  24.216  1.00  0.00    -0.229 OA
ENDBRANCH  19  21
ENDBRANCH  15  17
ENDBRANCH  14  15
ENDBRANCH  11  14
ENDBRANCH   4   7
ENDBRANCH   2   3
ENDBRANCH   1   2
BRANCH   1  28
ATOM     28  C   UNL A   1      41.378  22.205  27.178  1.00  0.00     0.023 C 
BRANCH  28  29
ATOM     29  C   UNL A   1      41.875  22.295  25.762  1.00  0.00     0.116 C 
BRANCH  29  30
ATOM     30  N   UNL A   1      42.755  21.218  25.375  1.00  0.00    -0.352 N 
ATOM     31  C   UNL A   1      44.110  21.252  25.120  1.00  0.00     0.251 C 
ATOM     32  H   UNL A   1      42.328  20.336  25.278  1.00  0.00     0.163 HD
ATOM     33  O   UNL A   1      44.603  20.263  24.581  1.00  0.00    -0.269 OA
BRANCH  31  34
ATOM     34  C   UNL A   1      44.972  22.350  25.648  1.00  0.00     0.039 A 
ATOM     35  C   UNL A   1      45.063  22.469  27.040  1.00  0.00     0.014 A 
ATOM     36  C   UNL A   1      45.338  23.431  24.857  1.00  0.00     0.014 A 
ATOM     37  C   UNL A   1      45.175  23.728  27.609  1.00  0.00     0.010 A 
ATOM     38  C   UNL A   1      45.268  24.681  25.391  1.00  0.00     0.010 A 
ATOM     39  C   UNL A   1      45.101  24.818  26.765  1.00  0.00    -0.014 A 
BRANCH  39  40
ATOM     40  C   UNL A   1      45.013  26.200  27.161  1.00  0.00     0.031 A 
ATOM     41  C   UNL A   1      43.680  26.802  27.074  1.00  0.00     0.074 A 
ATOM     42  C   UNL A   1      45.994  26.588  28.003  1.00  0.00     0.049 A 
ATOM     43  N   UNL A   1      43.407  27.990  27.465  1.00  0.00    -0.248 NA
ATOM     44  C   UNL A   1      42.517  26.083  26.543  1.00  0.00     0.031 C 
ATOM     45  C   UNL A   1      45.953  27.524  29.117  1.00  0.00     0.029 A 
ATOM     46  N   UNL A   1      47.342  26.243  27.916  1.00  0.00    -0.354 N 
ATOM     47  C   UNL A   1      42.038  28.049  27.588  1.00  0.00     0.074 A 
ATOM     48  C   UNL A   1      41.529  26.929  26.846  1.00  0.00     0.031 C 
ATOM     49  C   UNL A   1      47.213  27.889  29.429  1.00  0.00     0.029 A 
ATOM     50  C   UNL A   1      48.076  27.342  28.392  1.00  0.00     0.049 A 
ATOM     51  H   UNL A   1      47.709  25.393  27.583  1.00  0.00     0.167 HD
ATOM     52  C   UNL A   1      41.529  28.940  28.478  1.00  0.00     0.034 A 
ATOM     53  C   UNL A   1      48.768  28.097  27.477  1.00  0.00     0.034 A 
ATOM     54  C   UNL A   1      42.599  29.839  28.942  1.00  0.00     0.049 A 
ATOM     55  C   UNL A   1      48.160  29.479  27.301  1.00  0.00     0.074 A 
ATOM     56  C   UNL A   1      43.344  29.893  30.107  1.00  0.00     0.029 A 
ATOM     57  N   UNL A   1      43.288  30.603  27.999  1.00  0.00    -0.354 N 
ATOM     58  N   UNL A   1      46.949  29.801  27.673  1.00  0.00    -0.248 NA
ATOM     59  C   UNL A   1      48.888  30.623  26.763  1.00  0.00     0.031 C 
ATOM     60  C   UNL A   1      44.565  30.568  29.803  1.00  0.00     0.029 A 
ATOM     61  C   UNL A   1      44.540  30.965  28.475  1.00  0.00     0.049 A 
ATOM     62  H   UNL A   1      42.933  30.852  27.115  1.00  0.00     0.167 HD
ATOM     63  C   UNL A   1      46.698  31.115  27.402  1.00  0.00     0.074 A 
ATOM     64  C   UNL A   1      47.965  31.597  26.870  1.00  0.00     0.031 C 
ATOM     65  C   UNL A   1      45.474  31.693  27.616  1.00  0.00     0.034 A 
BRANCH  52  66
ATOM     66  C   UNL A   1      40.145  28.902  29.095  1.00  0.00     0.023 A 
ATOM     67  C   UNL A   1      39.058  28.974  28.195  1.00  0.00     0.012 A 
ATOM     68  C   UNL A   1      39.810  28.898  30.476  1.00  0.00     0.148 A 
ATOM     69  C   UNL A   1      37.729  29.039  28.626  1.00  0.00     0.002 A 
ATOM     70  C   UNL A   1      38.477  28.896  30.904  1.00  0.00     0.091 A 
ATOM     71  F   UNL A   1      40.765  28.989  31.403  1.00  0.00    -0.205 F 
ATOM     72  C   UNL A   1      37.435  28.982  29.980  1.00  0.00     0.022 A 
BRANCH  70  73
ATOM     73  S   UNL A   1      38.008  28.765  32.643  1.00  0.00     0.127 S 
ATOM     74  O   UNL A   1      36.655  29.323  32.640  1.00  0.00    -0.237 OA
ATOM     75  O   UNL A   1      38.068  27.321  32.874  1.00  0.00    -0.237 OA
ATOM     76  O   UNL A   1      38.993  29.534  33.393  1.00  0.00    -0.744 OA
ENDBRANCH  70  73
ENDBRANCH  52  66
BRANCH  53  77
ATOM     77  C   UNL A   1      49.344  27.222  26.390  1.00  0.00     0.023 A 
ATOM     78  C   UNL A   1      48.839  27.460  25.083  1.00  0.00     0.012 A 
ATOM     79  C   UNL A   1      50.619  26.640  26.518  1.00  0.00     0.148 A 
ATOM     80  C   UNL A   1      49.679  27.383  23.970  1.00  0.00     0.002 A 
ATOM     81  C   UNL A   1      51.433  26.509  25.389  1.00  0.00     0.091 A 
ATOM     82  F   UNL A   1      51.045  26.282  27.737  1.00  0.00    -0.205 F 
ATOM     83  C   UNL A   1      50.995  26.961  24.132  1.00  0.00     0.022 A 
BRANCH  81  84
ATOM     84  S   UNL A   1      53.093  25.827  25.510  1.00  0.00     0.127 S 
ATOM     85  O   UNL A   1      52.814  24.417  25.761  1.00  0.00    -0.237 OA
ATOM     86  O   UNL A   1      53.668  26.104  24.193  1.00  0.00    -0.237 OA
ATOM     87  O   UNL A   1      53.724  26.561  26.598  1.00  0.00    -0.744 OA
ENDBRANCH  81  84
ENDBRANCH  53  77
BRANCH  65  88
ATOM     88  C   UNL A   1      45.052  33.033  27.039  1.00  0.00     0.023 A 
ATOM     89  C   UNL A   1      44.409  33.138  25.791  1.00  0.00     0.012 A 
ATOM     90  C   UNL A   1      45.152  34.226  27.803  1.00  0.00     0.148 A 
ATOM     91  C   UNL A   1      43.980  34.365  25.277  1.00  0.00     0.002 A 
ATOM     92  C   UNL A   1      44.605  35.420  27.344  1.00  0.00     0.091 A 
ATOM     93  F   UNL A   1      45.795  34.220  28.978  1.00  0.00    -0.205 F 
ATOM     94  C   UNL A   1      44.060  35.504  26.062  1.00  0.00     0.022 A 
BRANCH  92  95
ATOM     95  S   UNL A   1      44.433  36.851  28.419  1.00  0.00     0.127 S 
ATOM     96  O   UNL A   1      43.786  37.816  27.532  1.00  0.00    -0.237 OA
ATOM     97  O   UNL A   1      43.575  36.333  29.487  1.00  0.00    -0.237 OA
ATOM     98  O   UNL A   1      45.784  37.184  28.849  1.00  0.00    -0.744 OA
ENDBRANCH  92  95
ENDBRANCH  65  88
ENDBRANCH  39  40
ENDBRANCH  31  34
ENDBRANCH  29  30
ENDBRANCH  28  29
ENDBRANCH   1  28
TORSDOF 18
ENDMDL
MODEL 3
REMARK VINA RESULT:     -12.0      1.834      2.680
REMARK SMILES Cc1ccc(C(=O)NCCCCNC(=O)c2ccc(-c3c4nc(c(-c5cccc(S(=O)(=O)[O-])c5F)c5ccc([nH]5)c(-c5cccc(S(=O)(=O)[O-])c5F)c5nc(c(-c6cccc(S(=O)(=O)[O-])c6F)c6ccc3[nH]6)C=C5)C=C4)cc2)cc1O[C@@H](C)C(=O)N[C@@H]1CCS(=O)(=O)C1
REMARK SMILES IDX 10 1 9 2 8 3 6 4 7 5 5 7 1 8 2 9 3 10 80 11 4 12 79 13 81 14
REMARK SMILES IDX 82 15 83 16 84 17 85 18 86 19 87 21 88 22 93 23 89 24 90 25
REMARK SMILES IDX 91 26 92 27 11 28 12 29 13 30 14 31 15 33 16 34 17 35 78 36
REMARK SMILES IDX 18 37 77 38 19 39 20 40 21 41 71 42 22 43 76 44 70 45 72 46
REMARK SMILES IDX 23 47 75 48 69 49 68 50 24 52 56 53 36 54 55 55 37 56 40 57
REMARK SMILES IDX 54 58 73 59 38 60 39 61 53 63 74 64 41 65 25 66 26 67 34 68
REMARK SMILES IDX 27 69 29 70 35 71 28 72 30 73 31 74 32 75 33 76 57 77 58 78
REMARK SMILES IDX 66 79 59 80 61 81 67 82 60 83 62 84 63 85 64 86 65 87 42 88
REMARK SMILES IDX 43 89 51 90 44 91 46 92 52 93 45 94 47 95 48 96 49 97 50 98
REMARK H PARENT 8 6 86 20 13 32 72 51 40 62
REMARK Flexibility Score: inf
ROOT
ATOM      1  C   UNL A   1      35.836  21.462  24.591  1.00  0.00     0.023 C 
ENDROOT
BRANCH   1   2
ATOM      2  C   UNL A   1      34.440  20.960  24.989  1.00  0.00     0.116 C 
BRANCH   2   3
ATOM      3  N   UNL A   1      33.853  21.587  26.165  1.00  0.00    -0.352 N 
ATOM      4  C   UNL A   1      33.269  22.811  26.405  1.00  0.00     0.251 C 
ATOM      5  O   UNL A   1      32.845  23.014  27.546  1.00  0.00    -0.269 OA
ATOM      6  H   UNL A   1      33.879  21.010  26.961  1.00  0.00     0.163 HD
BRANCH   4   7
ATOM      7  C   UNL A   1      33.215  23.950  25.431  1.00  0.00     0.043 A 
ATOM      8  C   UNL A   1      33.454  26.822  22.168  1.00  0.00     0.048 C 
ATOM      9  C   UNL A   1      33.310  25.826  23.281  1.00  0.00    -0.009 A 
ATOM     10  C   UNL A   1      34.486  25.345  23.886  1.00  0.00     0.008 A 
ATOM     11  C   UNL A   1      32.089  25.344  23.759  1.00  0.00     0.124 A 
ATOM     12  C   UNL A   1      34.439  24.387  24.907  1.00  0.00     0.014 A 
ATOM     13  C   UNL A   1      32.055  24.532  24.920  1.00  0.00     0.060 A 
BRANCH  11  14
ATOM     14  O   UNL A   1      30.859  25.503  23.216  1.00  0.00    -0.481 OA
BRANCH  14  15
ATOM     15  C   UNL A   1      30.019  26.639  23.281  1.00  0.00     0.258 C 
ATOM     16  C   UNL A   1      28.858  26.210  24.203  1.00  0.00     0.064 C 
BRANCH  15  17
ATOM     17  C   UNL A   1      30.142  28.239  23.325  1.00  0.00     0.261 C 
ATOM     18  O   UNL A   1      29.383  28.938  22.636  1.00  0.00    -0.271 OA
ATOM     19  N   UNL A   1      31.107  28.949  23.974  1.00  0.00    -0.349 N 
ATOM     20  H   UNL A   1      31.164  29.898  23.720  1.00  0.00     0.163 HD
BRANCH  19  21
ATOM     21  C   UNL A   1      32.058  28.530  24.978  1.00  0.00     0.098 C 
ATOM     22  C   UNL A   1      31.418  28.016  26.284  1.00  0.00     0.042 C 
ATOM     23  C   UNL A   1      33.082  29.598  25.297  1.00  0.00     0.161 C 
ATOM     24  C   UNL A   1      31.854  28.870  27.462  1.00  0.00     0.139 C 
ATOM     25  S   UNL A   1      32.584  30.330  26.811  1.00  0.00     0.152 S 
ATOM     26  O   UNL A   1      31.543  31.306  26.537  1.00  0.00    -0.229 OA
ATOM     27  O   UNL A   1      33.737  30.624  27.616  1.00  0.00    -0.229 OA
ENDBRANCH  19  21
ENDBRANCH  15  17
ENDBRANCH  14  15
ENDBRANCH  11  14
ENDBRANCH   4   7
ENDBRANCH   2   3
ENDBRANCH   1   2
BRANCH   1  28
ATOM     28  C   UNL A   1      36.997  21.240  25.549  1.00  0.00     0.023 C 
BRANCH  28  29
ATOM     29  C   UNL A   1      37.746  22.508  25.853  1.00  0.00     0.116 C 
BRANCH  29  30
ATOM     30  N   UNL A   1      38.974  22.308  26.585  1.00  0.00    -0.352 N 
ATOM     31  C   UNL A   1      39.933  23.232  26.943  1.00  0.00     0.251 C 
ATOM     32  H   UNL A   1      39.152  21.382  26.869  1.00  0.00     0.163 HD
ATOM     33  O   UNL A   1      41.004  22.795  27.360  1.00  0.00    -0.269 OA
BRANCH  31  34
ATOM     34  C   UNL A   1      39.621  24.690  27.007  1.00  0.00     0.039 A 
ATOM     35  C   UNL A   1      40.381  25.538  26.191  1.00  0.00     0.014 A 
ATOM     36  C   UNL A   1      38.922  25.237  28.075  1.00  0.00     0.014 A 
ATOM     37  C   UNL A   1      40.703  26.807  26.645  1.00  0.00     0.010 A 
ATOM     38  C   UNL A   1      39.369  26.402  28.616  1.00  0.00     0.010 A 
ATOM     39  C   UNL A   1      40.326  27.141  27.930  1.00  0.00    -0.014 A 
BRANCH  39  40
ATOM     40  C   UNL A   1      40.715  28.324  28.653  1.00  0.00     0.031 A 
ATOM     41  C   UNL A   1      39.780  29.450  28.580  1.00  0.00     0.074 A 
ATOM     42  C   UNL A   1      41.573  28.083  29.669  1.00  0.00     0.049 A 
ATOM     43  N   UNL A   1      39.928  30.543  29.229  1.00  0.00    -0.248 NA
ATOM     44  C   UNL A   1      38.565  29.420  27.759  1.00  0.00     0.031 C 
ATOM     45  C   UNL A   1      41.678  28.720  30.973  1.00  0.00     0.029 A 
ATOM     46  N   UNL A   1      42.659  27.209  29.642  1.00  0.00    -0.354 N 
ATOM     47  C   UNL A   1      38.701  31.167  29.214  1.00  0.00     0.074 A 
ATOM     48  C   UNL A   1      37.955  30.539  28.160  1.00  0.00     0.031 C 
ATOM     49  C   UNL A   1      42.885  28.436  31.502  1.00  0.00     0.029 A 
ATOM     50  C   UNL A   1      43.653  27.771  30.460  1.00  0.00     0.049 A 
ATOM     51  H   UNL A   1      42.718  26.362  29.146  1.00  0.00     0.167 HD
ATOM     52  C   UNL A   1      38.417  32.009  30.241  1.00  0.00     0.034 A 
ATOM     53  C   UNL A   1      44.761  28.305  29.848  1.00  0.00     0.034 A 
ATOM     54  C   UNL A   1      39.636  32.250  31.033  1.00  0.00     0.049 A 
ATOM     55  C   UNL A   1      44.803  29.820  29.967  1.00  0.00     0.074 A 
ATOM     56  C   UNL A   1      40.083  31.758  32.247  1.00  0.00     0.029 A 
ATOM     57  N   UNL A   1      40.750  32.799  30.396  1.00  0.00    -0.354 N 
ATOM     58  N   UNL A   1      43.771  30.561  30.275  1.00  0.00    -0.248 NA
ATOM     59  C   UNL A   1      46.020  30.612  29.821  1.00  0.00     0.031 C 
ATOM     60  C   UNL A   1      41.505  31.879  32.259  1.00  0.00     0.029 A 
ATOM     61  C   UNL A   1      41.915  32.486  31.082  1.00  0.00     0.049 A 
ATOM     62  H   UNL A   1      40.714  33.336  29.572  1.00  0.00     0.167 HD
ATOM     63  C   UNL A   1      44.125  31.878  30.323  1.00  0.00     0.074 A 
ATOM     64  C   UNL A   1      45.560  31.851  30.072  1.00  0.00     0.031 C 
ATOM     65  C   UNL A   1      43.217  32.880  30.543  1.00  0.00     0.034 A 
BRANCH  52  66
ATOM     66  C   UNL A   1      37.037  32.462  30.674  1.00  0.00     0.023 A 
ATOM     67  C   UNL A   1      36.600  32.009  31.939  1.00  0.00     0.012 A 
ATOM     68  C   UNL A   1      36.093  33.211  29.921  1.00  0.00     0.148 A 
ATOM     69  C   UNL A   1      35.316  32.273  32.430  1.00  0.00     0.002 A 
ATOM     70  C   UNL A   1      34.833  33.531  30.441  1.00  0.00     0.091 A 
ATOM     71  F   UNL A   1      36.353  33.549  28.656  1.00  0.00    -0.205 F 
ATOM     72  C   UNL A   1      34.438  33.051  31.689  1.00  0.00     0.022 A 
BRANCH  70  73
ATOM     73  S   UNL A   1      33.653  34.584  29.569  1.00  0.00     0.127 S 
ATOM     74  O   UNL A   1      33.144  33.685  28.533  1.00  0.00    -0.237 OA
ATOM     75  O   UNL A   1      32.688  34.907  30.620  1.00  0.00    -0.237 OA
ATOM     76  O   UNL A   1      34.411  35.729  29.077  1.00  0.00    -0.744 OA
ENDBRANCH  70  73
ENDBRANCH  52  66
BRANCH  53  77
ATOM     77  C   UNL A   1      45.153  27.485  28.643  1.00  0.00     0.023 A 
ATOM     78  C   UNL A   1      44.712  27.991  27.391  1.00  0.00     0.012 A 
ATOM     79  C   UNL A   1      46.283  26.646  28.664  1.00  0.00     0.148 A 
ATOM     80  C   UNL A   1      45.524  27.896  26.258  1.00  0.00     0.002 A 
ATOM     81  C   UNL A   1      47.058  26.507  27.509  1.00  0.00     0.091 A 
ATOM     82  F   UNL A   1      46.623  26.051  29.816  1.00  0.00    -0.205 F 
ATOM     83  C   UNL A   1      46.726  27.200  26.333  1.00  0.00     0.022 A 
BRANCH  81  84
ATOM     84  S   UNL A   1      48.546  25.495  27.502  1.00  0.00     0.127 S 
ATOM     85  O   UNL A   1      49.292  26.078  26.391  1.00  0.00    -0.237 OA
ATOM     86  O   UNL A   1      49.130  25.746  28.820  1.00  0.00    -0.237 OA
ATOM     87  O   UNL A   1      48.073  24.131  27.312  1.00  0.00    -0.744 OA
ENDBRANCH  81  84
ENDBRANCH  53  77
BRANCH  65  88
ATOM     88  C   UNL A   1      43.492  34.352  30.286  1.00  0.00     0.023 A 
ATOM     89  C   UNL A   1      43.958  35.210  31.300  1.00  0.00     0.012 A 
ATOM     90  C   UNL A   1      43.435  34.891  28.975  1.00  0.00     0.148 A 
ATOM     91  C   UNL A   1      44.253  36.555  31.057  1.00  0.00     0.002 A 
ATOM     92  C   UNL A   1      43.857  36.191  28.714  1.00  0.00     0.091 A 
ATOM     93  F   UNL A   1      42.955  34.154  27.964  1.00  0.00    -0.205 F 
ATOM     94  C   UNL A   1      44.221  37.041  29.760  1.00  0.00     0.022 A 
BRANCH  92  95
ATOM     95  S   UNL A   1      44.099  36.784  27.034  1.00  0.00     0.127 S 
ATOM     96  O   UNL A   1      44.892  35.706  26.447  1.00  0.00    -0.237 OA
ATOM     97  O   UNL A   1      42.725  36.871  26.537  1.00  0.00    -0.237 OA
ATOM     98  O   UNL A   1      44.768  38.072  27.164  1.00  0.00    -0.744 OA
ENDBRANCH  92  95
ENDBRANCH  65  88
ENDBRANCH  39  40
ENDBRANCH  31  34
ENDBRANCH  29  30
ENDBRANCH  28  29
ENDBRANCH   1  28
TORSDOF 18
ENDMDL
