MODEL 1
REMARK VINA RESULT:     -11.5      0.000      0.000
REMARK SMILES CC(C)[C@@H](NC(=O)/C(=C\c1ccccc1F)NC(=O)c1ccccc1)C(=O)NCCCCNC(=O)c1ccc(-c2c3nc(c(-c4cccc(S(=O)(=O)[O-])c4F)c4ccc([nH]4)c(-c4cccc(S(=O)(=O)[O-])c4F)c4nc(c(-c5cccc(S(=O)(=O)[O-])c5F)c5ccc2[nH]5)C=C4)C=C3)cc1
REMARK SMILES IDX 30 1 29 2 28 3 26 4 27 5 4 7 2 8 1 9 3 10 5 11 6 12 7 14
REMARK SMILES IDX 8 15 9 16 17 17 18 18 19 20 20 21 21 22 25 23 22 24 24 25
REMARK SMILES IDX 23 26 10 27 11 28 15 29 12 30 14 31 16 32 13 33 31 34 32 35
REMARK SMILES IDX 33 36 34 37 35 39 36 40 37 41 98 42 38 43 97 44 39 45 40 46
REMARK SMILES IDX 41 47 91 48 42 49 96 50 90 51 92 52 43 53 95 54 89 55 88 56
REMARK SMILES IDX 44 58 76 59 56 60 75 61 57 62 60 63 74 64 93 65 58 66 59 67
REMARK SMILES IDX 73 69 94 70 61 71 45 72 46 73 54 74 47 75 49 76 55 77 48 78
REMARK SMILES IDX 50 79 51 80 52 81 53 82 77 83 78 84 86 85 79 86 81 87 87 88
REMARK SMILES IDX 80 89 82 90 83 91 84 92 85 93 62 94 63 95 71 96 64 97 66 98
REMARK SMILES IDX 72 99 65 100 67 101 68 102 69 103 70 104
REMARK H PARENT 28 6 5 13 17 19 33 38 92 57 60 68
REMARK Flexibility Score: inf
ROOT
ATOM      1  C   UNL A   1      32.240  28.557  27.010  1.00  0.00     0.023 C 
ENDROOT
BRANCH   1   2
ATOM      2  C   UNL A   1      32.288  27.087  26.611  1.00  0.00     0.116 C 
BRANCH   2   3
ATOM      3  N   UNL A   1      30.934  26.603  26.525  1.00  0.00    -0.354 N 
ATOM      4  C   UNL A   1      30.519  25.617  25.688  1.00  0.00     0.242 C 
ATOM      5  O   UNL A   1      29.528  25.840  24.991  1.00  0.00    -0.273 OA
ATOM      6  H   UNL A   1      30.262  27.017  27.113  1.00  0.00     0.163 HD
BRANCH   4   7
ATOM      7  C   UNL A   1      31.367  24.357  25.497  1.00  0.00     0.174 C 
BRANCH   7   8
ATOM      8  C   UNL A   1      31.301  23.478  26.797  1.00  0.00     0.015 C 
ATOM      9  C   UNL A   1      30.062  22.576  26.822  1.00  0.00     0.010 C 
ATOM     10  C   UNL A   1      32.538  22.583  26.994  1.00  0.00     0.010 C 
ENDBRANCH   7   8
BRANCH   7  11
ATOM     11  N   UNL A   1      31.036  23.586  24.274  1.00  0.00    -0.339 N 
ATOM     12  C   UNL A   1      31.917  22.943  23.428  1.00  0.00     0.268 C 
ATOM     13  H   UNL A   1      30.082  23.525  24.039  1.00  0.00     0.164 HD
ATOM     14  O   UNL A   1      31.730  21.747  23.199  1.00  0.00    -0.268 OA
BRANCH  12  15
ATOM     15  C   UNL A   1      32.913  23.716  22.591  1.00  0.00     0.107 C 
ATOM     16  C   UNL A   1      34.231  23.816  22.878  1.00  0.00     0.043 C 
BRANCH  15  17
ATOM     17  N   UNL A   1      32.528  24.306  21.391  1.00  0.00    -0.317 N 
ATOM     18  C   UNL A   1      32.263  25.579  20.956  1.00  0.00     0.255 C 
ATOM     19  H   UNL A   1      32.418  23.642  20.672  1.00  0.00     0.170 HD
ATOM     20  O   UNL A   1      31.899  25.745  19.791  1.00  0.00    -0.269 OA
BRANCH  18  21
ATOM     21  C   UNL A   1      32.374  26.764  21.807  1.00  0.00     0.040 A 
ATOM     22  C   UNL A   1      33.648  27.223  22.151  1.00  0.00     0.014 A 
ATOM     23  C   UNL A   1      31.233  27.330  22.377  1.00  0.00     0.014 A 
ATOM     24  C   UNL A   1      33.774  28.310  23.014  1.00  0.00     0.001 A 
ATOM     25  C   UNL A   1      31.364  28.423  23.231  1.00  0.00     0.001 A 
ATOM     26  C   UNL A   1      32.633  28.917  23.541  1.00  0.00     0.000 A 
ENDBRANCH  18  21
ENDBRANCH  15  17
BRANCH  16  27
ATOM     27  C   UNL A   1      35.006  23.382  24.044  1.00  0.00     0.012 A 
ATOM     28  C   UNL A   1      35.520  22.074  24.019  1.00  0.00     0.011 A 
ATOM     29  C   UNL A   1      35.299  24.187  25.143  1.00  0.00     0.130 A 
ATOM     30  C   UNL A   1      36.426  21.645  24.991  1.00  0.00     0.001 A 
ATOM     31  C   UNL A   1      36.192  23.759  26.125  1.00  0.00     0.040 A 
ATOM     32  F   UNL A   1      34.757  25.405  25.262  1.00  0.00    -0.206 F 
ATOM     33  C   UNL A   1      36.785  22.501  26.029  1.00  0.00     0.003 A 
ENDBRANCH  16  27
ENDBRANCH  12  15
ENDBRANCH   7  11
ENDBRANCH   4   7
ENDBRANCH   2   3
ENDBRANCH   1   2
BRANCH   1  34
ATOM     34  C   UNL A   1      33.556  29.031  27.631  1.00  0.00     0.023 C 
BRANCH  34  35
ATOM     35  C   UNL A   1      34.174  30.222  26.907  1.00  0.00     0.116 C 
BRANCH  35  36
ATOM     36  N   UNL A   1      34.060  31.441  27.699  1.00  0.00    -0.352 N 
ATOM     37  C   UNL A   1      34.785  31.814  28.800  1.00  0.00     0.251 C 
ATOM     38  H   UNL A   1      33.373  32.081  27.402  1.00  0.00     0.163 HD
ATOM     39  O   UNL A   1      34.403  32.729  29.516  1.00  0.00    -0.269 OA
BRANCH  37  40
ATOM     40  C   UNL A   1      36.023  31.077  29.100  1.00  0.00     0.039 A 
ATOM     41  C   UNL A   1      37.232  31.536  28.580  1.00  0.00     0.014 A 
ATOM     42  C   UNL A   1      35.977  29.961  29.942  1.00  0.00     0.014 A 
ATOM     43  C   UNL A   1      38.414  30.895  28.947  1.00  0.00     0.010 A 
ATOM     44  C   UNL A   1      37.161  29.380  30.370  1.00  0.00     0.010 A 
ATOM     45  C   UNL A   1      38.389  29.833  29.867  1.00  0.00    -0.014 A 
BRANCH  45  46
ATOM     46  C   UNL A   1      39.639  29.179  30.318  1.00  0.00     0.031 A 
ATOM     47  C   UNL A   1      40.350  29.681  31.542  1.00  0.00     0.074 A 
ATOM     48  C   UNL A   1      40.173  28.189  29.575  1.00  0.00     0.049 A 
ATOM     49  N   UNL A   1      41.478  29.274  32.059  1.00  0.00    -0.248 NA
ATOM     50  C   UNL A   1      39.731  30.806  32.265  1.00  0.00     0.031 C 
ATOM     51  C   UNL A   1      39.613  27.676  28.323  1.00  0.00     0.029 A 
ATOM     52  N   UNL A   1      41.318  27.455  29.752  1.00  0.00    -0.354 N 
ATOM     53  C   UNL A   1      41.721  30.110  33.141  1.00  0.00     0.074 A 
ATOM     54  C   UNL A   1      40.644  31.073  33.188  1.00  0.00     0.031 C 
ATOM     55  C   UNL A   1      40.409  26.704  27.851  1.00  0.00     0.029 A 
ATOM     56  C   UNL A   1      41.552  26.547  28.746  1.00  0.00     0.049 A 
ATOM     57  H   UNL A   1      41.916  27.567  30.527  1.00  0.00     0.167 HD
ATOM     58  C   UNL A   1      42.736  30.060  34.035  1.00  0.00     0.034 A 
ATOM     59  C   UNL A   1      42.575  25.688  28.562  1.00  0.00     0.034 A 
ATOM     60  C   UNL A   1      43.772  29.066  34.013  1.00  0.00     0.049 A 
ATOM     61  C   UNL A   1      43.664  25.619  29.598  1.00  0.00     0.074 A 
ATOM     62  C   UNL A   1      44.788  28.870  34.930  1.00  0.00     0.029 A 
ATOM     63  N   UNL A   1      43.932  28.108  33.024  1.00  0.00    -0.354 N 
ATOM     64  N   UNL A   1      43.792  26.314  30.701  1.00  0.00    -0.248 NA
ATOM     65  C   UNL A   1      44.727  24.627  29.385  1.00  0.00     0.031 C 
ATOM     66  C   UNL A   1      45.579  27.809  34.482  1.00  0.00     0.029 A 
ATOM     67  C   UNL A   1      45.037  27.323  33.303  1.00  0.00     0.049 A 
ATOM     68  H   UNL A   1      43.346  28.000  32.241  1.00  0.00     0.167 HD
ATOM     69  C   UNL A   1      44.933  25.826  31.330  1.00  0.00     0.074 A 
ATOM     70  C   UNL A   1      45.446  24.762  30.493  1.00  0.00     0.031 C 
ATOM     71  C   UNL A   1      45.508  26.233  32.487  1.00  0.00     0.034 A 
BRANCH  58  72
ATOM     72  C   UNL A   1      42.747  31.066  35.155  1.00  0.00     0.023 A 
ATOM     73  C   UNL A   1      42.197  30.718  36.406  1.00  0.00     0.012 A 
ATOM     74  C   UNL A   1      43.391  32.309  35.003  1.00  0.00     0.148 A 
ATOM     75  C   UNL A   1      42.270  31.600  37.482  1.00  0.00     0.002 A 
ATOM     76  C   UNL A   1      43.503  33.162  36.093  1.00  0.00     0.091 A 
ATOM     77  F   UNL A   1      43.887  32.628  33.798  1.00  0.00    -0.205 F 
ATOM     78  C   UNL A   1      42.934  32.814  37.330  1.00  0.00     0.022 A 
BRANCH  76  79
ATOM     79  S   UNL A   1      44.418  34.706  36.029  1.00  0.00     0.127 S 
ATOM     80  O   UNL A   1      43.405  35.628  35.514  1.00  0.00    -0.237 OA
ATOM     81  O   UNL A   1      44.769  34.911  37.434  1.00  0.00    -0.237 OA
ATOM     82  O   UNL A   1      45.549  34.469  35.144  1.00  0.00    -0.744 OA
ENDBRANCH  76  79
ENDBRANCH  58  72
BRANCH  59  83
ATOM     83  C   UNL A   1      42.564  24.778  27.383  1.00  0.00     0.023 A 
ATOM     84  C   UNL A   1      43.180  25.189  26.185  1.00  0.00     0.012 A 
ATOM     85  C   UNL A   1      42.014  23.483  27.462  1.00  0.00     0.148 A 
ATOM     86  C   UNL A   1      43.230  24.336  25.082  1.00  0.00     0.002 A 
ATOM     87  C   UNL A   1      42.119  22.618  26.380  1.00  0.00     0.091 A 
ATOM     88  F   UNL A   1      41.424  23.114  28.609  1.00  0.00    -0.205 F 
ATOM     89  C   UNL A   1      42.713  23.048  25.183  1.00  0.00     0.022 A 
BRANCH  87  90
ATOM     90  S   UNL A   1      41.617  20.895  26.470  1.00  0.00     0.127 S 
ATOM     91  O   UNL A   1      40.179  20.990  26.229  1.00  0.00    -0.237 OA
ATOM     92  O   UNL A   1      42.387  20.300  25.377  1.00  0.00    -0.237 OA
ATOM     93  O   UNL A   1      42.007  20.438  27.796  1.00  0.00    -0.744 OA
ENDBRANCH  87  90
ENDBRANCH  59  83
BRANCH  71  94
ATOM     94  C   UNL A   1      46.752  25.523  32.952  1.00  0.00     0.023 A 
ATOM     95  C   UNL A   1      48.017  26.041  32.616  1.00  0.00     0.012 A 
ATOM     96  C   UNL A   1      46.663  24.422  33.827  1.00  0.00     0.148 A 
ATOM     97  C   UNL A   1      49.177  25.463  33.131  1.00  0.00     0.002 A 
ATOM     98  C   UNL A   1      47.820  23.885  34.378  1.00  0.00     0.091 A 
ATOM     99  F   UNL A   1      45.447  23.936  34.122  1.00  0.00    -0.205 F 
ATOM    100  C   UNL A   1      49.078  24.398  34.023  1.00  0.00     0.022 A 
BRANCH  98 101
ATOM    101  S   UNL A   1      47.787  22.584  35.617  1.00  0.00     0.127 S 
ATOM    102  O   UNL A   1      49.210  22.406  35.898  1.00  0.00    -0.237 OA
ATOM    103  O   UNL A   1      47.024  23.207  36.699  1.00  0.00    -0.237 OA
ATOM    104  O   UNL A   1      47.129  21.446  34.990  1.00  0.00    -0.744 OA
ENDBRANCH  98 101
ENDBRANCH  71  94
ENDBRANCH  45  46
ENDBRANCH  37  40
ENDBRANCH  35  36
ENDBRANCH  34  35
ENDBRANCH   1  34
TORSDOF 20
ENDMDL
MODEL 2
REMARK VINA RESULT:     -11.5      1.816      2.086
REMARK SMILES CC(C)[C@@H](NC(=O)/C(=C\c1ccccc1F)NC(=O)c1ccccc1)C(=O)NCCCCNC(=O)c1ccc(-c2c3nc(c(-c4cccc(S(=O)(=O)[O-])c4F)c4ccc([nH]4)c(-c4cccc(S(=O)(=O)[O-])c4F)c4nc(c(-c5cccc(S(=O)(=O)[O-])c5F)c5ccc2[nH]5)C=C4)C=C3)cc1
REMARK SMILES IDX 30 1 29 2 28 3 26 4 27 5 4 7 2 8 1 9 3 10 5 11 6 12 7 14
REMARK SMILES IDX 8 15 9 16 17 17 18 18 19 20 20 21 21 22 25 23 22 24 24 25
REMARK SMILES IDX 23 26 10 27 11 28 15 29 12 30 14 31 16 32 13 33 31 34 32 35
REMARK SMILES IDX 33 36 34 37 35 39 36 40 37 41 98 42 38 43 97 44 39 45 40 46
REMARK SMILES IDX 41 47 91 48 42 49 96 50 90 51 92 52 43 53 95 54 89 55 88 56
REMARK SMILES IDX 44 58 76 59 56 60 75 61 57 62 60 63 74 64 93 65 58 66 59 67
REMARK SMILES IDX 73 69 94 70 61 71 45 72 46 73 54 74 47 75 49 76 55 77 48 78
REMARK SMILES IDX 50 79 51 80 52 81 53 82 77 83 78 84 86 85 79 86 81 87 87 88
REMARK SMILES IDX 80 89 82 90 83 91 84 92 85 93 62 94 63 95 71 96 64 97 66 98
REMARK SMILES IDX 72 99 65 100 67 101 68 102 69 103 70 104
REMARK H PARENT 28 6 5 13 17 19 33 38 92 57 60 68
REMARK Flexibility Score: inf
ROOT
ATOM      1  C   UNL A   1      32.248  28.518  27.235  1.00  0.00     0.023 C 
ENDROOT
BRANCH   1   2
ATOM      2  C   UNL A   1      32.312  27.104  26.669  1.00  0.00     0.116 C 
BRANCH   2   3
ATOM      3  N   UNL A   1      30.964  26.608  26.552  1.00  0.00    -0.354 N 
ATOM      4  C   UNL A   1      30.575  25.625  25.701  1.00  0.00     0.242 C 
ATOM      5  O   UNL A   1      29.597  25.842  24.984  1.00  0.00    -0.273 OA
ATOM      6  H   UNL A   1      30.276  27.013  27.128  1.00  0.00     0.163 HD
BRANCH   4   7
ATOM      7  C   UNL A   1      31.438  24.373  25.521  1.00  0.00     0.174 C 
BRANCH   7   8
ATOM      8  C   UNL A   1      31.385  23.506  26.829  1.00  0.00     0.015 C 
ATOM      9  C   UNL A   1      30.123  22.639  26.897  1.00  0.00     0.010 C 
ATOM     10  C   UNL A   1      32.602  22.576  26.997  1.00  0.00     0.010 C 
ENDBRANCH   7   8
BRANCH   7  11
ATOM     11  N   UNL A   1      31.115  23.587  24.305  1.00  0.00    -0.339 N 
ATOM     12  C   UNL A   1      32.005  22.977  23.443  1.00  0.00     0.268 C 
ATOM     13  H   UNL A   1      30.159  23.487  24.089  1.00  0.00     0.164 HD
ATOM     14  O   UNL A   1      31.860  21.774  23.220  1.00  0.00    -0.268 OA
BRANCH  12  15
ATOM     15  C   UNL A   1      32.953  23.786  22.586  1.00  0.00     0.107 C 
ATOM     16  C   UNL A   1      34.279  23.907  22.825  1.00  0.00     0.043 C 
BRANCH  15  17
ATOM     17  N   UNL A   1      32.511  24.393  21.415  1.00  0.00    -0.317 N 
ATOM     18  C   UNL A   1      32.232  25.673  21.010  1.00  0.00     0.255 C 
ATOM     19  H   UNL A   1      32.360  23.739  20.695  1.00  0.00     0.170 HD
ATOM     20  O   UNL A   1      31.811  25.856  19.867  1.00  0.00    -0.269 OA
BRANCH  18  21
ATOM     21  C   UNL A   1      32.393  26.847  21.869  1.00  0.00     0.040 A 
ATOM     22  C   UNL A   1      33.685  27.292  22.158  1.00  0.00     0.014 A 
ATOM     23  C   UNL A   1      31.285  27.415  22.498  1.00  0.00     0.014 A 
ATOM     24  C   UNL A   1      33.862  28.366  23.027  1.00  0.00     0.001 A 
ATOM     25  C   UNL A   1      31.465  28.496  23.358  1.00  0.00     0.001 A 
ATOM     26  C   UNL A   1      32.752  28.976  23.614  1.00  0.00     0.000 A 
ENDBRANCH  18  21
ENDBRANCH  15  17
BRANCH  16  27
ATOM     27  C   UNL A   1      35.106  23.464  23.952  1.00  0.00     0.012 A 
ATOM     28  C   UNL A   1      35.699  22.193  23.848  1.00  0.00     0.011 A 
ATOM     29  C   UNL A   1      35.375  24.228  25.084  1.00  0.00     0.130 A 
ATOM     30  C   UNL A   1      36.652  21.773  24.778  1.00  0.00     0.001 A 
ATOM     31  C   UNL A   1      36.314  23.809  26.025  1.00  0.00     0.040 A 
ATOM     32  F   UNL A   1      34.761  25.402  25.277  1.00  0.00    -0.206 F 
ATOM     33  C   UNL A   1      36.981  22.597  25.852  1.00  0.00     0.003 A 
ENDBRANCH  16  27
ENDBRANCH  12  15
ENDBRANCH   7  11
ENDBRANCH   4   7
ENDBRANCH   2   3
ENDBRANCH   1   2
BRANCH   1  34
ATOM     34  C   UNL A   1      33.602  28.989  27.770  1.00  0.00     0.023 C 
BRANCH  34  35
ATOM     35  C   UNL A   1      34.141  30.223  27.056  1.00  0.00     0.116 C 
BRANCH  35  36
ATOM     36  N   UNL A   1      33.982  31.420  27.872  1.00  0.00    -0.352 N 
ATOM     37  C   UNL A   1      34.726  31.823  28.949  1.00  0.00     0.251 C 
ATOM     38  H   UNL A   1      33.243  32.017  27.615  1.00  0.00     0.163 HD
ATOM     39  O   UNL A   1      34.316  32.701  29.696  1.00  0.00    -0.269 OA
BRANCH  37  40
ATOM     40  C   UNL A   1      36.021  31.165  29.187  1.00  0.00     0.039 A 
ATOM     41  C   UNL A   1      37.176  31.712  28.631  1.00  0.00     0.014 A 
ATOM     42  C   UNL A   1      36.082  30.033  30.006  1.00  0.00     0.014 A 
ATOM     43  C   UNL A   1      38.410  31.144  28.938  1.00  0.00     0.010 A 
ATOM     44  C   UNL A   1      37.317  29.524  30.376  1.00  0.00     0.010 A 
ATOM     45  C   UNL A   1      38.492  30.066  29.836  1.00  0.00    -0.014 A 
BRANCH  45  46
ATOM     46  C   UNL A   1      39.799  29.488  30.225  1.00  0.00     0.031 A 
ATOM     47  C   UNL A   1      40.585  30.099  31.350  1.00  0.00     0.074 A 
ATOM     48  C   UNL A   1      40.311  28.468  29.509  1.00  0.00     0.049 A 
ATOM     49  N   UNL A   1      41.766  29.768  31.798  1.00  0.00    -0.248 NA
ATOM     50  C   UNL A   1      39.982  31.251  32.044  1.00  0.00     0.031 C 
ATOM     51  C   UNL A   1      39.673  27.849  28.345  1.00  0.00     0.029 A 
ATOM     52  N   UNL A   1      41.494  27.787  29.640  1.00  0.00    -0.354 N 
ATOM     53  C   UNL A   1      42.062  30.686  32.798  1.00  0.00     0.074 A 
ATOM     54  C   UNL A   1      40.954  31.612  32.869  1.00  0.00     0.031 C 
ATOM     55  C   UNL A   1      40.467  26.874  27.875  1.00  0.00     0.029 A 
ATOM     56  C   UNL A   1      41.683  26.820  28.681  1.00  0.00     0.049 A 
ATOM     57  H   UNL A   1      42.148  27.974  30.353  1.00  0.00     0.167 HD
ATOM     58  C   UNL A   1      43.146  30.733  33.606  1.00  0.00     0.034 A 
ATOM     59  C   UNL A   1      42.720  25.985  28.471  1.00  0.00     0.034 A 
ATOM     60  C   UNL A   1      44.216  29.776  33.565  1.00  0.00     0.049 A 
ATOM     61  C   UNL A   1      43.891  26.026  29.416  1.00  0.00     0.074 A 
ATOM     62  C   UNL A   1      45.309  29.679  34.406  1.00  0.00     0.029 A 
ATOM     63  N   UNL A   1      44.334  28.757  32.633  1.00  0.00    -0.354 N 
ATOM     64  N   UNL A   1      44.080  26.801  30.456  1.00  0.00    -0.248 NA
ATOM     65  C   UNL A   1      44.972  25.058  29.183  1.00  0.00     0.031 C 
ATOM     66  C   UNL A   1      46.104  28.617  33.967  1.00  0.00     0.029 A 
ATOM     67  C   UNL A   1      45.488  28.032  32.872  1.00  0.00     0.049 A 
ATOM     68  H   UNL A   1      43.692  28.574  31.910  1.00  0.00     0.167 HD
ATOM     69  C   UNL A   1      45.285  26.397  31.020  1.00  0.00     0.074 A 
ATOM     70  C   UNL A   1      45.772  25.295  30.216  1.00  0.00     0.031 C 
ATOM     71  C   UNL A   1      45.935  26.904  32.095  1.00  0.00     0.034 A 
BRANCH  58  72
ATOM     72  C   UNL A   1      43.207  31.815  34.651  1.00  0.00     0.023 A 
ATOM     73  C   UNL A   1      43.788  33.059  34.328  1.00  0.00     0.012 A 
ATOM     74  C   UNL A   1      42.601  31.640  35.909  1.00  0.00     0.148 A 
ATOM     75  C   UNL A   1      43.782  34.104  35.249  1.00  0.00     0.002 A 
ATOM     76  C   UNL A   1      42.556  32.702  36.804  1.00  0.00     0.091 A 
ATOM     77  F   UNL A   1      42.075  30.442  36.203  1.00  0.00    -0.205 F 
ATOM     78  C   UNL A   1      43.155  33.931  36.479  1.00  0.00     0.022 A 
BRANCH  76  79
ATOM     79  S   UNL A   1      41.692  32.611  38.376  1.00  0.00     0.127 S 
ATOM     80  O   UNL A   1      40.343  32.237  37.950  1.00  0.00    -0.237 OA
ATOM     81  O   UNL A   1      42.428  31.552  39.068  1.00  0.00    -0.237 OA
ATOM     82  O   UNL A   1      41.809  33.931  38.979  1.00  0.00    -0.744 OA
ENDBRANCH  76  79
ENDBRANCH  58  72
BRANCH  59  83
ATOM     83  C   UNL A   1      42.652  24.994  27.361  1.00  0.00     0.023 A 
ATOM     84  C   UNL A   1      43.244  25.301  26.121  1.00  0.00     0.012 A 
ATOM     85  C   UNL A   1      42.069  23.725  27.547  1.00  0.00     0.148 A 
ATOM     86  C   UNL A   1      43.240  24.372  25.080  1.00  0.00     0.002 A 
ATOM     87  C   UNL A   1      42.120  22.783  26.527  1.00  0.00     0.091 A 
ATOM     88  F   UNL A   1      41.501  23.456  28.732  1.00  0.00    -0.205 F 
ATOM     89  C   UNL A   1      42.691  23.109  25.287  1.00  0.00     0.022 A 
BRANCH  87  90
ATOM     90  S   UNL A   1      41.573  21.086  26.753  1.00  0.00     0.127 S 
ATOM     91  O   UNL A   1      40.122  21.246  26.822  1.00  0.00    -0.237 OA
ATOM     92  O   UNL A   1      42.066  20.447  25.533  1.00  0.00    -0.237 OA
ATOM     93  O   UNL A   1      42.216  20.622  27.974  1.00  0.00    -0.744 OA
ENDBRANCH  87  90
ENDBRANCH  59  83
BRANCH  71  94
ATOM     94  C   UNL A   1      47.239  26.270  32.502  1.00  0.00     0.023 A 
ATOM     95  C   UNL A   1      47.248  25.259  33.481  1.00  0.00     0.012 A 
ATOM     96  C   UNL A   1      48.432  26.586  31.819  1.00  0.00     0.148 A 
ATOM     97  C   UNL A   1      48.428  24.583  33.788  1.00  0.00     0.002 A 
ATOM     98  C   UNL A   1      49.591  25.871  32.093  1.00  0.00     0.091 A 
ATOM     99  F   UNL A   1      48.402  27.563  30.900  1.00  0.00    -0.205 F 
ATOM    100  C   UNL A   1      49.593  24.877  33.083  1.00  0.00     0.022 A 
BRANCH  98 101
ATOM    101  S   UNL A   1      51.111  26.105  31.163  1.00  0.00     0.127 S 
ATOM    102  O   UNL A   1      51.975  25.079  31.746  1.00  0.00    -0.237 OA
ATOM    103  O   UNL A   1      50.680  25.833  29.792  1.00  0.00    -0.237 OA
ATOM    104  O   UNL A   1      51.526  27.480  31.407  1.00  0.00    -0.744 OA
ENDBRANCH  98 101
ENDBRANCH  71  94
ENDBRANCH  45  46
ENDBRANCH  37  40
ENDBRANCH  35  36
ENDBRANCH  34  35
ENDBRANCH   1  34
TORSDOF 20
ENDMDL
MODEL 3
REMARK VINA RESULT:     -11.0      1.873      2.325
REMARK SMILES CC(C)[C@@H](NC(=O)/C(=C\c1ccccc1F)NC(=O)c1ccccc1)C(=O)NCCCCNC(=O)c1ccc(-c2c3nc(c(-c4cccc(S(=O)(=O)[O-])c4F)c4ccc([nH]4)c(-c4cccc(S(=O)(=O)[O-])c4F)c4nc(c(-c5cccc(S(=O)(=O)[O-])c5F)c5ccc2[nH]5)C=C4)C=C3)cc1
REMARK SMILES IDX 30 1 29 2 28 3 26 4 27 5 4 7 2 8 1 9 3 10 5 11 6 12 7 14
REMARK SMILES IDX 8 15 9 16 17 17 18 18 19 20 20 21 21 22 25 23 22 24 24 25
REMARK SMILES IDX 23 26 10 27 11 28 15 29 12 30 14 31 16 32 13 33 31 34 32 35
REMARK SMILES IDX 33 36 34 37 35 39 36 40 37 41 98 42 38 43 97 44 39 45 40 46
REMARK SMILES IDX 41 47 91 48 42 49 96 50 90 51 92 52 43 53 95 54 89 55 88 56
REMARK SMILES IDX 44 58 76 59 56 60 75 61 57 62 60 63 74 64 93 65 58 66 59 67
REMARK SMILES IDX 73 69 94 70 61 71 45 72 46 73 54 74 47 75 49 76 55 77 48 78
REMARK SMILES IDX 50 79 51 80 52 81 53 82 77 83 78 84 86 85 79 86 81 87 87 88
REMARK SMILES IDX 80 89 82 90 83 91 84 92 85 93 62 94 63 95 71 96 64 97 66 98
REMARK SMILES IDX 72 99 65 100 67 101 68 102 69 103 70 104
REMARK H PARENT 28 6 5 13 17 19 33 38 92 57 60 68
REMARK Flexibility Score: inf
ROOT
ATOM      1  C   UNL A   1      31.632  28.519  26.818  1.00  0.00     0.023 C 
ENDROOT
BRANCH   1   2
ATOM      2  C   UNL A   1      31.911  27.140  26.232  1.00  0.00     0.116 C 
BRANCH   2   3
ATOM      3  N   UNL A   1      30.648  26.478  26.027  1.00  0.00    -0.354 N 
ATOM      4  C   UNL A   1      30.467  25.393  25.230  1.00  0.00     0.242 C 
ATOM      5  O   UNL A   1      29.553  25.436  24.405  1.00  0.00    -0.273 OA
ATOM      6  H   UNL A   1      29.861  26.838  26.495  1.00  0.00     0.163 HD
BRANCH   4   7
ATOM      7  C   UNL A   1      31.480  24.245  25.245  1.00  0.00     0.174 C 
BRANCH   7   8
ATOM      8  C   UNL A   1      31.392  23.485  26.617  1.00  0.00     0.015 C 
ATOM      9  C   UNL A   1      30.175  22.557  26.686  1.00  0.00     0.010 C 
ATOM     10  C   UNL A   1      32.643  22.643  26.930  1.00  0.00     0.010 C 
ENDBRANCH   7   8
BRANCH   7  11
ATOM     11  N   UNL A   1      31.373  23.331  24.082  1.00  0.00    -0.339 N 
ATOM     12  C   UNL A   1      32.409  22.793  23.344  1.00  0.00     0.268 C 
ATOM     13  H   UNL A   1      30.463  23.079  23.805  1.00  0.00     0.164 HD
ATOM     14  O   UNL A   1      32.451  21.568  23.217  1.00  0.00    -0.268 OA
BRANCH  12  15
ATOM     15  C   UNL A   1      33.306  23.664  22.493  1.00  0.00     0.107 C 
ATOM     16  C   UNL A   1      34.616  23.886  22.749  1.00  0.00     0.043 C 
BRANCH  15  17
ATOM     17  N   UNL A   1      32.837  24.226  21.309  1.00  0.00    -0.317 N 
ATOM     18  C   UNL A   1      32.443  25.472  20.896  1.00  0.00     0.255 C 
ATOM     19  H   UNL A   1      32.772  23.561  20.586  1.00  0.00     0.170 HD
ATOM     20  O   UNL A   1      32.036  25.614  19.742  1.00  0.00    -0.269 OA
BRANCH  18  21
ATOM     21  C   UNL A   1      32.463  26.654  21.758  1.00  0.00     0.040 A 
ATOM     22  C   UNL A   1      31.246  27.240  22.117  1.00  0.00     0.014 A 
ATOM     23  C   UNL A   1      33.673  27.262  22.092  1.00  0.00     0.014 A 
ATOM     24  C   UNL A   1      31.246  28.404  22.882  1.00  0.00     0.001 A 
ATOM     25  C   UNL A   1      33.668  28.420  22.866  1.00  0.00     0.001 A 
ATOM     26  C   UNL A   1      32.455  28.985  23.268  1.00  0.00     0.000 A 
ENDBRANCH  18  21
ENDBRANCH  15  17
BRANCH  16  27
ATOM     27  C   UNL A   1      35.457  23.516  23.891  1.00  0.00     0.012 A 
ATOM     28  C   UNL A   1      36.292  22.395  23.733  1.00  0.00     0.011 A 
ATOM     29  C   UNL A   1      35.515  24.219  25.092  1.00  0.00     0.130 A 
ATOM     30  C   UNL A   1      37.262  22.089  24.690  1.00  0.00     0.001 A 
ATOM     31  C   UNL A   1      36.471  23.909  26.058  1.00  0.00     0.040 A 
ATOM     32  F   UNL A   1      34.674  25.233  25.330  1.00  0.00    -0.206 F 
ATOM     33  C   UNL A   1      37.371  22.867  25.840  1.00  0.00     0.003 A 
ENDBRANCH  16  27
ENDBRANCH  12  15
ENDBRANCH   7  11
ENDBRANCH   4   7
ENDBRANCH   2   3
ENDBRANCH   1   2
BRANCH   1  34
ATOM     34  C   UNL A   1      32.839  29.083  27.572  1.00  0.00     0.023 C 
BRANCH  34  35
ATOM     35  C   UNL A   1      33.798  29.865  26.682  1.00  0.00     0.116 C 
BRANCH  35  36
ATOM     36  N   UNL A   1      33.599  31.303  26.821  1.00  0.00    -0.352 N 
ATOM     37  C   UNL A   1      34.183  32.162  27.713  1.00  0.00     0.251 C 
ATOM     38  H   UNL A   1      32.961  31.708  26.191  1.00  0.00     0.163 HD
ATOM     39  O   UNL A   1      33.724  33.282  27.891  1.00  0.00    -0.269 OA
BRANCH  37  40
ATOM     40  C   UNL A   1      35.367  31.697  28.456  1.00  0.00     0.039 A 
ATOM     41  C   UNL A   1      35.226  30.674  29.392  1.00  0.00     0.014 A 
ATOM     42  C   UNL A   1      36.620  32.251  28.175  1.00  0.00     0.014 A 
ATOM     43  C   UNL A   1      36.363  30.170  30.019  1.00  0.00     0.010 A 
ATOM     44  C   UNL A   1      37.756  31.690  28.739  1.00  0.00     0.010 A 
ATOM     45  C   UNL A   1      37.637  30.653  29.675  1.00  0.00    -0.014 A 
BRANCH  45  46
ATOM     46  C   UNL A   1      38.863  30.087  30.285  1.00  0.00     0.031 A 
ATOM     47  C   UNL A   1      39.361  30.617  31.599  1.00  0.00     0.074 A 
ATOM     48  C   UNL A   1      39.568  29.157  29.612  1.00  0.00     0.049 A 
ATOM     49  N   UNL A   1      40.437  30.286  32.261  1.00  0.00    -0.248 NA
ATOM     50  C   UNL A   1      38.563  31.676  32.243  1.00  0.00     0.031 C 
ATOM     51  C   UNL A   1      39.224  28.629  28.290  1.00  0.00     0.029 A 
ATOM     52  N   UNL A   1      40.733  28.509  29.934  1.00  0.00    -0.354 N 
ATOM     53  C   UNL A   1      40.466  31.115  33.374  1.00  0.00     0.074 A 
ATOM     54  C   UNL A   1      39.320  31.991  33.285  1.00  0.00     0.031 C 
ATOM     55  C   UNL A   1      40.150  27.730  27.920  1.00  0.00     0.029 A 
ATOM     56  C   UNL A   1      41.170  27.643  28.960  1.00  0.00     0.049 A 
ATOM     57  H   UNL A   1      41.210  28.650  30.785  1.00  0.00     0.167 HD
ATOM     58  C   UNL A   1      41.352  31.124  34.397  1.00  0.00     0.034 A 
ATOM     59  C   UNL A   1      42.272  26.868  28.907  1.00  0.00     0.034 A 
ATOM     60  C   UNL A   1      42.457  30.212  34.506  1.00  0.00     0.049 A 
ATOM     61  C   UNL A   1      43.214  26.861  30.081  1.00  0.00     0.074 A 
ATOM     62  C   UNL A   1      43.353  30.075  35.550  1.00  0.00     0.029 A 
ATOM     63  N   UNL A   1      42.823  29.290  33.538  1.00  0.00    -0.354 N 
ATOM     64  N   UNL A   1      43.138  27.540  31.199  1.00  0.00    -0.248 NA
ATOM     65  C   UNL A   1      44.371  25.957  30.004  1.00  0.00     0.031 C 
ATOM     66  C   UNL A   1      44.278  29.087  35.203  1.00  0.00     0.029 A 
ATOM     67  C   UNL A   1      43.939  28.586  33.956  1.00  0.00     0.049 A 
ATOM     68  H   UNL A   1      42.358  29.154  32.681  1.00  0.00     0.167 HD
ATOM     69  C   UNL A   1      44.218  27.127  31.972  1.00  0.00     0.074 A 
ATOM     70  C   UNL A   1      44.922  26.123  31.201  1.00  0.00     0.031 C 
ATOM     71  C   UNL A   1      44.599  27.553  33.201  1.00  0.00     0.034 A 
BRANCH  58  72
ATOM     72  C   UNL A   1      41.134  32.104  35.519  1.00  0.00     0.023 A 
ATOM     73  C   UNL A   1      42.004  33.205  35.656  1.00  0.00     0.012 A 
ATOM     74  C   UNL A   1      40.015  31.995  36.366  1.00  0.00     0.148 A 
ATOM     75  C   UNL A   1      41.775  34.171  36.633  1.00  0.00     0.002 A 
ATOM     76  C   UNL A   1      39.766  32.988  37.306  1.00  0.00     0.091 A 
ATOM     77  F   UNL A   1      39.213  30.929  36.232  1.00  0.00    -0.205 F 
ATOM     78  C   UNL A   1      40.650  34.071  37.447  1.00  0.00     0.022 A 
BRANCH  76  79
ATOM     79  S   UNL A   1      38.296  33.001  38.338  1.00  0.00     0.127 S 
ATOM     80  O   UNL A   1      38.659  33.988  39.355  1.00  0.00    -0.237 OA
ATOM     81  O   UNL A   1      37.267  33.447  37.398  1.00  0.00    -0.237 OA
ATOM     82  O   UNL A   1      38.131  31.640  38.824  1.00  0.00    -0.744 OA
ENDBRANCH  76  79
ENDBRANCH  58  72
BRANCH  59  83
ATOM     83  C   UNL A   1      42.492  25.985  27.729  1.00  0.00     0.023 A 
ATOM     84  C   UNL A   1      43.251  26.458  26.641  1.00  0.00     0.012 A 
ATOM     85  C   UNL A   1      42.018  24.658  27.709  1.00  0.00     0.148 A 
ATOM     86  C   UNL A   1      43.516  25.634  25.546  1.00  0.00     0.002 A 
ATOM     87  C   UNL A   1      42.335  23.824  26.643  1.00  0.00     0.091 A 
ATOM     88  F   UNL A   1      41.290  24.230  28.751  1.00  0.00    -0.205 F 
ATOM     89  C   UNL A   1      43.070  24.315  25.553  1.00  0.00     0.022 A 
BRANCH  87  90
ATOM     90  S   UNL A   1      41.933  22.073  26.636  1.00  0.00     0.127 S 
ATOM     91  O   UNL A   1      42.543  21.631  25.385  1.00  0.00    -0.237 OA
ATOM     92  O   UNL A   1      42.604  21.606  27.849  1.00  0.00    -0.237 OA
ATOM     93  O   UNL A   1      40.479  22.001  26.690  1.00  0.00    -0.744 OA
ENDBRANCH  87  90
ENDBRANCH  59  83
BRANCH  71  94
ATOM     94  C   UNL A   1      45.821  26.930  33.822  1.00  0.00     0.023 A 
ATOM     95  C   UNL A   1      47.081  27.526  33.630  1.00  0.00     0.012 A 
ATOM     96  C   UNL A   1      45.698  25.834  34.700  1.00  0.00     0.148 A 
ATOM     97  C   UNL A   1      48.206  27.031  34.290  1.00  0.00     0.002 A 
ATOM     98  C   UNL A   1      46.812  25.380  35.393  1.00  0.00     0.091 A 
ATOM     99  F   UNL A   1      44.489  25.273  34.856  1.00  0.00    -0.205 F 
ATOM    100  C   UNL A   1      48.068  25.970  35.182  1.00  0.00     0.022 A 
BRANCH  98 101
ATOM    101  S   UNL A   1      46.713  24.091  36.643  1.00  0.00     0.127 S 
ATOM    102  O   UNL A   1      45.641  24.593  37.501  1.00  0.00    -0.237 OA
ATOM    103  O   UNL A   1      46.360  22.916  35.847  1.00  0.00    -0.237 OA
ATOM    104  O   UNL A   1      48.030  24.029  37.263  1.00  0.00    -0.744 OA
ENDBRANCH  98 101
ENDBRANCH  71  94
ENDBRANCH  45  46
ENDBRANCH  37  40
ENDBRANCH  35  36
ENDBRANCH  34  35
ENDBRANCH   1  34
TORSDOF 20
ENDMDL
