MODEL 1
REMARK VINA RESULT:     -11.3      0.000      0.000
REMARK SMILES CCOC(=O)c1cnc(S[C@H](CC)C(=O)NCCCCNC(=O)c2ccc(-c3c4nc(c(-c5cccc(S(=O)(=O)[O-])c5F)c5ccc([nH]5)c(-c5cccc(S(=O)(=O)[O-])c5F)c5nc(c(-c6cccc(S(=O)(=O)[O-])c6F)c6ccc3[nH]6)C=C5)C=C4)cc2)nc1N
REMARK SMILES IDX 17 1 16 2 14 3 15 4 11 6 10 7 9 8 6 9 7 10 88 11 8 12 87 13
REMARK SMILES IDX 4 14 5 15 3 16 2 17 1 18 89 19 12 22 13 23 18 24 19 25 20 26
REMARK SMILES IDX 21 27 22 28 23 30 24 31 25 32 86 33 26 34 85 35 27 36 28 37
REMARK SMILES IDX 29 38 79 39 30 40 84 41 78 42 80 43 31 44 83 45 77 46 76 47
REMARK SMILES IDX 32 49 64 50 44 51 63 52 45 53 48 54 62 55 81 56 46 57 47 58
REMARK SMILES IDX 61 60 82 61 49 62 33 63 34 64 42 65 35 66 37 67 43 68 36 69
REMARK SMILES IDX 38 70 39 71 40 72 41 73 65 74 66 75 74 76 67 77 69 78 75 79
REMARK SMILES IDX 68 80 70 81 71 82 72 83 73 84 50 85 51 86 59 87 52 88 54 89
REMARK SMILES IDX 60 90 53 91 55 92 56 93 57 94 58 95
REMARK H PARENT 16 5 89 20 89 21 21 29 80 48 48 59
REMARK Flexibility Score: inf
ROOT
ATOM      1  C   UNL A   1      34.230  22.703  23.946  1.00  0.00     0.116 C 
ENDROOT
BRANCH   1   2
ATOM      2  N   UNL A   1      32.820  22.664  23.595  1.00  0.00    -0.355 N 
ATOM      3  C   UNL A   1      31.797  23.512  23.930  1.00  0.00     0.233 C 
ATOM      4  O   UNL A   1      30.681  23.277  23.455  1.00  0.00    -0.274 OA
ATOM      5  H   UNL A   1      32.558  21.907  23.023  1.00  0.00     0.163 HD
BRANCH   3   6
ATOM      6  C   UNL A   1      32.008  24.707  24.882  1.00  0.00     0.143 C 
BRANCH   6   7
ATOM      7  S   UNL A   1      32.656  26.080  23.827  1.00  0.00    -0.073 SA
BRANCH   7   8
ATOM      8  C   UNL A   1      31.221  26.990  23.369  1.00  0.00     0.190 A 
ATOM      9  C   UNL A   1      29.153  28.644  22.874  1.00  0.00     0.120 A 
ATOM     10  C   UNL A   1      29.004  27.460  23.562  1.00  0.00     0.133 A 
ATOM     11  C   UNL A   1      30.413  28.908  22.379  1.00  0.00     0.142 A 
ATOM     12  N   UNL A   1      30.014  26.598  23.791  1.00  0.00    -0.230 NA
ATOM     13  N   UNL A   1      31.451  28.099  22.641  1.00  0.00    -0.205 NA
BRANCH   9  14
ATOM     14  C   UNL A   1      28.030  29.572  22.822  1.00  0.00     0.343 C 
ATOM     15  O   UNL A   1      26.886  29.232  23.107  1.00  0.00    -0.246 OA
BRANCH  14  16
ATOM     16  O   UNL A   1      28.424  30.783  22.366  1.00  0.00    -0.462 OA
BRANCH  16  17
ATOM     17  C   UNL A   1      27.958  31.906  23.131  1.00  0.00     0.230 C 
ATOM     18  C   UNL A   1      28.830  33.132  22.922  1.00  0.00     0.049 C 
ENDBRANCH  16  17
ENDBRANCH  14  16
ENDBRANCH   9  14
BRANCH  11  19
ATOM     19  N   UNL A   1      30.739  30.055  21.677  1.00  0.00    -0.383 N 
ATOM     20  H   UNL A   1      31.504  30.605  21.962  1.00  0.00     0.158 HD
ATOM     21  H   UNL A   1      30.205  30.320  20.894  1.00  0.00     0.158 HD
ENDBRANCH  11  19
ENDBRANCH   7   8
ENDBRANCH   6   7
BRANCH   6  22
ATOM     22  C   UNL A   1      32.816  24.236  26.108  1.00  0.00     0.021 C 
ATOM     23  C   UNL A   1      32.105  23.291  27.063  1.00  0.00     0.005 C 
ENDBRANCH   6  22
ENDBRANCH   3   6
ENDBRANCH   1   2
BRANCH   1  24
ATOM     24  C   UNL A   1      34.694  21.406  24.607  1.00  0.00     0.023 C 
BRANCH  24  25
ATOM     25  C   UNL A   1      35.434  21.594  25.933  1.00  0.00     0.023 C 
BRANCH  25  26
ATOM     26  C   UNL A   1      36.824  22.220  25.826  1.00  0.00     0.116 C 
BRANCH  26  27
ATOM     27  N   UNL A   1      37.904  21.251  25.908  1.00  0.00    -0.352 N 
ATOM     28  C   UNL A   1      39.217  21.442  26.262  1.00  0.00     0.251 C 
ATOM     29  H   UNL A   1      37.660  20.326  25.675  1.00  0.00     0.163 HD
ATOM     30  O   UNL A   1      40.010  20.508  26.172  1.00  0.00    -0.269 OA
BRANCH  28  31
ATOM     31  C   UNL A   1      39.687  22.771  26.718  1.00  0.00     0.039 A 
ATOM     32  C   UNL A   1      40.626  22.827  27.752  1.00  0.00     0.014 A 
ATOM     33  C   UNL A   1      39.210  23.952  26.145  1.00  0.00     0.014 A 
ATOM     34  C   UNL A   1      41.123  24.062  28.174  1.00  0.00     0.010 A 
ATOM     35  C   UNL A   1      39.757  25.179  26.519  1.00  0.00     0.010 A 
ATOM     36  C   UNL A   1      40.713  25.248  27.542  1.00  0.00    -0.014 A 
BRANCH  36  37
ATOM     37  C   UNL A   1      41.300  26.556  27.933  1.00  0.00     0.031 A 
ATOM     38  C   UNL A   1      42.738  26.877  27.629  1.00  0.00     0.074 A 
ATOM     39  C   UNL A   1      40.548  27.435  28.622  1.00  0.00     0.049 A 
ATOM     40  N   UNL A   1      43.401  27.981  27.864  1.00  0.00    -0.248 NA
ATOM     41  C   UNL A   1      43.546  25.817  27.005  1.00  0.00     0.031 C 
ATOM     42  C   UNL A   1      39.175  27.200  29.076  1.00  0.00     0.029 A 
ATOM     43  N   UNL A   1      40.835  28.697  29.080  1.00  0.00    -0.354 N 
ATOM     44  C   UNL A   1      44.704  27.740  27.448  1.00  0.00     0.074 A 
ATOM     45  C   UNL A   1      44.750  26.372  26.978  1.00  0.00     0.031 C 
ATOM     46  C   UNL A   1      38.736  28.285  29.734  1.00  0.00     0.029 A 
ATOM     47  C   UNL A   1      39.796  29.289  29.758  1.00  0.00     0.049 A 
ATOM     48  H   UNL A   1      41.704  29.137  28.936  1.00  0.00     0.167 HD
ATOM     49  C   UNL A   1      45.760  28.589  27.425  1.00  0.00     0.034 A 
ATOM     50  C   UNL A   1      39.700  30.508  30.323  1.00  0.00     0.034 A 
ATOM     51  C   UNL A   1      45.699  29.964  27.842  1.00  0.00     0.049 A 
ATOM     52  C   UNL A   1      40.856  31.463  30.197  1.00  0.00     0.074 A 
ATOM     53  C   UNL A   1      46.683  30.934  27.762  1.00  0.00     0.029 A 
ATOM     54  N   UNL A   1      44.593  30.566  28.422  1.00  0.00    -0.354 N 
ATOM     55  N   UNL A   1      42.019  31.280  29.622  1.00  0.00    -0.248 NA
ATOM     56  C   UNL A   1      40.667  32.810  30.756  1.00  0.00     0.031 C 
ATOM     57  C   UNL A   1      46.173  32.121  28.302  1.00  0.00     0.029 A 
ATOM     58  C   UNL A   1      44.869  31.893  28.707  1.00  0.00     0.049 A 
ATOM     59  H   UNL A   1      43.736  30.116  28.605  1.00  0.00     0.167 HD
ATOM     60  C   UNL A   1      42.689  32.493  29.722  1.00  0.00     0.074 A 
ATOM     61  C   UNL A   1      41.789  33.414  30.384  1.00  0.00     0.031 C 
ATOM     62  C   UNL A   1      43.945  32.813  29.320  1.00  0.00     0.034 A 
BRANCH  49  63
ATOM     63  C   UNL A   1      47.058  28.075  26.859  1.00  0.00     0.023 A 
ATOM     64  C   UNL A   1      48.067  27.632  27.741  1.00  0.00     0.012 A 
ATOM     65  C   UNL A   1      47.261  27.969  25.469  1.00  0.00     0.148 A 
ATOM     66  C   UNL A   1      49.268  27.122  27.249  1.00  0.00     0.002 A 
ATOM     67  C   UNL A   1      48.445  27.422  24.987  1.00  0.00     0.091 A 
ATOM     68  F   UNL A   1      46.301  28.415  24.646  1.00  0.00    -0.205 F 
ATOM     69  C   UNL A   1      49.453  27.008  25.875  1.00  0.00     0.022 A 
BRANCH  67  70
ATOM     70  S   UNL A   1      48.749  27.162  23.236  1.00  0.00     0.127 S 
ATOM     71  O   UNL A   1      50.210  27.169  23.184  1.00  0.00    -0.237 OA
ATOM     72  O   UNL A   1      48.138  25.852  23.006  1.00  0.00    -0.237 OA
ATOM     73  O   UNL A   1      48.092  28.265  22.548  1.00  0.00    -0.744 OA
ENDBRANCH  67  70
ENDBRANCH  49  63
BRANCH  50  74
ATOM     74  C   UNL A   1      38.424  30.929  30.967  1.00  0.00     0.023 A 
ATOM     75  C   UNL A   1      38.227  30.673  32.338  1.00  0.00     0.012 A 
ATOM     76  C   UNL A   1      37.425  31.609  30.244  1.00  0.00     0.148 A 
ATOM     77  C   UNL A   1      37.045  31.059  32.972  1.00  0.00     0.002 A 
ATOM     78  C   UNL A   1      36.274  32.039  30.894  1.00  0.00     0.091 A 
ATOM     79  F   UNL A   1      37.624  31.830  28.937  1.00  0.00    -0.205 F 
ATOM     80  C   UNL A   1      36.075  31.750  32.253  1.00  0.00     0.022 A 
BRANCH  78  81
ATOM     81  S   UNL A   1      35.037  33.053  30.076  1.00  0.00     0.127 S 
ATOM     82  O   UNL A   1      34.273  33.567  31.209  1.00  0.00    -0.237 OA
ATOM     83  O   UNL A   1      35.862  34.047  29.387  1.00  0.00    -0.237 OA
ATOM     84  O   UNL A   1      34.326  32.148  29.182  1.00  0.00    -0.744 OA
ENDBRANCH  78  81
ENDBRANCH  50  74
BRANCH  62  85
ATOM     85  C   UNL A   1      44.416  34.220  29.572  1.00  0.00     0.023 A 
ATOM     86  C   UNL A   1      44.978  34.552  30.822  1.00  0.00     0.012 A 
ATOM     87  C   UNL A   1      44.352  35.200  28.562  1.00  0.00     0.148 A 
ATOM     88  C   UNL A   1      45.431  35.847  31.074  1.00  0.00     0.002 A 
ATOM     89  C   UNL A   1      44.847  36.477  28.807  1.00  0.00     0.091 A 
ATOM     90  F   UNL A   1      43.794  34.876  27.386  1.00  0.00    -0.205 F 
ATOM     91  C   UNL A   1      45.375  36.805  30.065  1.00  0.00     0.022 A 
BRANCH  89  92
ATOM     92  S   UNL A   1      44.893  37.736  27.527  1.00  0.00     0.127 S 
ATOM     93  O   UNL A   1      45.432  38.884  28.253  1.00  0.00    -0.237 OA
ATOM     94  O   UNL A   1      45.806  37.154  26.541  1.00  0.00    -0.237 OA
ATOM     95  O   UNL A   1      43.519  37.868  27.061  1.00  0.00    -0.744 OA
ENDBRANCH  89  92
ENDBRANCH  62  85
ENDBRANCH  36  37
ENDBRANCH  28  31
ENDBRANCH  26  27
ENDBRANCH  25  26
ENDBRANCH  24  25
ENDBRANCH   1  24
TORSDOF 21
ENDMDL
MODEL 2
REMARK VINA RESULT:     -10.9      2.334      2.679
REMARK SMILES CCOC(=O)c1cnc(S[C@H](CC)C(=O)NCCCCNC(=O)c2ccc(-c3c4nc(c(-c5cccc(S(=O)(=O)[O-])c5F)c5ccc([nH]5)c(-c5cccc(S(=O)(=O)[O-])c5F)c5nc(c(-c6cccc(S(=O)(=O)[O-])c6F)c6ccc3[nH]6)C=C5)C=C4)cc2)nc1N
REMARK SMILES IDX 17 1 16 2 14 3 15 4 11 6 10 7 9 8 6 9 7 10 88 11 8 12 87 13
REMARK SMILES IDX 4 14 5 15 3 16 2 17 1 18 89 19 12 22 13 23 18 24 19 25 20 26
REMARK SMILES IDX 21 27 22 28 23 30 24 31 25 32 86 33 26 34 85 35 27 36 28 37
REMARK SMILES IDX 29 38 79 39 30 40 84 41 78 42 80 43 31 44 83 45 77 46 76 47
REMARK SMILES IDX 32 49 64 50 44 51 63 52 45 53 48 54 62 55 81 56 46 57 47 58
REMARK SMILES IDX 61 60 82 61 49 62 33 63 34 64 42 65 35 66 37 67 43 68 36 69
REMARK SMILES IDX 38 70 39 71 40 72 41 73 65 74 66 75 74 76 67 77 69 78 75 79
REMARK SMILES IDX 68 80 70 81 71 82 72 83 73 84 50 85 51 86 59 87 52 88 54 89
REMARK SMILES IDX 60 90 53 91 55 92 56 93 57 94 58 95
REMARK H PARENT 16 5 89 20 89 21 21 29 80 48 48 59
REMARK Flexibility Score: inf
ROOT
ATOM      1  C   UNL A   1      34.338  24.006  25.537  1.00  0.00     0.116 C 
ENDROOT
BRANCH   1   2
ATOM      2  N   UNL A   1      34.451  25.318  24.922  1.00  0.00    -0.355 N 
ATOM      3  C   UNL A   1      33.487  26.147  24.413  1.00  0.00     0.233 C 
ATOM      4  O   UNL A   1      33.848  27.248  23.983  1.00  0.00    -0.274 OA
ATOM      5  H   UNL A   1      35.370  25.668  24.862  1.00  0.00     0.163 HD
BRANCH   3   6
ATOM      6  C   UNL A   1      32.002  25.730  24.353  1.00  0.00     0.143 C 
BRANCH   6   7
ATOM      7  S   UNL A   1      31.381  26.324  22.716  1.00  0.00    -0.073 SA
BRANCH   7   8
ATOM      8  C   UNL A   1      30.418  27.744  23.107  1.00  0.00     0.190 A 
ATOM      9  C   UNL A   1      28.837  29.910  23.365  1.00  0.00     0.120 A 
ATOM     10  C   UNL A   1      30.207  29.978  23.479  1.00  0.00     0.133 A 
ATOM     11  C   UNL A   1      28.301  28.652  23.186  1.00  0.00     0.142 A 
ATOM     12  N   UNL A   1      31.018  28.905  23.390  1.00  0.00    -0.230 NA
ATOM     13  N   UNL A   1      29.085  27.573  23.035  1.00  0.00    -0.205 NA
BRANCH   9  14
ATOM     14  C   UNL A   1      28.074  31.150  23.319  1.00  0.00     0.343 C 
ATOM     15  O   UNL A   1      26.939  31.239  23.779  1.00  0.00    -0.246 OA
BRANCH  14  16
ATOM     16  O   UNL A   1      28.755  32.116  22.662  1.00  0.00    -0.462 OA
BRANCH  16  17
ATOM     17  C   UNL A   1      28.009  32.813  21.652  1.00  0.00     0.230 C 
ATOM     18  C   UNL A   1      28.029  32.077  20.324  1.00  0.00     0.049 C 
ENDBRANCH  16  17
ENDBRANCH  14  16
ENDBRANCH   9  14
BRANCH  11  19
ATOM     19  N   UNL A   1      26.947  28.406  23.041  1.00  0.00    -0.383 N 
ATOM     20  H   UNL A   1      26.293  28.936  23.551  1.00  0.00     0.158 HD
ATOM     21  H   UNL A   1      26.639  27.700  22.428  1.00  0.00     0.158 HD
ENDBRANCH  11  19
ENDBRANCH   7   8
ENDBRANCH   6   7
BRANCH   6  22
ATOM     22  C   UNL A   1      31.301  26.184  25.650  1.00  0.00     0.021 C 
ATOM     23  C   UNL A   1      30.030  25.439  26.025  1.00  0.00     0.005 C 
ENDBRANCH   6  22
ENDBRANCH   3   6
ENDBRANCH   1   2
BRANCH   1  24
ATOM     24  C   UNL A   1      34.978  22.913  24.683  1.00  0.00     0.023 C 
BRANCH  24  25
ATOM     25  C   UNL A   1      36.067  22.104  25.391  1.00  0.00     0.023 C 
BRANCH  25  26
ATOM     26  C   UNL A   1      37.331  22.881  25.755  1.00  0.00     0.116 C 
BRANCH  26  27
ATOM     27  N   UNL A   1      38.495  22.033  25.952  1.00  0.00    -0.352 N 
ATOM     28  C   UNL A   1      39.743  22.367  26.420  1.00  0.00     0.251 C 
ATOM     29  H   UNL A   1      38.372  21.086  25.717  1.00  0.00     0.163 HD
ATOM     30  O   UNL A   1      40.634  21.522  26.420  1.00  0.00    -0.269 OA
BRANCH  28  31
ATOM     31  C   UNL A   1      40.026  23.742  26.890  1.00  0.00     0.039 A 
ATOM     32  C   UNL A   1      40.361  23.932  28.234  1.00  0.00     0.014 A 
ATOM     33  C   UNL A   1      39.958  24.840  26.028  1.00  0.00     0.014 A 
ATOM     34  C   UNL A   1      40.678  25.210  28.698  1.00  0.00     0.010 A 
ATOM     35  C   UNL A   1      40.342  26.104  26.476  1.00  0.00     0.010 A 
ATOM     36  C   UNL A   1      40.698  26.304  27.816  1.00  0.00    -0.014 A 
BRANCH  36  37
ATOM     37  C   UNL A   1      41.113  27.650  28.289  1.00  0.00     0.031 A 
ATOM     38  C   UNL A   1      42.563  28.056  28.284  1.00  0.00     0.074 A 
ATOM     39  C   UNL A   1      40.184  28.489  28.785  1.00  0.00     0.049 A 
ATOM     40  N   UNL A   1      43.096  29.201  28.625  1.00  0.00    -0.248 NA
ATOM     41  C   UNL A   1      43.543  27.040  27.868  1.00  0.00     0.031 C 
ATOM     42  C   UNL A   1      38.762  28.175  28.949  1.00  0.00     0.029 A 
ATOM     43  N   UNL A   1      40.296  29.771  29.261  1.00  0.00    -0.354 N 
ATOM     44  C   UNL A   1      44.469  29.036  28.496  1.00  0.00     0.074 A 
ATOM     45  C   UNL A   1      44.691  27.667  28.079  1.00  0.00     0.031 C 
ATOM     46  C   UNL A   1      38.134  29.239  29.474  1.00  0.00     0.029 A 
ATOM     47  C   UNL A   1      39.105  30.307  29.694  1.00  0.00     0.049 A 
ATOM     48  H   UNL A   1      41.149  30.262  29.290  1.00  0.00     0.167 HD
ATOM     49  C   UNL A   1      45.456  29.948  28.672  1.00  0.00     0.034 A 
ATOM     50  C   UNL A   1      38.823  31.524  30.196  1.00  0.00     0.034 A 
ATOM     51  C   UNL A   1      45.229  31.321  29.033  1.00  0.00     0.049 A 
ATOM     52  C   UNL A   1      39.922  32.547  30.291  1.00  0.00     0.074 A 
ATOM     53  C   UNL A   1      46.151  32.349  29.136  1.00  0.00     0.029 A 
ATOM     54  N   UNL A   1      43.994  31.861  29.355  1.00  0.00    -0.354 N 
ATOM     55  N   UNL A   1      41.189  32.429  29.975  1.00  0.00    -0.248 NA
ATOM     56  C   UNL A   1      39.543  33.886  30.764  1.00  0.00     0.031 C 
ATOM     57  C   UNL A   1      45.471  33.508  29.529  1.00  0.00     0.029 A 
ATOM     58  C   UNL A   1      44.126  33.205  29.659  1.00  0.00     0.049 A 
ATOM     59  H   UNL A   1      43.145  31.361  29.367  1.00  0.00     0.167 HD
ATOM     60  C   UNL A   1      41.752  33.682  30.182  1.00  0.00     0.074 A 
ATOM     61  C   UNL A   1      40.681  34.554  30.620  1.00  0.00     0.031 C 
ATOM     62  C   UNL A   1      43.043  34.074  30.044  1.00  0.00     0.034 A 
BRANCH  49  63
ATOM     63  C   UNL A   1      46.871  29.508  28.401  1.00  0.00     0.023 A 
ATOM     64  C   UNL A   1      47.414  29.687  27.112  1.00  0.00     0.012 A 
ATOM     65  C   UNL A   1      47.682  28.979  29.425  1.00  0.00     0.148 A 
ATOM     66  C   UNL A   1      48.731  29.317  26.836  1.00  0.00     0.002 A 
ATOM     67  C   UNL A   1      49.006  28.651  29.152  1.00  0.00     0.091 A 
ATOM     68  F   UNL A   1      47.143  28.795  30.638  1.00  0.00    -0.205 F 
ATOM     69  C   UNL A   1      49.528  28.810  27.857  1.00  0.00     0.022 A 
BRANCH  67  70
ATOM     70  S   UNL A   1      50.137  28.060  30.417  1.00  0.00     0.127 S 
ATOM     71  O   UNL A   1      49.537  26.776  30.774  1.00  0.00    -0.237 OA
ATOM     72  O   UNL A   1      51.398  27.959  29.681  1.00  0.00    -0.237 OA
ATOM     73  O   UNL A   1      50.127  29.071  31.465  1.00  0.00    -0.744 OA
ENDBRANCH  67  70
ENDBRANCH  49  63
BRANCH  50  74
ATOM     74  C   UNL A   1      37.418  31.872  30.549  1.00  0.00     0.023 A 
ATOM     75  C   UNL A   1      36.942  31.586  31.843  1.00  0.00     0.012 A 
ATOM     76  C   UNL A   1      36.567  32.515  29.630  1.00  0.00     0.148 A 
ATOM     77  C   UNL A   1      35.633  31.905  32.207  1.00  0.00     0.002 A 
ATOM     78  C   UNL A   1      35.282  32.879  30.017  1.00  0.00     0.091 A 
ATOM     79  F   UNL A   1      37.032  32.766  28.399  1.00  0.00    -0.205 F 
ATOM     80  C   UNL A   1      34.807  32.560  31.299  1.00  0.00     0.022 A 
BRANCH  78  81
ATOM     81  S   UNL A   1      34.202  33.845  28.955  1.00  0.00     0.127 S 
ATOM     82  O   UNL A   1      33.230  34.368  29.911  1.00  0.00    -0.237 OA
ATOM     83  O   UNL A   1      35.124  34.841  28.405  1.00  0.00    -0.237 OA
ATOM     84  O   UNL A   1      33.687  32.904  27.968  1.00  0.00    -0.744 OA
ENDBRANCH  78  81
ENDBRANCH  50  74
BRANCH  62  85
ATOM     85  C   UNL A   1      43.369  35.510  30.354  1.00  0.00     0.023 A 
ATOM     86  C   UNL A   1      43.792  35.863  31.651  1.00  0.00     0.012 A 
ATOM     87  C   UNL A   1      43.308  36.502  29.355  1.00  0.00     0.148 A 
ATOM     88  C   UNL A   1      44.109  37.186  31.959  1.00  0.00     0.002 A 
ATOM     89  C   UNL A   1      43.669  37.810  29.658  1.00  0.00     0.091 A 
ATOM     90  F   UNL A   1      42.882  36.155  28.130  1.00  0.00    -0.205 F 
ATOM     91  C   UNL A   1      44.057  38.157  30.961  1.00  0.00     0.022 A 
BRANCH  89  92
ATOM     92  S   UNL A   1      43.715  39.095  28.403  1.00  0.00     0.127 S 
ATOM     93  O   UNL A   1      45.024  39.700  28.640  1.00  0.00    -0.237 OA
ATOM     94  O   UNL A   1      43.615  38.328  27.159  1.00  0.00    -0.237 OA
ATOM     95  O   UNL A   1      42.564  39.945  28.673  1.00  0.00    -0.744 OA
ENDBRANCH  89  92
ENDBRANCH  62  85
ENDBRANCH  36  37
ENDBRANCH  28  31
ENDBRANCH  26  27
ENDBRANCH  25  26
ENDBRANCH  24  25
ENDBRANCH   1  24
TORSDOF 21
ENDMDL
MODEL 3
REMARK VINA RESULT:     -10.8      2.812      4.628
REMARK SMILES CCOC(=O)c1cnc(S[C@H](CC)C(=O)NCCCCNC(=O)c2ccc(-c3c4nc(c(-c5cccc(S(=O)(=O)[O-])c5F)c5ccc([nH]5)c(-c5cccc(S(=O)(=O)[O-])c5F)c5nc(c(-c6cccc(S(=O)(=O)[O-])c6F)c6ccc3[nH]6)C=C5)C=C4)cc2)nc1N
REMARK SMILES IDX 17 1 16 2 14 3 15 4 11 6 10 7 9 8 6 9 7 10 88 11 8 12 87 13
REMARK SMILES IDX 4 14 5 15 3 16 2 17 1 18 89 19 12 22 13 23 18 24 19 25 20 26
REMARK SMILES IDX 21 27 22 28 23 30 24 31 25 32 86 33 26 34 85 35 27 36 28 37
REMARK SMILES IDX 29 38 79 39 30 40 84 41 78 42 80 43 31 44 83 45 77 46 76 47
REMARK SMILES IDX 32 49 64 50 44 51 63 52 45 53 48 54 62 55 81 56 46 57 47 58
REMARK SMILES IDX 61 60 82 61 49 62 33 63 34 64 42 65 35 66 37 67 43 68 36 69
REMARK SMILES IDX 38 70 39 71 40 72 41 73 65 74 66 75 74 76 67 77 69 78 75 79
REMARK SMILES IDX 68 80 70 81 71 82 72 83 73 84 50 85 51 86 59 87 52 88 54 89
REMARK SMILES IDX 60 90 53 91 55 92 56 93 57 94 58 95
REMARK H PARENT 16 5 89 20 89 21 21 29 80 48 48 59
REMARK Flexibility Score: inf
ROOT
ATOM      1  C   UNL A   1      34.668  25.095  25.084  1.00  0.00     0.116 C 
ENDROOT
BRANCH   1   2
ATOM      2  N   UNL A   1      34.120  26.126  24.218  1.00  0.00    -0.355 N 
ATOM      3  C   UNL A   1      32.836  26.585  24.085  1.00  0.00     0.233 C 
ATOM      4  O   UNL A   1      32.640  27.517  23.298  1.00  0.00    -0.274 OA
ATOM      5  H   UNL A   1      34.778  26.566  23.633  1.00  0.00     0.163 HD
BRANCH   3   6
ATOM      6  C   UNL A   1      31.662  25.958  24.866  1.00  0.00     0.143 C 
BRANCH   6   7
ATOM      7  S   UNL A   1      30.698  24.984  23.626  1.00  0.00    -0.073 SA
BRANCH   7   8
ATOM      8  C   UNL A   1      31.294  23.339  23.808  1.00  0.00     0.190 A 
ATOM      9  C   UNL A   1      32.513  20.968  24.197  1.00  0.00     0.120 A 
ATOM     10  C   UNL A   1      32.136  21.409  22.948  1.00  0.00     0.133 A 
ATOM     11  C   UNL A   1      32.164  21.774  25.260  1.00  0.00     0.142 A 
ATOM     12  N   UNL A   1      31.493  22.573  22.730  1.00  0.00    -0.230 NA
ATOM     13  N   UNL A   1      31.576  22.965  25.070  1.00  0.00    -0.205 NA
BRANCH   9  14
ATOM     14  C   UNL A   1      33.340  19.773  24.300  1.00  0.00     0.343 C 
ATOM     15  O   UNL A   1      34.378  19.748  24.955  1.00  0.00    -0.246 OA
BRANCH  14  16
ATOM     16  O   UNL A   1      32.841  18.770  23.541  1.00  0.00    -0.462 OA
BRANCH  16  17
ATOM     17  C   UNL A   1      33.053  17.447  24.058  1.00  0.00     0.230 C 
ATOM     18  C   UNL A   1      34.105  16.691  23.264  1.00  0.00     0.049 C 
ENDBRANCH  16  17
ENDBRANCH  14  16
ENDBRANCH   9  14
BRANCH  11  19
ATOM     19  N   UNL A   1      32.475  21.487  26.577  1.00  0.00    -0.383 N 
ATOM     20  H   UNL A   1      33.197  20.852  26.786  1.00  0.00     0.158 HD
ATOM     21  H   UNL A   1      31.973  21.920  27.306  1.00  0.00     0.158 HD
ENDBRANCH  11  19
ENDBRANCH   7   8
ENDBRANCH   6   7
BRANCH   6  22
ATOM     22  C   UNL A   1      30.962  27.059  25.688  1.00  0.00     0.021 C 
ATOM     23  C   UNL A   1      31.636  27.462  26.990  1.00  0.00     0.005 C 
ENDBRANCH   6  22
ENDBRANCH   3   6
ENDBRANCH   1   2
BRANCH   1  24
ATOM     24  C   UNL A   1      35.195  23.899  24.293  1.00  0.00     0.023 C 
BRANCH  24  25
ATOM     25  C   UNL A   1      35.805  22.786  25.148  1.00  0.00     0.023 C 
BRANCH  25  26
ATOM     26  C   UNL A   1      37.010  23.193  25.993  1.00  0.00     0.116 C 
BRANCH  26  27
ATOM     27  N   UNL A   1      38.041  22.170  26.062  1.00  0.00    -0.352 N 
ATOM     28  C   UNL A   1      39.365  22.293  26.409  1.00  0.00     0.251 C 
ATOM     29  H   UNL A   1      37.749  21.260  25.827  1.00  0.00     0.163 HD
ATOM     30  O   UNL A   1      40.108  21.321  26.308  1.00  0.00    -0.269 OA
BRANCH  28  31
ATOM     31  C   UNL A   1      39.903  23.594  26.868  1.00  0.00     0.039 A 
ATOM     32  C   UNL A   1      39.771  24.704  26.027  1.00  0.00     0.014 A 
ATOM     33  C   UNL A   1      40.539  23.729  28.105  1.00  0.00     0.014 A 
ATOM     34  C   UNL A   1      40.228  25.954  26.450  1.00  0.00     0.010 A 
ATOM     35  C   UNL A   1      40.931  24.989  28.554  1.00  0.00     0.010 A 
ATOM     36  C   UNL A   1      40.787  26.113  27.729  1.00  0.00    -0.014 A 
BRANCH  36  37
ATOM     37  C   UNL A   1      41.199  27.456  28.213  1.00  0.00     0.031 A 
ATOM     38  C   UNL A   1      42.647  27.865  28.212  1.00  0.00     0.074 A 
ATOM     39  C   UNL A   1      40.268  28.289  28.716  1.00  0.00     0.049 A 
ATOM     40  N   UNL A   1      43.179  29.008  28.562  1.00  0.00    -0.248 NA
ATOM     41  C   UNL A   1      43.630  26.855  27.788  1.00  0.00     0.031 C 
ATOM     42  C   UNL A   1      38.847  27.971  28.877  1.00  0.00     0.029 A 
ATOM     43  N   UNL A   1      40.377  29.568  29.204  1.00  0.00    -0.354 N 
ATOM     44  C   UNL A   1      44.552  28.847  28.432  1.00  0.00     0.074 A 
ATOM     45  C   UNL A   1      44.777  27.483  28.004  1.00  0.00     0.031 C 
ATOM     46  C   UNL A   1      38.216  29.029  29.411  1.00  0.00     0.029 A 
ATOM     47  C   UNL A   1      39.185  30.097  29.640  1.00  0.00     0.049 A 
ATOM     48  H   UNL A   1      41.229  30.060  29.237  1.00  0.00     0.167 HD
ATOM     49  C   UNL A   1      45.536  29.760  28.616  1.00  0.00     0.034 A 
ATOM     50  C   UNL A   1      38.900  31.309  30.153  1.00  0.00     0.034 A 
ATOM     51  C   UNL A   1      45.307  31.130  28.989  1.00  0.00     0.049 A 
ATOM     52  C   UNL A   1      39.997  32.333  30.256  1.00  0.00     0.074 A 
ATOM     53  C   UNL A   1      46.226  32.159  29.101  1.00  0.00     0.029 A 
ATOM     54  N   UNL A   1      44.070  31.664  29.315  1.00  0.00    -0.354 N 
ATOM     55  N   UNL A   1      41.264  32.221  29.940  1.00  0.00    -0.248 NA
ATOM     56  C   UNL A   1      39.615  33.668  30.741  1.00  0.00     0.031 C 
ATOM     57  C   UNL A   1      45.544  33.313  29.504  1.00  0.00     0.029 A 
ATOM     58  C   UNL A   1      44.200  33.006  29.631  1.00  0.00     0.049 A 
ATOM     59  H   UNL A   1      43.223  31.162  29.323  1.00  0.00     0.167 HD
ATOM     60  C   UNL A   1      41.824  33.474  30.158  1.00  0.00     0.074 A 
ATOM     61  C   UNL A   1      40.751  34.339  30.603  1.00  0.00     0.031 C 
ATOM     62  C   UNL A   1      43.115  33.869  30.023  1.00  0.00     0.034 A 
BRANCH  49  63
ATOM     63  C   UNL A   1      46.953  29.326  28.342  1.00  0.00     0.023 A 
ATOM     64  C   UNL A   1      47.439  29.356  27.018  1.00  0.00     0.012 A 
ATOM     65  C   UNL A   1      47.818  28.949  29.387  1.00  0.00     0.148 A 
ATOM     66  C   UNL A   1      48.754  28.988  26.735  1.00  0.00     0.002 A 
ATOM     67  C   UNL A   1      49.140  28.623  29.101  1.00  0.00     0.091 A 
ATOM     68  F   UNL A   1      47.333  28.904  30.636  1.00  0.00    -0.205 F 
ATOM     69  C   UNL A   1      49.606  28.632  27.776  1.00  0.00     0.022 A 
BRANCH  67  70
ATOM     70  S   UNL A   1      50.337  28.223  30.380  1.00  0.00     0.127 S 
ATOM     71  O   UNL A   1      50.376  26.764  30.303  1.00  0.00    -0.237 OA
ATOM     72  O   UNL A   1      51.545  28.891  29.893  1.00  0.00    -0.237 OA
ATOM     73  O   UNL A   1      49.798  28.772  31.617  1.00  0.00    -0.744 OA
ENDBRANCH  67  70
ENDBRANCH  49  63
BRANCH  50  74
ATOM     74  C   UNL A   1      37.495  31.651  30.509  1.00  0.00     0.023 A 
ATOM     75  C   UNL A   1      37.019  31.354  31.801  1.00  0.00     0.012 A 
ATOM     76  C   UNL A   1      36.641  32.300  29.595  1.00  0.00     0.148 A 
ATOM     77  C   UNL A   1      35.709  31.667  32.167  1.00  0.00     0.002 A 
ATOM     78  C   UNL A   1      35.356  32.657  29.984  1.00  0.00     0.091 A 
ATOM     79  F   UNL A   1      37.107  32.561  28.365  1.00  0.00    -0.205 F 
ATOM     80  C   UNL A   1      34.882  32.327  31.264  1.00  0.00     0.022 A 
BRANCH  78  81
ATOM     81  S   UNL A   1      34.274  33.630  28.930  1.00  0.00     0.127 S 
ATOM     82  O   UNL A   1      33.356  34.217  29.902  1.00  0.00    -0.237 OA
ATOM     83  O   UNL A   1      35.210  34.573  28.317  1.00  0.00    -0.237 OA
ATOM     84  O   UNL A   1      33.690  32.678  27.993  1.00  0.00    -0.744 OA
ENDBRANCH  78  81
ENDBRANCH  50  74
BRANCH  62  85
ATOM     85  C   UNL A   1      43.437  35.304  30.345  1.00  0.00     0.023 A 
ATOM     86  C   UNL A   1      43.922  35.637  31.626  1.00  0.00     0.012 A 
ATOM     87  C   UNL A   1      43.312  36.314  29.371  1.00  0.00     0.148 A 
ATOM     88  C   UNL A   1      44.237  36.958  31.944  1.00  0.00     0.002 A 
ATOM     89  C   UNL A   1      43.671  37.621  29.682  1.00  0.00     0.091 A 
ATOM     90  F   UNL A   1      42.828  35.986  28.163  1.00  0.00    -0.205 F 
ATOM     91  C   UNL A   1      44.122  37.947  30.970  1.00  0.00     0.022 A 
BRANCH  89  92
ATOM     92  S   UNL A   1      43.636  38.930  28.453  1.00  0.00     0.127 S 
ATOM     93  O   UNL A   1      43.978  40.104  29.254  1.00  0.00    -0.237 OA
ATOM     94  O   UNL A   1      44.677  38.510  27.512  1.00  0.00    -0.237 OA
ATOM     95  O   UNL A   1      42.289  38.910  27.899  1.00  0.00    -0.744 OA
ENDBRANCH  89  92
ENDBRANCH  62  85
ENDBRANCH  36  37
ENDBRANCH  28  31
ENDBRANCH  26  27
ENDBRANCH  25  26
ENDBRANCH  24  25
ENDBRANCH   1  24
TORSDOF 21
ENDMDL
