MODEL 1
REMARK VINA RESULT:     -10.4      0.000      0.000
REMARK SMILES CC[C@](C)([NH3+])C(=O)NC[C@](C)(O)C(=O)NCCCCNC(=O)c1ccc(-c2c3nc(c(-c4cccc(S(=O)(=O)[O-])c4F)c4ccc([nH]4)c(-c4cccc(S(=O)(=O)[O-])c4F)c4nc(c(-c5cccc(S(=O)(=O)[O-])c5F)c5ccc2[nH]5)C=C4)C=C3)cc1
REMARK SMILES IDX 17 1 16 2 15 3 13 4 14 5 10 7 11 8 9 9 8 10 6 11 7 12 3 14
REMARK SMILES IDX 4 15 2 16 1 17 5 18 12 22 18 24 19 25 20 26 21 27 22 29
REMARK SMILES IDX 23 30 24 31 85 32 25 33 84 34 26 35 27 36 28 37 78 38 29 39
REMARK SMILES IDX 83 40 77 41 79 42 30 43 82 44 76 45 75 46 31 48 63 49 43 50
REMARK SMILES IDX 62 51 44 52 47 53 61 54 80 55 45 56 46 57 60 59 81 60 48 61
REMARK SMILES IDX 32 62 33 63 41 64 34 65 36 66 42 67 35 68 37 69 38 70 39 71
REMARK SMILES IDX 40 72 64 73 65 74 73 75 66 76 68 77 74 78 67 79 69 80 70 81
REMARK SMILES IDX 71 82 72 83 49 84 50 85 58 86 51 87 53 88 59 89 52 90 54 91
REMARK SMILES IDX 55 92 56 93 57 94
REMARK H PARENT 15 6 8 13 5 19 5 20 5 21 12 23 20 28 79 47 47 58
REMARK Flexibility Score: inf
ROOT
ATOM      1  C   UNL A   1      34.660  20.520  24.990  1.00  0.00     0.023 C 
ENDROOT
BRANCH   1   2
ATOM      2  C   UNL A   1      33.218  20.982  24.827  1.00  0.00     0.116 C 
BRANCH   2   3
ATOM      3  N   UNL A   1      33.090  22.099  23.904  1.00  0.00    -0.354 N 
ATOM      4  C   UNL A   1      32.494  23.318  24.079  1.00  0.00     0.253 C 
ATOM      5  O   UNL A   1      32.539  24.114  23.138  1.00  0.00    -0.272 OA
ATOM      6  H   UNL A   1      33.496  21.955  23.019  1.00  0.00     0.163 HD
BRANCH   4   7
ATOM      7  C   UNL A   1      31.849  23.690  25.438  1.00  0.00     0.157 C 
ATOM      8  C   UNL A   1      30.843  22.611  25.865  1.00  0.00     0.055 C 
BRANCH   7   9
ATOM      9  C   UNL A   1      31.199  25.083  25.331  1.00  0.00     0.161 C 
BRANCH   9  10
ATOM     10  N   UNL A   1      31.130  25.892  26.527  1.00  0.00    -0.347 N 
ATOM     11  C   UNL A   1      31.750  27.071  26.826  1.00  0.00     0.281 C 
ATOM     12  O   UNL A   1      31.274  27.706  27.774  1.00  0.00    -0.268 OA
ATOM     13  H   UNL A   1      30.545  25.538  27.236  1.00  0.00     0.163 HD
BRANCH  11  14
ATOM     14  C   UNL A   1      32.977  27.623  26.016  1.00  0.00     0.170 C 
ATOM     15  C   UNL A   1      33.724  28.601  26.960  1.00  0.00     0.090 C 
BRANCH  14  16
ATOM     16  C   UNL A   1      32.613  28.435  24.743  1.00  0.00     0.075 C 
ATOM     17  C   UNL A   1      31.157  28.760  24.452  1.00  0.00     0.011 C 
ENDBRANCH  14  16
BRANCH  14  18
ATOM     18  N   UNL A   1      33.951  26.536  25.728  1.00  0.00    -0.345 N 
ATOM     19  H   UNL A   1      34.867  26.793  26.094  1.00  0.00     0.345 HD
ATOM     20  H   UNL A   1      34.015  26.396  24.719  1.00  0.00     0.345 HD
ATOM     21  H   UNL A   1      33.639  25.673  26.173  1.00  0.00     0.345 HD
ENDBRANCH  14  18
ENDBRANCH  11  14
ENDBRANCH   9  10
ENDBRANCH   7   9
BRANCH   7  22
ATOM     22  O   UNL A   1      32.855  23.771  26.470  1.00  0.00    -0.378 OA
ATOM     23  H   UNL A   1      33.515  24.438  26.227  1.00  0.00     0.212 HD
ENDBRANCH   7  22
ENDBRANCH   4   7
ENDBRANCH   2   3
ENDBRANCH   1   2
BRANCH   1  24
ATOM     24  C   UNL A   1      35.545  21.462  25.804  1.00  0.00     0.023 C 
BRANCH  24  25
ATOM     25  C   UNL A   1      36.914  21.753  25.200  1.00  0.00     0.116 C 
BRANCH  25  26
ATOM     26  N   UNL A   1      37.897  20.723  25.501  1.00  0.00    -0.352 N 
ATOM     27  C   UNL A   1      39.161  20.859  26.034  1.00  0.00     0.251 C 
ATOM     28  H   UNL A   1      37.621  19.801  25.294  1.00  0.00     0.163 HD
ATOM     29  O   UNL A   1      39.911  19.897  26.089  1.00  0.00    -0.269 OA
BRANCH  27  30
ATOM     30  C   UNL A   1      39.608  22.188  26.511  1.00  0.00     0.039 A 
ATOM     31  C   UNL A   1      40.628  22.255  27.463  1.00  0.00     0.014 A 
ATOM     32  C   UNL A   1      39.049  23.358  25.995  1.00  0.00     0.014 A 
ATOM     33  C   UNL A   1      41.138  23.500  27.843  1.00  0.00     0.010 A 
ATOM     34  C   UNL A   1      39.613  24.591  26.313  1.00  0.00     0.010 A 
ATOM     35  C   UNL A   1      40.663  24.676  27.239  1.00  0.00    -0.014 A 
BRANCH  35  36
ATOM     36  C   UNL A   1      41.266  26.001  27.546  1.00  0.00     0.031 A 
ATOM     37  C   UNL A   1      42.685  26.301  27.145  1.00  0.00     0.074 A 
ATOM     38  C   UNL A   1      40.567  26.901  28.266  1.00  0.00     0.049 A 
ATOM     39  N   UNL A   1      43.398  27.372  27.377  1.00  0.00    -0.248 NA
ATOM     40  C   UNL A   1      43.409  25.250  26.410  1.00  0.00     0.031 C 
ATOM     41  C   UNL A   1      39.212  26.700  28.786  1.00  0.00     0.029 A 
ATOM     42  N   UNL A   1      40.908  28.153  28.712  1.00  0.00    -0.354 N 
ATOM     43  C   UNL A   1      44.659  27.113  26.855  1.00  0.00     0.074 A 
ATOM     44  C   UNL A   1      44.625  25.768  26.322  1.00  0.00     0.031 C 
ATOM     45  C   UNL A   1      38.838  27.791  29.475  1.00  0.00     0.029 A 
ATOM     46  C   UNL A   1      39.933  28.755  29.474  1.00  0.00     0.049 A 
ATOM     47  H   UNL A   1      41.771  28.581  28.506  1.00  0.00     0.167 HD
ATOM     48  C   UNL A   1      45.739  27.927  26.796  1.00  0.00     0.034 A 
ATOM     49  C   UNL A   1      39.924  29.943  30.111  1.00  0.00     0.034 A 
ATOM     50  C   UNL A   1      45.759  29.277  27.290  1.00  0.00     0.049 A 
ATOM     51  C   UNL A   1      41.126  30.843  29.999  1.00  0.00     0.074 A 
ATOM     52  C   UNL A   1      46.774  30.212  27.197  1.00  0.00     0.029 A 
ATOM     53  N   UNL A   1      44.721  29.882  27.982  1.00  0.00    -0.354 N 
ATOM     54  N   UNL A   1      42.251  30.641  29.358  1.00  0.00    -0.248 NA
ATOM     55  C   UNL A   1      41.041  32.151  30.666  1.00  0.00     0.031 C 
ATOM     56  C   UNL A   1      46.362  31.373  27.857  1.00  0.00     0.029 A 
ATOM     57  C   UNL A   1      45.076  31.175  28.330  1.00  0.00     0.049 A 
ATOM     58  H   UNL A   1      43.859  29.457  28.193  1.00  0.00     0.167 HD
ATOM     59  C   UNL A   1      42.992  31.808  29.511  1.00  0.00     0.074 A 
ATOM     60  C   UNL A   1      42.178  32.719  30.289  1.00  0.00     0.031 C 
ATOM     61  C   UNL A   1      44.237  32.093  29.058  1.00  0.00     0.034 A 
BRANCH  48  62
ATOM     62  C   UNL A   1      46.981  27.396  26.126  1.00  0.00     0.023 A 
ATOM     63  C   UNL A   1      47.192  27.640  24.753  1.00  0.00     0.012 A 
ATOM     64  C   UNL A   1      47.967  26.713  26.864  1.00  0.00     0.148 A 
ATOM     65  C   UNL A   1      48.343  27.181  24.116  1.00  0.00     0.002 A 
ATOM     66  C   UNL A   1      49.136  26.300  26.233  1.00  0.00     0.091 A 
ATOM     67  F   UNL A   1      47.743  26.473  28.163  1.00  0.00    -0.205 F 
ATOM     68  C   UNL A   1      49.319  26.521  24.858  1.00  0.00     0.022 A 
BRANCH  66  69
ATOM     69  S   UNL A   1      50.490  25.516  27.115  1.00  0.00     0.127 S 
ATOM     70  O   UNL A   1      51.457  25.302  26.040  1.00  0.00    -0.237 OA
ATOM     71  O   UNL A   1      50.867  26.550  28.079  1.00  0.00    -0.237 OA
ATOM     72  O   UNL A   1      49.937  24.306  27.707  1.00  0.00    -0.744 OA
ENDBRANCH  66  69
ENDBRANCH  48  62
BRANCH  49  73
ATOM     73  C   UNL A   1      38.712  30.378  30.862  1.00  0.00     0.023 A 
ATOM     74  C   UNL A   1      38.616  30.103  32.240  1.00  0.00     0.012 A 
ATOM     75  C   UNL A   1      37.670  31.081  30.228  1.00  0.00     0.148 A 
ATOM     76  C   UNL A   1      37.487  30.487  32.965  1.00  0.00     0.002 A 
ATOM     77  C   UNL A   1      36.574  31.511  30.968  1.00  0.00     0.091 A 
ATOM     78  F   UNL A   1      37.775  31.324  28.914  1.00  0.00    -0.205 F 
ATOM     79  C   UNL A   1      36.472  31.198  32.332  1.00  0.00     0.022 A 
BRANCH  77  80
ATOM     80  S   UNL A   1      35.284  32.545  30.268  1.00  0.00     0.127 S 
ATOM     81  O   UNL A   1      36.031  33.741  29.890  1.00  0.00    -0.237 OA
ATOM     82  O   UNL A   1      34.820  31.728  29.145  1.00  0.00    -0.237 OA
ATOM     83  O   UNL A   1      34.300  32.719  31.328  1.00  0.00    -0.744 OA
ENDBRANCH  77  80
ENDBRANCH  49  73
BRANCH  61  84
ATOM     84  C   UNL A   1      44.791  33.465  29.344  1.00  0.00     0.023 A 
ATOM     85  C   UNL A   1      45.437  33.723  30.570  1.00  0.00     0.012 A 
ATOM     86  C   UNL A   1      44.737  34.476  28.365  1.00  0.00     0.148 A 
ATOM     87  C   UNL A   1      45.992  34.976  30.828  1.00  0.00     0.002 A 
ATOM     88  C   UNL A   1      45.338  35.705  28.608  1.00  0.00     0.091 A 
ATOM     89  F   UNL A   1      44.103  34.217  27.212  1.00  0.00    -0.205 F 
ATOM     90  C   UNL A   1      45.953  35.961  29.844  1.00  0.00     0.022 A 
BRANCH  88  91
ATOM     91  S   UNL A   1      45.425  36.999  27.365  1.00  0.00     0.127 S 
ATOM     92  O   UNL A   1      46.047  36.293  26.245  1.00  0.00    -0.237 OA
ATOM     93  O   UNL A   1      44.015  37.334  27.168  1.00  0.00    -0.237 OA
ATOM     94  O   UNL A   1      46.225  38.067  27.951  1.00  0.00    -0.744 OA
ENDBRANCH  88  91
ENDBRANCH  61  84
ENDBRANCH  35  36
ENDBRANCH  27  30
ENDBRANCH  25  26
ENDBRANCH  24  25
ENDBRANCH   1  24
TORSDOF 20
ENDMDL
MODEL 2
REMARK VINA RESULT:     -10.3      2.317      8.134
REMARK SMILES CC[C@](C)([NH3+])C(=O)NC[C@](C)(O)C(=O)NCCCCNC(=O)c1ccc(-c2c3nc(c(-c4cccc(S(=O)(=O)[O-])c4F)c4ccc([nH]4)c(-c4cccc(S(=O)(=O)[O-])c4F)c4nc(c(-c5cccc(S(=O)(=O)[O-])c5F)c5ccc2[nH]5)C=C4)C=C3)cc1
REMARK SMILES IDX 17 1 16 2 15 3 13 4 14 5 10 7 11 8 9 9 8 10 6 11 7 12 3 14
REMARK SMILES IDX 4 15 2 16 1 17 5 18 12 22 18 24 19 25 20 26 21 27 22 29
REMARK SMILES IDX 23 30 24 31 85 32 25 33 84 34 26 35 27 36 28 37 78 38 29 39
REMARK SMILES IDX 83 40 77 41 79 42 30 43 82 44 76 45 75 46 31 48 63 49 43 50
REMARK SMILES IDX 62 51 44 52 47 53 61 54 80 55 45 56 46 57 60 59 81 60 48 61
REMARK SMILES IDX 32 62 33 63 41 64 34 65 36 66 42 67 35 68 37 69 38 70 39 71
REMARK SMILES IDX 40 72 64 73 65 74 73 75 66 76 68 77 74 78 67 79 69 80 70 81
REMARK SMILES IDX 71 82 72 83 49 84 50 85 58 86 51 87 53 88 59 89 52 90 54 91
REMARK SMILES IDX 55 92 56 93 57 94
REMARK H PARENT 15 6 8 13 5 19 5 20 5 21 12 23 20 28 79 47 47 58
REMARK Flexibility Score: inf
ROOT
ATOM      1  C   UNL A   1      37.758  21.371  25.149  1.00  0.00     0.023 C 
ENDROOT
BRANCH   1   2
ATOM      2  C   UNL A   1      36.249  21.202  25.032  1.00  0.00     0.116 C 
BRANCH   2   3
ATOM      3  N   UNL A   1      35.543  21.642  26.225  1.00  0.00    -0.354 N 
ATOM      4  C   UNL A   1      34.261  21.388  26.629  1.00  0.00     0.253 C 
ATOM      5  O   UNL A   1      33.899  21.864  27.708  1.00  0.00    -0.272 OA
ATOM      6  H   UNL A   1      36.069  22.208  26.834  1.00  0.00     0.163 HD
BRANCH   4   7
ATOM      7  C   UNL A   1      33.334  20.480  25.781  1.00  0.00     0.157 C 
ATOM      8  C   UNL A   1      34.087  19.947  24.553  1.00  0.00     0.055 C 
BRANCH   7   9
ATOM      9  C   UNL A   1      32.066  21.263  25.392  1.00  0.00     0.161 C 
BRANCH   9  10
ATOM     10  N   UNL A   1      31.329  21.925  26.446  1.00  0.00    -0.347 N 
ATOM     11  C   UNL A   1      30.713  23.143  26.455  1.00  0.00     0.281 C 
ATOM     12  O   UNL A   1      29.892  23.326  27.361  1.00  0.00    -0.268 OA
ATOM     13  H   UNL A   1      31.259  21.417  27.287  1.00  0.00     0.163 HD
BRANCH  11  14
ATOM     14  C   UNL A   1      30.995  24.253  25.379  1.00  0.00     0.170 C 
ATOM     15  C   UNL A   1      32.529  24.483  25.376  1.00  0.00     0.090 C 
BRANCH  14  16
ATOM     16  C   UNL A   1      30.345  25.632  25.674  1.00  0.00     0.075 C 
ATOM     17  C   UNL A   1      29.473  26.291  24.618  1.00  0.00     0.011 C 
ENDBRANCH  14  16
BRANCH  14  18
ATOM     18  N   UNL A   1      30.670  23.759  24.014  1.00  0.00    -0.345 N 
ATOM     19  H   UNL A   1      31.511  23.777  23.436  1.00  0.00     0.345 HD
ATOM     20  H   UNL A   1      29.958  24.359  23.597  1.00  0.00     0.345 HD
ATOM     21  H   UNL A   1      30.319  22.803  24.072  1.00  0.00     0.345 HD
ENDBRANCH  14  18
ENDBRANCH  11  14
ENDBRANCH   9  10
ENDBRANCH   7   9
BRANCH   7  22
ATOM     22  O   UNL A   1      32.906  19.336  26.551  1.00  0.00    -0.378 OA
ATOM     23  H   UNL A   1      32.087  18.980  26.174  1.00  0.00     0.212 HD
ENDBRANCH   7  22
ENDBRANCH   4   7
ENDBRANCH   2   3
ENDBRANCH   1   2
BRANCH   1  24
ATOM     24  C   UNL A   1      38.560  20.080  24.995  1.00  0.00     0.023 C 
BRANCH  24  25
ATOM     25  C   UNL A   1      39.170  19.534  26.281  1.00  0.00     0.116 C 
BRANCH  25  26
ATOM     26  N   UNL A   1      40.434  18.846  26.062  1.00  0.00    -0.352 N 
ATOM     27  C   UNL A   1      41.710  19.364  26.027  1.00  0.00     0.251 C 
ATOM     28  H   UNL A   1      40.367  17.873  25.918  1.00  0.00     0.163 HD
ATOM     29  O   UNL A   1      42.650  18.661  25.688  1.00  0.00    -0.269 OA
BRANCH  27  30
ATOM     30  C   UNL A   1      41.925  20.787  26.376  1.00  0.00     0.039 A 
ATOM     31  C   UNL A   1      42.287  21.114  27.685  1.00  0.00     0.014 A 
ATOM     32  C   UNL A   1      41.804  21.787  25.408  1.00  0.00     0.014 A 
ATOM     33  C   UNL A   1      42.600  22.438  28.004  1.00  0.00     0.010 A 
ATOM     34  C   UNL A   1      42.196  23.089  25.708  1.00  0.00     0.010 A 
ATOM     35  C   UNL A   1      42.598  23.430  27.008  1.00  0.00    -0.014 A 
BRANCH  35  36
ATOM     36  C   UNL A   1      43.034  24.821  27.301  1.00  0.00     0.031 A 
ATOM     37  C   UNL A   1      42.089  25.793  27.955  1.00  0.00     0.074 A 
ATOM     38  C   UNL A   1      44.250  25.238  26.894  1.00  0.00     0.049 A 
ATOM     39  N   UNL A   1      42.269  27.057  28.233  1.00  0.00    -0.248 NA
ATOM     40  C   UNL A   1      40.756  25.285  28.321  1.00  0.00     0.031 C 
ATOM     41  C   UNL A   1      45.229  24.418  26.176  1.00  0.00     0.029 A 
ATOM     42  N   UNL A   1      44.860  26.463  27.000  1.00  0.00    -0.354 N 
ATOM     43  C   UNL A   1      41.068  27.506  28.768  1.00  0.00     0.074 A 
ATOM     44  C   UNL A   1      40.153  26.386  28.746  1.00  0.00     0.031 C 
ATOM     45  C   UNL A   1      46.316  25.161  25.911  1.00  0.00     0.029 A 
ATOM     46  C   UNL A   1      46.102  26.516  26.409  1.00  0.00     0.049 A 
ATOM     47  H   UNL A   1      44.448  27.232  27.456  1.00  0.00     0.167 HD
ATOM     48  C   UNL A   1      40.760  28.729  29.262  1.00  0.00     0.034 A 
ATOM     49  C   UNL A   1      46.967  27.540  26.271  1.00  0.00     0.034 A 
ATOM     50  C   UNL A   1      41.684  29.830  29.320  1.00  0.00     0.049 A 
ATOM     51  C   UNL A   1      46.614  28.880  26.861  1.00  0.00     0.074 A 
ATOM     52  C   UNL A   1      41.497  31.080  29.882  1.00  0.00     0.029 A 
ATOM     53  N   UNL A   1      42.964  29.819  28.787  1.00  0.00    -0.354 N 
ATOM     54  N   UNL A   1      45.532  29.237  27.509  1.00  0.00    -0.248 NA
ATOM     55  C   UNL A   1      47.617  29.948  26.732  1.00  0.00     0.031 C 
ATOM     56  C   UNL A   1      42.653  31.835  29.665  1.00  0.00     0.029 A 
ATOM     57  C   UNL A   1      43.574  31.044  28.999  1.00  0.00     0.049 A 
ATOM     58  H   UNL A   1      43.378  29.054  28.328  1.00  0.00     0.167 HD
ATOM     59  C   UNL A   1      45.740  30.555  27.900  1.00  0.00     0.074 A 
ATOM     60  C   UNL A   1      47.059  30.926  27.431  1.00  0.00     0.031 C 
ATOM     61  C   UNL A   1      44.908  31.386  28.576  1.00  0.00     0.034 A 
BRANCH  48  62
ATOM     62  C   UNL A   1      39.378  28.929  29.827  1.00  0.00     0.023 A 
ATOM     63  C   UNL A   1      39.082  28.469  31.127  1.00  0.00     0.012 A 
ATOM     64  C   UNL A   1      38.391  29.626  29.102  1.00  0.00     0.148 A 
ATOM     65  C   UNL A   1      37.818  28.663  31.682  1.00  0.00     0.002 A 
ATOM     66  C   UNL A   1      37.149  29.859  29.680  1.00  0.00     0.091 A 
ATOM     67  F   UNL A   1      38.682  30.040  27.861  1.00  0.00    -0.205 F 
ATOM     68  C   UNL A   1      36.856  29.368  30.963  1.00  0.00     0.022 A 
BRANCH  66  69
ATOM     69  S   UNL A   1      35.868  30.827  28.873  1.00  0.00     0.127 S 
ATOM     70  O   UNL A   1      35.153  29.798  28.120  1.00  0.00    -0.237 OA
ATOM     71  O   UNL A   1      35.132  31.373  30.012  1.00  0.00    -0.237 OA
ATOM     72  O   UNL A   1      36.564  31.820  28.066  1.00  0.00    -0.744 OA
ENDBRANCH  66  69
ENDBRANCH  48  62
BRANCH  49  73
ATOM     73  C   UNL A   1      48.279  27.325  25.599  1.00  0.00     0.023 A 
ATOM     74  C   UNL A   1      49.389  26.912  26.363  1.00  0.00     0.012 A 
ATOM     75  C   UNL A   1      48.431  27.501  24.210  1.00  0.00     0.148 A 
ATOM     76  C   UNL A   1      50.633  26.715  25.762  1.00  0.00     0.002 A 
ATOM     77  C   UNL A   1      49.658  27.248  23.609  1.00  0.00     0.091 A 
ATOM     78  F   UNL A   1      47.366  27.904  23.502  1.00  0.00    -0.205 F 
ATOM     79  C   UNL A   1      50.765  26.874  24.386  1.00  0.00     0.022 A 
BRANCH  77  80
ATOM     80  S   UNL A   1      49.888  27.298  21.829  1.00  0.00     0.127 S 
ATOM     81  O   UNL A   1      49.682  28.715  21.540  1.00  0.00    -0.237 OA
ATOM     82  O   UNL A   1      51.270  26.835  21.692  1.00  0.00    -0.237 OA
ATOM     83  O   UNL A   1      48.894  26.387  21.278  1.00  0.00    -0.744 OA
ENDBRANCH  77  80
ENDBRANCH  49  73
BRANCH  61  84
ATOM     84  C   UNL A   1      45.408  32.770  28.898  1.00  0.00     0.023 A 
ATOM     85  C   UNL A   1      46.125  33.001  30.089  1.00  0.00     0.012 A 
ATOM     86  C   UNL A   1      45.234  33.824  27.980  1.00  0.00     0.148 A 
ATOM     87  C   UNL A   1      46.631  34.269  30.377  1.00  0.00     0.002 A 
ATOM     88  C   UNL A   1      45.786  35.071  28.248  1.00  0.00     0.091 A 
ATOM     89  F   UNL A   1      44.535  33.589  26.861  1.00  0.00    -0.205 F 
ATOM     90  C   UNL A   1      46.473  35.299  29.452  1.00  0.00     0.022 A 
BRANCH  88  91
ATOM     91  S   UNL A   1      45.719  36.428  27.073  1.00  0.00     0.127 S 
ATOM     92  O   UNL A   1      46.342  35.830  25.893  1.00  0.00    -0.237 OA
ATOM     93  O   UNL A   1      44.280  36.662  26.952  1.00  0.00    -0.237 OA
ATOM     94  O   UNL A   1      46.460  37.525  27.682  1.00  0.00    -0.744 OA
ENDBRANCH  88  91
ENDBRANCH  61  84
ENDBRANCH  35  36
ENDBRANCH  27  30
ENDBRANCH  25  26
ENDBRANCH  24  25
ENDBRANCH   1  24
TORSDOF 20
ENDMDL
MODEL 3
REMARK VINA RESULT:     -10.1      1.724      2.245
REMARK SMILES CC[C@](C)([NH3+])C(=O)NC[C@](C)(O)C(=O)NCCCCNC(=O)c1ccc(-c2c3nc(c(-c4cccc(S(=O)(=O)[O-])c4F)c4ccc([nH]4)c(-c4cccc(S(=O)(=O)[O-])c4F)c4nc(c(-c5cccc(S(=O)(=O)[O-])c5F)c5ccc2[nH]5)C=C4)C=C3)cc1
REMARK SMILES IDX 17 1 16 2 15 3 13 4 14 5 10 7 11 8 9 9 8 10 6 11 7 12 3 14
REMARK SMILES IDX 4 15 2 16 1 17 5 18 12 22 18 24 19 25 20 26 21 27 22 29
REMARK SMILES IDX 23 30 24 31 85 32 25 33 84 34 26 35 27 36 28 37 78 38 29 39
REMARK SMILES IDX 83 40 77 41 79 42 30 43 82 44 76 45 75 46 31 48 63 49 43 50
REMARK SMILES IDX 62 51 44 52 47 53 61 54 80 55 45 56 46 57 60 59 81 60 48 61
REMARK SMILES IDX 32 62 33 63 41 64 34 65 36 66 42 67 35 68 37 69 38 70 39 71
REMARK SMILES IDX 40 72 64 73 65 74 73 75 66 76 68 77 74 78 67 79 69 80 70 81
REMARK SMILES IDX 71 82 72 83 49 84 50 85 58 86 51 87 53 88 59 89 52 90 54 91
REMARK SMILES IDX 55 92 56 93 57 94
REMARK H PARENT 15 6 8 13 5 19 5 20 5 21 12 23 20 28 79 47 47 58
REMARK Flexibility Score: inf
ROOT
ATOM      1  C   UNL A   1      35.658  20.909  25.433  1.00  0.00     0.023 C 
ENDROOT
BRANCH   1   2
ATOM      2  C   UNL A   1      34.147  20.915  25.624  1.00  0.00     0.116 C 
BRANCH   2   3
ATOM      3  N   UNL A   1      33.461  20.052  24.675  1.00  0.00    -0.354 N 
ATOM      4  C   UNL A   1      32.627  20.374  23.640  1.00  0.00     0.253 C 
ATOM      5  O   UNL A   1      32.183  19.449  22.956  1.00  0.00    -0.272 OA
ATOM      6  H   UNL A   1      33.622  19.088  24.797  1.00  0.00     0.163 HD
BRANCH   4   7
ATOM      7  C   UNL A   1      32.317  21.857  23.313  1.00  0.00     0.157 C 
ATOM      8  C   UNL A   1      33.615  22.621  23.014  1.00  0.00     0.055 C 
BRANCH   7   9
ATOM      9  C   UNL A   1      31.528  22.484  24.478  1.00  0.00     0.161 C 
BRANCH   9  10
ATOM     10  N   UNL A   1      30.667  23.609  24.187  1.00  0.00    -0.347 N 
ATOM     11  C   UNL A   1      30.759  24.910  24.588  1.00  0.00     0.281 C 
ATOM     12  O   UNL A   1      30.084  25.722  23.944  1.00  0.00    -0.268 OA
ATOM     13  H   UNL A   1      29.896  23.404  23.609  1.00  0.00     0.163 HD
BRANCH  11  14
ATOM     14  C   UNL A   1      31.673  25.378  25.776  1.00  0.00     0.170 C 
ATOM     15  C   UNL A   1      31.253  26.833  26.110  1.00  0.00     0.090 C 
BRANCH  14  16
ATOM     16  C   UNL A   1      33.192  25.423  25.456  1.00  0.00     0.075 C 
ATOM     17  C   UNL A   1      33.717  26.431  24.447  1.00  0.00     0.011 C 
ENDBRANCH  14  16
BRANCH  14  18
ATOM     18  N   UNL A   1      31.382  24.594  27.007  1.00  0.00    -0.345 N 
ATOM     19  H   UNL A   1      30.401  24.319  27.011  1.00  0.00     0.345 HD
ATOM     20  H   UNL A   1      31.579  25.166  27.828  1.00  0.00     0.345 HD
ATOM     21  H   UNL A   1      31.969  23.759  27.025  1.00  0.00     0.345 HD
ENDBRANCH  14  18
ENDBRANCH  11  14
ENDBRANCH   9  10
ENDBRANCH   7   9
BRANCH   7  22
ATOM     22  O   UNL A   1      31.483  21.952  22.138  1.00  0.00    -0.378 OA
ATOM     23  H   UNL A   1      30.625  21.536  22.315  1.00  0.00     0.212 HD
ENDBRANCH   7  22
ENDBRANCH   4   7
ENDBRANCH   2   3
ENDBRANCH   1   2
BRANCH   1  24
ATOM     24  C   UNL A   1      36.302  22.293  25.394  1.00  0.00     0.023 C 
BRANCH  24  25
ATOM     25  C   UNL A   1      37.775  22.316  24.999  1.00  0.00     0.116 C 
BRANCH  25  26
ATOM     26  N   UNL A   1      38.556  21.283  25.663  1.00  0.00    -0.352 N 
ATOM     27  C   UNL A   1      39.614  21.420  26.534  1.00  0.00     0.251 C 
ATOM     28  H   UNL A   1      38.290  20.355  25.461  1.00  0.00     0.163 HD
ATOM     29  O   UNL A   1      40.249  20.440  26.890  1.00  0.00    -0.269 OA
BRANCH  27  30
ATOM     30  C   UNL A   1      39.992  22.771  27.010  1.00  0.00     0.039 A 
ATOM     31  C   UNL A   1      41.078  22.902  27.878  1.00  0.00     0.014 A 
ATOM     32  C   UNL A   1      39.299  23.902  26.573  1.00  0.00     0.014 A 
ATOM     33  C   UNL A   1      41.516  24.177  28.249  1.00  0.00     0.010 A 
ATOM     34  C   UNL A   1      39.787  25.171  26.877  1.00  0.00     0.010 A 
ATOM     35  C   UNL A   1      40.899  25.322  27.718  1.00  0.00    -0.014 A 
BRANCH  35  36
ATOM     36  C   UNL A   1      41.417  26.686  28.011  1.00  0.00     0.031 A 
ATOM     37  C   UNL A   1      42.847  27.039  27.699  1.00  0.00     0.074 A 
ATOM     38  C   UNL A   1      40.627  27.577  28.643  1.00  0.00     0.049 A 
ATOM     39  N   UNL A   1      43.491  28.152  27.937  1.00  0.00    -0.248 NA
ATOM     40  C   UNL A   1      43.669  25.997  27.061  1.00  0.00     0.031 C 
ATOM     41  C   UNL A   1      39.249  27.331  29.075  1.00  0.00     0.029 A 
ATOM     42  N   UNL A   1      40.878  28.861  29.059  1.00  0.00    -0.354 N 
ATOM     43  C   UNL A   1      44.797  27.934  27.515  1.00  0.00     0.074 A 
ATOM     44  C   UNL A   1      44.863  26.570  27.037  1.00  0.00     0.031 C 
ATOM     45  C   UNL A   1      38.777  28.428  29.689  1.00  0.00     0.029 A 
ATOM     46  C   UNL A   1      39.824  29.443  29.726  1.00  0.00     0.049 A 
ATOM     47  H   UNL A   1      41.733  29.322  28.897  1.00  0.00     0.167 HD
ATOM     48  C   UNL A   1      45.840  28.797  27.499  1.00  0.00     0.034 A 
ATOM     49  C   UNL A   1      39.715  30.652  30.311  1.00  0.00     0.034 A 
ATOM     50  C   UNL A   1      45.762  30.165  27.937  1.00  0.00     0.049 A 
ATOM     51  C   UNL A   1      40.879  31.605  30.246  1.00  0.00     0.074 A 
ATOM     52  C   UNL A   1      46.738  31.144  27.877  1.00  0.00     0.029 A 
ATOM     53  N   UNL A   1      44.650  30.744  28.528  1.00  0.00    -0.354 N 
ATOM     54  N   UNL A   1      42.056  31.433  29.695  1.00  0.00    -0.248 NA
ATOM     55  C   UNL A   1      40.686  32.931  30.851  1.00  0.00     0.031 C 
ATOM     56  C   UNL A   1      46.226  32.308  28.457  1.00  0.00     0.029 A 
ATOM     57  C   UNL A   1      44.919  32.065  28.847  1.00  0.00     0.049 A 
ATOM     58  H   UNL A   1      43.796  30.286  28.696  1.00  0.00     0.167 HD
ATOM     59  C   UNL A   1      42.729  32.640  29.851  1.00  0.00     0.074 A 
ATOM     60  C   UNL A   1      41.820  33.540  30.532  1.00  0.00     0.031 C 
ATOM     61  C   UNL A   1      43.990  32.968  29.475  1.00  0.00     0.034 A 
BRANCH  48  62
ATOM     62  C   UNL A   1      47.150  28.303  26.940  1.00  0.00     0.023 A 
ATOM     63  C   UNL A   1      48.204  27.975  27.818  1.00  0.00     0.012 A 
ATOM     64  C   UNL A   1      47.319  28.102  25.556  1.00  0.00     0.148 A 
ATOM     65  C   UNL A   1      49.417  27.494  27.328  1.00  0.00     0.002 A 
ATOM     66  C   UNL A   1      48.513  27.575  25.078  1.00  0.00     0.091 A 
ATOM     67  F   UNL A   1      46.314  28.436  24.734  1.00  0.00    -0.205 F 
ATOM     68  C   UNL A   1      49.567  27.283  25.960  1.00  0.00     0.022 A 
BRANCH  66  69
ATOM     69  S   UNL A   1      48.778  27.189  23.344  1.00  0.00     0.127 S 
ATOM     70  O   UNL A   1      48.106  28.308  22.687  1.00  0.00    -0.237 OA
ATOM     71  O   UNL A   1      50.238  27.210  23.244  1.00  0.00    -0.237 OA
ATOM     72  O   UNL A   1      48.173  25.882  23.126  1.00  0.00    -0.744 OA
ENDBRANCH  66  69
ENDBRANCH  48  62
BRANCH  49  73
ATOM     73  C   UNL A   1      38.433  31.056  30.956  1.00  0.00     0.023 A 
ATOM     74  C   UNL A   1      38.251  30.832  32.335  1.00  0.00     0.012 A 
ATOM     75  C   UNL A   1      37.407  31.681  30.221  1.00  0.00     0.148 A 
ATOM     76  C   UNL A   1      37.057  31.188  32.962  1.00  0.00     0.002 A 
ATOM     77  C   UNL A   1      36.242  32.085  30.864  1.00  0.00     0.091 A 
ATOM     78  F   UNL A   1      37.594  31.876  28.908  1.00  0.00    -0.205 F 
ATOM     79  C   UNL A   1      36.058  31.822  32.230  1.00  0.00     0.022 A 
BRANCH  77  80
ATOM     80  S   UNL A   1      34.958  33.024  30.032  1.00  0.00     0.127 S 
ATOM     81  O   UNL A   1      34.406  32.030  29.115  1.00  0.00    -0.237 OA
ATOM     82  O   UNL A   1      34.082  33.388  31.146  1.00  0.00    -0.237 OA
ATOM     83  O   UNL A   1      35.637  34.153  29.410  1.00  0.00    -0.744 OA
ENDBRANCH  77  80
ENDBRANCH  49  73
BRANCH  61  84
ATOM     84  C   UNL A   1      44.457  34.375  29.743  1.00  0.00     0.023 A 
ATOM     85  C   UNL A   1      45.117  34.682  30.951  1.00  0.00     0.012 A 
ATOM     86  C   UNL A   1      44.311  35.376  28.762  1.00  0.00     0.148 A 
ATOM     87  C   UNL A   1      45.593  35.971  31.190  1.00  0.00     0.002 A 
ATOM     88  C   UNL A   1      44.835  36.644  28.986  1.00  0.00     0.091 A 
ATOM     89  F   UNL A   1      43.666  35.070  27.627  1.00  0.00    -0.205 F 
ATOM     90  C   UNL A   1      45.463  36.946  30.204  1.00  0.00     0.022 A 
BRANCH  88  91
ATOM     91  S   UNL A   1      44.803  37.934  27.737  1.00  0.00     0.127 S 
ATOM     92  O   UNL A   1      45.486  39.029  28.423  1.00  0.00    -0.237 OA
ATOM     93  O   UNL A   1      45.565  37.327  26.646  1.00  0.00    -0.237 OA
ATOM     94  O   UNL A   1      43.397  38.167  27.435  1.00  0.00    -0.744 OA
ENDBRANCH  88  91
ENDBRANCH  61  84
ENDBRANCH  35  36
ENDBRANCH  27  30
ENDBRANCH  25  26
ENDBRANCH  24  25
ENDBRANCH   1  24
TORSDOF 20
ENDMDL
