MODEL 1
REMARK VINA RESULT:     -12.3      0.000      0.000
REMARK SMILES Cc1ccc(Nc2c(F)cccc2Cl)c(CC(=O)NCCCCNC(=O)c2ccc(-c3c4nc(c(-c5cccc(S(=O)(=O)[O-])c5F)c5ccc([nH]5)c(-c5cccc(S(=O)(=O)[O-])c5F)c5nc(c(-c6cccc(S(=O)(=O)[O-])c6F)c6ccc3[nH]6)C=C5)C=C4)cc2)c1
REMARK SMILES IDX 21 1 20 2 19 3 17 4 18 5 16 7 15 8 1 9 2 10 3 11 90 12 4 13
REMARK SMILES IDX 5 14 6 15 7 17 8 18 13 19 9 20 10 21 12 22 14 23 11 24 22 25
REMARK SMILES IDX 23 26 24 27 25 28 26 30 27 31 28 32 89 33 29 34 88 35 30 36
REMARK SMILES IDX 31 37 32 38 82 39 33 40 87 41 81 42 83 43 34 44 86 45 80 46
REMARK SMILES IDX 79 47 35 49 67 50 47 51 66 52 48 53 51 54 65 55 84 56 49 57
REMARK SMILES IDX 50 58 64 60 85 61 52 62 36 63 37 64 45 65 38 66 40 67 46 68
REMARK SMILES IDX 39 69 41 70 42 71 43 72 44 73 68 74 69 75 77 76 70 77 72 78
REMARK SMILES IDX 78 79 71 80 73 81 74 82 75 83 76 84 53 85 54 86 62 87 55 88
REMARK SMILES IDX 57 89 63 90 56 91 58 92 59 93 60 94 61 95
REMARK H PARENT 19 6 6 16 24 29 83 48 51 59
REMARK Flexibility Score: inf
ROOT
ATOM      1  C   UNL A   1      31.727  29.001  27.525  1.00  0.00     0.023 C 
ENDROOT
BRANCH   1   2
ATOM      2  C   UNL A   1      32.362  27.696  27.014  1.00  0.00     0.116 C 
BRANCH   2   3
ATOM      3  N   UNL A   1      31.454  26.561  27.064  1.00  0.00    -0.356 N 
ATOM      4  C   UNL A   1      31.618  25.290  26.601  1.00  0.00     0.224 C 
ATOM      5  O   UNL A   1      30.654  24.520  26.620  1.00  0.00    -0.275 OA
ATOM      6  H   UNL A   1      30.589  26.738  27.500  1.00  0.00     0.163 HD
BRANCH   4   7
ATOM      7  C   UNL A   1      32.947  24.826  26.036  1.00  0.00     0.137 C 
BRANCH   7   8
ATOM      8  C   UNL A   1      32.811  23.942  24.816  1.00  0.00    -0.015 A 
ATOM      9  C   UNL A   1      32.945  20.170  24.218  1.00  0.00     0.044 C 
ATOM     10  C   UNL A   1      32.820  21.642  23.973  1.00  0.00    -0.051 A 
ATOM     11  C   UNL A   1      32.833  22.140  22.673  1.00  0.00     0.005 A 
ATOM     12  C   UNL A   1      32.761  22.547  25.035  1.00  0.00     0.009 A 
ATOM     13  C   UNL A   1      32.816  23.519  22.444  1.00  0.00     0.026 A 
ATOM     14  C   UNL A   1      32.832  24.450  23.497  1.00  0.00     0.042 A 
BRANCH  14  15
ATOM     15  N   UNL A   1      32.867  25.839  23.242  1.00  0.00    -0.352 N 
ATOM     16  H   UNL A   1      33.733  26.191  22.932  1.00  0.00     0.167 HD
BRANCH  15  17
ATOM     17  C   UNL A   1      31.834  26.797  23.369  1.00  0.00     0.094 A 
ATOM     18  C   UNL A   1      30.477  26.446  23.274  1.00  0.00     0.148 A 
ATOM     19  C   UNL A   1      32.135  28.167  23.487  1.00  0.00     0.067 A 
ATOM     20  F   UNL A   1      30.115  25.158  23.178  1.00  0.00    -0.205 F 
ATOM     21  C   UNL A   1      29.464  27.405  23.286  1.00  0.00     0.041 A 
ATOM     22  C   UNL A   1      31.122  29.136  23.495  1.00  0.00     0.023 A 
ATOM     23  Cl  UNL A   1      33.772  28.717  23.576  1.00  0.00    -0.082 Cl
ATOM     24  C   UNL A   1      29.786  28.754  23.389  1.00  0.00     0.005 A 
ENDBRANCH  15  17
ENDBRANCH  14  15
ENDBRANCH   7   8
ENDBRANCH   4   7
ENDBRANCH   2   3
ENDBRANCH   1   2
BRANCH   1  25
ATOM     25  C   UNL A   1      32.206  30.284  26.847  1.00  0.00     0.023 C 
BRANCH  25  26
ATOM     26  C   UNL A   1      33.715  30.392  26.751  1.00  0.00     0.116 C 
BRANCH  26  27
ATOM     27  N   UNL A   1      34.293  31.393  27.631  1.00  0.00    -0.352 N 
ATOM     28  C   UNL A   1      35.174  31.234  28.687  1.00  0.00     0.251 C 
ATOM     29  H   UNL A   1      34.018  32.321  27.449  1.00  0.00     0.163 HD
ATOM     30  O   UNL A   1      35.339  32.179  29.454  1.00  0.00    -0.269 OA
BRANCH  28  31
ATOM     31  C   UNL A   1      36.020  30.015  28.781  1.00  0.00     0.039 A 
ATOM     32  C   UNL A   1      36.345  29.560  30.067  1.00  0.00     0.014 A 
ATOM     33  C   UNL A   1      36.712  29.520  27.681  1.00  0.00     0.014 A 
ATOM     34  C   UNL A   1      37.541  28.883  30.276  1.00  0.00     0.010 A 
ATOM     35  C   UNL A   1      37.943  28.941  27.887  1.00  0.00     0.010 A 
ATOM     36  C   UNL A   1      38.389  28.712  29.191  1.00  0.00    -0.014 A 
BRANCH  36  37
ATOM     37  C   UNL A   1      39.793  28.363  29.281  1.00  0.00     0.031 A 
ATOM     38  C   UNL A   1      40.214  26.978  29.037  1.00  0.00     0.074 A 
ATOM     39  C   UNL A   1      40.689  29.376  29.300  1.00  0.00     0.049 A 
ATOM     40  N   UNL A   1      41.431  26.583  29.170  1.00  0.00    -0.248 NA
ATOM     41  C   UNL A   1      39.295  25.913  28.646  1.00  0.00     0.031 C 
ATOM     42  C   UNL A   1      42.092  29.340  28.902  1.00  0.00     0.029 A 
ATOM     43  N   UNL A   1      40.548  30.630  29.907  1.00  0.00    -0.354 N 
ATOM     44  C   UNL A   1      41.516  25.364  28.548  1.00  0.00     0.074 A 
ATOM     45  C   UNL A   1      40.154  24.919  28.394  1.00  0.00     0.031 C 
ATOM     46  C   UNL A   1      42.739  30.348  29.507  1.00  0.00     0.029 A 
ATOM     47  C   UNL A   1      41.809  30.921  30.464  1.00  0.00     0.049 A 
ATOM     48  H   UNL A   1      39.739  31.188  29.940  1.00  0.00     0.167 HD
ATOM     49  C   UNL A   1      42.730  24.964  28.090  1.00  0.00     0.034 A 
ATOM     50  C   UNL A   1      42.020  31.003  31.813  1.00  0.00     0.034 A 
ATOM     51  C   UNL A   1      43.810  25.790  28.655  1.00  0.00     0.049 A 
ATOM     52  C   UNL A   1      43.030  29.979  32.334  1.00  0.00     0.074 A 
ATOM     53  C   UNL A   1      44.696  26.732  28.164  1.00  0.00     0.029 A 
ATOM     54  N   UNL A   1      43.907  25.868  30.038  1.00  0.00    -0.354 N 
ATOM     55  N   UNL A   1      43.722  29.154  31.594  1.00  0.00    -0.248 NA
ATOM     56  C   UNL A   1      43.256  29.750  33.760  1.00  0.00     0.031 C 
ATOM     57  C   UNL A   1      45.271  27.423  29.281  1.00  0.00     0.029 A 
ATOM     58  C   UNL A   1      44.778  26.863  30.447  1.00  0.00     0.049 A 
ATOM     59  H   UNL A   1      43.412  25.282  30.657  1.00  0.00     0.167 HD
ATOM     60  C   UNL A   1      44.318  28.202  32.387  1.00  0.00     0.074 A 
ATOM     61  C   UNL A   1      44.023  28.648  33.741  1.00  0.00     0.031 C 
ATOM     62  C   UNL A   1      44.937  27.082  31.883  1.00  0.00     0.034 A 
BRANCH  49  63
ATOM     63  C   UNL A   1      42.947  23.899  27.035  1.00  0.00     0.023 A 
ATOM     64  C   UNL A   1      43.639  24.277  25.864  1.00  0.00     0.012 A 
ATOM     65  C   UNL A   1      42.434  22.576  27.057  1.00  0.00     0.148 A 
ATOM     66  C   UNL A   1      43.819  23.401  24.786  1.00  0.00     0.002 A 
ATOM     67  C   UNL A   1      42.684  21.677  26.015  1.00  0.00     0.091 A 
ATOM     68  F   UNL A   1      41.600  22.193  28.029  1.00  0.00    -0.205 F 
ATOM     69  C   UNL A   1      43.362  22.092  24.870  1.00  0.00     0.022 A 
BRANCH  67  70
ATOM     70  S   UNL A   1      42.178  19.947  26.103  1.00  0.00     0.127 S 
ATOM     71  O   UNL A   1      40.729  20.041  25.947  1.00  0.00    -0.237 OA
ATOM     72  O   UNL A   1      42.876  19.354  24.960  1.00  0.00    -0.237 OA
ATOM     73  O   UNL A   1      42.640  19.461  27.398  1.00  0.00    -0.744 OA
ENDBRANCH  67  70
ENDBRANCH  49  63
BRANCH  50  74
ATOM     74  C   UNL A   1      40.816  31.497  32.556  1.00  0.00     0.023 A 
ATOM     75  C   UNL A   1      39.947  30.513  33.089  1.00  0.00     0.012 A 
ATOM     76  C   UNL A   1      40.752  32.803  33.074  1.00  0.00     0.148 A 
ATOM     77  C   UNL A   1      39.163  30.780  34.213  1.00  0.00     0.002 A 
ATOM     78  C   UNL A   1      39.948  33.067  34.183  1.00  0.00     0.091 A 
ATOM     79  F   UNL A   1      41.531  33.749  32.536  1.00  0.00    -0.205 F 
ATOM     80  C   UNL A   1      39.194  32.047  34.784  1.00  0.00     0.022 A 
BRANCH  78  81
ATOM     81  S   UNL A   1      39.942  34.689  34.960  1.00  0.00     0.127 S 
ATOM     82  O   UNL A   1      38.796  35.317  34.311  1.00  0.00    -0.237 OA
ATOM     83  O   UNL A   1      39.748  34.363  36.373  1.00  0.00    -0.237 OA
ATOM     84  O   UNL A   1      41.249  35.251  34.653  1.00  0.00    -0.744 OA
ENDBRANCH  78  81
ENDBRANCH  50  74
BRANCH  62  85
ATOM     85  C   UNL A   1      45.658  26.028  32.729  1.00  0.00     0.023 A 
ATOM     86  C   UNL A   1      47.060  25.899  32.711  1.00  0.00     0.012 A 
ATOM     87  C   UNL A   1      44.958  25.061  33.504  1.00  0.00     0.148 A 
ATOM     88  C   UNL A   1      47.738  24.979  33.524  1.00  0.00     0.002 A 
ATOM     89  C   UNL A   1      45.629  24.126  34.291  1.00  0.00     0.091 A 
ATOM     90  F   UNL A   1      43.625  24.996  33.452  1.00  0.00    -0.205 F 
ATOM     91  C   UNL A   1      47.023  24.106  34.331  1.00  0.00     0.022 A 
BRANCH  89  92
ATOM     92  S   UNL A   1      44.764  22.883  35.265  1.00  0.00     0.127 S 
ATOM     93  O   UNL A   1      44.411  21.902  34.240  1.00  0.00    -0.237 OA
ATOM     94  O   UNL A   1      45.807  22.447  36.194  1.00  0.00    -0.237 OA
ATOM     95  O   UNL A   1      43.639  23.562  35.891  1.00  0.00    -0.744 OA
ENDBRANCH  89  92
ENDBRANCH  62  85
ENDBRANCH  36  37
ENDBRANCH  28  31
ENDBRANCH  26  27
ENDBRANCH  25  26
ENDBRANCH   1  25
TORSDOF 17
ENDMDL
MODEL 2
REMARK VINA RESULT:     -12.2      2.524      4.185
REMARK SMILES Cc1ccc(Nc2c(F)cccc2Cl)c(CC(=O)NCCCCNC(=O)c2ccc(-c3c4nc(c(-c5cccc(S(=O)(=O)[O-])c5F)c5ccc([nH]5)c(-c5cccc(S(=O)(=O)[O-])c5F)c5nc(c(-c6cccc(S(=O)(=O)[O-])c6F)c6ccc3[nH]6)C=C5)C=C4)cc2)c1
REMARK SMILES IDX 21 1 20 2 19 3 17 4 18 5 16 7 15 8 1 9 2 10 3 11 90 12 4 13
REMARK SMILES IDX 5 14 6 15 7 17 8 18 13 19 9 20 10 21 12 22 14 23 11 24 22 25
REMARK SMILES IDX 23 26 24 27 25 28 26 30 27 31 28 32 89 33 29 34 88 35 30 36
REMARK SMILES IDX 31 37 32 38 82 39 33 40 87 41 81 42 83 43 34 44 86 45 80 46
REMARK SMILES IDX 79 47 35 49 67 50 47 51 66 52 48 53 51 54 65 55 84 56 49 57
REMARK SMILES IDX 50 58 64 60 85 61 52 62 36 63 37 64 45 65 38 66 40 67 46 68
REMARK SMILES IDX 39 69 41 70 42 71 43 72 44 73 68 74 69 75 77 76 70 77 72 78
REMARK SMILES IDX 78 79 71 80 73 81 74 82 75 83 76 84 53 85 54 86 62 87 55 88
REMARK SMILES IDX 57 89 63 90 56 91 58 92 59 93 60 94 61 95
REMARK H PARENT 19 6 6 16 24 29 83 48 51 59
REMARK Flexibility Score: inf
ROOT
ATOM      1  C   UNL A   1      35.075  29.736  27.282  1.00  0.00     0.023 C 
ENDROOT
BRANCH   1   2
ATOM      2  C   UNL A   1      33.669  29.842  26.667  1.00  0.00     0.116 C 
BRANCH   2   3
ATOM      3  N   UNL A   1      32.646  29.184  27.465  1.00  0.00    -0.356 N 
ATOM      4  C   UNL A   1      31.888  28.088  27.182  1.00  0.00     0.224 C 
ATOM      5  O   UNL A   1      30.969  27.785  27.948  1.00  0.00    -0.275 OA
ATOM      6  H   UNL A   1      32.476  29.593  28.344  1.00  0.00     0.163 HD
BRANCH   4   7
ATOM      7  C   UNL A   1      32.133  27.265  25.930  1.00  0.00     0.137 C 
BRANCH   7   8
ATOM      8  C   UNL A   1      31.013  27.355  24.917  1.00  0.00    -0.015 A 
ATOM      9  C   UNL A   1      29.497  30.189  22.850  1.00  0.00     0.044 C 
ATOM     10  C   UNL A   1      29.749  28.828  23.424  1.00  0.00    -0.051 A 
ATOM     11  C   UNL A   1      28.838  27.798  23.211  1.00  0.00     0.005 A 
ATOM     12  C   UNL A   1      30.857  28.584  24.239  1.00  0.00     0.009 A 
ATOM     13  C   UNL A   1      29.019  26.556  23.827  1.00  0.00     0.026 A 
ATOM     14  C   UNL A   1      30.085  26.310  24.709  1.00  0.00     0.042 A 
BRANCH  14  15
ATOM     15  N   UNL A   1      30.219  25.063  25.360  1.00  0.00    -0.352 N 
ATOM     16  H   UNL A   1      29.726  24.972  26.207  1.00  0.00     0.167 HD
BRANCH  15  17
ATOM     17  C   UNL A   1      30.964  23.926  24.967  1.00  0.00     0.094 A 
ATOM     18  C   UNL A   1      31.730  23.906  23.790  1.00  0.00     0.148 A 
ATOM     19  C   UNL A   1      30.875  22.723  25.694  1.00  0.00     0.067 A 
ATOM     20  F   UNL A   1      31.874  25.021  23.057  1.00  0.00    -0.205 F 
ATOM     21  C   UNL A   1      32.371  22.750  23.345  1.00  0.00     0.041 A 
ATOM     22  C   UNL A   1      31.513  21.557  25.250  1.00  0.00     0.023 A 
ATOM     23  Cl  UNL A   1      29.931  22.621  27.140  1.00  0.00    -0.082 Cl
ATOM     24  C   UNL A   1      32.257  21.570  24.072  1.00  0.00     0.005 A 
ENDBRANCH  15  17
ENDBRANCH  14  15
ENDBRANCH   7   8
ENDBRANCH   4   7
ENDBRANCH   2   3
ENDBRANCH   1   2
BRANCH   1  25
ATOM     25  C   UNL A   1      35.611  31.006  27.940  1.00  0.00     0.023 C 
BRANCH  25  26
ATOM     26  C   UNL A   1      34.790  31.464  29.130  1.00  0.00     0.116 C 
BRANCH  26  27
ATOM     27  N   UNL A   1      34.334  32.840  29.040  1.00  0.00    -0.352 N 
ATOM     28  C   UNL A   1      34.819  33.972  29.672  1.00  0.00     0.251 C 
ATOM     29  H   UNL A   1      33.566  32.990  28.442  1.00  0.00     0.163 HD
ATOM     30  O   UNL A   1      34.132  34.990  29.653  1.00  0.00    -0.269 OA
BRANCH  28  31
ATOM     31  C   UNL A   1      36.207  33.996  30.206  1.00  0.00     0.039 A 
ATOM     32  C   UNL A   1      37.246  34.152  29.277  1.00  0.00     0.014 A 
ATOM     33  C   UNL A   1      36.499  33.586  31.501  1.00  0.00     0.014 A 
ATOM     34  C   UNL A   1      38.494  33.596  29.541  1.00  0.00     0.010 A 
ATOM     35  C   UNL A   1      37.694  32.946  31.733  1.00  0.00     0.010 A 
ATOM     36  C   UNL A   1      38.649  32.875  30.716  1.00  0.00    -0.014 A 
BRANCH  36  37
ATOM     37  C   UNL A   1      39.731  31.949  30.984  1.00  0.00     0.031 A 
ATOM     38  C   UNL A   1      39.736  30.631  30.339  1.00  0.00     0.074 A 
ATOM     39  C   UNL A   1      40.838  32.440  31.586  1.00  0.00     0.049 A 
ATOM     40  N   UNL A   1      40.625  29.735  30.585  1.00  0.00    -0.248 NA
ATOM     41  C   UNL A   1      38.725  30.200  29.377  1.00  0.00     0.031 C 
ATOM     42  C   UNL A   1      42.197  31.911  31.534  1.00  0.00     0.029 A 
ATOM     43  N   UNL A   1      40.905  33.432  32.573  1.00  0.00    -0.354 N 
ATOM     44  C   UNL A   1      40.525  28.800  29.586  1.00  0.00     0.074 A 
ATOM     45  C   UNL A   1      39.244  29.036  28.971  1.00  0.00     0.031 C 
ATOM     46  C   UNL A   1      42.874  32.354  32.604  1.00  0.00     0.029 A 
ATOM     47  C   UNL A   1      41.905  33.003  33.468  1.00  0.00     0.049 A 
ATOM     48  H   UNL A   1      40.368  34.254  32.628  1.00  0.00     0.167 HD
ATOM     49  C   UNL A   1      41.622  28.052  29.300  1.00  0.00     0.034 A 
ATOM     50  C   UNL A   1      41.634  32.639  34.759  1.00  0.00     0.034 A 
ATOM     51  C   UNL A   1      42.633  28.162  30.363  1.00  0.00     0.049 A 
ATOM     52  C   UNL A   1      41.997  31.186  35.069  1.00  0.00     0.074 A 
ATOM     53  C   UNL A   1      43.891  28.726  30.480  1.00  0.00     0.029 A 
ATOM     54  N   UNL A   1      42.248  27.834  31.657  1.00  0.00    -0.354 N 
ATOM     55  N   UNL A   1      42.599  30.365  34.251  1.00  0.00    -0.248 NA
ATOM     56  C   UNL A   1      41.610  30.526  36.316  1.00  0.00     0.031 C 
ATOM     57  C   UNL A   1      44.219  28.794  31.874  1.00  0.00     0.029 A 
ATOM     58  C   UNL A   1      43.188  28.220  32.597  1.00  0.00     0.049 A 
ATOM     59  H   UNL A   1      41.403  27.379  31.880  1.00  0.00     0.167 HD
ATOM     60  C   UNL A   1      42.527  29.081  34.740  1.00  0.00     0.074 A 
ATOM     61  C   UNL A   1      41.929  29.247  36.057  1.00  0.00     0.031 C 
ATOM     62  C   UNL A   1      42.885  27.975  34.006  1.00  0.00     0.034 A 
BRANCH  49  63
ATOM     63  C   UNL A   1      41.843  27.306  28.000  1.00  0.00     0.023 A 
ATOM     64  C   UNL A   1      41.856  28.066  26.810  1.00  0.00     0.012 A 
ATOM     65  C   UNL A   1      41.937  25.899  27.843  1.00  0.00     0.148 A 
ATOM     66  C   UNL A   1      41.963  27.472  25.546  1.00  0.00     0.002 A 
ATOM     67  C   UNL A   1      42.126  25.313  26.587  1.00  0.00     0.091 A 
ATOM     68  F   UNL A   1      41.734  25.090  28.888  1.00  0.00    -0.205 F 
ATOM     69  C   UNL A   1      42.122  26.097  25.434  1.00  0.00     0.022 A 
BRANCH  67  70
ATOM     70  S   UNL A   1      42.410  23.543  26.390  1.00  0.00     0.127 S 
ATOM     71  O   UNL A   1      41.074  22.990  26.599  1.00  0.00    -0.237 OA
ATOM     72  O   UNL A   1      42.898  23.451  25.012  1.00  0.00    -0.237 OA
ATOM     73  O   UNL A   1      43.402  23.183  27.397  1.00  0.00    -0.744 OA
ENDBRANCH  67  70
ENDBRANCH  49  63
BRANCH  50  74
ATOM     74  C   UNL A   1      40.474  33.391  35.339  1.00  0.00     0.023 A 
ATOM     75  C   UNL A   1      39.188  32.827  35.149  1.00  0.00     0.012 A 
ATOM     76  C   UNL A   1      40.648  34.343  36.360  1.00  0.00     0.148 A 
ATOM     77  C   UNL A   1      38.154  33.078  36.053  1.00  0.00     0.002 A 
ATOM     78  C   UNL A   1      39.602  34.604  37.245  1.00  0.00     0.091 A 
ATOM     79  F   UNL A   1      41.846  34.919  36.506  1.00  0.00    -0.205 F 
ATOM     80  C   UNL A   1      38.374  33.936  37.124  1.00  0.00     0.022 A 
BRANCH  78  81
ATOM     81  S   UNL A   1      39.825  35.711  38.645  1.00  0.00     0.127 S 
ATOM     82  O   UNL A   1      39.640  37.015  38.016  1.00  0.00    -0.237 OA
ATOM     83  O   UNL A   1      38.749  35.303  39.546  1.00  0.00    -0.237 OA
ATOM     84  O   UNL A   1      41.161  35.414  39.141  1.00  0.00    -0.744 OA
ENDBRANCH  78  81
ENDBRANCH  50  74
BRANCH  62  85
ATOM     85  C   UNL A   1      42.870  26.536  34.531  1.00  0.00     0.023 A 
ATOM     86  C   UNL A   1      41.713  25.967  35.095  1.00  0.00     0.012 A 
ATOM     87  C   UNL A   1      44.039  25.724  34.568  1.00  0.00     0.148 A 
ATOM     88  C   UNL A   1      41.668  24.633  35.525  1.00  0.00     0.002 A 
ATOM     89  C   UNL A   1      44.003  24.407  35.022  1.00  0.00     0.091 A 
ATOM     90  F   UNL A   1      45.221  26.233  34.210  1.00  0.00    -0.205 F 
ATOM     91  C   UNL A   1      42.808  23.845  35.469  1.00  0.00     0.022 A 
BRANCH  89  92
ATOM     92  S   UNL A   1      45.473  23.368  35.094  1.00  0.00     0.127 S 
ATOM     93  O   UNL A   1      45.936  23.420  33.707  1.00  0.00    -0.237 OA
ATOM     94  O   UNL A   1      46.312  24.097  36.045  1.00  0.00    -0.237 OA
ATOM     95  O   UNL A   1      45.029  22.060  35.553  1.00  0.00    -0.744 OA
ENDBRANCH  89  92
ENDBRANCH  62  85
ENDBRANCH  36  37
ENDBRANCH  28  31
ENDBRANCH  26  27
ENDBRANCH  25  26
ENDBRANCH   1  25
TORSDOF 17
ENDMDL
MODEL 3
REMARK VINA RESULT:     -12.1      1.687      2.267
REMARK SMILES Cc1ccc(Nc2c(F)cccc2Cl)c(CC(=O)NCCCCNC(=O)c2ccc(-c3c4nc(c(-c5cccc(S(=O)(=O)[O-])c5F)c5ccc([nH]5)c(-c5cccc(S(=O)(=O)[O-])c5F)c5nc(c(-c6cccc(S(=O)(=O)[O-])c6F)c6ccc3[nH]6)C=C5)C=C4)cc2)c1
REMARK SMILES IDX 21 1 20 2 19 3 17 4 18 5 16 7 15 8 1 9 2 10 3 11 90 12 4 13
REMARK SMILES IDX 5 14 6 15 7 17 8 18 13 19 9 20 10 21 12 22 14 23 11 24 22 25
REMARK SMILES IDX 23 26 24 27 25 28 26 30 27 31 28 32 89 33 29 34 88 35 30 36
REMARK SMILES IDX 31 37 32 38 82 39 33 40 87 41 81 42 83 43 34 44 86 45 80 46
REMARK SMILES IDX 79 47 35 49 67 50 47 51 66 52 48 53 51 54 65 55 84 56 49 57
REMARK SMILES IDX 50 58 64 60 85 61 52 62 36 63 37 64 45 65 38 66 40 67 46 68
REMARK SMILES IDX 39 69 41 70 42 71 43 72 44 73 68 74 69 75 77 76 70 77 72 78
REMARK SMILES IDX 78 79 71 80 73 81 74 82 75 83 76 84 53 85 54 86 62 87 55 88
REMARK SMILES IDX 57 89 63 90 56 91 58 92 59 93 60 94 61 95
REMARK H PARENT 19 6 6 16 24 29 83 48 51 59
REMARK Flexibility Score: inf
ROOT
ATOM      1  C   UNL A   1      32.745  28.587  27.279  1.00  0.00     0.023 C 
ENDROOT
BRANCH   1   2
ATOM      2  C   UNL A   1      33.039  27.308  26.476  1.00  0.00     0.116 C 
BRANCH   2   3
ATOM      3  N   UNL A   1      32.140  26.211  26.799  1.00  0.00    -0.356 N 
ATOM      4  C   UNL A   1      30.919  25.902  26.281  1.00  0.00     0.224 C 
ATOM      5  O   UNL A   1      30.259  25.001  26.808  1.00  0.00    -0.275 OA
ATOM      6  H   UNL A   1      32.465  25.598  27.498  1.00  0.00     0.163 HD
BRANCH   4   7
ATOM      7  C   UNL A   1      30.349  26.666  25.100  1.00  0.00     0.137 C 
BRANCH   7   8
ATOM      8  C   UNL A   1      31.276  26.714  23.906  1.00  0.00    -0.015 A 
ATOM      9  C   UNL A   1      33.359  24.116  22.031  1.00  0.00     0.044 C 
ATOM     10  C   UNL A   1      32.741  25.421  22.429  1.00  0.00    -0.051 A 
ATOM     11  C   UNL A   1      33.205  26.613  21.879  1.00  0.00     0.005 A 
ATOM     12  C   UNL A   1      31.745  25.479  23.406  1.00  0.00     0.009 A 
ATOM     13  C   UNL A   1      32.700  27.840  22.321  1.00  0.00     0.026 A 
ATOM     14  C   UNL A   1      31.751  27.926  23.354  1.00  0.00     0.042 A 
BRANCH  14  15
ATOM     15  N   UNL A   1      31.292  29.178  23.820  1.00  0.00    -0.352 N 
ATOM     16  H   UNL A   1      31.892  29.642  24.449  1.00  0.00     0.167 HD
BRANCH  15  17
ATOM     17  C   UNL A   1      30.092  29.861  23.512  1.00  0.00     0.094 A 
ATOM     18  C   UNL A   1      29.259  29.463  22.454  1.00  0.00     0.148 A 
ATOM     19  C   UNL A   1      29.742  31.043  24.194  1.00  0.00     0.067 A 
ATOM     20  F   UNL A   1      29.520  28.337  21.772  1.00  0.00    -0.205 F 
ATOM     21  C   UNL A   1      28.137  30.202  22.079  1.00  0.00     0.041 A 
ATOM     22  C   UNL A   1      28.619  31.792  23.819  1.00  0.00     0.023 A 
ATOM     23  Cl  UNL A   1      30.715  31.646  25.490  1.00  0.00    -0.082 Cl
ATOM     24  C   UNL A   1      27.819  31.374  22.758  1.00  0.00     0.005 A 
ENDBRANCH  15  17
ENDBRANCH  14  15
ENDBRANCH   7   8
ENDBRANCH   4   7
ENDBRANCH   2   3
ENDBRANCH   1   2
BRANCH   1  25
ATOM     25  C   UNL A   1      33.542  29.826  26.874  1.00  0.00     0.023 C 
BRANCH  25  26
ATOM     26  C   UNL A   1      33.521  30.927  27.915  1.00  0.00     0.116 C 
BRANCH  26  27
ATOM     27  N   UNL A   1      34.523  31.958  27.708  1.00  0.00    -0.352 N 
ATOM     28  C   UNL A   1      35.855  31.979  28.082  1.00  0.00     0.251 C 
ATOM     29  H   UNL A   1      34.208  32.760  27.232  1.00  0.00     0.163 HD
ATOM     30  O   UNL A   1      36.457  33.049  28.032  1.00  0.00    -0.269 OA
BRANCH  28  31
ATOM     31  C   UNL A   1      36.575  30.708  28.367  1.00  0.00     0.039 A 
ATOM     32  C   UNL A   1      36.886  30.438  29.707  1.00  0.00     0.014 A 
ATOM     33  C   UNL A   1      37.180  29.970  27.357  1.00  0.00     0.014 A 
ATOM     34  C   UNL A   1      38.013  29.680  30.012  1.00  0.00     0.010 A 
ATOM     35  C   UNL A   1      38.351  29.306  27.642  1.00  0.00     0.010 A 
ATOM     36  C   UNL A   1      38.808  29.246  28.961  1.00  0.00    -0.014 A 
BRANCH  36  37
ATOM     37  C   UNL A   1      40.170  28.770  29.093  1.00  0.00     0.031 A 
ATOM     38  C   UNL A   1      40.460  27.341  28.922  1.00  0.00     0.074 A 
ATOM     39  C   UNL A   1      41.159  29.693  29.079  1.00  0.00     0.049 A 
ATOM     40  N   UNL A   1      41.631  26.840  29.094  1.00  0.00    -0.248 NA
ATOM     41  C   UNL A   1      39.448  26.351  28.565  1.00  0.00     0.031 C 
ATOM     42  C   UNL A   1      42.557  29.505  28.708  1.00  0.00     0.029 A 
ATOM     43  N   UNL A   1      41.131  30.983  29.624  1.00  0.00    -0.354 N 
ATOM     44  C   UNL A   1      41.608  25.589  28.532  1.00  0.00     0.074 A 
ATOM     45  C   UNL A   1      40.212  25.268  28.375  1.00  0.00     0.031 C 
ATOM     46  C   UNL A   1      43.289  30.475  29.276  1.00  0.00     0.029 A 
ATOM     47  C   UNL A   1      42.406  31.179  30.188  1.00  0.00     0.049 A 
ATOM     48  H   UNL A   1      40.379  31.617  29.615  1.00  0.00     0.167 HD
ATOM     49  C   UNL A   1      42.784  25.053  28.115  1.00  0.00     0.034 A 
ATOM     50  C   UNL A   1      42.607  31.307  31.536  1.00  0.00     0.034 A 
ATOM     51  C   UNL A   1      43.930  25.799  28.659  1.00  0.00     0.049 A 
ATOM     52  C   UNL A   1      43.507  30.218  32.122  1.00  0.00     0.074 A 
ATOM     53  C   UNL A   1      44.909  26.628  28.141  1.00  0.00     0.029 A 
ATOM     54  N   UNL A   1      44.016  25.935  30.039  1.00  0.00    -0.354 N 
ATOM     55  N   UNL A   1      44.126  29.296  31.434  1.00  0.00    -0.248 NA
ATOM     56  C   UNL A   1      43.691  30.039  33.561  1.00  0.00     0.031 C 
ATOM     57  C   UNL A   1      45.533  27.315  29.234  1.00  0.00     0.029 A 
ATOM     58  C   UNL A   1      44.973  26.862  30.416  1.00  0.00     0.049 A 
ATOM     59  H   UNL A   1      43.459  25.430  30.676  1.00  0.00     0.167 HD
ATOM     60  C   UNL A   1      44.618  28.332  32.282  1.00  0.00     0.074 A 
ATOM     61  C   UNL A   1      44.349  28.869  33.608  1.00  0.00     0.031 C 
ATOM     62  C   UNL A   1      45.133  27.135  31.842  1.00  0.00     0.034 A 
BRANCH  49  63
ATOM     63  C   UNL A   1      42.911  23.923  27.115  1.00  0.00     0.023 A 
ATOM     64  C   UNL A   1      43.629  24.184  25.928  1.00  0.00     0.012 A 
ATOM     65  C   UNL A   1      42.293  22.648  27.203  1.00  0.00     0.148 A 
ATOM     66  C   UNL A   1      43.734  23.243  24.896  1.00  0.00     0.002 A 
ATOM     67  C   UNL A   1      42.467  21.680  26.209  1.00  0.00     0.091 A 
ATOM     68  F   UNL A   1      41.434  22.383  28.193  1.00  0.00    -0.205 F 
ATOM     69  C   UNL A   1      43.174  21.981  25.045  1.00  0.00     0.022 A 
BRANCH  67  70
ATOM     70  S   UNL A   1      41.825  20.004  26.383  1.00  0.00     0.127 S 
ATOM     71  O   UNL A   1      40.385  20.209  26.242  1.00  0.00    -0.237 OA
ATOM     72  O   UNL A   1      42.453  19.304  25.261  1.00  0.00    -0.237 OA
ATOM     73  O   UNL A   1      42.266  19.541  27.694  1.00  0.00    -0.744 OA
ENDBRANCH  67  70
ENDBRANCH  49  63
BRANCH  50  74
ATOM     74  C   UNL A   1      41.446  31.949  32.233  1.00  0.00     0.023 A 
ATOM     75  C   UNL A   1      41.118  33.271  31.842  1.00  0.00     0.012 A 
ATOM     76  C   UNL A   1      40.476  31.186  32.907  1.00  0.00     0.148 A 
ATOM     77  C   UNL A   1      39.814  33.754  31.969  1.00  0.00     0.002 A 
ATOM     78  C   UNL A   1      39.182  31.685  33.049  1.00  0.00     0.091 A 
ATOM     79  F   UNL A   1      40.800  29.958  33.328  1.00  0.00    -0.205 F 
ATOM     80  C   UNL A   1      38.837  32.945  32.536  1.00  0.00     0.022 A 
BRANCH  78  81
ATOM     81  S   UNL A   1      37.876  30.688  33.782  1.00  0.00     0.127 S 
ATOM     82  O   UNL A   1      38.070  30.957  35.203  1.00  0.00    -0.237 OA
ATOM     83  O   UNL A   1      36.668  31.273  33.203  1.00  0.00    -0.237 OA
ATOM     84  O   UNL A   1      38.154  29.331  33.335  1.00  0.00    -0.744 OA
ENDBRANCH  78  81
ENDBRANCH  50  74
BRANCH  62  85
ATOM     85  C   UNL A   1      45.739  26.059  32.749  1.00  0.00     0.023 A 
ATOM     86  C   UNL A   1      47.121  25.791  32.757  1.00  0.00     0.012 A 
ATOM     87  C   UNL A   1      44.940  25.207  33.563  1.00  0.00     0.148 A 
ATOM     88  C   UNL A   1      47.697  24.852  33.624  1.00  0.00     0.002 A 
ATOM     89  C   UNL A   1      45.509  24.253  34.405  1.00  0.00     0.091 A 
ATOM     90  F   UNL A   1      43.608  25.272  33.497  1.00  0.00    -0.205 F 
ATOM     91  C   UNL A   1      46.893  24.097  34.464  1.00  0.00     0.022 A 
BRANCH  89  92
ATOM     92  S   UNL A   1      44.516  23.153  35.429  1.00  0.00     0.127 S 
ATOM     93  O   UNL A   1      43.635  24.102  36.108  1.00  0.00    -0.237 OA
ATOM     94  O   UNL A   1      43.856  22.318  34.425  1.00  0.00    -0.237 OA
ATOM     95  O   UNL A   1      45.449  22.442  36.291  1.00  0.00    -0.744 OA
ENDBRANCH  89  92
ENDBRANCH  62  85
ENDBRANCH  36  37
ENDBRANCH  28  31
ENDBRANCH  26  27
ENDBRANCH  25  26
ENDBRANCH   1  25
TORSDOF 17
ENDMDL
