MODEL 1
REMARK VINA RESULT:     -11.7      0.000      0.000
REMARK SMILES COc1cc([N+](=O)[O-])cc2c1=N[C@H](C(=O)NCCCCNC(=O)c1ccc(-c3c4nc(c(-c5cccc(S(=O)(=O)[O-])c5F)c5ccc([nH]5)c(-c5cccc(S(=O)(=O)[O-])c5F)c5nc(c(-c6cccc(S(=O)(=O)[O-])c6F)c6ccc3[nH]6)C=C5)C=C4)cc1)C=2CC[NH3+]
REMARK SMILES IDX 18 1 17 2 16 3 14 4 15 5 13 7 3 8 4 9 11 10 5 11 10 12 12 13
REMARK SMILES IDX 9 14 87 15 2 16 1 17 6 18 7 19 8 20 88 21 89 22 90 23 19 27
REMARK SMILES IDX 20 28 21 29 22 30 23 32 24 33 25 34 86 35 26 36 85 37 27 38
REMARK SMILES IDX 28 39 29 40 79 41 30 42 84 43 78 44 80 45 31 46 83 47 77 48
REMARK SMILES IDX 76 49 32 51 64 52 44 53 63 54 45 55 48 56 62 57 81 58 46 59
REMARK SMILES IDX 47 60 61 62 82 63 49 64 33 65 34 66 42 67 35 68 37 69 43 70
REMARK SMILES IDX 36 71 38 72 39 73 40 74 41 75 65 76 66 77 74 78 67 79 69 80
REMARK SMILES IDX 75 81 68 82 70 83 71 84 72 85 73 86 50 87 51 88 59 89 52 90
REMARK SMILES IDX 54 91 60 92 53 93 55 94 56 95 57 96 58 97
REMARK H PARENT 16 6 90 24 90 25 90 26 21 31 80 50 48 61
REMARK Flexibility Score: inf
ROOT
ATOM      1  C   UNL A   1      35.285  22.360  26.196  1.00  0.00     0.023 C 
ENDROOT
BRANCH   1   2
ATOM      2  C   UNL A   1      34.086  22.985  25.492  1.00  0.00     0.116 C 
BRANCH   2   3
ATOM      3  N   UNL A   1      32.974  23.280  26.381  1.00  0.00    -0.354 N 
ATOM      4  C   UNL A   1      32.268  24.441  26.551  1.00  0.00     0.249 C 
ATOM      5  O   UNL A   1      31.258  24.360  27.257  1.00  0.00    -0.272 OA
ATOM      6  H   UNL A   1      32.684  22.529  26.949  1.00  0.00     0.163 HD
BRANCH   4   7
ATOM      7  C   UNL A   1      32.766  25.796  25.957  1.00  0.00     0.222 C 
ATOM      8  C   UNL A   1      31.740  26.367  22.482  1.00  0.00     0.151 A 
ATOM      9  C   UNL A   1      30.857  27.292  22.053  1.00  0.00     0.134 A 
ATOM     10  C   UNL A   1      32.025  26.322  23.945  1.00  0.00     0.109 A 
ATOM     11  C   UNL A   1      30.191  28.227  22.958  1.00  0.00     0.273 A 
ATOM     12  C   UNL A   1      31.267  27.215  24.831  1.00  0.00     0.012 A 
ATOM     13  N   UNL A   1      32.942  25.596  24.494  1.00  0.00    -0.263 NA
ATOM     14  C   UNL A   1      30.376  28.199  24.294  1.00  0.00     0.096 A 
ATOM     15  C   UNL A   1      31.774  26.944  26.041  1.00  0.00    -0.021 C 
BRANCH   8  16
ATOM     16  O   UNL A   1      32.418  25.441  21.726  1.00  0.00    -0.494 OA
ATOM     17  C   UNL A   1      32.547  25.653  20.330  1.00  0.00     0.278 C 
ENDBRANCH   8  16
BRANCH  11  18
ATOM     18  N   UNL A   1      29.295  29.260  22.418  1.00  0.00     0.062 N 
ATOM     19  O   UNL A   1      29.796  30.298  21.961  1.00  0.00    -0.258 OA
ATOM     20  O   UNL A   1      28.079  29.022  22.443  1.00  0.00    -0.258 OA
ENDBRANCH  11  18
BRANCH  15  21
ATOM     21  C   UNL A   1      31.608  27.789  27.279  1.00  0.00     0.096 C 
BRANCH  21  22
ATOM     22  C   UNL A   1      32.180  29.212  27.286  1.00  0.00     0.263 C 
BRANCH  22  23
ATOM     23  N   UNL A   1      33.615  29.230  27.002  1.00  0.00    -0.357 N 
ATOM     24  H   UNL A   1      34.134  29.078  27.867  1.00  0.00     0.344 HD
ATOM     25  H   UNL A   1      33.872  30.134  26.605  1.00  0.00     0.344 HD
ATOM     26  H   UNL A   1      33.840  28.490  26.337  1.00  0.00     0.344 HD
ENDBRANCH  22  23
ENDBRANCH  21  22
ENDBRANCH  15  21
ENDBRANCH   4   7
ENDBRANCH   2   3
ENDBRANCH   1   2
BRANCH   1  27
ATOM     27  C   UNL A   1      35.852  21.092  25.570  1.00  0.00     0.023 C 
BRANCH  27  28
ATOM     28  C   UNL A   1      37.176  21.248  24.837  1.00  0.00     0.116 C 
BRANCH  28  29
ATOM     29  N   UNL A   1      38.139  20.200  25.139  1.00  0.00    -0.352 N 
ATOM     30  C   UNL A   1      39.320  20.278  25.848  1.00  0.00     0.251 C 
ATOM     31  H   UNL A   1      37.917  19.309  24.787  1.00  0.00     0.163 HD
ATOM     32  O   UNL A   1      40.053  19.302  25.931  1.00  0.00    -0.269 OA
BRANCH  30  33
ATOM     33  C   UNL A   1      39.713  21.568  26.463  1.00  0.00     0.039 A 
ATOM     34  C   UNL A   1      39.134  22.763  26.036  1.00  0.00     0.014 A 
ATOM     35  C   UNL A   1      40.723  21.581  27.427  1.00  0.00     0.014 A 
ATOM     36  C   UNL A   1      39.701  23.975  26.421  1.00  0.00     0.010 A 
ATOM     37  C   UNL A   1      41.231  22.802  27.883  1.00  0.00     0.010 A 
ATOM     38  C   UNL A   1      40.767  24.009  27.336  1.00  0.00    -0.014 A 
BRANCH  38  39
ATOM     39  C   UNL A   1      41.388  25.314  27.689  1.00  0.00     0.031 A 
ATOM     40  C   UNL A   1      42.775  25.667  27.210  1.00  0.00     0.074 A 
ATOM     41  C   UNL A   1      40.674  26.214  28.396  1.00  0.00     0.049 A 
ATOM     42  N   UNL A   1      43.451  26.772  27.402  1.00  0.00    -0.248 NA
ATOM     43  C   UNL A   1      43.500  24.660  26.417  1.00  0.00     0.031 C 
ATOM     44  C   UNL A   1      39.322  25.995  28.917  1.00  0.00     0.029 A 
ATOM     45  N   UNL A   1      40.970  27.499  28.776  1.00  0.00    -0.354 N 
ATOM     46  C   UNL A   1      44.687  26.577  26.797  1.00  0.00     0.074 A 
ATOM     47  C   UNL A   1      44.674  25.250  26.226  1.00  0.00     0.031 C 
ATOM     48  C   UNL A   1      38.884  27.124  29.494  1.00  0.00     0.029 A 
ATOM     49  C   UNL A   1      39.940  28.129  29.435  1.00  0.00     0.049 A 
ATOM     50  H   UNL A   1      41.837  27.929  28.596  1.00  0.00     0.167 HD
ATOM     51  C   UNL A   1      45.731  27.436  26.706  1.00  0.00     0.034 A 
ATOM     52  C   UNL A   1      39.850  29.376  29.936  1.00  0.00     0.034 A 
ATOM     53  C   UNL A   1      45.722  28.782  27.209  1.00  0.00     0.049 A 
ATOM     54  C   UNL A   1      41.023  30.304  29.814  1.00  0.00     0.074 A 
ATOM     55  C   UNL A   1      46.724  29.733  27.122  1.00  0.00     0.029 A 
ATOM     56  N   UNL A   1      44.663  29.373  27.876  1.00  0.00    -0.354 N 
ATOM     57  N   UNL A   1      42.158  30.115  29.187  1.00  0.00    -0.248 NA
ATOM     58  C   UNL A   1      40.903  31.618  30.464  1.00  0.00     0.031 C 
ATOM     59  C   UNL A   1      46.269  30.903  27.736  1.00  0.00     0.029 A 
ATOM     60  C   UNL A   1      44.986  30.678  28.204  1.00  0.00     0.049 A 
ATOM     61  H   UNL A   1      43.808  28.931  28.086  1.00  0.00     0.167 HD
ATOM     62  C   UNL A   1      42.880  31.290  29.350  1.00  0.00     0.074 A 
ATOM     63  C   UNL A   1      42.049  32.193  30.120  1.00  0.00     0.031 C 
ATOM     64  C   UNL A   1      44.129  31.584  28.919  1.00  0.00     0.034 A 
BRANCH  51  65
ATOM     65  C   UNL A   1      46.970  26.988  25.983  1.00  0.00     0.023 A 
ATOM     66  C   UNL A   1      47.114  27.298  24.616  1.00  0.00     0.012 A 
ATOM     67  C   UNL A   1      48.047  26.411  26.683  1.00  0.00     0.148 A 
ATOM     68  C   UNL A   1      48.315  27.041  23.956  1.00  0.00     0.002 A 
ATOM     69  C   UNL A   1      49.250  26.182  26.024  1.00  0.00     0.091 A 
ATOM     70  F   UNL A   1      47.883  26.127  27.983  1.00  0.00    -0.205 F 
ATOM     71  C   UNL A   1      49.384  26.495  24.661  1.00  0.00     0.022 A 
BRANCH  69  72
ATOM     72  S   UNL A   1      50.710  25.536  26.850  1.00  0.00     0.127 S 
ATOM     73  O   UNL A   1      51.609  25.303  25.719  1.00  0.00    -0.237 OA
ATOM     74  O   UNL A   1      51.093  26.653  27.712  1.00  0.00    -0.237 OA
ATOM     75  O   UNL A   1      50.281  24.332  27.549  1.00  0.00    -0.744 OA
ENDBRANCH  69  72
ENDBRANCH  51  65
BRANCH  52  76
ATOM     76  C   UNL A   1      38.573  29.836  30.545  1.00  0.00     0.023 A 
ATOM     77  C   UNL A   1      38.298  29.502  31.885  1.00  0.00     0.012 A 
ATOM     78  C   UNL A   1      37.661  30.634  29.830  1.00  0.00     0.148 A 
ATOM     79  C   UNL A   1      37.129  29.948  32.501  1.00  0.00     0.002 A 
ATOM     80  C   UNL A   1      36.520  31.111  30.463  1.00  0.00     0.091 A 
ATOM     81  F   UNL A   1      37.938  30.924  28.551  1.00  0.00    -0.205 F 
ATOM     82  C   UNL A   1      36.246  30.761  31.794  1.00  0.00     0.022 A 
BRANCH  80  83
ATOM     83  S   UNL A   1      35.384  32.252  29.666  1.00  0.00     0.127 S 
ATOM     84  O   UNL A   1      34.887  31.449  28.553  1.00  0.00    -0.237 OA
ATOM     85  O   UNL A   1      34.412  32.503  30.730  1.00  0.00    -0.237 OA
ATOM     86  O   UNL A   1      36.187  33.412  29.301  1.00  0.00    -0.744 OA
ENDBRANCH  80  83
ENDBRANCH  52  76
BRANCH  64  87
ATOM     87  C   UNL A   1      44.688  32.938  29.247  1.00  0.00     0.023 A 
ATOM     88  C   UNL A   1      45.461  33.096  30.413  1.00  0.00     0.012 A 
ATOM     89  C   UNL A   1      44.559  34.009  28.343  1.00  0.00     0.148 A 
ATOM     90  C   UNL A   1      46.094  34.308  30.680  1.00  0.00     0.002 A 
ATOM     91  C   UNL A   1      45.219  35.205  28.599  1.00  0.00     0.091 A 
ATOM     92  F   UNL A   1      43.810  33.832  27.245  1.00  0.00    -0.205 F 
ATOM     93  C   UNL A   1      45.983  35.356  29.770  1.00  0.00     0.022 A 
BRANCH  91  94
ATOM     94  S   UNL A   1      45.199  36.587  27.454  1.00  0.00     0.127 S 
ATOM     95  O   UNL A   1      45.852  36.010  26.280  1.00  0.00    -0.237 OA
ATOM     96  O   UNL A   1      43.766  36.836  27.295  1.00  0.00    -0.237 OA
ATOM     97  O   UNL A   1      45.934  37.663  28.106  1.00  0.00    -0.744 OA
ENDBRANCH  91  94
ENDBRANCH  64  87
ENDBRANCH  38  39
ENDBRANCH  30  33
ENDBRANCH  28  29
ENDBRANCH  27  28
ENDBRANCH   1  27
TORSDOF 19
ENDMDL
MODEL 2
REMARK VINA RESULT:     -11.6      4.114      7.851
REMARK SMILES COc1cc([N+](=O)[O-])cc2c1=N[C@H](C(=O)NCCCCNC(=O)c1ccc(-c3c4nc(c(-c5cccc(S(=O)(=O)[O-])c5F)c5ccc([nH]5)c(-c5cccc(S(=O)(=O)[O-])c5F)c5nc(c(-c6cccc(S(=O)(=O)[O-])c6F)c6ccc3[nH]6)C=C5)C=C4)cc1)C=2CC[NH3+]
REMARK SMILES IDX 18 1 17 2 16 3 14 4 15 5 13 7 3 8 4 9 11 10 5 11 10 12 12 13
REMARK SMILES IDX 9 14 87 15 2 16 1 17 6 18 7 19 8 20 88 21 89 22 90 23 19 27
REMARK SMILES IDX 20 28 21 29 22 30 23 32 24 33 25 34 86 35 26 36 85 37 27 38
REMARK SMILES IDX 28 39 29 40 79 41 30 42 84 43 78 44 80 45 31 46 83 47 77 48
REMARK SMILES IDX 76 49 32 51 64 52 44 53 63 54 45 55 48 56 62 57 81 58 46 59
REMARK SMILES IDX 47 60 61 62 82 63 49 64 33 65 34 66 42 67 35 68 37 69 43 70
REMARK SMILES IDX 36 71 38 72 39 73 40 74 41 75 65 76 66 77 74 78 67 79 69 80
REMARK SMILES IDX 75 81 68 82 70 83 71 84 72 85 73 86 50 87 51 88 59 89 52 90
REMARK SMILES IDX 54 91 60 92 53 93 55 94 56 95 57 96 58 97
REMARK H PARENT 16 6 90 24 90 25 90 26 21 31 80 50 48 61
REMARK Flexibility Score: inf
ROOT
ATOM      1  C   UNL A   1      33.437  28.709  24.775  1.00  0.00     0.023 C 
ENDROOT
BRANCH   1   2
ATOM      2  C   UNL A   1      32.587  27.559  24.248  1.00  0.00     0.116 C 
BRANCH   2   3
ATOM      3  N   UNL A   1      33.211  26.823  23.159  1.00  0.00    -0.354 N 
ATOM      4  C   UNL A   1      33.781  25.578  23.153  1.00  0.00     0.249 C 
ATOM      5  O   UNL A   1      34.084  25.129  22.043  1.00  0.00    -0.272 OA
ATOM      6  H   UNL A   1      33.225  27.292  22.293  1.00  0.00     0.163 HD
BRANCH   4   7
ATOM      7  C   UNL A   1      34.104  24.818  24.478  1.00  0.00     0.222 C 
ATOM      8  C   UNL A   1      31.624  22.271  25.379  1.00  0.00     0.151 A 
ATOM      9  C   UNL A   1      31.814  20.937  25.374  1.00  0.00     0.134 A 
ATOM     10  C   UNL A   1      32.782  23.128  24.993  1.00  0.00     0.109 A 
ATOM     11  C   UNL A   1      33.090  20.322  25.012  1.00  0.00     0.273 A 
ATOM     12  C   UNL A   1      34.017  22.471  24.546  1.00  0.00     0.012 A 
ATOM     13  N   UNL A   1      32.806  24.416  25.081  1.00  0.00    -0.263 NA
ATOM     14  C   UNL A   1      34.154  21.046  24.609  1.00  0.00     0.096 A 
ATOM     15  C   UNL A   1      34.840  23.500  24.307  1.00  0.00    -0.021 C 
BRANCH   8  16
ATOM     16  O   UNL A   1      30.474  22.953  25.697  1.00  0.00    -0.494 OA
ATOM     17  C   UNL A   1      29.959  22.859  27.015  1.00  0.00     0.278 C 
ENDBRANCH   8  16
BRANCH  11  18
ATOM     18  N   UNL A   1      33.254  18.864  25.097  1.00  0.00     0.062 N 
ATOM     19  O   UNL A   1      32.549  18.235  25.900  1.00  0.00    -0.258 OA
ATOM     20  O   UNL A   1      34.089  18.344  24.343  1.00  0.00    -0.258 OA
ENDBRANCH  11  18
BRANCH  15  21
ATOM     21  C   UNL A   1      36.336  23.417  24.140  1.00  0.00     0.096 C 
BRANCH  21  22
ATOM     22  C   UNL A   1      37.226  23.543  25.383  1.00  0.00     0.263 C 
BRANCH  22  23
ATOM     23  N   UNL A   1      37.384  22.266  26.079  1.00  0.00    -0.357 N 
ATOM     24  H   UNL A   1      36.524  21.724  25.994  1.00  0.00     0.344 HD
ATOM     25  H   UNL A   1      37.581  22.438  27.066  1.00  0.00     0.344 HD
ATOM     26  H   UNL A   1      38.156  21.745  25.664  1.00  0.00     0.344 HD
ENDBRANCH  22  23
ENDBRANCH  21  22
ENDBRANCH  15  21
ENDBRANCH   4   7
ENDBRANCH   2   3
ENDBRANCH   1   2
BRANCH   1  27
ATOM     27  C   UNL A   1      34.157  28.467  26.096  1.00  0.00     0.023 C 
BRANCH  27  28
ATOM     28  C   UNL A   1      33.421  28.925  27.347  1.00  0.00     0.116 C 
BRANCH  28  29
ATOM     29  N   UNL A   1      33.587  30.340  27.640  1.00  0.00    -0.352 N 
ATOM     30  C   UNL A   1      34.680  31.002  28.158  1.00  0.00     0.251 C 
ATOM     31  H   UNL A   1      32.807  30.906  27.440  1.00  0.00     0.163 HD
ATOM     32  O   UNL A   1      34.610  32.195  28.419  1.00  0.00    -0.269 OA
BRANCH  30  33
ATOM     33  C   UNL A   1      35.921  30.242  28.441  1.00  0.00     0.039 A 
ATOM     34  C   UNL A   1      36.066  29.541  29.638  1.00  0.00     0.014 A 
ATOM     35  C   UNL A   1      36.973  30.294  27.524  1.00  0.00     0.014 A 
ATOM     36  C   UNL A   1      37.322  29.067  30.006  1.00  0.00     0.010 A 
ATOM     37  C   UNL A   1      38.211  29.735  27.859  1.00  0.00     0.010 A 
ATOM     38  C   UNL A   1      38.414  29.173  29.128  1.00  0.00    -0.014 A 
BRANCH  38  39
ATOM     39  C   UNL A   1      39.757  28.706  29.569  1.00  0.00     0.031 A 
ATOM     40  C   UNL A   1      40.461  27.582  28.851  1.00  0.00     0.074 A 
ATOM     41  C   UNL A   1      40.372  29.340  30.589  1.00  0.00     0.049 A 
ATOM     42  N   UNL A   1      41.644  27.073  29.087  1.00  0.00    -0.248 NA
ATOM     43  C   UNL A   1      39.757  26.944  27.725  1.00  0.00     0.031 C 
ATOM     44  C   UNL A   1      39.798  30.441  31.366  1.00  0.00     0.029 A 
ATOM     45  N   UNL A   1      41.621  29.169  31.131  1.00  0.00    -0.354 N 
ATOM     46  C   UNL A   1      41.806  26.035  28.177  1.00  0.00     0.074 A 
ATOM     47  C   UNL A   1      40.603  25.982  27.377  1.00  0.00     0.031 C 
ATOM     48  C   UNL A   1      40.712  30.886  32.241  1.00  0.00     0.029 A 
ATOM     49  C   UNL A   1      41.916  30.070  32.128  1.00  0.00     0.049 A 
ATOM     50  H   UNL A   1      42.247  28.469  30.835  1.00  0.00     0.167 HD
ATOM     51  C   UNL A   1      42.870  25.214  28.008  1.00  0.00     0.034 A 
ATOM     52  C   UNL A   1      43.029  30.226  32.870  1.00  0.00     0.034 A 
ATOM     53  C   UNL A   1      44.096  25.310  28.752  1.00  0.00     0.049 A 
ATOM     54  C   UNL A   1      44.192  29.303  32.654  1.00  0.00     0.074 A 
ATOM     55  C   UNL A   1      45.241  24.543  28.614  1.00  0.00     0.029 A 
ATOM     56  N   UNL A   1      44.346  26.229  29.756  1.00  0.00    -0.354 N 
ATOM     57  N   UNL A   1      44.341  28.368  31.748  1.00  0.00    -0.248 NA
ATOM     58  C   UNL A   1      45.342  29.459  33.557  1.00  0.00     0.031 C 
ATOM     59  C   UNL A   1      46.186  25.002  29.536  1.00  0.00     0.029 A 
ATOM     60  C   UNL A   1      45.628  26.052  30.245  1.00  0.00     0.049 A 
ATOM     61  H   UNL A   1      43.707  26.908  30.074  1.00  0.00     0.167 HD
ATOM     62  C   UNL A   1      45.606  27.836  31.960  1.00  0.00     0.074 A 
ATOM     63  C   UNL A   1      46.191  28.563  33.068  1.00  0.00     0.031 C 
ATOM     64  C   UNL A   1      46.218  26.820  31.307  1.00  0.00     0.034 A 
BRANCH  51  65
ATOM     65  C   UNL A   1      42.806  24.163  26.935  1.00  0.00     0.023 A 
ATOM     66  C   UNL A   1      43.557  24.341  25.757  1.00  0.00     0.012 A 
ATOM     67  C   UNL A   1      42.138  22.943  27.158  1.00  0.00     0.148 A 
ATOM     68  C   UNL A   1      43.648  23.318  24.816  1.00  0.00     0.002 A 
ATOM     69  C   UNL A   1      42.255  21.918  26.226  1.00  0.00     0.091 A 
ATOM     70  F   UNL A   1      41.431  22.801  28.288  1.00  0.00    -0.205 F 
ATOM     71  C   UNL A   1      43.007  22.105  25.055  1.00  0.00     0.022 A 
BRANCH  69  72
ATOM     72  S   UNL A   1      41.518  20.295  26.461  1.00  0.00     0.127 S 
ATOM     73  O   UNL A   1      42.033  19.927  27.780  1.00  0.00    -0.237 OA
ATOM     74  O   UNL A   1      40.089  20.601  26.427  1.00  0.00    -0.237 OA
ATOM     75  O   UNL A   1      42.001  19.469  25.363  1.00  0.00    -0.744 OA
ENDBRANCH  69  72
ENDBRANCH  51  65
BRANCH  52  76
ATOM     76  C   UNL A   1      43.114  31.346  33.845  1.00  0.00     0.023 A 
ATOM     77  C   UNL A   1      43.630  32.584  33.417  1.00  0.00     0.012 A 
ATOM     78  C   UNL A   1      42.649  31.211  35.166  1.00  0.00     0.148 A 
ATOM     79  C   UNL A   1      43.690  33.668  34.292  1.00  0.00     0.002 A 
ATOM     80  C   UNL A   1      42.671  32.307  36.020  1.00  0.00     0.091 A 
ATOM     81  F   UNL A   1      42.178  30.017  35.554  1.00  0.00    -0.205 F 
ATOM     82  C   UNL A   1      43.200  33.533  35.589  1.00  0.00     0.022 A 
BRANCH  80  83
ATOM     83  S   UNL A   1      41.960  32.256  37.669  1.00  0.00     0.127 S 
ATOM     84  O   UNL A   1      42.231  33.607  38.152  1.00  0.00    -0.237 OA
ATOM     85  O   UNL A   1      40.554  31.972  37.383  1.00  0.00    -0.237 OA
ATOM     86  O   UNL A   1      42.660  31.183  38.363  1.00  0.00    -0.744 OA
ENDBRANCH  80  83
ENDBRANCH  52  76
BRANCH  64  87
ATOM     87  C   UNL A   1      47.597  26.425  31.750  1.00  0.00     0.023 A 
ATOM     88  C   UNL A   1      47.742  25.521  32.819  1.00  0.00     0.012 A 
ATOM     89  C   UNL A   1      48.732  26.846  31.031  1.00  0.00     0.148 A 
ATOM     90  C   UNL A   1      49.002  25.043  33.172  1.00  0.00     0.002 A 
ATOM     91  C   UNL A   1      49.982  26.340  31.368  1.00  0.00     0.091 A 
ATOM     92  F   UNL A   1      48.564  27.714  30.023  1.00  0.00    -0.205 F 
ATOM     93  C   UNL A   1      50.118  25.443  32.441  1.00  0.00     0.022 A 
BRANCH  91  94
ATOM     94  S   UNL A   1      51.468  26.736  30.441  1.00  0.00     0.127 S 
ATOM     95  O   UNL A   1      51.583  28.176  30.664  1.00  0.00    -0.237 OA
ATOM     96  O   UNL A   1      52.481  25.930  31.124  1.00  0.00    -0.237 OA
ATOM     97  O   UNL A   1      51.204  26.340  29.064  1.00  0.00    -0.744 OA
ENDBRANCH  91  94
ENDBRANCH  64  87
ENDBRANCH  38  39
ENDBRANCH  30  33
ENDBRANCH  28  29
ENDBRANCH  27  28
ENDBRANCH   1  27
TORSDOF 19
ENDMDL
MODEL 3
REMARK VINA RESULT:     -11.3      1.332      7.615
REMARK SMILES COc1cc([N+](=O)[O-])cc2c1=N[C@H](C(=O)NCCCCNC(=O)c1ccc(-c3c4nc(c(-c5cccc(S(=O)(=O)[O-])c5F)c5ccc([nH]5)c(-c5cccc(S(=O)(=O)[O-])c5F)c5nc(c(-c6cccc(S(=O)(=O)[O-])c6F)c6ccc3[nH]6)C=C5)C=C4)cc1)C=2CC[NH3+]
REMARK SMILES IDX 18 1 17 2 16 3 14 4 15 5 13 7 3 8 4 9 11 10 5 11 10 12 12 13
REMARK SMILES IDX 9 14 87 15 2 16 1 17 6 18 7 19 8 20 88 21 89 22 90 23 19 27
REMARK SMILES IDX 20 28 21 29 22 30 23 32 24 33 25 34 86 35 26 36 85 37 27 38
REMARK SMILES IDX 28 39 29 40 79 41 30 42 84 43 78 44 80 45 31 46 83 47 77 48
REMARK SMILES IDX 76 49 32 51 64 52 44 53 63 54 45 55 48 56 62 57 81 58 46 59
REMARK SMILES IDX 47 60 61 62 82 63 49 64 33 65 34 66 42 67 35 68 37 69 43 70
REMARK SMILES IDX 36 71 38 72 39 73 40 74 41 75 65 76 66 77 74 78 67 79 69 80
REMARK SMILES IDX 75 81 68 82 70 83 71 84 72 85 73 86 50 87 51 88 59 89 52 90
REMARK SMILES IDX 54 91 60 92 53 93 55 94 56 95 57 96 58 97
REMARK H PARENT 16 6 90 24 90 25 90 26 21 31 80 50 48 61
REMARK Flexibility Score: inf
ROOT
ATOM      1  C   UNL A   1      35.757  22.768  26.081  1.00  0.00     0.023 C 
ENDROOT
BRANCH   1   2
ATOM      2  C   UNL A   1      34.439  23.110  25.397  1.00  0.00     0.116 C 
BRANCH   2   3
ATOM      3  N   UNL A   1      33.365  23.430  26.324  1.00  0.00    -0.354 N 
ATOM      4  C   UNL A   1      32.625  24.575  26.450  1.00  0.00     0.249 C 
ATOM      5  O   UNL A   1      31.657  24.511  27.216  1.00  0.00    -0.272 OA
ATOM      6  H   UNL A   1      33.136  22.714  26.960  1.00  0.00     0.163 HD
BRANCH   4   7
ATOM      7  C   UNL A   1      33.036  25.900  25.734  1.00  0.00     0.222 C 
ATOM      8  C   UNL A   1      31.232  26.522  22.602  1.00  0.00     0.151 A 
ATOM      9  C   UNL A   1      30.322  27.494  22.385  1.00  0.00     0.134 A 
ATOM     10  C   UNL A   1      31.859  26.463  23.953  1.00  0.00     0.109 A 
ATOM     11  C   UNL A   1      29.946  28.467  23.410  1.00  0.00     0.273 A 
ATOM     12  C   UNL A   1      31.387  27.398  24.982  1.00  0.00     0.012 A 
ATOM     13  N   UNL A   1      32.842  25.688  24.275  1.00  0.00    -0.263 NA
ATOM     14  C   UNL A   1      30.447  28.430  24.662  1.00  0.00     0.096 A 
ATOM     15  C   UNL A   1      32.157  27.101  26.038  1.00  0.00    -0.021 C 
BRANCH   8  16
ATOM     16  O   UNL A   1      31.656  25.559  21.718  1.00  0.00    -0.494 OA
ATOM     17  C   UNL A   1      32.601  25.908  20.721  1.00  0.00     0.278 C 
ENDBRANCH   8  16
BRANCH  11  18
ATOM     18  N   UNL A   1      29.003  29.546  23.088  1.00  0.00     0.062 N 
ATOM     19  O   UNL A   1      29.418  30.715  23.088  1.00  0.00    -0.258 OA
ATOM     20  O   UNL A   1      27.838  29.219  22.820  1.00  0.00    -0.258 OA
ENDBRANCH  11  18
BRANCH  15  21
ATOM     21  C   UNL A   1      32.341  27.955  27.267  1.00  0.00     0.096 C 
BRANCH  21  22
ATOM     22  C   UNL A   1      32.948  29.356  27.110  1.00  0.00     0.263 C 
BRANCH  22  23
ATOM     23  N   UNL A   1      34.106  29.356  26.217  1.00  0.00    -0.357 N 
ATOM     24  H   UNL A   1      33.856  28.908  25.336  1.00  0.00     0.344 HD
ATOM     25  H   UNL A   1      34.873  28.844  26.654  1.00  0.00     0.344 HD
ATOM     26  H   UNL A   1      34.398  30.317  26.038  1.00  0.00     0.344 HD
ENDBRANCH  22  23
ENDBRANCH  21  22
ENDBRANCH  15  21
ENDBRANCH   4   7
ENDBRANCH   2   3
ENDBRANCH   1   2
BRANCH   1  27
ATOM     27  C   UNL A   1      36.326  21.383  25.799  1.00  0.00     0.023 C 
BRANCH  27  28
ATOM     28  C   UNL A   1      37.622  21.347  25.002  1.00  0.00     0.116 C 
BRANCH  28  29
ATOM     29  N   UNL A   1      38.585  20.374  25.494  1.00  0.00    -0.352 N 
ATOM     30  C   UNL A   1      39.706  20.571  26.273  1.00  0.00     0.251 C 
ATOM     31  H   UNL A   1      38.412  19.441  25.232  1.00  0.00     0.163 HD
ATOM     32  O   UNL A   1      40.454  19.636  26.523  1.00  0.00    -0.269 OA
BRANCH  30  33
ATOM     33  C   UNL A   1      40.019  21.935  26.761  1.00  0.00     0.039 A 
ATOM     34  C   UNL A   1      39.416  23.052  26.182  1.00  0.00     0.014 A 
ATOM     35  C   UNL A   1      40.981  22.094  27.761  1.00  0.00     0.014 A 
ATOM     36  C   UNL A   1      39.916  24.320  26.458  1.00  0.00     0.010 A 
ATOM     37  C   UNL A   1      41.418  23.378  28.103  1.00  0.00     0.010 A 
ATOM     38  C   UNL A   1      40.935  24.498  27.410  1.00  0.00    -0.014 A 
BRANCH  38  39
ATOM     39  C   UNL A   1      41.488  25.860  27.645  1.00  0.00     0.031 A 
ATOM     40  C   UNL A   1      40.712  26.886  28.432  1.00  0.00     0.074 A 
ATOM     41  C   UNL A   1      42.726  26.154  27.196  1.00  0.00     0.049 A 
ATOM     42  N   UNL A   1      41.060  28.107  28.752  1.00  0.00    -0.248 NA
ATOM     43  C   UNL A   1      39.378  26.503  28.924  1.00  0.00     0.031 C 
ATOM     44  C   UNL A   1      43.579  25.249  26.422  1.00  0.00     0.029 A 
ATOM     45  N   UNL A   1      43.492  27.283  27.346  1.00  0.00    -0.354 N 
ATOM     46  C   UNL A   1      39.979  28.648  29.439  1.00  0.00     0.074 A 
ATOM     47  C   UNL A   1      38.959  27.626  29.496  1.00  0.00     0.031 C 
ATOM     48  C   UNL A   1      44.770  25.833  26.218  1.00  0.00     0.029 A 
ATOM     49  C   UNL A   1      44.748  27.173  26.796  1.00  0.00     0.049 A 
ATOM     50  H   UNL A   1      43.173  28.095  27.802  1.00  0.00     0.167 HD
ATOM     51  C   UNL A   1      39.857  29.878  29.992  1.00  0.00     0.034 A 
ATOM     52  C   UNL A   1      45.771  28.049  26.759  1.00  0.00     0.034 A 
ATOM     53  C   UNL A   1      40.895  30.872  30.002  1.00  0.00     0.049 A 
ATOM     54  C   UNL A   1      45.604  29.401  27.386  1.00  0.00     0.074 A 
ATOM     55  C   UNL A   1      40.867  32.131  30.578  1.00  0.00     0.029 A 
ATOM     56  N   UNL A   1      42.144  30.720  29.426  1.00  0.00    -0.354 N 
ATOM     57  N   UNL A   1      44.594  29.866  28.080  1.00  0.00    -0.248 NA
ATOM     58  C   UNL A   1      46.718  30.349  27.232  1.00  0.00     0.031 C 
ATOM     59  C   UNL A   1      42.104  32.740  30.353  1.00  0.00     0.029 A 
ATOM     60  C   UNL A   1      42.898  31.861  29.636  1.00  0.00     0.049 A 
ATOM     61  H   UNL A   1      42.451  29.920  28.941  1.00  0.00     0.167 HD
ATOM     62  C   UNL A   1      44.956  31.152  28.459  1.00  0.00     0.074 A 
ATOM     63  C   UNL A   1      46.285  31.388  27.935  1.00  0.00     0.031 C 
ATOM     64  C   UNL A   1      44.239  32.061  29.160  1.00  0.00     0.034 A 
BRANCH  51  65
ATOM     65  C   UNL A   1      38.576  30.225  30.700  1.00  0.00     0.023 A 
ATOM     66  C   UNL A   1      38.439  29.903  32.064  1.00  0.00     0.012 A 
ATOM     67  C   UNL A   1      37.588  31.002  30.065  1.00  0.00     0.148 A 
ATOM     68  C   UNL A   1      37.336  30.351  32.789  1.00  0.00     0.002 A 
ATOM     69  C   UNL A   1      36.504  31.468  30.801  1.00  0.00     0.091 A 
ATOM     70  F   UNL A   1      37.744  31.296  28.766  1.00  0.00    -0.205 F 
ATOM     71  C   UNL A   1      36.376  31.141  32.161  1.00  0.00     0.022 A 
BRANCH  69  72
ATOM     72  S   UNL A   1      35.239  32.540  30.108  1.00  0.00     0.127 S 
ATOM     73  O   UNL A   1      34.734  31.724  29.003  1.00  0.00    -0.237 OA
ATOM     74  O   UNL A   1      34.314  32.686  31.230  1.00  0.00    -0.237 OA
ATOM     75  O   UNL A   1      35.921  33.763  29.704  1.00  0.00    -0.744 OA
ENDBRANCH  69  72
ENDBRANCH  51  65
BRANCH  52  76
ATOM     76  C   UNL A   1      47.069  27.641  26.156  1.00  0.00     0.023 A 
ATOM     77  C   UNL A   1      48.040  27.036  26.976  1.00  0.00     0.012 A 
ATOM     78  C   UNL A   1      47.326  27.803  24.783  1.00  0.00     0.148 A 
ATOM     79  C   UNL A   1      49.254  26.607  26.438  1.00  0.00     0.002 A 
ATOM     80  C   UNL A   1      48.518  27.333  24.246  1.00  0.00     0.091 A 
ATOM     81  F   UNL A   1      46.391  28.397  24.027  1.00  0.00    -0.205 F 
ATOM     82  C   UNL A   1      49.488  26.745  25.072  1.00  0.00     0.022 A 
BRANCH  80  83
ATOM     83  S   UNL A   1      48.858  27.368  22.482  1.00  0.00     0.127 S 
ATOM     84  O   UNL A   1      50.301  27.592  22.461  1.00  0.00    -0.237 OA
ATOM     85  O   UNL A   1      48.435  26.031  22.066  1.00  0.00    -0.237 OA
ATOM     86  O   UNL A   1      48.041  28.449  21.947  1.00  0.00    -0.744 OA
ENDBRANCH  80  83
ENDBRANCH  52  76
BRANCH  64  87
ATOM     87  C   UNL A   1      44.865  33.401  29.424  1.00  0.00     0.023 A 
ATOM     88  C   UNL A   1      45.657  33.573  30.575  1.00  0.00     0.012 A 
ATOM     89  C   UNL A   1      44.776  34.437  28.475  1.00  0.00     0.148 A 
ATOM     90  C   UNL A   1      46.348  34.764  30.783  1.00  0.00     0.002 A 
ATOM     91  C   UNL A   1      45.493  35.610  28.673  1.00  0.00     0.091 A 
ATOM     92  F   UNL A   1      44.007  34.247  27.393  1.00  0.00    -0.205 F 
ATOM     93  C   UNL A   1      46.276  35.776  29.828  1.00  0.00     0.022 A 
BRANCH  91  94
ATOM     94  S   UNL A   1      45.525  36.941  27.468  1.00  0.00     0.127 S 
ATOM     95  O   UNL A   1      46.361  37.933  28.142  1.00  0.00    -0.237 OA
ATOM     96  O   UNL A   1      46.152  36.297  26.313  1.00  0.00    -0.237 OA
ATOM     97  O   UNL A   1      44.137  37.335  27.264  1.00  0.00    -0.744 OA
ENDBRANCH  91  94
ENDBRANCH  64  87
ENDBRANCH  38  39
ENDBRANCH  30  33
ENDBRANCH  28  29
ENDBRANCH  27  28
ENDBRANCH   1  27
TORSDOF 19
ENDMDL
