MODEL 1
REMARK VINA RESULT:     -10.9      0.000      0.000
REMARK SMILES O=C(CC[NH+]1CCC([N@H+]2CCC[C@H](C(=O)NCc3cccnc3)C2)CC1)NCCCCNC(=O)c1ccc(-c2c3nc(c(-c4cccc(S(=O)(=O)[O-])c4F)c4ccc([nH]4)c(-c4cccc(S(=O)(=O)[O-])c4F)c4nc(c(-c5cccc(S(=O)(=O)[O-])c5F)c5ccc2[nH]5)C=C4)C=C3)cc1
REMARK SMILES IDX 28 1 27 2 1 3 2 4 3 6 4 7 5 8 6 9 26 10 7 12 25 13 8 14 9 15
REMARK SMILES IDX 10 16 24 17 11 19 13 20 12 21 14 22 15 23 16 24 17 26 18 27
REMARK SMILES IDX 19 28 23 29 20 30 22 31 21 32 29 33 30 34 31 35 32 36 33 37
REMARK SMILES IDX 34 39 35 40 36 41 97 42 37 43 96 44 38 45 39 46 40 47 90 48
REMARK SMILES IDX 41 49 95 50 89 51 91 52 42 53 94 54 88 55 87 56 43 58 75 59
REMARK SMILES IDX 55 60 74 61 56 62 59 63 73 64 92 65 57 66 58 67 72 69 93 70
REMARK SMILES IDX 60 71 44 72 45 73 53 74 46 75 48 76 54 77 47 78 49 79 50 80
REMARK SMILES IDX 51 81 52 82 76 83 77 84 85 85 78 86 80 87 86 88 79 89 81 90
REMARK SMILES IDX 82 91 83 92 84 93 61 94 62 95 70 96 63 97 65 98 71 99 64 100
REMARK SMILES IDX 66 101 67 102 68 103 69 104
REMARK H PARENT 27 5 5 11 9 18 16 25 32 38 91 57 59 68
REMARK Flexibility Score: inf
ROOT
ATOM      1  C   UNL A   1      41.707  19.787  27.206  1.00  0.00     0.116 C 
ENDROOT
BRANCH   1   2
ATOM      2  N   UNL A   1      40.559  20.600  26.847  1.00  0.00    -0.356 N 
ATOM      3  O   UNL A   1      41.384  22.615  27.592  1.00  0.00    -0.275 OA
ATOM      4  C   UNL A   1      40.500  21.964  27.042  1.00  0.00     0.225 C 
ATOM      5  H   UNL A   1      39.781  20.152  26.443  1.00  0.00     0.163 HD
BRANCH   4   6
ATOM      6  C   UNL A   1      39.225  22.620  26.532  1.00  0.00     0.161 C 
BRANCH   6   7
ATOM      7  C   UNL A   1      38.398  21.674  25.657  1.00  0.00     0.272 C 
BRANCH   7   8
ATOM      8  N   UNL A   1      37.110  22.298  25.346  1.00  0.00    -0.334 N 
ATOM      9  C   UNL A   1      36.949  23.608  25.993  1.00  0.00     0.268 C 
ATOM     10  C   UNL A   1      36.859  22.412  23.908  1.00  0.00     0.268 C 
ATOM     11  H   UNL A   1      36.410  21.662  25.730  1.00  0.00     0.348 HD
ATOM     12  C   UNL A   1      35.479  23.995  25.924  1.00  0.00     0.126 C 
ATOM     13  C   UNL A   1      35.382  22.732  23.707  1.00  0.00     0.126 C 
ATOM     14  C   UNL A   1      34.966  24.000  24.475  1.00  0.00     0.195 C 
BRANCH  14  15
ATOM     15  N   UNL A   1      33.510  24.141  24.334  1.00  0.00    -0.331 N 
ATOM     16  C   UNL A   1      33.049  24.353  22.960  1.00  0.00     0.262 C 
ATOM     17  C   UNL A   1      32.759  23.059  24.980  1.00  0.00     0.275 C 
ATOM     18  H   UNL A   1      33.304  25.003  24.838  1.00  0.00     0.348 HD
ATOM     19  C   UNL A   1      31.598  24.779  22.965  1.00  0.00     0.062 C 
ATOM     20  C   UNL A   1      31.249  23.301  24.992  1.00  0.00     0.133 C 
ATOM     21  C   UNL A   1      30.692  23.779  23.656  1.00  0.00     0.025 C 
BRANCH  20  22
ATOM     22  C   UNL A   1      30.696  24.033  26.215  1.00  0.00     0.229 C 
ATOM     23  O   UNL A   1      30.458  23.371  27.234  1.00  0.00    -0.275 OA
ATOM     24  N   UNL A   1      30.407  25.348  26.332  1.00  0.00    -0.352 N 
ATOM     25  H   UNL A   1      29.891  25.547  27.145  1.00  0.00     0.163 HD
BRANCH  24  26
ATOM     26  C   UNL A   1      30.675  26.536  25.546  1.00  0.00     0.153 C 
BRANCH  26  27
ATOM     27  C   UNL A   1      31.855  27.341  26.034  1.00  0.00    -0.010 A 
ATOM     28  C   UNL A   1      33.013  27.449  25.254  1.00  0.00     0.009 A 
ATOM     29  C   UNL A   1      31.880  27.985  27.267  1.00  0.00     0.116 A 
ATOM     30  C   UNL A   1      34.065  28.271  25.662  1.00  0.00     0.020 A 
ATOM     31  N   UNL A   1      32.890  28.785  27.692  1.00  0.00    -0.264 NA
ATOM     32  C   UNL A   1      33.946  28.933  26.870  1.00  0.00     0.111 A 
ENDBRANCH  26  27
ENDBRANCH  24  26
ENDBRANCH  20  22
ENDBRANCH  14  15
ENDBRANCH   7   8
ENDBRANCH   6   7
ENDBRANCH   4   6
ENDBRANCH   1   2
BRANCH   1  33
ATOM     33  C   UNL A   1      42.183  18.871  26.075  1.00  0.00     0.023 C 
BRANCH  33  34
ATOM     34  C   UNL A   1      43.315  17.898  26.434  1.00  0.00     0.023 C 
BRANCH  34  35
ATOM     35  C   UNL A   1      44.725  18.283  25.965  1.00  0.00     0.116 C 
BRANCH  35  36
ATOM     36  N   UNL A   1      44.798  18.615  24.545  1.00  0.00    -0.352 N 
ATOM     37  C   UNL A   1      44.687  19.825  23.883  1.00  0.00     0.251 C 
ATOM     38  H   UNL A   1      44.953  17.843  23.954  1.00  0.00     0.163 HD
ATOM     39  O   UNL A   1      44.629  19.822  22.654  1.00  0.00    -0.269 OA
BRANCH  37  40
ATOM     40  C   UNL A   1      44.669  21.130  24.601  1.00  0.00     0.039 A 
ATOM     41  C   UNL A   1      45.042  21.229  25.946  1.00  0.00     0.014 A 
ATOM     42  C   UNL A   1      44.196  22.270  23.976  1.00  0.00     0.014 A 
ATOM     43  C   UNL A   1      45.060  22.485  26.596  1.00  0.00     0.010 A 
ATOM     44  C   UNL A   1      44.215  23.512  24.621  1.00  0.00     0.010 A 
ATOM     45  C   UNL A   1      44.715  23.665  25.913  1.00  0.00    -0.014 A 
BRANCH  45  46
ATOM     46  C   UNL A   1      45.037  25.049  26.413  1.00  0.00     0.031 A 
ATOM     47  C   UNL A   1      43.978  26.011  26.932  1.00  0.00     0.074 A 
ATOM     48  C   UNL A   1      46.262  25.561  26.150  1.00  0.00     0.049 A 
ATOM     49  N   UNL A   1      44.110  27.262  27.306  1.00  0.00    -0.248 NA
ATOM     50  C   UNL A   1      42.588  25.534  26.971  1.00  0.00     0.031 C 
ATOM     51  C   UNL A   1      47.334  24.868  25.429  1.00  0.00     0.029 A 
ATOM     52  N   UNL A   1      46.801  26.801  26.408  1.00  0.00    -0.354 N 
ATOM     53  C   UNL A   1      42.823  27.735  27.564  1.00  0.00     0.074 A 
ATOM     54  C   UNL A   1      41.923  26.647  27.255  1.00  0.00     0.031 C 
ATOM     55  C   UNL A   1      48.402  25.674  25.331  1.00  0.00     0.029 A 
ATOM     56  C   UNL A   1      48.096  26.951  25.964  1.00  0.00     0.049 A 
ATOM     57  H   UNL A   1      46.305  27.517  26.869  1.00  0.00     0.167 HD
ATOM     58  C   UNL A   1      42.421  28.936  28.060  1.00  0.00     0.034 A 
ATOM     59  C   UNL A   1      48.959  27.983  26.063  1.00  0.00     0.034 A 
ATOM     60  C   UNL A   1      43.323  29.989  28.457  1.00  0.00     0.049 A 
ATOM     61  C   UNL A   1      48.545  29.237  26.780  1.00  0.00     0.074 A 
ATOM     62  C   UNL A   1      43.042  31.140  29.174  1.00  0.00     0.029 A 
ATOM     63  N   UNL A   1      44.674  30.028  28.161  1.00  0.00    -0.354 N 
ATOM     64  N   UNL A   1      47.379  29.548  27.288  1.00  0.00    -0.248 NA
ATOM     65  C   UNL A   1      49.581  30.262  26.988  1.00  0.00     0.031 C 
ATOM     66  C   UNL A   1      44.220  31.887  29.292  1.00  0.00     0.029 A 
ATOM     67  C   UNL A   1      45.241  31.182  28.680  1.00  0.00     0.049 A 
ATOM     68  H   UNL A   1      45.162  29.338  27.657  1.00  0.00     0.167 HD
ATOM     69  C   UNL A   1      47.551  30.779  27.910  1.00  0.00     0.074 A 
ATOM     70  C   UNL A   1      48.938  31.149  27.735  1.00  0.00     0.031 C 
ATOM     71  C   UNL A   1      46.632  31.535  28.560  1.00  0.00     0.034 A 
BRANCH  58  72
ATOM     72  C   UNL A   1      40.945  29.152  28.332  1.00  0.00     0.023 A 
ATOM     73  C   UNL A   1      40.074  29.375  27.243  1.00  0.00     0.012 A 
ATOM     74  C   UNL A   1      40.394  29.013  29.625  1.00  0.00     0.148 A 
ATOM     75  C   UNL A   1      38.699  29.510  27.436  1.00  0.00     0.002 A 
ATOM     76  C   UNL A   1      39.014  29.098  29.804  1.00  0.00     0.091 A 
ATOM     77  F   UNL A   1      41.220  28.789  30.656  1.00  0.00    -0.205 F 
ATOM     78  C   UNL A   1      38.170  29.360  28.713  1.00  0.00     0.022 A 
BRANCH  76  79
ATOM     79  S   UNL A   1      38.210  28.822  31.390  1.00  0.00     0.127 S 
ATOM     80  O   UNL A   1      38.745  29.928  32.186  1.00  0.00    -0.237 OA
ATOM     81  O   UNL A   1      36.793  28.957  31.043  1.00  0.00    -0.237 OA
ATOM     82  O   UNL A   1      38.604  27.493  31.822  1.00  0.00    -0.744 OA
ENDBRANCH  76  79
ENDBRANCH  58  72
BRANCH  59  83
ATOM     83  C   UNL A   1      50.362  27.820  25.585  1.00  0.00     0.023 A 
ATOM     84  C   UNL A   1      51.359  27.468  26.518  1.00  0.00     0.012 A 
ATOM     85  C   UNL A   1      50.712  27.975  24.231  1.00  0.00     0.148 A 
ATOM     86  C   UNL A   1      52.687  27.315  26.120  1.00  0.00     0.002 A 
ATOM     87  C   UNL A   1      52.028  27.768  23.832  1.00  0.00     0.091 A 
ATOM     88  F   UNL A   1      49.749  28.305  23.361  1.00  0.00    -0.205 F 
ATOM     89  C   UNL A   1      53.020  27.457  24.777  1.00  0.00     0.022 A 
BRANCH  87  90
ATOM     90  S   UNL A   1      52.531  27.797  22.108  1.00  0.00     0.127 S 
ATOM     91  O   UNL A   1      53.986  27.734  22.218  1.00  0.00    -0.237 OA
ATOM     92  O   UNL A   1      51.899  26.583  21.590  1.00  0.00    -0.237 OA
ATOM     93  O   UNL A   1      51.992  29.035  21.560  1.00  0.00    -0.744 OA
ENDBRANCH  87  90
ENDBRANCH  59  83
BRANCH  71  94
ATOM     94  C   UNL A   1      47.093  32.827  29.188  1.00  0.00     0.023 A 
ATOM     95  C   UNL A   1      47.616  32.832  30.496  1.00  0.00     0.012 A 
ATOM     96  C   UNL A   1      47.065  34.030  28.453  1.00  0.00     0.148 A 
ATOM     97  C   UNL A   1      48.068  34.016  31.076  1.00  0.00     0.002 A 
ATOM     98  C   UNL A   1      47.564  35.198  29.019  1.00  0.00     0.091 A 
ATOM     99  F   UNL A   1      46.546  34.012  27.217  1.00  0.00    -0.205 F 
ATOM    100  C   UNL A   1      48.053  35.196  30.335  1.00  0.00     0.022 A 
BRANCH  98 101
ATOM    101  S   UNL A   1      47.672  36.744  28.109  1.00  0.00     0.127 S 
ATOM    102  O   UNL A   1      46.276  36.964  27.730  1.00  0.00    -0.237 OA
ATOM    103  O   UNL A   1      48.180  37.665  29.125  1.00  0.00    -0.237 OA
ATOM    104  O   UNL A   1      48.586  36.498  27.002  1.00  0.00    -0.744 OA
ENDBRANCH  98 101
ENDBRANCH  71  94
ENDBRANCH  45  46
ENDBRANCH  37  40
ENDBRANCH  35  36
ENDBRANCH  34  35
ENDBRANCH  33  34
ENDBRANCH   1  33
TORSDOF 20
ENDMDL
MODEL 2
REMARK VINA RESULT:     -10.9      4.436      7.354
REMARK SMILES O=C(CC[NH+]1CCC([N@H+]2CCC[C@H](C(=O)NCc3cccnc3)C2)CC1)NCCCCNC(=O)c1ccc(-c2c3nc(c(-c4cccc(S(=O)(=O)[O-])c4F)c4ccc([nH]4)c(-c4cccc(S(=O)(=O)[O-])c4F)c4nc(c(-c5cccc(S(=O)(=O)[O-])c5F)c5ccc2[nH]5)C=C4)C=C3)cc1
REMARK SMILES IDX 28 1 27 2 1 3 2 4 3 6 4 7 5 8 6 9 26 10 7 12 25 13 8 14 9 15
REMARK SMILES IDX 10 16 24 17 11 19 13 20 12 21 14 22 15 23 16 24 17 26 18 27
REMARK SMILES IDX 19 28 23 29 20 30 22 31 21 32 29 33 30 34 31 35 32 36 33 37
REMARK SMILES IDX 34 39 35 40 36 41 97 42 37 43 96 44 38 45 39 46 40 47 90 48
REMARK SMILES IDX 41 49 95 50 89 51 91 52 42 53 94 54 88 55 87 56 43 58 75 59
REMARK SMILES IDX 55 60 74 61 56 62 59 63 73 64 92 65 57 66 58 67 72 69 93 70
REMARK SMILES IDX 60 71 44 72 45 73 53 74 46 75 48 76 54 77 47 78 49 79 50 80
REMARK SMILES IDX 51 81 52 82 76 83 77 84 85 85 78 86 80 87 86 88 79 89 81 90
REMARK SMILES IDX 82 91 83 92 84 93 61 94 62 95 70 96 63 97 65 98 71 99 64 100
REMARK SMILES IDX 66 101 67 102 68 103 69 104
REMARK H PARENT 27 5 5 11 9 18 16 25 32 38 91 57 59 68
REMARK Flexibility Score: inf
ROOT
ATOM      1  C   UNL A   1      43.533  18.668  25.713  1.00  0.00     0.116 C 
ENDROOT
BRANCH   1   2
ATOM      2  N   UNL A   1      42.561  19.718  25.466  1.00  0.00    -0.356 N 
ATOM      3  O   UNL A   1      42.177  20.282  27.664  1.00  0.00    -0.275 OA
ATOM      4  C   UNL A   1      41.979  20.468  26.466  1.00  0.00     0.225 C 
ATOM      5  H   UNL A   1      42.304  19.904  24.534  1.00  0.00     0.163 HD
BRANCH   4   6
ATOM      6  C   UNL A   1      41.036  21.556  25.973  1.00  0.00     0.161 C 
BRANCH   6   7
ATOM      7  C   UNL A   1      40.144  22.099  27.093  1.00  0.00     0.272 C 
BRANCH   7   8
ATOM      8  N   UNL A   1      38.774  22.251  26.596  1.00  0.00    -0.334 N 
ATOM      9  C   UNL A   1      38.437  23.651  26.300  1.00  0.00     0.268 C 
ATOM     10  C   UNL A   1      38.486  21.407  25.436  1.00  0.00     0.268 C 
ATOM     11  H   UNL A   1      38.180  21.934  27.362  1.00  0.00     0.348 HD
ATOM     12  C   UNL A   1      36.926  23.756  26.157  1.00  0.00     0.126 C 
ATOM     13  C   UNL A   1      36.976  21.376  25.234  1.00  0.00     0.126 C 
ATOM     14  C   UNL A   1      36.393  22.794  25.083  1.00  0.00     0.195 C 
BRANCH  14  15
ATOM     15  N   UNL A   1      34.931  22.666  25.036  1.00  0.00    -0.331 N 
ATOM     16  C   UNL A   1      34.429  21.806  23.961  1.00  0.00     0.262 C 
ATOM     17  C   UNL A   1      34.342  22.293  26.327  1.00  0.00     0.275 C 
ATOM     18  H   UNL A   1      34.615  23.610  24.815  1.00  0.00     0.348 HD
ATOM     19  C   UNL A   1      32.933  21.982  23.820  1.00  0.00     0.062 C 
ATOM     20  C   UNL A   1      32.813  22.339  26.325  1.00  0.00     0.133 C 
ATOM     21  C   UNL A   1      32.180  21.685  25.101  1.00  0.00     0.025 C 
BRANCH  20  22
ATOM     22  C   UNL A   1      32.180  23.668  26.739  1.00  0.00     0.229 C 
ATOM     23  O   UNL A   1      31.312  23.650  27.622  1.00  0.00    -0.275 OA
ATOM     24  N   UNL A   1      32.439  24.898  26.243  1.00  0.00    -0.352 N 
ATOM     25  H   UNL A   1      31.777  25.565  26.535  1.00  0.00     0.163 HD
BRANCH  24  26
ATOM     26  C   UNL A   1      33.456  25.472  25.386  1.00  0.00     0.153 C 
BRANCH  26  27
ATOM     27  C   UNL A   1      33.036  25.613  23.943  1.00  0.00    -0.010 A 
ATOM     28  C   UNL A   1      31.703  25.886  23.615  1.00  0.00     0.009 A 
ATOM     29  C   UNL A   1      33.914  25.457  22.876  1.00  0.00     0.116 A 
ATOM     30  C   UNL A   1      31.334  26.111  22.287  1.00  0.00     0.020 A 
ATOM     31  N   UNL A   1      33.583  25.664  21.576  1.00  0.00    -0.264 NA
ATOM     32  C   UNL A   1      32.310  26.014  21.313  1.00  0.00     0.111 A 
ENDBRANCH  26  27
ENDBRANCH  24  26
ENDBRANCH  20  22
ENDBRANCH  14  15
ENDBRANCH   7   8
ENDBRANCH   6   7
ENDBRANCH   4   6
ENDBRANCH   1   2
BRANCH   1  33
ATOM     33  C   UNL A   1      44.789  18.784  24.843  1.00  0.00     0.023 C 
BRANCH  33  34
ATOM     34  C   UNL A   1      45.998  19.462  25.505  1.00  0.00     0.023 C 
BRANCH  34  35
ATOM     35  C   UNL A   1      46.176  20.962  25.235  1.00  0.00     0.116 C 
BRANCH  35  36
ATOM     36  N   UNL A   1      45.531  21.416  24.006  1.00  0.00    -0.352 N 
ATOM     37  C   UNL A   1      44.753  22.529  23.740  1.00  0.00     0.251 C 
ATOM     38  H   UNL A   1      45.674  20.827  23.230  1.00  0.00     0.163 HD
ATOM     39  O   UNL A   1      44.190  22.608  22.649  1.00  0.00    -0.269 OA
BRANCH  37  40
ATOM     40  C   UNL A   1      44.601  23.647  24.713  1.00  0.00     0.039 A 
ATOM     41  C   UNL A   1      43.340  24.087  25.129  1.00  0.00     0.014 A 
ATOM     42  C   UNL A   1      45.709  24.341  25.165  1.00  0.00     0.014 A 
ATOM     43  C   UNL A   1      43.219  25.121  26.086  1.00  0.00     0.010 A 
ATOM     44  C   UNL A   1      45.587  25.364  26.113  1.00  0.00     0.010 A 
ATOM     45  C   UNL A   1      44.355  25.727  26.653  1.00  0.00    -0.014 A 
BRANCH  45  46
ATOM     46  C   UNL A   1      44.323  26.566  27.903  1.00  0.00     0.031 A 
ATOM     47  C   UNL A   1      44.406  28.086  27.884  1.00  0.00     0.074 A 
ATOM     48  C   UNL A   1      44.495  25.952  29.097  1.00  0.00     0.049 A 
ATOM     49  N   UNL A   1      44.480  28.922  28.894  1.00  0.00    -0.248 NA
ATOM     50  C   UNL A   1      44.483  28.747  26.573  1.00  0.00     0.031 C 
ATOM     51  C   UNL A   1      44.690  24.511  29.289  1.00  0.00     0.029 A 
ATOM     52  N   UNL A   1      44.589  26.460  30.373  1.00  0.00    -0.354 N 
ATOM     53  C   UNL A   1      44.675  30.189  28.343  1.00  0.00     0.074 A 
ATOM     54  C   UNL A   1      44.754  30.000  26.912  1.00  0.00     0.031 C 
ATOM     55  C   UNL A   1      44.848  24.251  30.595  1.00  0.00     0.029 A 
ATOM     56  C   UNL A   1      44.784  25.502  31.342  1.00  0.00     0.049 A 
ATOM     57  H   UNL A   1      44.523  27.422  30.574  1.00  0.00     0.167 HD
ATOM     58  C   UNL A   1      44.729  31.404  28.954  1.00  0.00     0.034 A 
ATOM     59  C   UNL A   1      44.884  25.598  32.685  1.00  0.00     0.034 A 
ATOM     60  C   UNL A   1      44.556  31.603  30.372  1.00  0.00     0.049 A 
ATOM     61  C   UNL A   1      44.758  26.940  33.348  1.00  0.00     0.074 A 
ATOM     62  C   UNL A   1      44.367  32.792  31.057  1.00  0.00     0.029 A 
ATOM     63  N   UNL A   1      44.565  30.596  31.320  1.00  0.00    -0.354 N 
ATOM     64  N   UNL A   1      44.642  28.123  32.799  1.00  0.00    -0.248 NA
ATOM     65  C   UNL A   1      44.721  26.958  34.820  1.00  0.00     0.031 C 
ATOM     66  C   UNL A   1      44.284  32.504  32.425  1.00  0.00     0.029 A 
ATOM     67  C   UNL A   1      44.385  31.133  32.586  1.00  0.00     0.049 A 
ATOM     68  H   UNL A   1      44.682  29.638  31.126  1.00  0.00     0.167 HD
ATOM     69  C   UNL A   1      44.476  29.017  33.850  1.00  0.00     0.074 A 
ATOM     70  C   UNL A   1      44.484  28.239  35.069  1.00  0.00     0.031 C 
ATOM     71  C   UNL A   1      44.336  30.364  33.802  1.00  0.00     0.034 A 
BRANCH  58  72
ATOM     72  C   UNL A   1      44.857  32.644  28.092  1.00  0.00     0.023 A 
ATOM     73  C   UNL A   1      43.703  33.411  27.820  1.00  0.00     0.012 A 
ATOM     74  C   UNL A   1      46.112  33.126  27.656  1.00  0.00     0.148 A 
ATOM     75  C   UNL A   1      43.782  34.597  27.090  1.00  0.00     0.002 A 
ATOM     76  C   UNL A   1      46.189  34.338  26.972  1.00  0.00     0.091 A 
ATOM     77  F   UNL A   1      47.207  32.404  27.926  1.00  0.00    -0.205 F 
ATOM     78  C   UNL A   1      45.024  35.065  26.677  1.00  0.00     0.022 A 
BRANCH  76  79
ATOM     79  S   UNL A   1      47.747  35.089  26.478  1.00  0.00     0.127 S 
ATOM     80  O   UNL A   1      48.455  35.167  27.757  1.00  0.00    -0.237 OA
ATOM     81  O   UNL A   1      48.287  34.093  25.548  1.00  0.00    -0.237 OA
ATOM     82  O   UNL A   1      47.412  36.365  25.870  1.00  0.00    -0.744 OA
ENDBRANCH  76  79
ENDBRANCH  58  72
BRANCH  59  83
ATOM     83  C   UNL A   1      44.977  24.359  33.509  1.00  0.00     0.023 A 
ATOM     84  C   UNL A   1      43.814  23.586  33.704  1.00  0.00     0.012 A 
ATOM     85  C   UNL A   1      46.193  23.923  34.067  1.00  0.00     0.148 A 
ATOM     86  C   UNL A   1      43.850  22.425  34.476  1.00  0.00     0.002 A 
ATOM     87  C   UNL A   1      46.233  22.736  34.790  1.00  0.00     0.091 A 
ATOM     88  F   UNL A   1      47.287  24.670  33.865  1.00  0.00    -0.205 F 
ATOM     89  C   UNL A   1      45.060  21.996  35.011  1.00  0.00     0.022 A 
BRANCH  87  90
ATOM     90  S   UNL A   1      47.766  22.032  35.407  1.00  0.00     0.127 S 
ATOM     91  O   UNL A   1      47.306  20.772  35.985  1.00  0.00    -0.237 OA
ATOM     92  O   UNL A   1      48.550  21.896  34.179  1.00  0.00    -0.237 OA
ATOM     93  O   UNL A   1      48.295  23.005  36.354  1.00  0.00    -0.744 OA
ENDBRANCH  87  90
ENDBRANCH  59  83
BRANCH  71  94
ATOM     94  C   UNL A   1      44.127  31.102  35.101  1.00  0.00     0.023 A 
ATOM     95  C   UNL A   1      45.235  31.548  35.848  1.00  0.00     0.012 A 
ATOM     96  C   UNL A   1      42.826  31.408  35.550  1.00  0.00     0.148 A 
ATOM     97  C   UNL A   1      45.053  32.253  37.038  1.00  0.00     0.002 A 
ATOM     98  C   UNL A   1      42.652  32.155  36.709  1.00  0.00     0.091 A 
ATOM     99  F   UNL A   1      41.782  30.959  34.837  1.00  0.00    -0.205 F 
ATOM    100  C   UNL A   1      43.763  32.566  37.462  1.00  0.00     0.022 A 
BRANCH  98 101
ATOM    101  S   UNL A   1      41.034  32.685  37.284  1.00  0.00     0.127 S 
ATOM    102  O   UNL A   1      41.061  34.114  36.975  1.00  0.00    -0.237 OA
ATOM    103  O   UNL A   1      40.133  31.898  36.441  1.00  0.00    -0.237 OA
ATOM    104  O   UNL A   1      40.980  32.354  38.701  1.00  0.00    -0.744 OA
ENDBRANCH  98 101
ENDBRANCH  71  94
ENDBRANCH  45  46
ENDBRANCH  37  40
ENDBRANCH  35  36
ENDBRANCH  34  35
ENDBRANCH  33  34
ENDBRANCH   1  33
TORSDOF 20
ENDMDL
MODEL 3
REMARK VINA RESULT:     -10.7      4.840     11.041
REMARK SMILES O=C(CC[NH+]1CCC([N@H+]2CCC[C@H](C(=O)NCc3cccnc3)C2)CC1)NCCCCNC(=O)c1ccc(-c2c3nc(c(-c4cccc(S(=O)(=O)[O-])c4F)c4ccc([nH]4)c(-c4cccc(S(=O)(=O)[O-])c4F)c4nc(c(-c5cccc(S(=O)(=O)[O-])c5F)c5ccc2[nH]5)C=C4)C=C3)cc1
REMARK SMILES IDX 28 1 27 2 1 3 2 4 3 6 4 7 5 8 6 9 26 10 7 12 25 13 8 14 9 15
REMARK SMILES IDX 10 16 24 17 11 19 13 20 12 21 14 22 15 23 16 24 17 26 18 27
REMARK SMILES IDX 19 28 23 29 20 30 22 31 21 32 29 33 30 34 31 35 32 36 33 37
REMARK SMILES IDX 34 39 35 40 36 41 97 42 37 43 96 44 38 45 39 46 40 47 90 48
REMARK SMILES IDX 41 49 95 50 89 51 91 52 42 53 94 54 88 55 87 56 43 58 75 59
REMARK SMILES IDX 55 60 74 61 56 62 59 63 73 64 92 65 57 66 58 67 72 69 93 70
REMARK SMILES IDX 60 71 44 72 45 73 53 74 46 75 48 76 54 77 47 78 49 79 50 80
REMARK SMILES IDX 51 81 52 82 76 83 77 84 85 85 78 86 80 87 86 88 79 89 81 90
REMARK SMILES IDX 82 91 83 92 84 93 61 94 62 95 70 96 63 97 65 98 71 99 64 100
REMARK SMILES IDX 66 101 67 102 68 103 69 104
REMARK H PARENT 27 5 5 11 9 18 16 25 32 38 91 57 59 68
REMARK Flexibility Score: inf
ROOT
ATOM      1  C   UNL A   1      33.699  35.121  31.426  1.00  0.00     0.116 C 
ENDROOT
BRANCH   1   2
ATOM      2  N   UNL A   1      34.389  33.951  30.913  1.00  0.00    -0.356 N 
ATOM      3  O   UNL A   1      33.595  34.066  28.756  1.00  0.00    -0.275 OA
ATOM      4  C   UNL A   1      34.306  33.531  29.602  1.00  0.00     0.225 C 
ATOM      5  H   UNL A   1      34.946  33.430  31.535  1.00  0.00     0.163 HD
BRANCH   4   6
ATOM      6  C   UNL A   1      35.163  32.316  29.272  1.00  0.00     0.161 C 
BRANCH   6   7
ATOM      7  C   UNL A   1      36.103  31.944  30.422  1.00  0.00     0.272 C 
BRANCH   7   8
ATOM      8  N   UNL A   1      37.020  30.889  29.981  1.00  0.00    -0.334 N 
ATOM      9  C   UNL A   1      36.698  29.582  30.573  1.00  0.00     0.268 C 
ATOM     10  C   UNL A   1      37.107  30.775  28.524  1.00  0.00     0.268 C 
ATOM     11  H   UNL A   1      37.937  31.178  30.322  1.00  0.00     0.348 HD
ATOM     12  C   UNL A   1      37.890  28.660  30.366  1.00  0.00     0.126 C 
ATOM     13  C   UNL A   1      38.323  29.919  28.187  1.00  0.00     0.126 C 
ATOM     14  C   UNL A   1      38.259  28.544  28.878  1.00  0.00     0.195 C 
BRANCH  14  15
ATOM     15  N   UNL A   1      39.530  27.858  28.607  1.00  0.00    -0.331 N 
ATOM     16  C   UNL A   1      40.664  28.343  29.396  1.00  0.00     0.262 C 
ATOM     17  C   UNL A   1      39.425  26.396  28.680  1.00  0.00     0.275 C 
ATOM     18  H   UNL A   1      39.732  28.104  27.639  1.00  0.00     0.348 HD
ATOM     19  C   UNL A   1      41.955  27.790  28.834  1.00  0.00     0.062 C 
ATOM     20  C   UNL A   1      40.695  25.680  28.220  1.00  0.00     0.133 C 
ATOM     21  C   UNL A   1      41.978  26.275  28.791  1.00  0.00     0.025 C 
BRANCH  20  22
ATOM     22  C   UNL A   1      40.763  25.318  26.736  1.00  0.00     0.229 C 
ATOM     23  O   UNL A   1      40.715  26.239  25.909  1.00  0.00    -0.275 OA
ATOM     24  N   UNL A   1      40.856  24.087  26.187  1.00  0.00    -0.352 N 
ATOM     25  H   UNL A   1      40.696  24.097  25.216  1.00  0.00     0.163 HD
BRANCH  24  26
ATOM     26  C   UNL A   1      41.135  22.755  26.684  1.00  0.00     0.153 C 
BRANCH  26  27
ATOM     27  C   UNL A   1      40.149  21.708  26.224  1.00  0.00    -0.010 A 
ATOM     28  C   UNL A   1      38.846  22.070  25.860  1.00  0.00     0.009 A 
ATOM     29  C   UNL A   1      40.452  20.352  26.160  1.00  0.00     0.116 A 
ATOM     30  C   UNL A   1      37.967  21.117  25.344  1.00  0.00     0.020 A 
ATOM     31  N   UNL A   1      39.617  19.403  25.669  1.00  0.00    -0.264 NA
ATOM     32  C   UNL A   1      38.405  19.810  25.245  1.00  0.00     0.111 A 
ENDBRANCH  26  27
ENDBRANCH  24  26
ENDBRANCH  20  22
ENDBRANCH  14  15
ENDBRANCH   7   8
ENDBRANCH   6   7
ENDBRANCH   4   6
ENDBRANCH   1   2
BRANCH   1  33
ATOM     33  C   UNL A   1      34.491  35.872  32.501  1.00  0.00     0.023 C 
BRANCH  33  34
ATOM     34  C   UNL A   1      35.584  35.062  33.213  1.00  0.00     0.023 C 
BRANCH  34  35
ATOM     35  C   UNL A   1      35.107  33.958  34.167  1.00  0.00     0.116 C 
BRANCH  35  36
ATOM     36  N   UNL A   1      35.772  33.982  35.467  1.00  0.00    -0.352 N 
ATOM     37  C   UNL A   1      37.011  33.512  35.868  1.00  0.00     0.251 C 
ATOM     38  H   UNL A   1      35.248  34.406  36.185  1.00  0.00     0.163 HD
ATOM     39  O   UNL A   1      37.281  33.512  37.068  1.00  0.00    -0.269 OA
BRANCH  37  40
ATOM     40  C   UNL A   1      38.037  33.038  34.898  1.00  0.00     0.039 A 
ATOM     41  C   UNL A   1      39.347  33.529  34.923  1.00  0.00     0.014 A 
ATOM     42  C   UNL A   1      37.695  32.159  33.887  1.00  0.00     0.014 A 
ATOM     43  C   UNL A   1      40.318  33.033  34.021  1.00  0.00     0.010 A 
ATOM     44  C   UNL A   1      38.657  31.669  32.995  1.00  0.00     0.010 A 
ATOM     45  C   UNL A   1      40.000  32.031  33.086  1.00  0.00    -0.014 A 
BRANCH  45  46
ATOM     46  C   UNL A   1      41.028  31.216  32.347  1.00  0.00     0.031 A 
ATOM     47  C   UNL A   1      41.567  29.891  32.867  1.00  0.00     0.074 A 
ATOM     48  C   UNL A   1      41.696  31.796  31.322  1.00  0.00     0.049 A 
ATOM     49  N   UNL A   1      42.521  29.136  32.373  1.00  0.00    -0.248 NA
ATOM     50  C   UNL A   1      41.019  29.384  34.133  1.00  0.00     0.031 C 
ATOM     51  C   UNL A   1      41.488  33.166  30.842  1.00  0.00     0.029 A 
ATOM     52  N   UNL A   1      42.723  31.333  30.531  1.00  0.00    -0.354 N 
ATOM     53  C   UNL A   1      42.726  28.107  33.292  1.00  0.00     0.074 A 
ATOM     54  C   UNL A   1      41.829  28.367  34.397  1.00  0.00     0.031 C 
ATOM     55  C   UNL A   1      42.330  33.418  29.829  1.00  0.00     0.029 A 
ATOM     56  C   UNL A   1      43.156  32.240  29.590  1.00  0.00     0.049 A 
ATOM     57  H   UNL A   1      43.113  30.434  30.629  1.00  0.00     0.167 HD
ATOM     58  C   UNL A   1      43.539  27.019  33.214  1.00  0.00     0.034 A 
ATOM     59  C   UNL A   1      44.095  32.146  28.625  1.00  0.00     0.034 A 
ATOM     60  C   UNL A   1      44.364  26.709  32.072  1.00  0.00     0.049 A 
ATOM     61  C   UNL A   1      44.853  30.861  28.445  1.00  0.00     0.074 A 
ATOM     62  C   UNL A   1      45.042  25.533  31.794  1.00  0.00     0.029 A 
ATOM     63  N   UNL A   1      44.636  27.579  31.032  1.00  0.00    -0.354 N 
ATOM     64  N   UNL A   1      44.811  29.772  29.169  1.00  0.00    -0.248 NA
ATOM     65  C   UNL A   1      45.750  30.772  27.281  1.00  0.00     0.031 C 
ATOM     66  C   UNL A   1      45.742  25.701  30.593  1.00  0.00     0.029 A 
ATOM     67  C   UNL A   1      45.470  26.968  30.108  1.00  0.00     0.049 A 
ATOM     68  H   UNL A   1      44.287  28.496  30.957  1.00  0.00     0.167 HD
ATOM     69  C   UNL A   1      45.638  28.856  28.528  1.00  0.00     0.074 A 
ATOM     70  C   UNL A   1      46.152  29.510  27.345  1.00  0.00     0.031 C 
ATOM     71  C   UNL A   1      45.945  27.589  28.898  1.00  0.00     0.034 A 
BRANCH  58  72
ATOM     72  C   UNL A   1      43.494  25.997  34.333  1.00  0.00     0.023 A 
ATOM     73  C   UNL A   1      42.391  25.119  34.415  1.00  0.00     0.012 A 
ATOM     74  C   UNL A   1      44.578  25.812  35.221  1.00  0.00     0.148 A 
ATOM     75  C   UNL A   1      42.339  24.118  35.384  1.00  0.00     0.002 A 
ATOM     76  C   UNL A   1      44.541  24.777  36.153  1.00  0.00     0.091 A 
ATOM     77  F   UNL A   1      45.629  26.638  35.134  1.00  0.00    -0.205 F 
ATOM     78  C   UNL A   1      43.416  23.941  36.244  1.00  0.00     0.022 A 
BRANCH  76  79
ATOM     79  S   UNL A   1      45.916  24.391  37.247  1.00  0.00     0.127 S 
ATOM     80  O   UNL A   1      46.982  24.098  36.288  1.00  0.00    -0.237 OA
ATOM     81  O   UNL A   1      46.090  25.650  37.977  1.00  0.00    -0.237 OA
ATOM     82  O   UNL A   1      45.486  23.271  38.066  1.00  0.00    -0.744 OA
ENDBRANCH  76  79
ENDBRANCH  58  72
BRANCH  59  83
ATOM     83  C   UNL A   1      44.273  33.266  27.657  1.00  0.00     0.023 A 
ATOM     84  C   UNL A   1      43.555  33.233  26.444  1.00  0.00     0.012 A 
ATOM     85  C   UNL A   1      45.108  34.364  27.932  1.00  0.00     0.148 A 
ATOM     86  C   UNL A   1      43.698  34.252  25.503  1.00  0.00     0.002 A 
ATOM     87  C   UNL A   1      45.204  35.403  27.013  1.00  0.00     0.091 A 
ATOM     88  F   UNL A   1      45.778  34.377  29.093  1.00  0.00    -0.205 F 
ATOM     89  C   UNL A   1      44.516  35.341  25.791  1.00  0.00     0.022 A 
BRANCH  87  90
ATOM     90  S   UNL A   1      46.125  36.908  27.349  1.00  0.00     0.127 S 
ATOM     91  O   UNL A   1      45.171  37.673  28.148  1.00  0.00    -0.237 OA
ATOM     92  O   UNL A   1      47.278  36.396  28.091  1.00  0.00    -0.237 OA
ATOM     93  O   UNL A   1      46.452  37.471  26.045  1.00  0.00    -0.744 OA
ENDBRANCH  87  90
ENDBRANCH  59  83
BRANCH  71  94
ATOM     94  C   UNL A   1      46.844  26.785  27.993  1.00  0.00     0.023 A 
ATOM     95  C   UNL A   1      48.236  26.767  28.212  1.00  0.00     0.012 A 
ATOM     96  C   UNL A   1      46.300  25.995  26.960  1.00  0.00     0.148 A 
ATOM     97  C   UNL A   1      49.074  26.007  27.397  1.00  0.00     0.002 A 
ATOM     98  C   UNL A   1      47.136  25.200  26.183  1.00  0.00     0.091 A 
ATOM     99  F   UNL A   1      44.976  26.038  26.752  1.00  0.00    -0.205 F 
ATOM    100  C   UNL A   1      48.524  25.216  26.391  1.00  0.00     0.022 A 
BRANCH  98 101
ATOM    101  S   UNL A   1      46.510  24.078  24.926  1.00  0.00     0.127 S 
ATOM    102  O   UNL A   1      47.446  24.309  23.827  1.00  0.00    -0.237 OA
ATOM    103  O   UNL A   1      46.646  22.776  25.579  1.00  0.00    -0.237 OA
ATOM    104  O   UNL A   1      45.135  24.486  24.670  1.00  0.00    -0.744 OA
ENDBRANCH  98 101
ENDBRANCH  71  94
ENDBRANCH  45  46
ENDBRANCH  37  40
ENDBRANCH  35  36
ENDBRANCH  34  35
ENDBRANCH  33  34
ENDBRANCH   1  33
TORSDOF 20
ENDMDL
