MODEL 1
REMARK VINA RESULT:     -12.2      0.000      0.000
REMARK SMILES C[C@H]1Cc2cc(C(=O)[C@H](Br)CC(=O)NCCCCNC(=O)c3ccc(-c4c5nc(c(-c6cccc(S(=O)(=O)[O-])c6F)c6ccc([nH]6)c(-c6cccc(S(=O)(=O)[O-])c6F)c6nc(c(-c7cccc(S(=O)(=O)[O-])c7F)c7ccc4[nH]7)C=C6)C=C5)cc3)ccc2O1
REMARK SMILES IDX 16 1 15 2 14 3 12 4 13 5 11 7 9 8 10 9 7 10 8 11 6 12 1 13
REMARK SMILES IDX 2 14 3 15 88 16 4 17 87 18 5 19 86 20 85 21 17 22 18 23
REMARK SMILES IDX 19 24 20 25 21 27 22 28 23 29 84 30 24 31 83 32 25 33 26 34
REMARK SMILES IDX 27 35 77 36 28 37 82 38 76 39 78 40 29 41 81 42 75 43 74 44
REMARK SMILES IDX 30 46 62 47 42 48 61 49 43 50 46 51 60 52 79 53 44 54 45 55
REMARK SMILES IDX 59 57 80 58 47 59 31 60 32 61 40 62 33 63 35 64 41 65 34 66
REMARK SMILES IDX 36 67 37 68 38 69 39 70 63 71 64 72 72 73 65 74 67 75 73 76
REMARK SMILES IDX 66 77 68 78 69 79 70 80 71 81 48 82 49 83 57 84 50 85 52 86
REMARK SMILES IDX 58 87 51 88 53 89 54 90 55 91 56 92
REMARK H PARENT 14 6 19 26 78 45 46 56
REMARK Flexibility Score: inf
ROOT
ATOM      1  C   UNL A   1      31.076  29.408  24.598  1.00  0.00     0.023 C 
ENDROOT
BRANCH   1   2
ATOM      2  C   UNL A   1      30.865  27.954  24.171  1.00  0.00     0.116 C 
BRANCH   2   3
ATOM      3  N   UNL A   1      30.713  27.100  25.338  1.00  0.00    -0.356 N 
ATOM      4  C   UNL A   1      30.680  25.739  25.418  1.00  0.00     0.221 C 
ATOM      5  O   UNL A   1      30.331  25.204  26.469  1.00  0.00    -0.275 OA
ATOM      6  H   UNL A   1      30.620  27.574  26.196  1.00  0.00     0.163 HD
BRANCH   4   7
ATOM      7  C   UNL A   1      31.137  24.914  24.240  1.00  0.00     0.123 C 
BRANCH   7   8
ATOM      8  C   UNL A   1      32.557  24.394  24.353  1.00  0.00     0.138 C 
ATOM      9  Br  UNL A   1      33.836  25.547  25.255  1.00  0.00    -0.080 Br
BRANCH   8  10
ATOM     10  C   UNL A   1      32.673  23.046  25.051  1.00  0.00     0.176 C 
ATOM     11  O   UNL A   1      32.895  23.006  26.265  1.00  0.00    -0.293 OA
BRANCH  10  12
ATOM     12  C   UNL A   1      32.511  21.735  24.322  1.00  0.00     0.019 A 
ATOM     13  C   UNL A   1      34.148  16.553  23.446  1.00  0.00     0.053 C 
ATOM     14  C   UNL A   1      32.768  17.143  23.712  1.00  0.00     0.174 C 
ATOM     15  C   UNL A   1      32.730  17.975  25.005  1.00  0.00     0.084 C 
ATOM     16  O   UNL A   1      32.381  17.974  22.587  1.00  0.00    -0.490 OA
ATOM     17  C   UNL A   1      32.644  19.335  24.432  1.00  0.00    -0.001 A 
ATOM     18  C   UNL A   1      32.388  19.249  23.078  1.00  0.00     0.123 A 
ATOM     19  C   UNL A   1      32.722  20.563  25.068  1.00  0.00     0.019 A 
ATOM     20  C   UNL A   1      32.135  20.368  22.322  1.00  0.00     0.047 A 
ATOM     21  C   UNL A   1      32.168  21.613  22.959  1.00  0.00     0.015 A 
ENDBRANCH  10  12
ENDBRANCH   8  10
ENDBRANCH   7   8
ENDBRANCH   4   7
ENDBRANCH   2   3
ENDBRANCH   1   2
BRANCH   1  22
ATOM     22  C   UNL A   1      32.437  29.681  25.220  1.00  0.00     0.023 C 
BRANCH  22  23
ATOM     23  C   UNL A   1      32.382  30.045  26.693  1.00  0.00     0.116 C 
BRANCH  23  24
ATOM     24  N   UNL A   1      32.201  31.473  26.933  1.00  0.00    -0.352 N 
ATOM     25  C   UNL A   1      33.124  32.375  27.423  1.00  0.00     0.251 C 
ATOM     26  H   UNL A   1      31.311  31.837  26.719  1.00  0.00     0.163 HD
ATOM     27  O   UNL A   1      32.817  33.531  27.653  1.00  0.00    -0.269 OA
BRANCH  25  28
ATOM     28  C   UNL A   1      34.483  31.869  27.707  1.00  0.00     0.039 A 
ATOM     29  C   UNL A   1      34.665  30.507  27.955  1.00  0.00     0.014 A 
ATOM     30  C   UNL A   1      35.519  32.781  27.910  1.00  0.00     0.014 A 
ATOM     31  C   UNL A   1      35.813  30.092  28.613  1.00  0.00     0.010 A 
ATOM     32  C   UNL A   1      36.715  32.337  28.477  1.00  0.00     0.010 A 
ATOM     33  C   UNL A   1      36.844  31.005  28.898  1.00  0.00    -0.014 A 
BRANCH  33  34
ATOM     34  C   UNL A   1      38.036  30.540  29.655  1.00  0.00     0.031 A 
ATOM     35  C   UNL A   1      38.255  30.938  31.092  1.00  0.00     0.074 A 
ATOM     36  C   UNL A   1      38.905  29.707  29.050  1.00  0.00     0.049 A 
ATOM     37  N   UNL A   1      39.243  30.620  31.888  1.00  0.00    -0.248 NA
ATOM     38  C   UNL A   1      37.242  31.804  31.721  1.00  0.00     0.031 C 
ATOM     39  C   UNL A   1      38.807  29.259  27.658  1.00  0.00     0.029 A 
ATOM     40  N   UNL A   1      40.024  29.075  29.524  1.00  0.00    -0.354 N 
ATOM     41  C   UNL A   1      39.008  31.291  33.082  1.00  0.00     0.074 A 
ATOM     42  C   UNL A   1      37.774  32.026  32.917  1.00  0.00     0.031 C 
ATOM     43  C   UNL A   1      39.791  28.385  27.409  1.00  0.00     0.029 A 
ATOM     44  C   UNL A   1      40.628  28.261  28.597  1.00  0.00     0.049 A 
ATOM     45  H   UNL A   1      40.364  29.195  30.441  1.00  0.00     0.167 HD
ATOM     46  C   UNL A   1      39.746  31.283  34.217  1.00  0.00     0.034 A 
ATOM     47  C   UNL A   1      41.738  27.505  28.681  1.00  0.00     0.034 A 
ATOM     48  C   UNL A   1      40.930  30.490  34.408  1.00  0.00     0.049 A 
ATOM     49  C   UNL A   1      42.514  27.484  29.961  1.00  0.00     0.074 A 
ATOM     50  C   UNL A   1      41.711  30.376  35.545  1.00  0.00     0.029 A 
ATOM     51  N   UNL A   1      41.497  29.667  33.449  1.00  0.00    -0.354 N 
ATOM     52  N   UNL A   1      42.240  28.082  31.095  1.00  0.00    -0.248 NA
ATOM     53  C   UNL A   1      43.746  26.684  29.981  1.00  0.00     0.031 C 
ATOM     54  C   UNL A   1      42.751  29.483  35.274  1.00  0.00     0.029 A 
ATOM     55  C   UNL A   1      42.617  29.041  33.967  1.00  0.00     0.049 A 
ATOM     56  H   UNL A   1      41.154  29.547  32.534  1.00  0.00     0.167 HD
ATOM     57  C   UNL A   1      43.264  27.731  31.964  1.00  0.00     0.074 A 
ATOM     58  C   UNL A   1      44.150  26.846  31.236  1.00  0.00     0.031 C 
ATOM     59  C   UNL A   1      43.464  28.130  33.243  1.00  0.00     0.034 A 
BRANCH  46  60
ATOM     60  C   UNL A   1      39.276  32.117  35.377  1.00  0.00     0.023 A 
ATOM     61  C   UNL A   1      38.423  31.542  36.339  1.00  0.00     0.012 A 
ATOM     62  C   UNL A   1      39.763  33.424  35.571  1.00  0.00     0.148 A 
ATOM     63  C   UNL A   1      38.055  32.260  37.477  1.00  0.00     0.002 A 
ATOM     64  C   UNL A   1      39.413  34.124  36.722  1.00  0.00     0.091 A 
ATOM     65  F   UNL A   1      40.562  33.953  34.634  1.00  0.00    -0.205 F 
ATOM     66  C   UNL A   1      38.559  33.543  37.673  1.00  0.00     0.022 A 
BRANCH  64  67
ATOM     67  S   UNL A   1      40.050  35.762  37.096  1.00  0.00     0.127 S 
ATOM     68  O   UNL A   1      39.345  36.073  38.339  1.00  0.00    -0.237 OA
ATOM     69  O   UNL A   1      41.481  35.507  37.253  1.00  0.00    -0.237 OA
ATOM     70  O   UNL A   1      39.700  36.599  35.957  1.00  0.00    -0.744 OA
ENDBRANCH  64  67
ENDBRANCH  46  60
BRANCH  47  71
ATOM     71  C   UNL A   1      42.135  26.682  27.509  1.00  0.00     0.023 A 
ATOM     72  C   UNL A   1      43.002  27.231  26.546  1.00  0.00     0.012 A 
ATOM     73  C   UNL A   1      41.756  25.329  27.410  1.00  0.00     0.148 A 
ATOM     74  C   UNL A   1      43.490  26.442  25.504  1.00  0.00     0.002 A 
ATOM     75  C   UNL A   1      42.284  24.537  26.399  1.00  0.00     0.091 A 
ATOM     76  F   UNL A   1      40.922  24.836  28.338  1.00  0.00    -0.205 F 
ATOM     77  C   UNL A   1      43.144  25.094  25.440  1.00  0.00     0.022 A 
BRANCH  75  78
ATOM     78  S   UNL A   1      42.007  22.764  26.318  1.00  0.00     0.127 S 
ATOM     79  O   UNL A   1      40.548  22.690  26.333  1.00  0.00    -0.237 OA
ATOM     80  O   UNL A   1      42.630  22.423  25.038  1.00  0.00    -0.237 OA
ATOM     81  O   UNL A   1      42.679  22.205  27.482  1.00  0.00    -0.744 OA
ENDBRANCH  75  78
ENDBRANCH  47  71
BRANCH  59  82
ATOM     82  C   UNL A   1      44.689  27.625  33.948  1.00  0.00     0.023 A 
ATOM     83  C   UNL A   1      45.825  28.454  34.020  1.00  0.00     0.012 A 
ATOM     84  C   UNL A   1      44.681  26.392  34.625  1.00  0.00     0.148 A 
ATOM     85  C   UNL A   1      46.943  28.057  34.752  1.00  0.00     0.002 A 
ATOM     86  C   UNL A   1      45.787  26.015  35.376  1.00  0.00     0.091 A 
ATOM     87  F   UNL A   1      43.590  25.617  34.526  1.00  0.00    -0.205 F 
ATOM     88  C   UNL A   1      46.919  26.845  35.438  1.00  0.00     0.022 A 
BRANCH  86  89
ATOM     89  S   UNL A   1      45.824  24.506  36.349  1.00  0.00     0.127 S 
ATOM     90  O   UNL A   1      45.821  23.480  35.307  1.00  0.00    -0.237 OA
ATOM     91  O   UNL A   1      47.087  24.636  37.076  1.00  0.00    -0.237 OA
ATOM     92  O   UNL A   1      44.636  24.541  37.192  1.00  0.00    -0.744 OA
ENDBRANCH  86  89
ENDBRANCH  59  82
ENDBRANCH  33  34
ENDBRANCH  25  28
ENDBRANCH  23  24
ENDBRANCH  22  23
ENDBRANCH   1  22
TORSDOF 17
ENDMDL
MODEL 2
REMARK VINA RESULT:     -12.1      0.989      7.862
REMARK SMILES C[C@H]1Cc2cc(C(=O)[C@H](Br)CC(=O)NCCCCNC(=O)c3ccc(-c4c5nc(c(-c6cccc(S(=O)(=O)[O-])c6F)c6ccc([nH]6)c(-c6cccc(S(=O)(=O)[O-])c6F)c6nc(c(-c7cccc(S(=O)(=O)[O-])c7F)c7ccc4[nH]7)C=C6)C=C5)cc3)ccc2O1
REMARK SMILES IDX 16 1 15 2 14 3 12 4 13 5 11 7 9 8 10 9 7 10 8 11 6 12 1 13
REMARK SMILES IDX 2 14 3 15 88 16 4 17 87 18 5 19 86 20 85 21 17 22 18 23
REMARK SMILES IDX 19 24 20 25 21 27 22 28 23 29 84 30 24 31 83 32 25 33 26 34
REMARK SMILES IDX 27 35 77 36 28 37 82 38 76 39 78 40 29 41 81 42 75 43 74 44
REMARK SMILES IDX 30 46 62 47 42 48 61 49 43 50 46 51 60 52 79 53 44 54 45 55
REMARK SMILES IDX 59 57 80 58 47 59 31 60 32 61 40 62 33 63 35 64 41 65 34 66
REMARK SMILES IDX 36 67 37 68 38 69 39 70 63 71 64 72 72 73 65 74 67 75 73 76
REMARK SMILES IDX 66 77 68 78 69 79 70 80 71 81 48 82 49 83 57 84 50 85 52 86
REMARK SMILES IDX 58 87 51 88 53 89 54 90 55 91 56 92
REMARK H PARENT 14 6 19 26 78 45 46 56
REMARK Flexibility Score: inf
ROOT
ATOM      1  C   UNL A   1      31.440  27.630  24.725  1.00  0.00     0.023 C 
ENDROOT
BRANCH   1   2
ATOM      2  C   UNL A   1      30.526  26.434  24.992  1.00  0.00     0.116 C 
BRANCH   2   3
ATOM      3  N   UNL A   1      30.911  25.765  26.224  1.00  0.00    -0.356 N 
ATOM      4  C   UNL A   1      31.324  24.480  26.422  1.00  0.00     0.221 C 
ATOM      5  O   UNL A   1      31.402  24.040  27.567  1.00  0.00    -0.275 OA
ATOM      6  H   UNL A   1      30.866  26.322  27.035  1.00  0.00     0.163 HD
BRANCH   4   7
ATOM      7  C   UNL A   1      31.745  23.646  25.237  1.00  0.00     0.123 C 
BRANCH   7   8
ATOM      8  C   UNL A   1      33.245  23.544  25.042  1.00  0.00     0.138 C 
ATOM      9  Br  UNL A   1      34.276  25.158  25.377  1.00  0.00    -0.080 Br
BRANCH   8  10
ATOM     10  C   UNL A   1      33.911  22.464  25.884  1.00  0.00     0.176 C 
ATOM     11  O   UNL A   1      34.219  22.707  27.055  1.00  0.00    -0.293 OA
BRANCH  10  12
ATOM     12  C   UNL A   1      34.202  21.083  25.352  1.00  0.00     0.019 A 
ATOM     13  C   UNL A   1      33.189  15.672  25.376  1.00  0.00     0.053 C 
ATOM     14  C   UNL A   1      33.293  16.673  24.230  1.00  0.00     0.174 C 
ATOM     15  C   UNL A   1      32.344  17.869  24.416  1.00  0.00     0.084 C 
ATOM     16  O   UNL A   1      34.661  17.148  24.136  1.00  0.00    -0.490 OA
ATOM     17  C   UNL A   1      33.323  18.923  24.755  1.00  0.00    -0.001 A 
ATOM     18  C   UNL A   1      34.601  18.459  24.515  1.00  0.00     0.123 A 
ATOM     19  C   UNL A   1      33.103  20.222  25.185  1.00  0.00     0.019 A 
ATOM     20  C   UNL A   1      35.697  19.280  24.626  1.00  0.00     0.047 A 
ATOM     21  C   UNL A   1      35.488  20.607  25.018  1.00  0.00     0.015 A 
ENDBRANCH  10  12
ENDBRANCH   8  10
ENDBRANCH   7   8
ENDBRANCH   4   7
ENDBRANCH   2   3
ENDBRANCH   1   2
BRANCH   1  22
ATOM     22  C   UNL A   1      31.706  28.493  25.950  1.00  0.00     0.023 C 
BRANCH  22  23
ATOM     23  C   UNL A   1      32.766  29.559  25.738  1.00  0.00     0.116 C 
BRANCH  23  24
ATOM     24  N   UNL A   1      32.414  30.853  26.314  1.00  0.00    -0.352 N 
ATOM     25  C   UNL A   1      33.166  31.632  27.172  1.00  0.00     0.251 C 
ATOM     26  H   UNL A   1      31.534  31.213  26.060  1.00  0.00     0.163 HD
ATOM     27  O   UNL A   1      32.717  32.661  27.646  1.00  0.00    -0.269 OA
BRANCH  25  28
ATOM     28  C   UNL A   1      34.512  31.140  27.532  1.00  0.00     0.039 A 
ATOM     29  C   UNL A   1      34.693  29.782  27.798  1.00  0.00     0.014 A 
ATOM     30  C   UNL A   1      35.527  32.064  27.785  1.00  0.00     0.014 A 
ATOM     31  C   UNL A   1      35.807  29.381  28.520  1.00  0.00     0.010 A 
ATOM     32  C   UNL A   1      36.694  31.635  28.420  1.00  0.00     0.010 A 
ATOM     33  C   UNL A   1      36.813  30.306  28.855  1.00  0.00    -0.014 A 
BRANCH  33  34
ATOM     34  C   UNL A   1      37.966  29.856  29.678  1.00  0.00     0.031 A 
ATOM     35  C   UNL A   1      39.043  28.975  29.100  1.00  0.00     0.074 A 
ATOM     36  C   UNL A   1      38.065  30.291  30.949  1.00  0.00     0.049 A 
ATOM     37  N   UNL A   1      40.109  28.495  29.687  1.00  0.00    -0.248 NA
ATOM     38  C   UNL A   1      38.913  28.576  27.687  1.00  0.00     0.031 C 
ATOM     39  C   UNL A   1      37.079  31.139  31.625  1.00  0.00     0.029 A 
ATOM     40  N   UNL A   1      39.041  30.101  31.891  1.00  0.00    -0.354 N 
ATOM     41  C   UNL A   1      40.740  27.693  28.743  1.00  0.00     0.074 A 
ATOM     42  C   UNL A   1      39.948  27.759  27.536  1.00  0.00     0.031 C 
ATOM     43  C   UNL A   1      37.526  31.439  32.851  1.00  0.00     0.029 A 
ATOM     44  C   UNL A   1      38.795  30.754  33.075  1.00  0.00     0.049 A 
ATOM     45  H   UNL A   1      39.842  29.549  31.735  1.00  0.00     0.167 HD
ATOM     46  C   UNL A   1      41.883  26.979  28.867  1.00  0.00     0.034 A 
ATOM     47  C   UNL A   1      39.498  30.791  34.222  1.00  0.00     0.034 A 
ATOM     48  C   UNL A   1      42.714  26.976  30.042  1.00  0.00     0.049 A 
ATOM     49  C   UNL A   1      40.780  30.023  34.319  1.00  0.00     0.074 A 
ATOM     50  C   UNL A   1      43.920  26.325  30.237  1.00  0.00     0.029 A 
ATOM     51  N   UNL A   1      42.435  27.663  31.211  1.00  0.00    -0.354 N 
ATOM     52  N   UNL A   1      41.385  29.318  33.394  1.00  0.00    -0.248 NA
ATOM     53  C   UNL A   1      41.480  30.056  35.610  1.00  0.00     0.031 C 
ATOM     54  C   UNL A   1      44.371  26.621  31.527  1.00  0.00     0.029 A 
ATOM     55  C   UNL A   1      43.445  27.455  32.133  1.00  0.00     0.049 A 
ATOM     56  H   UNL A   1      41.635  28.217  31.365  1.00  0.00     0.167 HD
ATOM     57  C   UNL A   1      42.537  28.824  33.989  1.00  0.00     0.074 A 
ATOM     58  C   UNL A   1      42.562  29.332  35.346  1.00  0.00     0.031 C 
ATOM     59  C   UNL A   1      43.476  28.001  33.465  1.00  0.00     0.034 A 
BRANCH  46  60
ATOM     60  C   UNL A   1      42.350  26.171  27.687  1.00  0.00     0.023 A 
ATOM     61  C   UNL A   1      43.302  26.723  26.807  1.00  0.00     0.012 A 
ATOM     62  C   UNL A   1      41.933  24.837  27.514  1.00  0.00     0.148 A 
ATOM     63  C   UNL A   1      43.828  25.958  25.766  1.00  0.00     0.002 A 
ATOM     64  C   UNL A   1      42.481  24.073  26.489  1.00  0.00     0.091 A 
ATOM     65  F   UNL A   1      41.016  24.341  28.356  1.00  0.00    -0.205 F 
ATOM     66  C   UNL A   1      43.427  24.634  25.614  1.00  0.00     0.022 A 
BRANCH  64  67
ATOM     67  S   UNL A   1      42.073  22.341  26.240  1.00  0.00     0.127 S 
ATOM     68  O   UNL A   1      42.791  22.046  25.001  1.00  0.00    -0.237 OA
ATOM     69  O   UNL A   1      42.638  21.717  27.436  1.00  0.00    -0.237 OA
ATOM     70  O   UNL A   1      40.622  22.280  26.146  1.00  0.00    -0.744 OA
ENDBRANCH  64  67
ENDBRANCH  46  60
BRANCH  47  71
ATOM     71  C   UNL A   1      38.998  31.629  35.342  1.00  0.00     0.023 A 
ATOM     72  C   UNL A   1      38.160  31.049  36.313  1.00  0.00     0.012 A 
ATOM     73  C   UNL A   1      39.445  32.954  35.513  1.00  0.00     0.148 A 
ATOM     74  C   UNL A   1      37.777  31.777  37.440  1.00  0.00     0.002 A 
ATOM     75  C   UNL A   1      39.101  33.655  36.662  1.00  0.00     0.091 A 
ATOM     76  F   UNL A   1      40.237  33.482  34.568  1.00  0.00    -0.205 F 
ATOM     77  C   UNL A   1      38.260  33.071  37.622  1.00  0.00     0.022 A 
BRANCH  75  78
ATOM     78  S   UNL A   1      39.786  35.269  37.048  1.00  0.00     0.127 S 
ATOM     79  O   UNL A   1      39.289  36.077  35.937  1.00  0.00    -0.237 OA
ATOM     80  O   UNL A   1      39.167  35.554  38.343  1.00  0.00    -0.237 OA
ATOM     81  O   UNL A   1      41.229  35.086  37.097  1.00  0.00    -0.744 OA
ENDBRANCH  75  78
ENDBRANCH  47  71
BRANCH  59  82
ATOM     82  C   UNL A   1      44.613  27.583  34.352  1.00  0.00     0.023 A 
ATOM     83  C   UNL A   1      45.741  28.419  34.453  1.00  0.00     0.012 A 
ATOM     84  C   UNL A   1      44.520  26.434  35.158  1.00  0.00     0.148 A 
ATOM     85  C   UNL A   1      46.770  28.111  35.342  1.00  0.00     0.002 A 
ATOM     86  C   UNL A   1      45.535  26.149  36.063  1.00  0.00     0.091 A 
ATOM     87  F   UNL A   1      43.440  25.649  35.030  1.00  0.00    -0.205 F 
ATOM     88  C   UNL A   1      46.661  26.984  36.154  1.00  0.00     0.022 A 
BRANCH  86  89
ATOM     89  S   UNL A   1      45.453  24.760  37.199  1.00  0.00     0.127 S 
ATOM     90  O   UNL A   1      45.015  23.680  36.316  1.00  0.00    -0.237 OA
ATOM     91  O   UNL A   1      46.838  24.651  37.656  1.00  0.00    -0.237 OA
ATOM     92  O   UNL A   1      44.503  25.143  38.234  1.00  0.00    -0.744 OA
ENDBRANCH  86  89
ENDBRANCH  59  82
ENDBRANCH  33  34
ENDBRANCH  25  28
ENDBRANCH  23  24
ENDBRANCH  22  23
ENDBRANCH   1  22
TORSDOF 17
ENDMDL
MODEL 3
REMARK VINA RESULT:     -11.9      2.890      3.765
REMARK SMILES C[C@H]1Cc2cc(C(=O)[C@H](Br)CC(=O)NCCCCNC(=O)c3ccc(-c4c5nc(c(-c6cccc(S(=O)(=O)[O-])c6F)c6ccc([nH]6)c(-c6cccc(S(=O)(=O)[O-])c6F)c6nc(c(-c7cccc(S(=O)(=O)[O-])c7F)c7ccc4[nH]7)C=C6)C=C5)cc3)ccc2O1
REMARK SMILES IDX 16 1 15 2 14 3 12 4 13 5 11 7 9 8 10 9 7 10 8 11 6 12 1 13
REMARK SMILES IDX 2 14 3 15 88 16 4 17 87 18 5 19 86 20 85 21 17 22 18 23
REMARK SMILES IDX 19 24 20 25 21 27 22 28 23 29 84 30 24 31 83 32 25 33 26 34
REMARK SMILES IDX 27 35 77 36 28 37 82 38 76 39 78 40 29 41 81 42 75 43 74 44
REMARK SMILES IDX 30 46 62 47 42 48 61 49 43 50 46 51 60 52 79 53 44 54 45 55
REMARK SMILES IDX 59 57 80 58 47 59 31 60 32 61 40 62 33 63 35 64 41 65 34 66
REMARK SMILES IDX 36 67 37 68 38 69 39 70 63 71 64 72 72 73 65 74 67 75 73 76
REMARK SMILES IDX 66 77 68 78 69 79 70 80 71 81 48 82 49 83 57 84 50 85 52 86
REMARK SMILES IDX 58 87 51 88 53 89 54 90 55 91 56 92
REMARK H PARENT 14 6 19 26 78 45 46 56
REMARK Flexibility Score: inf
ROOT
ATOM      1  C   UNL A   1      33.264  30.009  26.617  1.00  0.00     0.023 C 
ENDROOT
BRANCH   1   2
ATOM      2  C   UNL A   1      32.511  29.407  25.430  1.00  0.00     0.116 C 
BRANCH   2   3
ATOM      3  N   UNL A   1      33.340  29.435  24.236  1.00  0.00    -0.356 N 
ATOM      4  C   UNL A   1      33.205  28.742  23.069  1.00  0.00     0.221 C 
ATOM      5  O   UNL A   1      34.127  28.744  22.255  1.00  0.00    -0.275 OA
ATOM      6  H   UNL A   1      34.113  30.045  24.276  1.00  0.00     0.163 HD
BRANCH   4   7
ATOM      7  C   UNL A   1      31.902  28.044  22.767  1.00  0.00     0.123 C 
BRANCH   7   8
ATOM      8  C   UNL A   1      31.661  26.788  23.581  1.00  0.00     0.138 C 
ATOM      9  Br  UNL A   1      29.817  26.186  23.725  1.00  0.00    -0.080 Br
BRANCH   8  10
ATOM     10  C   UNL A   1      32.439  25.572  23.097  1.00  0.00     0.176 C 
ATOM     11  O   UNL A   1      32.128  25.033  22.031  1.00  0.00    -0.293 OA
BRANCH  10  12
ATOM     12  C   UNL A   1      33.604  24.995  23.864  1.00  0.00     0.019 A 
ATOM     13  C   UNL A   1      36.959  20.763  24.930  1.00  0.00     0.053 C 
ATOM     14  C   UNL A   1      37.251  22.227  24.619  1.00  0.00     0.174 C 
ATOM     15  C   UNL A   1      36.602  22.682  23.301  1.00  0.00     0.084 C 
ATOM     16  O   UNL A   1      36.764  23.051  25.710  1.00  0.00    -0.490 OA
ATOM     17  C   UNL A   1      35.517  23.535  23.830  1.00  0.00    -0.001 A 
ATOM     18  C   UNL A   1      35.712  23.744  25.180  1.00  0.00     0.123 A 
ATOM     19  C   UNL A   1      34.466  24.138  23.157  1.00  0.00     0.019 A 
ATOM     20  C   UNL A   1      34.918  24.606  25.897  1.00  0.00     0.047 A 
ATOM     21  C   UNL A   1      33.878  25.256  25.223  1.00  0.00     0.015 A 
ENDBRANCH  10  12
ENDBRANCH   8  10
ENDBRANCH   7   8
ENDBRANCH   4   7
ENDBRANCH   2   3
ENDBRANCH   1   2
BRANCH   1  22
ATOM     22  C   UNL A   1      32.593  31.233  27.221  1.00  0.00     0.023 C 
BRANCH  22  23
ATOM     23  C   UNL A   1      33.557  32.337  27.618  1.00  0.00     0.116 C 
BRANCH  23  24
ATOM     24  N   UNL A   1      32.921  33.642  27.763  1.00  0.00    -0.352 N 
ATOM     25  C   UNL A   1      33.234  34.644  28.660  1.00  0.00     0.251 C 
ATOM     26  H   UNL A   1      32.178  33.831  27.145  1.00  0.00     0.163 HD
ATOM     27  O   UNL A   1      32.567  35.660  28.730  1.00  0.00    -0.269 OA
BRANCH  25  28
ATOM     28  C   UNL A   1      34.377  34.408  29.567  1.00  0.00     0.039 A 
ATOM     29  C   UNL A   1      35.673  34.636  29.104  1.00  0.00     0.014 A 
ATOM     30  C   UNL A   1      34.151  33.786  30.796  1.00  0.00     0.014 A 
ATOM     31  C   UNL A   1      36.738  34.044  29.769  1.00  0.00     0.010 A 
ATOM     32  C   UNL A   1      35.238  33.283  31.514  1.00  0.00     0.010 A 
ATOM     33  C   UNL A   1      36.531  33.345  30.971  1.00  0.00    -0.014 A 
BRANCH  33  34
ATOM     34  C   UNL A   1      37.683  32.674  31.627  1.00  0.00     0.031 A 
ATOM     35  C   UNL A   1      38.134  33.068  33.010  1.00  0.00     0.074 A 
ATOM     36  C   UNL A   1      38.297  31.662  30.984  1.00  0.00     0.049 A 
ATOM     37  N   UNL A   1      39.122  32.583  33.718  1.00  0.00    -0.248 NA
ATOM     38  C   UNL A   1      37.389  34.143  33.690  1.00  0.00     0.031 C 
ATOM     39  C   UNL A   1      37.959  31.195  29.637  1.00  0.00     0.029 A 
ATOM     40  N   UNL A   1      39.314  30.833  31.377  1.00  0.00    -0.354 N 
ATOM     41  C   UNL A   1      39.158  33.329  34.891  1.00  0.00     0.074 A 
ATOM     42  C   UNL A   1      38.084  34.293  34.811  1.00  0.00     0.031 C 
ATOM     43  C   UNL A   1      38.716  30.132  29.338  1.00  0.00     0.029 A 
ATOM     44  C   UNL A   1      39.638  29.881  30.440  1.00  0.00     0.049 A 
ATOM     45  H   UNL A   1      39.771  30.912  32.247  1.00  0.00     0.167 HD
ATOM     46  C   UNL A   1      40.001  33.210  35.943  1.00  0.00     0.034 A 
ATOM     47  C   UNL A   1      40.579  28.919  30.453  1.00  0.00     0.034 A 
ATOM     48  C   UNL A   1      41.018  32.200  36.057  1.00  0.00     0.049 A 
ATOM     49  C   UNL A   1      41.473  28.785  31.647  1.00  0.00     0.074 A 
ATOM     50  C   UNL A   1      41.883  31.970  37.113  1.00  0.00     0.029 A 
ATOM     51  N   UNL A   1      41.301  31.247  35.092  1.00  0.00    -0.354 N 
ATOM     52  N   UNL A   1      41.450  29.464  32.768  1.00  0.00    -0.248 NA
ATOM     53  C   UNL A   1      42.516  27.753  31.586  1.00  0.00     0.031 C 
ATOM     54  C   UNL A   1      42.688  30.875  36.788  1.00  0.00     0.029 A 
ATOM     55  C   UNL A   1      42.325  30.425  35.528  1.00  0.00     0.049 A 
ATOM     56  H   UNL A   1      40.843  31.168  34.225  1.00  0.00     0.167 HD
ATOM     57  C   UNL A   1      42.474  28.943  33.546  1.00  0.00     0.074 A 
ATOM     58  C   UNL A   1      43.081  27.872  32.782  1.00  0.00     0.031 C 
ATOM     59  C   UNL A   1      42.890  29.337  34.773  1.00  0.00     0.034 A 
BRANCH  46  60
ATOM     60  C   UNL A   1      39.838  34.162  37.096  1.00  0.00     0.023 A 
ATOM     61  C   UNL A   1      40.192  35.514  36.929  1.00  0.00     0.012 A 
ATOM     62  C   UNL A   1      39.236  33.744  38.299  1.00  0.00     0.148 A 
ATOM     63  C   UNL A   1      39.955  36.439  37.947  1.00  0.00     0.002 A 
ATOM     64  C   UNL A   1      38.979  34.675  39.299  1.00  0.00     0.091 A 
ATOM     65  F   UNL A   1      38.922  32.448  38.438  1.00  0.00    -0.205 F 
ATOM     66  C   UNL A   1      39.340  36.022  39.125  1.00  0.00     0.022 A 
BRANCH  64  67
ATOM     67  S   UNL A   1      38.143  34.253  40.833  1.00  0.00     0.127 S 
ATOM     68  O   UNL A   1      37.841  35.576  41.376  1.00  0.00    -0.237 OA
ATOM     69  O   UNL A   1      36.978  33.510  40.352  1.00  0.00    -0.237 OA
ATOM     70  O   UNL A   1      39.093  33.466  41.605  1.00  0.00    -0.744 OA
ENDBRANCH  64  67
ENDBRANCH  46  60
BRANCH  47  71
ATOM     71  C   UNL A   1      40.673  27.993  29.294  1.00  0.00     0.023 A 
ATOM     72  C   UNL A   1      39.756  26.930  29.190  1.00  0.00     0.012 A 
ATOM     73  C   UNL A   1      41.580  28.232  28.244  1.00  0.00     0.148 A 
ATOM     74  C   UNL A   1      39.741  26.121  28.054  1.00  0.00     0.002 A 
ATOM     75  C   UNL A   1      41.525  27.455  27.095  1.00  0.00     0.091 A 
ATOM     76  F   UNL A   1      42.446  29.248  28.375  1.00  0.00    -0.205 F 
ATOM     77  C   UNL A   1      40.612  26.393  27.002  1.00  0.00     0.022 A 
BRANCH  75  78
ATOM     78  S   UNL A   1      42.509  27.818  25.637  1.00  0.00     0.127 S 
ATOM     79  O   UNL A   1      42.266  26.635  24.813  1.00  0.00    -0.237 OA
ATOM     80  O   UNL A   1      41.882  29.048  25.152  1.00  0.00    -0.237 OA
ATOM     81  O   UNL A   1      43.875  27.984  26.113  1.00  0.00    -0.744 OA
ENDBRANCH  75  78
ENDBRANCH  47  71
BRANCH  59  82
ATOM     82  C   UNL A   1      44.061  28.618  35.378  1.00  0.00     0.023 A 
ATOM     83  C   UNL A   1      45.364  29.033  35.040  1.00  0.00     0.012 A 
ATOM     84  C   UNL A   1      43.876  27.619  36.350  1.00  0.00     0.148 A 
ATOM     85  C   UNL A   1      46.471  28.453  35.658  1.00  0.00     0.002 A 
ATOM     86  C   UNL A   1      44.983  27.066  36.984  1.00  0.00     0.091 A 
ATOM     87  F   UNL A   1      42.624  27.234  36.641  1.00  0.00    -0.205 F 
ATOM     88  C   UNL A   1      46.280  27.480  36.637  1.00  0.00     0.022 A 
BRANCH  86  89
ATOM     89  S   UNL A   1      44.835  25.857  38.304  1.00  0.00     0.127 S 
ATOM     90  O   UNL A   1      46.234  25.646  38.671  1.00  0.00    -0.237 OA
ATOM     91  O   UNL A   1      44.045  26.581  39.300  1.00  0.00    -0.237 OA
ATOM     92  O   UNL A   1      44.163  24.705  37.720  1.00  0.00    -0.744 OA
ENDBRANCH  86  89
ENDBRANCH  59  82
ENDBRANCH  33  34
ENDBRANCH  25  28
ENDBRANCH  23  24
ENDBRANCH  22  23
ENDBRANCH   1  22
TORSDOF 17
ENDMDL
