MODEL 1
REMARK VINA RESULT:     -11.4      0.000      0.000
REMARK SMILES CC[C@](C)(NC(=O)CCSc1ccccc1Cl)C(=O)NCCCCNC(=O)c1ccc(-c2c3nc(c(-c4cccc(S(=O)(=O)[O-])c4F)c4ccc([nH]4)c(-c4cccc(S(=O)(=O)[O-])c4F)c4nc(c(-c5cccc(S(=O)(=O)[O-])c5F)c5ccc2[nH]5)C=C4)C=C3)cc1
REMARK SMILES IDX 21 1 20 2 18 3 19 4 3 6 4 7 2 8 1 9 5 10 6 11 7 13 8 14 9 15
REMARK SMILES IDX 10 16 11 17 12 18 16 19 13 20 15 21 17 22 14 23 22 24 23 25
REMARK SMILES IDX 24 26 25 27 26 28 27 30 28 31 29 32 90 33 30 34 89 35 31 36
REMARK SMILES IDX 32 37 33 38 83 39 34 40 88 41 82 42 84 43 35 44 87 45 81 46
REMARK SMILES IDX 80 47 36 49 68 50 48 51 67 52 49 53 52 54 66 55 85 56 50 57
REMARK SMILES IDX 51 58 65 60 86 61 53 62 37 63 38 64 46 65 39 66 41 67 47 68
REMARK SMILES IDX 40 69 42 70 43 71 44 72 45 73 69 74 70 75 78 76 71 77 73 78
REMARK SMILES IDX 79 79 72 80 74 81 75 82 76 83 77 84 54 85 55 86 63 87 56 88
REMARK SMILES IDX 58 89 64 90 57 91 59 92 60 93 61 94 62 95
REMARK H PARENT 20 5 5 12 25 29 84 48 52 59
REMARK Flexibility Score: inf
ROOT
ATOM      1  C   UNL A   1      35.396  23.357  22.935  1.00  0.00     0.116 C 
ENDROOT
BRANCH   1   2
ATOM      2  N   UNL A   1      34.529  23.884  23.978  1.00  0.00    -0.354 N 
ATOM      3  C   UNL A   1      33.169  23.951  24.081  1.00  0.00     0.245 C 
ATOM      4  O   UNL A   1      32.712  24.355  25.153  1.00  0.00    -0.272 OA
ATOM      5  H   UNL A   1      35.010  24.261  24.749  1.00  0.00     0.163 HD
BRANCH   3   6
ATOM      6  C   UNL A   1      32.241  23.434  22.949  1.00  0.00     0.116 C 
ATOM      7  C   UNL A   1      30.763  23.616  23.296  1.00  0.00     0.045 C 
BRANCH   6   8
ATOM      8  C   UNL A   1      32.497  21.897  22.774  1.00  0.00     0.035 C 
ATOM      9  C   UNL A   1      32.459  21.063  24.053  1.00  0.00     0.007 C 
ENDBRANCH   6   8
BRANCH   6  10
ATOM     10  N   UNL A   1      32.594  24.097  21.671  1.00  0.00    -0.342 N 
ATOM     11  C   UNL A   1      32.515  25.361  21.192  1.00  0.00     0.221 C 
ATOM     12  H   UNL A   1      32.977  23.469  21.016  1.00  0.00     0.164 HD
ATOM     13  O   UNL A   1      33.116  25.552  20.124  1.00  0.00    -0.275 OA
BRANCH  11  14
ATOM     14  C   UNL A   1      31.908  26.542  21.915  1.00  0.00     0.111 C 
BRANCH  14  15
ATOM     15  C   UNL A   1      32.720  27.330  22.935  1.00  0.00     0.085 C 
BRANCH  15  16
ATOM     16  S   UNL A   1      31.890  28.273  24.285  1.00  0.00    -0.124 SA
BRANCH  16  17
ATOM     17  C   UNL A   1      30.279  28.662  23.616  1.00  0.00     0.026 A 
ATOM     18  C   UNL A   1      30.142  29.926  23.029  1.00  0.00     0.016 A 
ATOM     19  C   UNL A   1      29.147  27.836  23.669  1.00  0.00     0.054 A 
ATOM     20  C   UNL A   1      28.967  30.301  22.373  1.00  0.00     0.001 A 
ATOM     21  C   UNL A   1      27.961  28.214  23.017  1.00  0.00     0.022 A 
ATOM     22  Cl  UNL A   1      29.127  26.340  24.539  1.00  0.00    -0.083 Cl
ATOM     23  C   UNL A   1      27.881  29.435  22.347  1.00  0.00     0.002 A 
ENDBRANCH  16  17
ENDBRANCH  15  16
ENDBRANCH  14  15
ENDBRANCH  11  14
ENDBRANCH   6  10
ENDBRANCH   3   6
ENDBRANCH   1   2
BRANCH   1  24
ATOM     24  C   UNL A   1      36.638  22.652  23.476  1.00  0.00     0.023 C 
BRANCH  24  25
ATOM     25  C   UNL A   1      36.372  21.551  24.497  1.00  0.00     0.023 C 
BRANCH  25  26
ATOM     26  C   UNL A   1      37.175  21.670  25.780  1.00  0.00     0.116 C 
BRANCH  26  27
ATOM     27  N   UNL A   1      38.247  20.690  25.871  1.00  0.00    -0.352 N 
ATOM     28  C   UNL A   1      39.554  20.893  26.254  1.00  0.00     0.251 C 
ATOM     29  H   UNL A   1      38.008  19.767  25.628  1.00  0.00     0.163 HD
ATOM     30  O   UNL A   1      40.371  19.994  26.181  1.00  0.00    -0.269 OA
BRANCH  28  31
ATOM     31  C   UNL A   1      39.942  22.241  26.716  1.00  0.00     0.039 A 
ATOM     32  C   UNL A   1      40.900  22.354  27.723  1.00  0.00     0.014 A 
ATOM     33  C   UNL A   1      39.414  23.377  26.096  1.00  0.00     0.014 A 
ATOM     34  C   UNL A   1      41.372  23.619  28.074  1.00  0.00     0.010 A 
ATOM     35  C   UNL A   1      39.951  24.623  26.385  1.00  0.00     0.010 A 
ATOM     36  C   UNL A   1      40.924  24.758  27.387  1.00  0.00    -0.014 A 
BRANCH  36  37
ATOM     37  C   UNL A   1      41.447  26.107  27.712  1.00  0.00     0.031 A 
ATOM     38  C   UNL A   1      42.850  26.478  27.315  1.00  0.00     0.074 A 
ATOM     39  C   UNL A   1      40.693  26.960  28.434  1.00  0.00     0.049 A 
ATOM     40  N   UNL A   1      43.509  27.581  27.554  1.00  0.00    -0.248 NA
ATOM     41  C   UNL A   1      43.626  25.464  26.581  1.00  0.00     0.031 C 
ATOM     42  C   UNL A   1      39.353  26.676  28.953  1.00  0.00     0.029 A 
ATOM     43  N   UNL A   1      40.958  28.231  28.877  1.00  0.00    -0.354 N 
ATOM     44  C   UNL A   1      44.782  27.380  27.034  1.00  0.00     0.074 A 
ATOM     45  C   UNL A   1      44.819  26.034  26.509  1.00  0.00     0.031 C 
ATOM     46  C   UNL A   1      38.912  27.743  29.639  1.00  0.00     0.029 A 
ATOM     47  C   UNL A   1      39.944  28.774  29.632  1.00  0.00     0.049 A 
ATOM     48  H   UNL A   1      41.794  28.709  28.674  1.00  0.00     0.167 HD
ATOM     49  C   UNL A   1      45.816  28.250  26.965  1.00  0.00     0.034 A 
ATOM     50  C   UNL A   1      39.861  29.967  30.252  1.00  0.00     0.034 A 
ATOM     51  C   UNL A   1      45.754  29.603  27.446  1.00  0.00     0.049 A 
ATOM     52  C   UNL A   1      41.003  30.937  30.113  1.00  0.00     0.074 A 
ATOM     53  C   UNL A   1      46.712  30.596  27.348  1.00  0.00     0.029 A 
ATOM     54  N   UNL A   1      44.673  30.153  28.117  1.00  0.00    -0.354 N 
ATOM     55  N   UNL A   1      42.141  30.786  29.478  1.00  0.00    -0.248 NA
ATOM     56  C   UNL A   1      40.837  32.255  30.743  1.00  0.00     0.031 C 
ATOM     57  C   UNL A   1      46.217  31.742  27.978  1.00  0.00     0.029 A 
ATOM     58  C   UNL A   1      44.940  31.471  28.445  1.00  0.00     0.049 A 
ATOM     59  H   UNL A   1      43.838  29.676  28.329  1.00  0.00     0.167 HD
ATOM     60  C   UNL A   1      42.809  31.998  29.600  1.00  0.00     0.074 A 
ATOM     61  C   UNL A   1      41.939  32.880  30.352  1.00  0.00     0.031 C 
ATOM     62  C   UNL A   1      44.039  32.348  29.146  1.00  0.00     0.034 A 
BRANCH  49  63
ATOM     63  C   UNL A   1      47.079  27.781  26.292  1.00  0.00     0.023 A 
ATOM     64  C   UNL A   1      48.078  27.144  27.058  1.00  0.00     0.012 A 
ATOM     65  C   UNL A   1      47.261  27.925  24.903  1.00  0.00     0.148 A 
ATOM     66  C   UNL A   1      49.254  26.694  26.461  1.00  0.00     0.002 A 
ATOM     67  C   UNL A   1      48.416  27.432  24.308  1.00  0.00     0.091 A 
ATOM     68  F   UNL A   1      46.312  28.552  24.195  1.00  0.00    -0.205 F 
ATOM     69  C   UNL A   1      49.418  26.828  25.086  1.00  0.00     0.022 A 
BRANCH  67  70
ATOM     70  S   UNL A   1      48.690  27.482  22.533  1.00  0.00     0.127 S 
ATOM     71  O   UNL A   1      48.656  26.062  22.189  1.00  0.00    -0.237 OA
ATOM     72  O   UNL A   1      47.535  28.251  22.066  1.00  0.00    -0.237 OA
ATOM     73  O   UNL A   1      49.975  28.141  22.343  1.00  0.00    -0.744 OA
ENDBRANCH  67  70
ENDBRANCH  49  63
BRANCH  50  74
ATOM     74  C   UNL A   1      38.625  30.333  31.000  1.00  0.00     0.023 A 
ATOM     75  C   UNL A   1      38.481  29.930  32.342  1.00  0.00     0.012 A 
ATOM     76  C   UNL A   1      37.608  31.102  30.402  1.00  0.00     0.148 A 
ATOM     77  C   UNL A   1      37.333  30.257  33.065  1.00  0.00     0.002 A 
ATOM     78  C   UNL A   1      36.492  31.471  31.145  1.00  0.00     0.091 A 
ATOM     79  F   UNL A   1      37.758  31.466  29.121  1.00  0.00    -0.205 F 
ATOM     80  C   UNL A   1      36.344  31.035  32.470  1.00  0.00     0.022 A 
BRANCH  78  81
ATOM     81  S   UNL A   1      35.236  32.582  30.502  1.00  0.00     0.127 S 
ATOM     82  O   UNL A   1      34.301  32.656  31.622  1.00  0.00    -0.237 OA
ATOM     83  O   UNL A   1      36.006  33.803  30.259  1.00  0.00    -0.237 OA
ATOM     84  O   UNL A   1      34.729  31.945  29.294  1.00  0.00    -0.744 OA
ENDBRANCH  78  81
ENDBRANCH  50  74
BRANCH  62  85
ATOM     85  C   UNL A   1      44.508  33.753  29.414  1.00  0.00     0.023 A 
ATOM     86  C   UNL A   1      45.128  34.064  30.640  1.00  0.00     0.012 A 
ATOM     87  C   UNL A   1      44.408  34.743  28.417  1.00  0.00     0.148 A 
ATOM     88  C   UNL A   1      45.612  35.349  30.883  1.00  0.00     0.002 A 
ATOM     89  C   UNL A   1      44.937  36.007  28.646  1.00  0.00     0.091 A 
ATOM     90  F   UNL A   1      43.798  34.431  27.264  1.00  0.00    -0.205 F 
ATOM     91  C   UNL A   1      45.527  36.315  29.883  1.00  0.00     0.022 A 
BRANCH  89  92
ATOM     92  S   UNL A   1      44.963  37.283  27.382  1.00  0.00     0.127 S 
ATOM     93  O   UNL A   1      45.838  36.685  26.375  1.00  0.00    -0.237 OA
ATOM     94  O   UNL A   1      43.554  37.364  26.995  1.00  0.00    -0.237 OA
ATOM     95  O   UNL A   1      45.481  38.480  28.030  1.00  0.00    -0.744 OA
ENDBRANCH  89  92
ENDBRANCH  62  85
ENDBRANCH  36  37
ENDBRANCH  28  31
ENDBRANCH  26  27
ENDBRANCH  25  26
ENDBRANCH  24  25
ENDBRANCH   1  24
TORSDOF 20
ENDMDL
MODEL 2
REMARK VINA RESULT:     -11.1      1.518      2.041
REMARK SMILES CC[C@](C)(NC(=O)CCSc1ccccc1Cl)C(=O)NCCCCNC(=O)c1ccc(-c2c3nc(c(-c4cccc(S(=O)(=O)[O-])c4F)c4ccc([nH]4)c(-c4cccc(S(=O)(=O)[O-])c4F)c4nc(c(-c5cccc(S(=O)(=O)[O-])c5F)c5ccc2[nH]5)C=C4)C=C3)cc1
REMARK SMILES IDX 21 1 20 2 18 3 19 4 3 6 4 7 2 8 1 9 5 10 6 11 7 13 8 14 9 15
REMARK SMILES IDX 10 16 11 17 12 18 16 19 13 20 15 21 17 22 14 23 22 24 23 25
REMARK SMILES IDX 24 26 25 27 26 28 27 30 28 31 29 32 90 33 30 34 89 35 31 36
REMARK SMILES IDX 32 37 33 38 83 39 34 40 88 41 82 42 84 43 35 44 87 45 81 46
REMARK SMILES IDX 80 47 36 49 68 50 48 51 67 52 49 53 52 54 66 55 85 56 50 57
REMARK SMILES IDX 51 58 65 60 86 61 53 62 37 63 38 64 46 65 39 66 41 67 47 68
REMARK SMILES IDX 40 69 42 70 43 71 44 72 45 73 69 74 70 75 78 76 71 77 73 78
REMARK SMILES IDX 79 79 72 80 74 81 75 82 76 83 77 84 54 85 55 86 63 87 56 88
REMARK SMILES IDX 58 89 64 90 57 91 59 92 60 93 61 94 62 95
REMARK H PARENT 20 5 5 12 25 29 84 48 52 59
REMARK Flexibility Score: inf
ROOT
ATOM      1  C   UNL A   1      35.605  22.308  25.655  1.00  0.00     0.116 C 
ENDROOT
BRANCH   1   2
ATOM      2  N   UNL A   1      34.789  22.287  26.859  1.00  0.00    -0.354 N 
ATOM      3  C   UNL A   1      33.479  22.603  27.074  1.00  0.00     0.245 C 
ATOM      4  O   UNL A   1      33.027  22.372  28.199  1.00  0.00    -0.272 OA
ATOM      5  H   UNL A   1      35.269  21.990  27.665  1.00  0.00     0.163 HD
BRANCH   3   6
ATOM      6  C   UNL A   1      32.567  23.119  25.928  1.00  0.00     0.116 C 
ATOM      7  C   UNL A   1      31.737  24.328  26.360  1.00  0.00     0.045 C 
BRANCH   6   8
ATOM      8  C   UNL A   1      31.567  21.973  25.548  1.00  0.00     0.035 C 
ATOM      9  C   UNL A   1      32.199  20.670  25.064  1.00  0.00     0.007 C 
ENDBRANCH   6   8
BRANCH   6  10
ATOM     10  N   UNL A   1      33.390  23.413  24.730  1.00  0.00    -0.342 N 
ATOM     11  C   UNL A   1      33.185  24.068  23.562  1.00  0.00     0.221 C 
ATOM     12  H   UNL A   1      34.300  23.046  24.800  1.00  0.00     0.164 HD
ATOM     13  O   UNL A   1      34.208  24.273  22.893  1.00  0.00    -0.275 OA
BRANCH  11  14
ATOM     14  C   UNL A   1      31.877  24.680  23.111  1.00  0.00     0.111 C 
BRANCH  14  15
ATOM     15  C   UNL A   1      31.864  25.942  22.258  1.00  0.00     0.085 C 
BRANCH  15  16
ATOM     16  S   UNL A   1      31.030  27.478  22.848  1.00  0.00    -0.124 SA
BRANCH  16  17
ATOM     17  C   UNL A   1      31.918  27.911  24.337  1.00  0.00     0.026 A 
ATOM     18  C   UNL A   1      31.194  27.835  25.533  1.00  0.00     0.016 A 
ATOM     19  C   UNL A   1      33.248  28.354  24.401  1.00  0.00     0.054 A 
ATOM     20  C   UNL A   1      31.809  28.039  26.771  1.00  0.00     0.001 A 
ATOM     21  C   UNL A   1      33.866  28.567  25.645  1.00  0.00     0.022 A 
ATOM     22  Cl  UNL A   1      34.188  28.681  22.985  1.00  0.00    -0.083 Cl
ATOM     23  C   UNL A   1      33.153  28.383  26.829  1.00  0.00     0.002 A 
ENDBRANCH  16  17
ENDBRANCH  15  16
ENDBRANCH  14  15
ENDBRANCH  11  14
ENDBRANCH   6  10
ENDBRANCH   3   6
ENDBRANCH   1   2
BRANCH   1  24
ATOM     24  C   UNL A   1      35.932  20.917  25.116  1.00  0.00     0.023 C 
BRANCH  24  25
ATOM     25  C   UNL A   1      37.390  20.693  24.730  1.00  0.00     0.023 C 
BRANCH  25  26
ATOM     26  C   UNL A   1      38.399  21.336  25.665  1.00  0.00     0.116 C 
BRANCH  26  27
ATOM     27  N   UNL A   1      39.447  20.420  26.086  1.00  0.00    -0.352 N 
ATOM     28  C   UNL A   1      40.636  20.718  26.714  1.00  0.00     0.251 C 
ATOM     29  H   UNL A   1      39.287  19.468  25.899  1.00  0.00     0.163 HD
ATOM     30  O   UNL A   1      41.469  19.855  26.913  1.00  0.00    -0.269 OA
BRANCH  28  31
ATOM     31  C   UNL A   1      40.884  22.122  27.100  1.00  0.00     0.039 A 
ATOM     32  C   UNL A   1      41.582  22.379  28.281  1.00  0.00     0.014 A 
ATOM     33  C   UNL A   1      40.496  23.165  26.255  1.00  0.00     0.014 A 
ATOM     34  C   UNL A   1      41.940  23.691  28.588  1.00  0.00     0.010 A 
ATOM     35  C   UNL A   1      40.931  24.456  26.519  1.00  0.00     0.010 A 
ATOM     36  C   UNL A   1      41.644  24.734  27.696  1.00  0.00    -0.014 A 
BRANCH  36  37
ATOM     37  C   UNL A   1      42.056  26.129  27.981  1.00  0.00     0.031 A 
ATOM     38  C   UNL A   1      43.456  26.574  27.657  1.00  0.00     0.074 A 
ATOM     39  C   UNL A   1      41.200  26.964  28.604  1.00  0.00     0.049 A 
ATOM     40  N   UNL A   1      44.025  27.729  27.878  1.00  0.00    -0.248 NA
ATOM     41  C   UNL A   1      44.345  25.579  27.032  1.00  0.00     0.031 C 
ATOM     42  C   UNL A   1      39.849  26.617  29.049  1.00  0.00     0.029 A 
ATOM     43  N   UNL A   1      41.352  28.271  28.993  1.00  0.00    -0.354 N 
ATOM     44  C   UNL A   1      45.341  27.590  27.455  1.00  0.00     0.074 A 
ATOM     45  C   UNL A   1      45.501  26.224  27.007  1.00  0.00     0.031 C 
ATOM     46  C   UNL A   1      39.294  27.684  29.645  1.00  0.00     0.029 A 
ATOM     47  C   UNL A   1      40.256  28.781  29.650  1.00  0.00     0.049 A 
ATOM     48  H   UNL A   1      42.168  28.794  28.821  1.00  0.00     0.167 HD
ATOM     49  C   UNL A   1      46.320  28.523  27.407  1.00  0.00     0.034 A 
ATOM     50  C   UNL A   1      40.054  29.995  30.197  1.00  0.00     0.034 A 
ATOM     51  C   UNL A   1      46.138  29.890  27.808  1.00  0.00     0.049 A 
ATOM     52  C   UNL A   1      41.138  31.032  30.081  1.00  0.00     0.074 A 
ATOM     53  C   UNL A   1      47.035  30.940  27.720  1.00  0.00     0.029 A 
ATOM     54  N   UNL A   1      44.980  30.399  28.376  1.00  0.00    -0.354 N 
ATOM     55  N   UNL A   1      42.324  30.927  29.532  1.00  0.00    -0.248 NA
ATOM     56  C   UNL A   1      40.845  32.365  30.626  1.00  0.00     0.031 C 
ATOM     57  C   UNL A   1      46.425  32.080  28.253  1.00  0.00     0.029 A 
ATOM     58  C   UNL A   1      45.139  31.747  28.649  1.00  0.00     0.049 A 
ATOM     59  H   UNL A   1      44.165  29.879  28.559  1.00  0.00     0.167 HD
ATOM     60  C   UNL A   1      42.904  32.186  29.631  1.00  0.00     0.074 A 
ATOM     61  C   UNL A   1      41.929  33.044  30.275  1.00  0.00     0.031 C 
ATOM     62  C   UNL A   1      44.137  32.595  29.240  1.00  0.00     0.034 A 
BRANCH  49  63
ATOM     63  C   UNL A   1      47.654  28.107  26.845  1.00  0.00     0.023 A 
ATOM     64  C   UNL A   1      48.728  27.855  27.723  1.00  0.00     0.012 A 
ATOM     65  C   UNL A   1      47.835  27.921  25.462  1.00  0.00     0.148 A 
ATOM     66  C   UNL A   1      49.972  27.463  27.233  1.00  0.00     0.002 A 
ATOM     67  C   UNL A   1      49.065  27.484  24.983  1.00  0.00     0.091 A 
ATOM     68  F   UNL A   1      46.810  28.186  24.640  1.00  0.00    -0.205 F 
ATOM     69  C   UNL A   1      50.137  27.267  25.864  1.00  0.00     0.022 A 
BRANCH  67  70
ATOM     70  S   UNL A   1      49.359  27.125  23.248  1.00  0.00     0.127 S 
ATOM     71  O   UNL A   1      50.775  26.761  23.258  1.00  0.00    -0.237 OA
ATOM     72  O   UNL A   1      48.444  26.009  23.006  1.00  0.00    -0.237 OA
ATOM     73  O   UNL A   1      49.033  28.346  22.524  1.00  0.00    -0.744 OA
ENDBRANCH  67  70
ENDBRANCH  49  63
BRANCH  50  74
ATOM     74  C   UNL A   1      38.748  30.314  30.841  1.00  0.00     0.023 A 
ATOM     75  C   UNL A   1      38.520  29.926  32.176  1.00  0.00     0.012 A 
ATOM     76  C   UNL A   1      37.746  31.023  30.152  1.00  0.00     0.148 A 
ATOM     77  C   UNL A   1      37.305  30.210  32.802  1.00  0.00     0.002 A 
ATOM     78  C   UNL A   1      36.560  31.351  30.800  1.00  0.00     0.091 A 
ATOM     79  F   UNL A   1      37.977  31.374  28.880  1.00  0.00    -0.205 F 
ATOM     80  C   UNL A   1      36.330  30.929  32.118  1.00  0.00     0.022 A 
BRANCH  78  81
ATOM     81  S   UNL A   1      35.306  32.390  30.042  1.00  0.00     0.127 S 
ATOM     82  O   UNL A   1      34.365  32.575  31.142  1.00  0.00    -0.237 OA
ATOM     83  O   UNL A   1      36.077  33.582  29.682  1.00  0.00    -0.237 OA
ATOM     84  O   UNL A   1      34.808  31.634  28.900  1.00  0.00    -0.744 OA
ENDBRANCH  78  81
ENDBRANCH  50  74
BRANCH  62  85
ATOM     85  C   UNL A   1      44.495  34.040  29.461  1.00  0.00     0.023 A 
ATOM     86  C   UNL A   1      45.093  34.437  30.673  1.00  0.00     0.012 A 
ATOM     87  C   UNL A   1      44.314  34.988  28.435  1.00  0.00     0.148 A 
ATOM     88  C   UNL A   1      45.476  35.763  30.873  1.00  0.00     0.002 A 
ATOM     89  C   UNL A   1      44.743  36.296  28.621  1.00  0.00     0.091 A 
ATOM     90  F   UNL A   1      43.727  34.592  27.296  1.00  0.00    -0.205 F 
ATOM     91  C   UNL A   1      45.312  36.688  29.844  1.00  0.00     0.022 A 
BRANCH  89  92
ATOM     92  S   UNL A   1      44.665  37.529  27.318  1.00  0.00     0.127 S 
ATOM     93  O   UNL A   1      44.965  38.757  28.052  1.00  0.00    -0.237 OA
ATOM     94  O   UNL A   1      45.723  37.087  26.410  1.00  0.00    -0.237 OA
ATOM     95  O   UNL A   1      43.320  37.444  26.765  1.00  0.00    -0.744 OA
ENDBRANCH  89  92
ENDBRANCH  62  85
ENDBRANCH  36  37
ENDBRANCH  28  31
ENDBRANCH  26  27
ENDBRANCH  25  26
ENDBRANCH  24  25
ENDBRANCH   1  24
TORSDOF 20
ENDMDL
MODEL 3
REMARK VINA RESULT:     -10.8      1.929      2.521
REMARK SMILES CC[C@](C)(NC(=O)CCSc1ccccc1Cl)C(=O)NCCCCNC(=O)c1ccc(-c2c3nc(c(-c4cccc(S(=O)(=O)[O-])c4F)c4ccc([nH]4)c(-c4cccc(S(=O)(=O)[O-])c4F)c4nc(c(-c5cccc(S(=O)(=O)[O-])c5F)c5ccc2[nH]5)C=C4)C=C3)cc1
REMARK SMILES IDX 21 1 20 2 18 3 19 4 3 6 4 7 2 8 1 9 5 10 6 11 7 13 8 14 9 15
REMARK SMILES IDX 10 16 11 17 12 18 16 19 13 20 15 21 17 22 14 23 22 24 23 25
REMARK SMILES IDX 24 26 25 27 26 28 27 30 28 31 29 32 90 33 30 34 89 35 31 36
REMARK SMILES IDX 32 37 33 38 83 39 34 40 88 41 82 42 84 43 35 44 87 45 81 46
REMARK SMILES IDX 80 47 36 49 68 50 48 51 67 52 49 53 52 54 66 55 85 56 50 57
REMARK SMILES IDX 51 58 65 60 86 61 53 62 37 63 38 64 46 65 39 66 41 67 47 68
REMARK SMILES IDX 40 69 42 70 43 71 44 72 45 73 69 74 70 75 78 76 71 77 73 78
REMARK SMILES IDX 79 79 72 80 74 81 75 82 76 83 77 84 54 85 55 86 63 87 56 88
REMARK SMILES IDX 58 89 64 90 57 91 59 92 60 93 61 94 62 95
REMARK H PARENT 20 5 5 12 25 29 84 48 52 59
REMARK Flexibility Score: inf
ROOT
ATOM      1  C   UNL A   1      35.236  22.384  25.527  1.00  0.00     0.116 C 
ENDROOT
BRANCH   1   2
ATOM      2  N   UNL A   1      34.411  22.528  26.717  1.00  0.00    -0.354 N 
ATOM      3  C   UNL A   1      33.057  22.535  26.888  1.00  0.00     0.245 C 
ATOM      4  O   UNL A   1      32.642  22.560  28.049  1.00  0.00    -0.272 OA
ATOM      5  H   UNL A   1      34.922  22.640  27.550  1.00  0.00     0.163 HD
BRANCH   3   6
ATOM      6  C   UNL A   1      32.084  22.401  25.685  1.00  0.00     0.116 C 
ATOM      7  C   UNL A   1      30.625  22.571  26.109  1.00  0.00     0.045 C 
BRANCH   6   8
ATOM      8  C   UNL A   1      32.239  20.957  25.093  1.00  0.00     0.035 C 
ATOM      9  C   UNL A   1      32.382  20.869  23.576  1.00  0.00     0.007 C 
ENDBRANCH   6   8
BRANCH   6  10
ATOM     10  N   UNL A   1      32.466  23.364  24.624  1.00  0.00    -0.342 N 
ATOM     11  C   UNL A   1      32.071  24.611  24.272  1.00  0.00     0.221 C 
ATOM     12  H   UNL A   1      33.174  23.014  24.036  1.00  0.00     0.164 HD
ATOM     13  O   UNL A   1      32.793  25.168  23.431  1.00  0.00    -0.275 OA
BRANCH  11  14
ATOM     14  C   UNL A   1      30.955  25.399  24.920  1.00  0.00     0.111 C 
BRANCH  14  15
ATOM     15  C   UNL A   1      30.133  26.393  24.108  1.00  0.00     0.085 C 
BRANCH  15  16
ATOM     16  S   UNL A   1      30.752  28.101  23.793  1.00  0.00    -0.124 SA
BRANCH  16  17
ATOM     17  C   UNL A   1      31.981  28.361  25.064  1.00  0.00     0.026 A 
ATOM     18  C   UNL A   1      31.496  28.526  26.368  1.00  0.00     0.016 A 
ATOM     19  C   UNL A   1      33.366  28.453  24.861  1.00  0.00     0.054 A 
ATOM     20  C   UNL A   1      32.363  28.623  27.459  1.00  0.00     0.001 A 
ATOM     21  C   UNL A   1      34.239  28.558  25.957  1.00  0.00     0.022 A 
ATOM     22  Cl  UNL A   1      34.075  28.466  23.282  1.00  0.00    -0.083 Cl
ATOM     23  C   UNL A   1      33.737  28.616  27.257  1.00  0.00     0.002 A 
ENDBRANCH  16  17
ENDBRANCH  15  16
ENDBRANCH  14  15
ENDBRANCH  11  14
ENDBRANCH   6  10
ENDBRANCH   3   6
ENDBRANCH   1   2
BRANCH   1  24
ATOM     24  C   UNL A   1      35.721  20.955  25.292  1.00  0.00     0.023 C 
BRANCH  24  25
ATOM     25  C   UNL A   1      37.143  20.829  24.757  1.00  0.00     0.023 C 
BRANCH  25  26
ATOM     26  C   UNL A   1      38.206  21.477  25.625  1.00  0.00     0.116 C 
BRANCH  26  27
ATOM     27  N   UNL A   1      39.232  20.541  26.059  1.00  0.00    -0.352 N 
ATOM     28  C   UNL A   1      40.416  20.816  26.705  1.00  0.00     0.251 C 
ATOM     29  H   UNL A   1      39.058  19.592  25.868  1.00  0.00     0.163 HD
ATOM     30  O   UNL A   1      41.231  19.937  26.915  1.00  0.00    -0.269 OA
BRANCH  28  31
ATOM     31  C   UNL A   1      40.684  22.215  27.099  1.00  0.00     0.039 A 
ATOM     32  C   UNL A   1      41.476  22.455  28.222  1.00  0.00     0.014 A 
ATOM     33  C   UNL A   1      40.217  23.270  26.311  1.00  0.00     0.014 A 
ATOM     34  C   UNL A   1      41.847  23.764  28.526  1.00  0.00     0.010 A 
ATOM     35  C   UNL A   1      40.662  24.560  26.565  1.00  0.00     0.010 A 
ATOM     36  C   UNL A   1      41.469  24.822  27.683  1.00  0.00    -0.014 A 
BRANCH  36  37
ATOM     37  C   UNL A   1      41.891  26.215  27.961  1.00  0.00     0.031 A 
ATOM     38  C   UNL A   1      43.285  26.656  27.610  1.00  0.00     0.074 A 
ATOM     39  C   UNL A   1      41.051  27.052  28.603  1.00  0.00     0.049 A 
ATOM     40  N   UNL A   1      43.863  27.809  27.821  1.00  0.00    -0.248 NA
ATOM     41  C   UNL A   1      44.158  25.659  26.965  1.00  0.00     0.031 C 
ATOM     42  C   UNL A   1      39.708  26.708  29.075  1.00  0.00     0.029 A 
ATOM     43  N   UNL A   1      41.215  28.358  28.991  1.00  0.00    -0.354 N 
ATOM     44  C   UNL A   1      45.169  27.666  27.371  1.00  0.00     0.074 A 
ATOM     45  C   UNL A   1      45.315  26.300  26.919  1.00  0.00     0.031 C 
ATOM     46  C   UNL A   1      39.168  27.777  29.683  1.00  0.00     0.029 A 
ATOM     47  C   UNL A   1      40.134  28.871  29.670  1.00  0.00     0.049 A 
ATOM     48  H   UNL A   1      42.029  28.878  28.802  1.00  0.00     0.167 HD
ATOM     49  C   UNL A   1      46.150  28.596  27.305  1.00  0.00     0.034 A 
ATOM     50  C   UNL A   1      39.947  30.085  30.223  1.00  0.00     0.034 A 
ATOM     51  C   UNL A   1      45.981  29.963  27.711  1.00  0.00     0.049 A 
ATOM     52  C   UNL A   1      41.032  31.118  30.087  1.00  0.00     0.074 A 
ATOM     53  C   UNL A   1      46.880  31.010  27.606  1.00  0.00     0.029 A 
ATOM     54  N   UNL A   1      44.837  30.475  28.303  1.00  0.00    -0.354 N 
ATOM     55  N   UNL A   1      42.207  31.010  29.513  1.00  0.00    -0.248 NA
ATOM     56  C   UNL A   1      40.755  32.452  30.639  1.00  0.00     0.031 C 
ATOM     57  C   UNL A   1      46.285  32.151  28.153  1.00  0.00     0.029 A 
ATOM     58  C   UNL A   1      45.006  31.821  28.574  1.00  0.00     0.049 A 
ATOM     59  H   UNL A   1      44.024  29.957  28.502  1.00  0.00     0.167 HD
ATOM     60  C   UNL A   1      42.792  32.267  29.602  1.00  0.00     0.074 A 
ATOM     61  C   UNL A   1      41.833  33.127  30.267  1.00  0.00     0.031 C 
ATOM     62  C   UNL A   1      44.019  32.672  29.187  1.00  0.00     0.034 A 
BRANCH  49  63
ATOM     63  C   UNL A   1      47.471  28.176  26.715  1.00  0.00     0.023 A 
ATOM     64  C   UNL A   1      48.567  27.936  27.570  1.00  0.00     0.012 A 
ATOM     65  C   UNL A   1      47.619  27.975  25.330  1.00  0.00     0.148 A 
ATOM     66  C   UNL A   1      49.800  27.541  27.053  1.00  0.00     0.002 A 
ATOM     67  C   UNL A   1      48.839  27.535  24.826  1.00  0.00     0.091 A 
ATOM     68  F   UNL A   1      46.574  28.229  24.530  1.00  0.00    -0.205 F 
ATOM     69  C   UNL A   1      49.932  27.331  25.684  1.00  0.00     0.022 A 
BRANCH  67  70
ATOM     70  S   UNL A   1      49.091  27.158  23.089  1.00  0.00     0.127 S 
ATOM     71  O   UNL A   1      48.566  28.362  22.446  1.00  0.00    -0.237 OA
ATOM     72  O   UNL A   1      50.545  27.011  23.014  1.00  0.00    -0.237 OA
ATOM     73  O   UNL A   1      48.343  25.935  22.830  1.00  0.00    -0.744 OA
ENDBRANCH  67  70
ENDBRANCH  49  63
BRANCH  50  74
ATOM     74  C   UNL A   1      38.656  30.407  30.894  1.00  0.00     0.023 A 
ATOM     75  C   UNL A   1      38.459  30.030  32.237  1.00  0.00     0.012 A 
ATOM     76  C   UNL A   1      37.637  31.109  30.222  1.00  0.00     0.148 A 
ATOM     77  C   UNL A   1      37.258  30.317  32.888  1.00  0.00     0.002 A 
ATOM     78  C   UNL A   1      36.465  31.440  30.894  1.00  0.00     0.091 A 
ATOM     79  F   UNL A   1      37.839  31.449  28.942  1.00  0.00    -0.205 F 
ATOM     80  C   UNL A   1      36.266  31.029  32.220  1.00  0.00     0.022 A 
BRANCH  78  81
ATOM     81  S   UNL A   1      35.193  32.471  30.155  1.00  0.00     0.127 S 
ATOM     82  O   UNL A   1      34.264  32.643  31.269  1.00  0.00    -0.237 OA
ATOM     83  O   UNL A   1      35.949  33.670  29.790  1.00  0.00    -0.237 OA
ATOM     84  O   UNL A   1      34.687  31.714  29.017  1.00  0.00    -0.744 OA
ENDBRANCH  78  81
ENDBRANCH  50  74
BRANCH  62  85
ATOM     85  C   UNL A   1      44.386  34.116  29.403  1.00  0.00     0.023 A 
ATOM     86  C   UNL A   1      44.096  35.070  28.408  1.00  0.00     0.012 A 
ATOM     87  C   UNL A   1      44.942  34.538  30.626  1.00  0.00     0.148 A 
ATOM     88  C   UNL A   1      44.385  36.418  28.614  1.00  0.00     0.002 A 
ATOM     89  C   UNL A   1      45.182  35.889  30.845  1.00  0.00     0.091 A 
ATOM     90  F   UNL A   1      45.227  33.611  31.553  1.00  0.00    -0.205 F 
ATOM     91  C   UNL A   1      44.916  36.828  29.835  1.00  0.00     0.022 A 
BRANCH  89  92
ATOM     92  S   UNL A   1      45.769  36.520  32.420  1.00  0.00     0.127 S 
ATOM     93  O   UNL A   1      44.783  35.966  33.347  1.00  0.00    -0.237 OA
ATOM     94  O   UNL A   1      47.100  35.920  32.517  1.00  0.00    -0.237 OA
ATOM     95  O   UNL A   1      45.767  37.971  32.298  1.00  0.00    -0.744 OA
ENDBRANCH  89  92
ENDBRANCH  62  85
ENDBRANCH  36  37
ENDBRANCH  28  31
ENDBRANCH  26  27
ENDBRANCH  25  26
ENDBRANCH  24  25
ENDBRANCH   1  24
TORSDOF 20
ENDMDL
