MODEL 1
REMARK VINA RESULT:     -11.3      0.000      0.000
REMARK SMILES CCC[C@H](Cc1ccn(-c2ccccc2)n1)C(=O)NCCCCNC(=O)c1ccc(-c2c3nc(c(-c4cccc(S(=O)(=O)[O-])c4F)c4ccc([nH]4)c(-c4cccc(S(=O)(=O)[O-])c4F)c4nc(c(-c5cccc(S(=O)(=O)[O-])c5F)c5ccc2[nH]5)C=C4)C=C3)cc1
REMARK SMILES IDX 21 1 20 2 19 3 17 4 18 5 4 7 3 8 2 9 1 10 5 11 6 12 7 13
REMARK SMILES IDX 16 14 8 15 9 16 10 17 11 18 15 19 12 20 14 21 13 22 22 23
REMARK SMILES IDX 23 24 24 25 25 26 26 28 27 29 28 30 89 31 29 32 88 33 30 34
REMARK SMILES IDX 31 35 32 36 82 37 33 38 87 39 81 40 83 41 34 42 86 43 80 44
REMARK SMILES IDX 79 45 35 47 67 48 47 49 66 50 48 51 51 52 65 53 84 54 49 55
REMARK SMILES IDX 50 56 64 58 85 59 52 60 36 61 37 62 45 63 38 64 40 65 46 66
REMARK SMILES IDX 39 67 41 68 42 69 43 70 44 71 68 72 69 73 77 74 70 75 72 76
REMARK SMILES IDX 78 77 71 78 73 79 74 80 75 81 76 82 53 83 54 84 62 85 55 86
REMARK SMILES IDX 57 87 63 88 56 89 58 90 59 91 60 92 61 93
REMARK H PARENT 19 6 24 27 83 46 51 57
REMARK Flexibility Score: inf
ROOT
ATOM      1  C   UNL A   1      36.022  20.976  25.564  1.00  0.00     0.023 C 
ENDROOT
BRANCH   1   2
ATOM      2  C   UNL A   1      34.998  21.597  24.608  1.00  0.00     0.116 C 
BRANCH   2   3
ATOM      3  N   UNL A   1      33.632  21.160  24.848  1.00  0.00    -0.356 N 
ATOM      4  C   UNL A   1      32.456  21.855  24.894  1.00  0.00     0.223 C 
ATOM      5  O   UNL A   1      31.431  21.232  25.175  1.00  0.00    -0.275 OA
ATOM      6  H   UNL A   1      33.538  20.193  25.008  1.00  0.00     0.163 HD
BRANCH   4   7
ATOM      7  C   UNL A   1      32.413  23.369  24.681  1.00  0.00     0.084 C 
BRANCH   7   8
ATOM      8  C   UNL A   1      32.498  24.089  26.048  1.00  0.00     0.013 C 
BRANCH   8   9
ATOM      9  C   UNL A   1      33.405  25.313  26.191  1.00  0.00    -0.003 C 
ATOM     10  C   UNL A   1      34.322  25.586  25.009  1.00  0.00     0.004 C 
ENDBRANCH   8   9
ENDBRANCH   7   8
BRANCH   7  11
ATOM     11  C   UNL A   1      31.222  23.645  23.756  1.00  0.00     0.071 C 
BRANCH  11  12
ATOM     12  C   UNL A   1      31.050  25.025  23.208  1.00  0.00     0.064 A 
ATOM     13  C   UNL A   1      31.903  25.625  22.254  1.00  0.00     0.046 A 
ATOM     14  N   UNL A   1      30.086  25.863  23.599  1.00  0.00    -0.173 NA
ATOM     15  C   UNL A   1      31.357  26.859  22.016  1.00  0.00     0.115 A 
ATOM     16  N   UNL A   1      30.263  26.974  22.845  1.00  0.00    -0.241 N 
BRANCH  16  17
ATOM     17  C   UNL A   1      29.402  28.092  22.951  1.00  0.00     0.065 A 
ATOM     18  C   UNL A   1      28.040  27.907  23.224  1.00  0.00     0.028 A 
ATOM     19  C   UNL A   1      29.916  29.379  22.761  1.00  0.00     0.028 A 
ATOM     20  C   UNL A   1      27.195  29.014  23.303  1.00  0.00     0.002 A 
ATOM     21  C   UNL A   1      29.053  30.476  22.793  1.00  0.00     0.002 A 
ATOM     22  C   UNL A   1      27.697  30.294  23.070  1.00  0.00     0.000 A 
ENDBRANCH  16  17
ENDBRANCH  11  12
ENDBRANCH   7  11
ENDBRANCH   4   7
ENDBRANCH   2   3
ENDBRANCH   1   2
BRANCH   1  23
ATOM     23  C   UNL A   1      37.214  20.266  24.916  1.00  0.00     0.023 C 
BRANCH  23  24
ATOM     24  C   UNL A   1      38.566  20.656  25.491  1.00  0.00     0.116 C 
BRANCH  24  25
ATOM     25  N   UNL A   1      39.477  19.519  25.629  1.00  0.00    -0.352 N 
ATOM     26  C   UNL A   1      40.835  19.557  25.904  1.00  0.00     0.251 C 
ATOM     27  H   UNL A   1      39.081  18.625  25.514  1.00  0.00     0.163 HD
ATOM     28  O   UNL A   1      41.562  18.619  25.638  1.00  0.00    -0.269 OA
BRANCH  26  29
ATOM     29  C   UNL A   1      41.370  20.774  26.545  1.00  0.00     0.039 A 
ATOM     30  C   UNL A   1      41.985  21.782  25.801  1.00  0.00     0.014 A 
ATOM     31  C   UNL A   1      41.172  20.909  27.916  1.00  0.00     0.014 A 
ATOM     32  C   UNL A   1      42.319  22.973  26.442  1.00  0.00     0.010 A 
ATOM     33  C   UNL A   1      41.351  22.132  28.506  1.00  0.00     0.010 A 
ATOM     34  C   UNL A   1      41.972  23.150  27.791  1.00  0.00    -0.014 A 
BRANCH  34  35
ATOM     35  C   UNL A   1      42.132  24.446  28.441  1.00  0.00     0.031 A 
ATOM     36  C   UNL A   1      40.967  25.355  28.269  1.00  0.00     0.074 A 
ATOM     37  C   UNL A   1      43.138  24.709  29.305  1.00  0.00     0.049 A 
ATOM     38  N   UNL A   1      40.897  26.408  27.523  1.00  0.00    -0.248 NA
ATOM     39  C   UNL A   1      39.673  24.956  28.849  1.00  0.00     0.031 C 
ATOM     40  C   UNL A   1      44.145  23.765  29.818  1.00  0.00     0.029 A 
ATOM     41  N   UNL A   1      43.390  25.833  30.032  1.00  0.00    -0.354 N 
ATOM     42  C   UNL A   1      39.638  26.953  27.767  1.00  0.00     0.074 A 
ATOM     43  C   UNL A   1      38.862  25.910  28.382  1.00  0.00     0.031 C 
ATOM     44  C   UNL A   1      44.697  24.263  30.945  1.00  0.00     0.029 A 
ATOM     45  C   UNL A   1      44.236  25.625  31.120  1.00  0.00     0.049 A 
ATOM     46  H   UNL A   1      43.009  26.713  29.808  1.00  0.00     0.167 HD
ATOM     47  C   UNL A   1      39.441  28.301  27.730  1.00  0.00     0.034 A 
ATOM     48  C   UNL A   1      44.505  26.503  32.115  1.00  0.00     0.034 A 
ATOM     49  C   UNL A   1      40.603  28.967  27.202  1.00  0.00     0.049 A 
ATOM     50  C   UNL A   1      44.193  27.848  31.595  1.00  0.00     0.074 A 
ATOM     51  C   UNL A   1      41.244  29.065  25.988  1.00  0.00     0.029 A 
ATOM     52  N   UNL A   1      41.492  29.354  28.172  1.00  0.00    -0.354 N 
ATOM     53  N   UNL A   1      44.845  28.406  30.613  1.00  0.00    -0.248 NA
ATOM     54  C   UNL A   1      42.913  28.456  31.925  1.00  0.00     0.031 C 
ATOM     55  C   UNL A   1      42.623  29.257  26.301  1.00  0.00     0.029 A 
ATOM     56  C   UNL A   1      42.768  29.326  27.688  1.00  0.00     0.049 A 
ATOM     57  H   UNL A   1      41.244  29.615  29.088  1.00  0.00     0.167 HD
ATOM     58  C   UNL A   1      43.868  29.097  29.917  1.00  0.00     0.074 A 
ATOM     59  C   UNL A   1      42.768  29.251  30.861  1.00  0.00     0.031 C 
ATOM     60  C   UNL A   1      43.920  29.189  28.557  1.00  0.00     0.034 A 
BRANCH  47  61
ATOM     61  C   UNL A   1      38.458  29.086  28.581  1.00  0.00     0.023 A 
ATOM     62  C   UNL A   1      37.687  30.073  27.922  1.00  0.00     0.012 A 
ATOM     63  C   UNL A   1      38.467  29.128  29.993  1.00  0.00     0.148 A 
ATOM     64  C   UNL A   1      37.000  31.069  28.626  1.00  0.00     0.002 A 
ATOM     65  C   UNL A   1      37.719  30.071  30.692  1.00  0.00     0.091 A 
ATOM     66  F   UNL A   1      39.305  28.347  30.679  1.00  0.00    -0.205 F 
ATOM     67  C   UNL A   1      37.009  31.064  30.014  1.00  0.00     0.022 A 
BRANCH  65  68
ATOM     68  S   UNL A   1      37.658  30.092  32.489  1.00  0.00     0.127 S 
ATOM     69  O   UNL A   1      36.799  31.245  32.739  1.00  0.00    -0.237 OA
ATOM     70  O   UNL A   1      37.054  28.791  32.778  1.00  0.00    -0.237 OA
ATOM     71  O   UNL A   1      39.043  30.219  32.926  1.00  0.00    -0.744 OA
ENDBRANCH  65  68
ENDBRANCH  47  61
BRANCH  48  72
ATOM     72  C   UNL A   1      44.794  26.269  33.548  1.00  0.00     0.023 A 
ATOM     73  C   UNL A   1      46.110  26.430  34.029  1.00  0.00     0.012 A 
ATOM     74  C   UNL A   1      43.743  26.201  34.487  1.00  0.00     0.148 A 
ATOM     75  C   UNL A   1      46.365  26.573  35.398  1.00  0.00     0.002 A 
ATOM     76  C   UNL A   1      44.001  26.343  35.848  1.00  0.00     0.091 A 
ATOM     77  F   UNL A   1      42.485  26.092  34.038  1.00  0.00    -0.205 F 
ATOM     78  C   UNL A   1      45.309  26.545  36.306  1.00  0.00     0.022 A 
BRANCH  76  79
ATOM     79  S   UNL A   1      42.691  26.355  37.078  1.00  0.00     0.127 S 
ATOM     80  O   UNL A   1      41.904  27.518  36.666  1.00  0.00    -0.237 OA
ATOM     81  O   UNL A   1      42.048  25.065  36.842  1.00  0.00    -0.237 OA
ATOM     82  O   UNL A   1      43.360  26.506  38.364  1.00  0.00    -0.744 OA
ENDBRANCH  76  79
ENDBRANCH  48  72
BRANCH  60  83
ATOM     83  C   UNL A   1      45.247  28.954  27.892  1.00  0.00     0.023 A 
ATOM     84  C   UNL A   1      46.282  29.911  27.863  1.00  0.00     0.012 A 
ATOM     85  C   UNL A   1      45.491  27.667  27.386  1.00  0.00     0.148 A 
ATOM     86  C   UNL A   1      47.530  29.588  27.321  1.00  0.00     0.002 A 
ATOM     87  C   UNL A   1      46.745  27.337  26.897  1.00  0.00     0.091 A 
ATOM     88  F   UNL A   1      44.489  26.775  27.417  1.00  0.00    -0.205 F 
ATOM     89  C   UNL A   1      47.767  28.298  26.851  1.00  0.00     0.022 A 
BRANCH  87  90
ATOM     90  S   UNL A   1      47.135  25.660  26.394  1.00  0.00     0.127 S 
ATOM     91  O   UNL A   1      46.284  25.487  25.220  1.00  0.00    -0.237 OA
ATOM     92  O   UNL A   1      48.568  25.745  26.106  1.00  0.00    -0.237 OA
ATOM     93  O   UNL A   1      46.810  24.814  27.536  1.00  0.00    -0.744 OA
ENDBRANCH  87  90
ENDBRANCH  60  83
ENDBRANCH  34  35
ENDBRANCH  26  29
ENDBRANCH  24  25
ENDBRANCH  23  24
ENDBRANCH   1  23
TORSDOF 19
ENDMDL
MODEL 2
REMARK VINA RESULT:     -11.3      1.578      2.347
REMARK SMILES CCC[C@H](Cc1ccn(-c2ccccc2)n1)C(=O)NCCCCNC(=O)c1ccc(-c2c3nc(c(-c4cccc(S(=O)(=O)[O-])c4F)c4ccc([nH]4)c(-c4cccc(S(=O)(=O)[O-])c4F)c4nc(c(-c5cccc(S(=O)(=O)[O-])c5F)c5ccc2[nH]5)C=C4)C=C3)cc1
REMARK SMILES IDX 21 1 20 2 19 3 17 4 18 5 4 7 3 8 2 9 1 10 5 11 6 12 7 13
REMARK SMILES IDX 16 14 8 15 9 16 10 17 11 18 15 19 12 20 14 21 13 22 22 23
REMARK SMILES IDX 23 24 24 25 25 26 26 28 27 29 28 30 89 31 29 32 88 33 30 34
REMARK SMILES IDX 31 35 32 36 82 37 33 38 87 39 81 40 83 41 34 42 86 43 80 44
REMARK SMILES IDX 79 45 35 47 67 48 47 49 66 50 48 51 51 52 65 53 84 54 49 55
REMARK SMILES IDX 50 56 64 58 85 59 52 60 36 61 37 62 45 63 38 64 40 65 46 66
REMARK SMILES IDX 39 67 41 68 42 69 43 70 44 71 68 72 69 73 77 74 70 75 72 76
REMARK SMILES IDX 78 77 71 78 73 79 74 80 75 81 76 82 53 83 54 84 62 85 55 86
REMARK SMILES IDX 57 87 63 88 56 89 58 90 59 91 60 92 61 93
REMARK H PARENT 19 6 24 27 83 46 51 57
REMARK Flexibility Score: inf
ROOT
ATOM      1  C   UNL A   1      35.977  21.061  25.455  1.00  0.00     0.023 C 
ENDROOT
BRANCH   1   2
ATOM      2  C   UNL A   1      35.449  22.429  25.010  1.00  0.00     0.116 C 
BRANCH   2   3
ATOM      3  N   UNL A   1      34.522  22.364  23.893  1.00  0.00    -0.356 N 
ATOM      4  C   UNL A   1      33.285  21.792  23.776  1.00  0.00     0.223 C 
ATOM      5  O   UNL A   1      32.732  21.841  22.676  1.00  0.00    -0.275 OA
ATOM      6  H   UNL A   1      34.841  22.810  23.075  1.00  0.00     0.163 HD
BRANCH   4   7
ATOM      7  C   UNL A   1      32.636  21.045  24.942  1.00  0.00     0.084 C 
BRANCH   7   8
ATOM      8  C   UNL A   1      32.386  19.572  24.540  1.00  0.00     0.013 C 
BRANCH   8   9
ATOM      9  C   UNL A   1      33.585  18.651  24.300  1.00  0.00    -0.003 C 
ATOM     10  C   UNL A   1      33.346  17.513  23.320  1.00  0.00     0.004 C 
ENDBRANCH   8   9
ENDBRANCH   7   8
BRANCH   7  11
ATOM     11  C   UNL A   1      31.460  21.909  25.411  1.00  0.00     0.071 C 
BRANCH  11  12
ATOM     12  C   UNL A   1      31.663  23.385  25.532  1.00  0.00     0.064 A 
ATOM     13  C   UNL A   1      32.423  24.014  26.545  1.00  0.00     0.046 A 
ATOM     14  N   UNL A   1      31.105  24.280  24.712  1.00  0.00    -0.173 NA
ATOM     15  C   UNL A   1      32.370  25.351  26.250  1.00  0.00     0.115 A 
ATOM     16  N   UNL A   1      31.565  25.479  25.140  1.00  0.00    -0.241 N 
BRANCH  16  17
ATOM     17  C   UNL A   1      31.213  26.686  24.492  1.00  0.00     0.065 A 
ATOM     18  C   UNL A   1      30.778  26.668  23.160  1.00  0.00     0.028 A 
ATOM     19  C   UNL A   1      31.323  27.899  25.182  1.00  0.00     0.028 A 
ATOM     20  C   UNL A   1      30.456  27.866  22.521  1.00  0.00     0.002 A 
ATOM     21  C   UNL A   1      31.046  29.096  24.520  1.00  0.00     0.002 A 
ATOM     22  C   UNL A   1      30.608  29.078  23.194  1.00  0.00     0.000 A 
ENDBRANCH  16  17
ENDBRANCH  11  12
ENDBRANCH   7  11
ENDBRANCH   4   7
ENDBRANCH   2   3
ENDBRANCH   1   2
BRANCH   1  23
ATOM     23  C   UNL A   1      37.206  20.533  24.711  1.00  0.00     0.023 C 
BRANCH  23  24
ATOM     24  C   UNL A   1      38.533  20.860  25.378  1.00  0.00     0.116 C 
BRANCH  24  25
ATOM     25  N   UNL A   1      39.378  19.681  25.578  1.00  0.00    -0.352 N 
ATOM     26  C   UNL A   1      40.724  19.656  25.903  1.00  0.00     0.251 C 
ATOM     27  H   UNL A   1      38.939  18.806  25.469  1.00  0.00     0.163 HD
ATOM     28  O   UNL A   1      41.411  18.675  25.687  1.00  0.00    -0.269 OA
BRANCH  26  29
ATOM     29  C   UNL A   1      41.299  20.860  26.534  1.00  0.00     0.039 A 
ATOM     30  C   UNL A   1      41.892  21.870  25.775  1.00  0.00     0.014 A 
ATOM     31  C   UNL A   1      41.161  20.981  27.914  1.00  0.00     0.014 A 
ATOM     32  C   UNL A   1      42.265  23.050  26.415  1.00  0.00     0.010 A 
ATOM     33  C   UNL A   1      41.378  22.196  28.510  1.00  0.00     0.010 A 
ATOM     34  C   UNL A   1      41.978  23.215  27.780  1.00  0.00    -0.014 A 
BRANCH  34  35
ATOM     35  C   UNL A   1      42.179  24.502  28.437  1.00  0.00     0.031 A 
ATOM     36  C   UNL A   1      41.058  25.460  28.241  1.00  0.00     0.074 A 
ATOM     37  C   UNL A   1      43.176  24.720  29.324  1.00  0.00     0.049 A 
ATOM     38  N   UNL A   1      41.051  26.517  27.497  1.00  0.00    -0.248 NA
ATOM     39  C   UNL A   1      39.736  25.117  28.792  1.00  0.00     0.031 C 
ATOM     40  C   UNL A   1      44.129  23.733  29.857  1.00  0.00     0.029 A 
ATOM     41  N   UNL A   1      43.460  25.830  30.059  1.00  0.00    -0.354 N 
ATOM     42  C   UNL A   1      39.810  27.115  27.715  1.00  0.00     0.074 A 
ATOM     43  C   UNL A   1      38.977  26.105  28.310  1.00  0.00     0.031 C 
ATOM     44  C   UNL A   1      44.678  24.204  30.997  1.00  0.00     0.029 A 
ATOM     45  C   UNL A   1      44.272  25.585  31.165  1.00  0.00     0.049 A 
ATOM     46  H   UNL A   1      43.122  26.726  29.830  1.00  0.00     0.167 HD
ATOM     47  C   UNL A   1      39.673  28.470  27.678  1.00  0.00     0.034 A 
ATOM     48  C   UNL A   1      44.556  26.448  32.169  1.00  0.00     0.034 A 
ATOM     49  C   UNL A   1      40.874  29.087  27.177  1.00  0.00     0.049 A 
ATOM     50  C   UNL A   1      44.314  27.806  31.646  1.00  0.00     0.074 A 
ATOM     51  C   UNL A   1      41.545  29.160  25.978  1.00  0.00     0.029 A 
ATOM     52  N   UNL A   1      41.756  29.433  28.168  1.00  0.00    -0.354 N 
ATOM     53  N   UNL A   1      45.011  28.337  30.680  1.00  0.00    -0.248 NA
ATOM     54  C   UNL A   1      43.053  28.468  31.949  1.00  0.00     0.031 C 
ATOM     55  C   UNL A   1      42.924  29.292  26.322  1.00  0.00     0.029 A 
ATOM     56  C   UNL A   1      43.041  29.351  27.712  1.00  0.00     0.049 A 
ATOM     57  H   UNL A   1      41.500  29.703  29.079  1.00  0.00     0.167 HD
ATOM     58  C   UNL A   1      44.080  29.071  29.964  1.00  0.00     0.074 A 
ATOM     59  C   UNL A   1      42.967  29.271  30.884  1.00  0.00     0.031 C 
ATOM     60  C   UNL A   1      44.166  29.164  28.607  1.00  0.00     0.034 A 
BRANCH  47  61
ATOM     61  C   UNL A   1      38.706  29.296  28.509  1.00  0.00     0.023 A 
ATOM     62  C   UNL A   1      38.708  29.071  29.906  1.00  0.00     0.012 A 
ATOM     63  C   UNL A   1      37.617  30.030  27.987  1.00  0.00     0.148 A 
ATOM     64  C   UNL A   1      37.666  29.513  30.729  1.00  0.00     0.002 A 
ATOM     65  C   UNL A   1      36.623  30.535  28.819  1.00  0.00     0.091 A 
ATOM     66  F   UNL A   1      37.452  30.130  26.666  1.00  0.00    -0.205 F 
ATOM     67  C   UNL A   1      36.625  30.254  30.187  1.00  0.00     0.022 A 
BRANCH  65  68
ATOM     68  S   UNL A   1      35.270  31.535  28.183  1.00  0.00     0.127 S 
ATOM     69  O   UNL A   1      34.593  30.586  27.304  1.00  0.00    -0.237 OA
ATOM     70  O   UNL A   1      34.548  31.869  29.411  1.00  0.00    -0.237 OA
ATOM     71  O   UNL A   1      35.900  32.675  27.530  1.00  0.00    -0.744 OA
ENDBRANCH  65  68
ENDBRANCH  47  61
BRANCH  48  72
ATOM     72  C   UNL A   1      44.803  26.199  33.607  1.00  0.00     0.023 A 
ATOM     73  C   UNL A   1      46.106  26.340  34.125  1.00  0.00     0.012 A 
ATOM     74  C   UNL A   1      43.725  26.136  34.517  1.00  0.00     0.148 A 
ATOM     75  C   UNL A   1      46.325  26.469  35.502  1.00  0.00     0.002 A 
ATOM     76  C   UNL A   1      43.948  26.264  35.885  1.00  0.00     0.091 A 
ATOM     77  F   UNL A   1      42.479  26.045  34.032  1.00  0.00    -0.205 F 
ATOM     78  C   UNL A   1      45.245  26.447  36.380  1.00  0.00     0.022 A 
BRANCH  76  79
ATOM     79  S   UNL A   1      42.604  26.281  37.079  1.00  0.00     0.127 S 
ATOM     80  O   UNL A   1      43.331  26.334  38.348  1.00  0.00    -0.237 OA
ATOM     81  O   UNL A   1      41.905  27.513  36.723  1.00  0.00    -0.237 OA
ATOM     82  O   UNL A   1      41.867  25.045  36.859  1.00  0.00    -0.744 OA
ENDBRANCH  76  79
ENDBRANCH  48  72
BRANCH  60  83
ATOM     83  C   UNL A   1      45.497  28.873  27.970  1.00  0.00     0.023 A 
ATOM     84  C   UNL A   1      46.577  29.778  27.981  1.00  0.00     0.012 A 
ATOM     85  C   UNL A   1      45.690  27.583  27.451  1.00  0.00     0.148 A 
ATOM     86  C   UNL A   1      47.821  29.402  27.465  1.00  0.00     0.002 A 
ATOM     87  C   UNL A   1      46.938  27.198  26.987  1.00  0.00     0.091 A 
ATOM     88  F   UNL A   1      44.645  26.740  27.444  1.00  0.00    -0.205 F 
ATOM     89  C   UNL A   1      48.006  28.108  26.981  1.00  0.00     0.022 A 
BRANCH  87  90
ATOM     90  S   UNL A   1      47.259  25.511  26.469  1.00  0.00     0.127 S 
ATOM     91  O   UNL A   1      46.366  25.369  25.321  1.00  0.00    -0.237 OA
ATOM     92  O   UNL A   1      48.684  25.552  26.137  1.00  0.00    -0.237 OA
ATOM     93  O   UNL A   1      46.942  24.672  27.618  1.00  0.00    -0.744 OA
ENDBRANCH  87  90
ENDBRANCH  60  83
ENDBRANCH  34  35
ENDBRANCH  26  29
ENDBRANCH  24  25
ENDBRANCH  23  24
ENDBRANCH   1  23
TORSDOF 19
ENDMDL
MODEL 3
REMARK VINA RESULT:     -11.1      2.914      7.816
REMARK SMILES CCC[C@H](Cc1ccn(-c2ccccc2)n1)C(=O)NCCCCNC(=O)c1ccc(-c2c3nc(c(-c4cccc(S(=O)(=O)[O-])c4F)c4ccc([nH]4)c(-c4cccc(S(=O)(=O)[O-])c4F)c4nc(c(-c5cccc(S(=O)(=O)[O-])c5F)c5ccc2[nH]5)C=C4)C=C3)cc1
REMARK SMILES IDX 21 1 20 2 19 3 17 4 18 5 4 7 3 8 2 9 1 10 5 11 6 12 7 13
REMARK SMILES IDX 16 14 8 15 9 16 10 17 11 18 15 19 12 20 14 21 13 22 22 23
REMARK SMILES IDX 23 24 24 25 25 26 26 28 27 29 28 30 89 31 29 32 88 33 30 34
REMARK SMILES IDX 31 35 32 36 82 37 33 38 87 39 81 40 83 41 34 42 86 43 80 44
REMARK SMILES IDX 79 45 35 47 67 48 47 49 66 50 48 51 51 52 65 53 84 54 49 55
REMARK SMILES IDX 50 56 64 58 85 59 52 60 36 61 37 62 45 63 38 64 40 65 46 66
REMARK SMILES IDX 39 67 41 68 42 69 43 70 44 71 68 72 69 73 77 74 70 75 72 76
REMARK SMILES IDX 78 77 71 78 73 79 74 80 75 81 76 82 53 83 54 84 62 85 55 86
REMARK SMILES IDX 57 87 63 88 56 89 58 90 59 91 60 92 61 93
REMARK H PARENT 19 6 24 27 83 46 51 57
REMARK Flexibility Score: inf
ROOT
ATOM      1  C   UNL A   1      32.280  28.567  25.988  1.00  0.00     0.023 C 
ENDROOT
BRANCH   1   2
ATOM      2  C   UNL A   1      32.489  27.092  26.348  1.00  0.00     0.116 C 
BRANCH   2   3
ATOM      3  N   UNL A   1      31.263  26.394  26.699  1.00  0.00    -0.356 N 
ATOM      4  C   UNL A   1      30.269  25.867  25.922  1.00  0.00     0.223 C 
ATOM      5  O   UNL A   1      29.299  25.368  26.492  1.00  0.00    -0.275 OA
ATOM      6  H   UNL A   1      31.123  26.283  27.667  1.00  0.00     0.163 HD
BRANCH   4   7
ATOM      7  C   UNL A   1      30.314  25.958  24.396  1.00  0.00     0.084 C 
BRANCH   7   8
ATOM      8  C   UNL A   1      29.225  26.941  23.902  1.00  0.00     0.013 C 
BRANCH   8   9
ATOM      9  C   UNL A   1      29.595  28.002  22.862  1.00  0.00    -0.003 C 
ATOM     10  C   UNL A   1      29.964  29.365  23.425  1.00  0.00     0.004 C 
ENDBRANCH   8   9
ENDBRANCH   7   8
BRANCH   7  11
ATOM     11  C   UNL A   1      30.322  24.517  23.874  1.00  0.00     0.071 C 
BRANCH  11  12
ATOM     12  C   UNL A   1      31.366  23.579  24.386  1.00  0.00     0.064 A 
ATOM     13  C   UNL A   1      31.124  22.515  25.285  1.00  0.00     0.046 A 
ATOM     14  N   UNL A   1      32.663  23.675  24.080  1.00  0.00    -0.173 NA
ATOM     15  C   UNL A   1      32.340  21.906  25.450  1.00  0.00     0.115 A 
ATOM     16  N   UNL A   1      33.249  22.631  24.712  1.00  0.00    -0.241 N 
BRANCH  16  17
ATOM     17  C   UNL A   1      34.636  22.376  24.602  1.00  0.00     0.065 A 
ATOM     18  C   UNL A   1      35.372  22.934  23.547  1.00  0.00     0.028 A 
ATOM     19  C   UNL A   1      35.263  21.546  25.538  1.00  0.00     0.028 A 
ATOM     20  C   UNL A   1      36.734  22.656  23.432  1.00  0.00     0.002 A 
ATOM     21  C   UNL A   1      36.615  21.235  25.386  1.00  0.00     0.002 A 
ATOM     22  C   UNL A   1      37.350  21.794  24.339  1.00  0.00     0.000 A 
ENDBRANCH  16  17
ENDBRANCH  11  12
ENDBRANCH   7  11
ENDBRANCH   4   7
ENDBRANCH   2   3
ENDBRANCH   1   2
BRANCH   1  23
ATOM     23  C   UNL A   1      32.266  29.556  27.157  1.00  0.00     0.023 C 
BRANCH  23  24
ATOM     24  C   UNL A   1      33.645  29.932  27.676  1.00  0.00     0.116 C 
BRANCH  24  25
ATOM     25  N   UNL A   1      34.033  31.300  27.327  1.00  0.00    -0.352 N 
ATOM     26  C   UNL A   1      35.181  31.973  27.714  1.00  0.00     0.251 C 
ATOM     27  H   UNL A   1      33.409  31.797  26.751  1.00  0.00     0.163 HD
ATOM     28  O   UNL A   1      35.241  33.188  27.690  1.00  0.00    -0.269 OA
BRANCH  26  29
ATOM     29  C   UNL A   1      36.337  31.165  28.147  1.00  0.00     0.039 A 
ATOM     30  C   UNL A   1      36.543  29.870  27.669  1.00  0.00     0.014 A 
ATOM     31  C   UNL A   1      37.256  31.774  28.996  1.00  0.00     0.014 A 
ATOM     32  C   UNL A   1      37.737  29.226  27.986  1.00  0.00     0.010 A 
ATOM     33  C   UNL A   1      38.490  31.208  29.173  1.00  0.00     0.010 A 
ATOM     34  C   UNL A   1      38.719  29.914  28.718  1.00  0.00    -0.014 A 
BRANCH  34  35
ATOM     35  C   UNL A   1      40.049  29.345  28.905  1.00  0.00     0.031 A 
ATOM     36  C   UNL A   1      40.430  29.162  30.332  1.00  0.00     0.074 A 
ATOM     37  C   UNL A   1      40.768  28.823  27.887  1.00  0.00     0.049 A 
ATOM     38  N   UNL A   1      41.285  29.855  31.010  1.00  0.00    -0.248 NA
ATOM     39  C   UNL A   1      39.650  28.219  31.152  1.00  0.00     0.031 C 
ATOM     40  C   UNL A   1      40.336  28.633  26.493  1.00  0.00     0.029 A 
ATOM     41  N   UNL A   1      41.983  28.208  27.905  1.00  0.00    -0.354 N 
ATOM     42  C   UNL A   1      41.346  29.245  32.262  1.00  0.00     0.074 A 
ATOM     43  C   UNL A   1      40.170  28.424  32.366  1.00  0.00     0.031 C 
ATOM     44  C   UNL A   1      41.134  27.725  25.892  1.00  0.00     0.029 A 
ATOM     45  C   UNL A   1      42.237  27.424  26.782  1.00  0.00     0.049 A 
ATOM     46  H   UNL A   1      42.624  28.309  28.646  1.00  0.00     0.167 HD
ATOM     47  C   UNL A   1      42.509  29.224  32.972  1.00  0.00     0.034 A 
ATOM     48  C   UNL A   1      43.263  26.557  26.615  1.00  0.00     0.034 A 
ATOM     49  C   UNL A   1      43.492  30.078  32.358  1.00  0.00     0.049 A 
ATOM     50  C   UNL A   1      44.323  26.962  27.558  1.00  0.00     0.074 A 
ATOM     51  C   UNL A   1      43.676  31.428  32.168  1.00  0.00     0.029 A 
ATOM     52  N   UNL A   1      44.294  29.420  31.462  1.00  0.00    -0.354 N 
ATOM     53  N   UNL A   1      44.962  28.095  27.474  1.00  0.00    -0.248 NA
ATOM     54  C   UNL A   1      44.445  26.264  28.830  1.00  0.00     0.031 C 
ATOM     55  C   UNL A   1      44.404  31.544  30.946  1.00  0.00     0.029 A 
ATOM     56  C   UNL A   1      44.686  30.265  30.463  1.00  0.00     0.049 A 
ATOM     57  H   UNL A   1      44.551  28.472  31.529  1.00  0.00     0.167 HD
ATOM     58  C   UNL A   1      45.151  28.468  28.794  1.00  0.00     0.074 A 
ATOM     59  C   UNL A   1      44.996  27.237  29.561  1.00  0.00     0.031 C 
ATOM     60  C   UNL A   1      45.093  29.780  29.159  1.00  0.00     0.034 A 
BRANCH  47  61
ATOM     61  C   UNL A   1      42.967  28.120  33.908  1.00  0.00     0.023 A 
ATOM     62  C   UNL A   1      43.956  27.234  33.419  1.00  0.00     0.012 A 
ATOM     63  C   UNL A   1      42.288  27.724  35.083  1.00  0.00     0.148 A 
ATOM     64  C   UNL A   1      44.223  26.007  34.037  1.00  0.00     0.002 A 
ATOM     65  C   UNL A   1      42.611  26.540  35.739  1.00  0.00     0.091 A 
ATOM     66  F   UNL A   1      41.227  28.415  35.505  1.00  0.00    -0.205 F 
ATOM     67  C   UNL A   1      43.556  25.662  35.204  1.00  0.00     0.022 A 
BRANCH  65  68
ATOM     68  S   UNL A   1      41.810  26.057  37.275  1.00  0.00     0.127 S 
ATOM     69  O   UNL A   1      41.526  24.647  37.027  1.00  0.00    -0.237 OA
ATOM     70  O   UNL A   1      42.868  26.316  38.253  1.00  0.00    -0.237 OA
ATOM     71  O   UNL A   1      40.651  26.931  37.403  1.00  0.00    -0.744 OA
ENDBRANCH  65  68
ENDBRANCH  47  61
BRANCH  48  72
ATOM     72  C   UNL A   1      43.327  25.276  25.875  1.00  0.00     0.023 A 
ATOM     73  C   UNL A   1      44.410  25.025  25.008  1.00  0.00     0.012 A 
ATOM     74  C   UNL A   1      42.508  24.190  26.254  1.00  0.00     0.148 A 
ATOM     75  C   UNL A   1      44.701  23.725  24.576  1.00  0.00     0.002 A 
ATOM     76  C   UNL A   1      42.801  22.900  25.821  1.00  0.00     0.091 A 
ATOM     77  F   UNL A   1      41.502  24.411  27.112  1.00  0.00    -0.205 F 
ATOM     78  C   UNL A   1      43.907  22.661  24.995  1.00  0.00     0.022 A 
BRANCH  76  79
ATOM     79  S   UNL A   1      41.847  21.470  26.347  1.00  0.00     0.127 S 
ATOM     80  O   UNL A   1      42.444  20.400  25.547  1.00  0.00    -0.237 OA
ATOM     81  O   UNL A   1      42.155  21.414  27.773  1.00  0.00    -0.237 OA
ATOM     82  O   UNL A   1      40.464  21.774  26.007  1.00  0.00    -0.744 OA
ENDBRANCH  76  79
ENDBRANCH  48  72
BRANCH  60  83
ATOM     83  C   UNL A   1      45.293  30.813  28.084  1.00  0.00     0.023 A 
ATOM     84  C   UNL A   1      44.230  31.439  27.403  1.00  0.00     0.012 A 
ATOM     85  C   UNL A   1      46.607  31.247  27.850  1.00  0.00     0.148 A 
ATOM     86  C   UNL A   1      44.483  32.469  26.490  1.00  0.00     0.002 A 
ATOM     87  C   UNL A   1      46.848  32.301  26.983  1.00  0.00     0.091 A 
ATOM     88  F   UNL A   1      47.604  30.630  28.505  1.00  0.00    -0.205 F 
ATOM     89  C   UNL A   1      45.790  32.910  26.291  1.00  0.00     0.022 A 
BRANCH  87  90
ATOM     90  S   UNL A   1      48.495  32.984  26.785  1.00  0.00     0.127 S 
ATOM     91  O   UNL A   1      48.764  33.524  28.115  1.00  0.00    -0.237 OA
ATOM     92  O   UNL A   1      49.283  31.803  26.431  1.00  0.00    -0.237 OA
ATOM     93  O   UNL A   1      48.393  33.971  25.716  1.00  0.00    -0.744 OA
ENDBRANCH  87  90
ENDBRANCH  60  83
ENDBRANCH  34  35
ENDBRANCH  26  29
ENDBRANCH  24  25
ENDBRANCH  23  24
ENDBRANCH   1  23
TORSDOF 19
ENDMDL
