MODEL 1
REMARK VINA RESULT:     -11.5      0.000      0.000
REMARK SMILES CSCc1ccc(C(=O)N[C@](C)(C(=O)NCCCCNC(=O)c2ccc(-c3c4nc(c(-c5cccc(S(=O)(=O)[O-])c5F)c5ccc([nH]5)c(-c5cccc(S(=O)(=O)[O-])c5F)c5nc(c(-c6cccc(S(=O)(=O)[O-])c6F)c6ccc3[nH]6)C=C5)C=C4)cc2)C(F)(F)F)o1
REMARK SMILES IDX 17 1 16 2 15 3 13 4 14 5 11 7 12 8 10 9 8 10 9 11 7 13 4 14
REMARK SMILES IDX 5 15 90 16 6 17 3 18 2 19 1 20 86 21 87 22 88 23 89 24 18 25
REMARK SMILES IDX 19 26 20 27 21 28 22 30 23 31 24 32 85 33 25 34 84 35 26 36
REMARK SMILES IDX 27 37 28 38 78 39 29 40 83 41 77 42 79 43 30 44 82 45 76 46
REMARK SMILES IDX 75 47 31 49 63 50 43 51 62 52 44 53 47 54 61 55 80 56 45 57
REMARK SMILES IDX 46 58 60 60 81 61 48 62 32 63 33 64 41 65 34 66 36 67 42 68
REMARK SMILES IDX 35 69 37 70 38 71 39 72 40 73 64 74 65 75 73 76 66 77 68 78
REMARK SMILES IDX 74 79 67 80 69 81 70 82 71 83 72 84 49 85 50 86 58 87 51 88
REMARK SMILES IDX 53 89 59 90 52 91 54 92 55 93 56 94 57 95
REMARK H PARENT 15 6 10 12 20 29 79 48 47 59
REMARK Flexibility Score: inf
ROOT
ATOM      1  C   UNL A   1      32.955  29.248  24.608  1.00  0.00     0.023 C 
ENDROOT
BRANCH   1   2
ATOM      2  C   UNL A   1      32.365  28.209  23.656  1.00  0.00     0.116 C 
BRANCH   2   3
ATOM      3  N   UNL A   1      31.185  27.556  24.209  1.00  0.00    -0.354 N 
ATOM      4  C   UNL A   1      31.013  26.294  24.715  1.00  0.00     0.254 C 
ATOM      5  O   UNL A   1      29.881  26.014  25.119  1.00  0.00    -0.272 OA
ATOM      6  H   UNL A   1      30.375  28.117  24.222  1.00  0.00     0.163 HD
BRANCH   4   7
ATOM      7  C   UNL A   1      32.121  25.228  24.630  1.00  0.00     0.212 C 
ATOM      8  C   UNL A   1      31.454  23.879  25.006  1.00  0.00     0.056 C 
BRANCH   7   9
ATOM      9  N   UNL A   1      32.717  25.076  23.275  1.00  0.00    -0.328 N 
ATOM     10  C   UNL A   1      33.437  24.040  22.701  1.00  0.00     0.288 C 
ATOM     11  O   UNL A   1      33.429  24.029  21.468  1.00  0.00    -0.266 OA
ATOM     12  H   UNL A   1      32.575  25.848  22.682  1.00  0.00     0.165 HD
BRANCH  10  13
ATOM     13  C   UNL A   1      34.265  23.165  23.496  1.00  0.00     0.191 A 
ATOM     14  C   UNL A   1      34.629  21.225  24.513  1.00  0.00     0.114 A 
ATOM     15  C   UNL A   1      35.771  21.973  24.680  1.00  0.00     0.047 A 
ATOM     16  O   UNL A   1      33.714  21.943  23.799  1.00  0.00    -0.455 OA
ATOM     17  C   UNL A   1      35.526  23.224  24.056  1.00  0.00     0.056 A 
BRANCH  14  18
ATOM     18  C   UNL A   1      34.231  19.847  24.883  1.00  0.00     0.144 C 
BRANCH  18  19
ATOM     19  S   UNL A   1      32.584  19.388  24.285  1.00  0.00    -0.157 SA
ATOM     20  C   UNL A   1      33.004  17.894  23.355  1.00  0.00     0.085 C 
ENDBRANCH  18  19
ENDBRANCH  14  18
ENDBRANCH  10  13
ENDBRANCH   7   9
BRANCH   7  21
ATOM     21  C   UNL A   1      33.200  25.485  25.710  1.00  0.00     0.420 C 
ATOM     22  F   UNL A   1      34.336  26.030  25.224  1.00  0.00    -0.168 F 
ATOM     23  F   UNL A   1      32.714  26.380  26.618  1.00  0.00    -0.168 F 
ATOM     24  F   UNL A   1      33.529  24.384  26.414  1.00  0.00    -0.168 F 
ENDBRANCH   7  21
ENDBRANCH   4   7
ENDBRANCH   2   3
ENDBRANCH   1   2
BRANCH   1  25
ATOM     25  C   UNL A   1      31.937  29.976  25.494  1.00  0.00     0.023 C 
BRANCH  25  26
ATOM     26  C   UNL A   1      32.439  30.395  26.877  1.00  0.00     0.116 C 
BRANCH  26  27
ATOM     27  N   UNL A   1      32.506  31.838  27.045  1.00  0.00    -0.352 N 
ATOM     28  C   UNL A   1      33.477  32.609  27.642  1.00  0.00     0.251 C 
ATOM     29  H   UNL A   1      31.743  32.339  26.677  1.00  0.00     0.163 HD
ATOM     30  O   UNL A   1      33.282  33.810  27.806  1.00  0.00    -0.269 OA
BRANCH  28  31
ATOM     31  C   UNL A   1      34.740  31.995  28.113  1.00  0.00     0.039 A 
ATOM     32  C   UNL A   1      35.885  32.790  28.207  1.00  0.00     0.014 A 
ATOM     33  C   UNL A   1      34.804  30.641  28.452  1.00  0.00     0.014 A 
ATOM     34  C   UNL A   1      37.066  32.248  28.723  1.00  0.00     0.010 A 
ATOM     35  C   UNL A   1      35.966  30.113  29.016  1.00  0.00     0.010 A 
ATOM     36  C   UNL A   1      37.105  30.916  29.172  1.00  0.00    -0.014 A 
BRANCH  36  37
ATOM     37  C   UNL A   1      38.303  30.386  29.872  1.00  0.00     0.031 A 
ATOM     38  C   UNL A   1      38.649  30.818  31.269  1.00  0.00     0.074 A 
ATOM     39  C   UNL A   1      39.129  29.549  29.210  1.00  0.00     0.049 A 
ATOM     40  N   UNL A   1      39.641  30.423  32.026  1.00  0.00    -0.248 NA
ATOM     41  C   UNL A   1      37.787  31.835  31.890  1.00  0.00     0.031 C 
ATOM     42  C   UNL A   1      38.956  29.119  27.821  1.00  0.00     0.029 A 
ATOM     43  N   UNL A   1      40.279  28.919  29.612  1.00  0.00    -0.354 N 
ATOM     44  C   UNL A   1      39.537  31.154  33.202  1.00  0.00     0.074 A 
ATOM     45  C   UNL A   1      38.401  32.039  33.048  1.00  0.00     0.031 C 
ATOM     46  C   UNL A   1      39.948  28.275  27.496  1.00  0.00     0.029 A 
ATOM     47  C   UNL A   1      40.833  28.113  28.645  1.00  0.00     0.049 A 
ATOM     48  H   UNL A   1      40.672  29.032  30.508  1.00  0.00     0.167 HD
ATOM     49  C   UNL A   1      40.292  31.070  34.324  1.00  0.00     0.034 A 
ATOM     50  C   UNL A   1      41.918  27.315  28.683  1.00  0.00     0.034 A 
ATOM     51  C   UNL A   1      41.385  30.152  34.503  1.00  0.00     0.049 A 
ATOM     52  C   UNL A   1      42.708  27.202  29.955  1.00  0.00     0.074 A 
ATOM     53  C   UNL A   1      42.143  29.929  35.640  1.00  0.00     0.029 A 
ATOM     54  N   UNL A   1      41.877  29.305  33.523  1.00  0.00    -0.354 N 
ATOM     55  N   UNL A   1      42.486  27.772  31.114  1.00  0.00    -0.248 NA
ATOM     56  C   UNL A   1      43.881  26.314  29.934  1.00  0.00     0.031 C 
ATOM     57  C   UNL A   1      43.090  28.939  35.348  1.00  0.00     0.029 A 
ATOM     58  C   UNL A   1      42.929  28.558  34.026  1.00  0.00     0.049 A 
ATOM     59  H   UNL A   1      41.527  29.243  32.605  1.00  0.00     0.167 HD
ATOM     60  C   UNL A   1      43.472  27.292  31.968  1.00  0.00     0.074 A 
ATOM     61  C   UNL A   1      44.284  26.372  31.198  1.00  0.00     0.031 C 
ATOM     62  C   UNL A   1      43.694  27.604  33.268  1.00  0.00     0.034 A 
BRANCH  49  63
ATOM     63  C   UNL A   1      39.900  31.939  35.487  1.00  0.00     0.023 A 
ATOM     64  C   UNL A   1      40.506  33.204  35.621  1.00  0.00     0.012 A 
ATOM     65  C   UNL A   1      38.914  31.541  36.407  1.00  0.00     0.148 A 
ATOM     66  C   UNL A   1      40.148  34.054  36.667  1.00  0.00     0.002 A 
ATOM     67  C   UNL A   1      38.543  32.407  37.432  1.00  0.00     0.091 A 
ATOM     68  F   UNL A   1      38.368  30.323  36.284  1.00  0.00    -0.205 F 
ATOM     69  C   UNL A   1      39.160  33.660  37.567  1.00  0.00     0.022 A 
BRANCH  67  70
ATOM     70  S   UNL A   1      37.234  31.969  38.582  1.00  0.00     0.127 S 
ATOM     71  O   UNL A   1      37.827  32.336  39.867  1.00  0.00    -0.237 OA
ATOM     72  O   UNL A   1      36.126  32.827  38.158  1.00  0.00    -0.237 OA
ATOM     73  O   UNL A   1      37.004  30.548  38.361  1.00  0.00    -0.744 OA
ENDBRANCH  67  70
ENDBRANCH  49  63
BRANCH  50  74
ATOM     74  C   UNL A   1      42.240  26.464  27.505  1.00  0.00     0.023 A 
ATOM     75  C   UNL A   1      43.019  27.012  26.467  1.00  0.00     0.012 A 
ATOM     76  C   UNL A   1      41.847  25.116  27.432  1.00  0.00     0.148 A 
ATOM     77  C   UNL A   1      43.391  26.233  25.372  1.00  0.00     0.002 A 
ATOM     78  C   UNL A   1      42.259  24.334  26.358  1.00  0.00     0.091 A 
ATOM     79  F   UNL A   1      41.087  24.618  28.418  1.00  0.00    -0.205 F 
ATOM     80  C   UNL A   1      43.022  24.892  25.323  1.00  0.00     0.022 A 
BRANCH  78  81
ATOM     81  S   UNL A   1      41.930  22.568  26.308  1.00  0.00     0.127 S 
ATOM     82  O   UNL A   1      40.472  22.533  26.275  1.00  0.00    -0.237 OA
ATOM     83  O   UNL A   1      42.584  22.160  25.062  1.00  0.00    -0.237 OA
ATOM     84  O   UNL A   1      42.562  22.035  27.508  1.00  0.00    -0.744 OA
ENDBRANCH  78  81
ENDBRANCH  50  74
BRANCH  62  85
ATOM     85  C   UNL A   1      44.863  26.945  33.948  1.00  0.00     0.023 A 
ATOM     86  C   UNL A   1      46.124  27.570  33.899  1.00  0.00     0.012 A 
ATOM     87  C   UNL A   1      44.706  25.759  34.688  1.00  0.00     0.148 A 
ATOM     88  C   UNL A   1      47.216  27.014  34.563  1.00  0.00     0.002 A 
ATOM     89  C   UNL A   1      45.794  25.226  35.373  1.00  0.00     0.091 A 
ATOM     90  F   UNL A   1      43.505  25.161  34.703  1.00  0.00    -0.205 F 
ATOM     91  C   UNL A   1      47.050  25.849  35.308  1.00  0.00     0.022 A 
BRANCH  89  92
ATOM     92  S   UNL A   1      45.621  23.766  36.406  1.00  0.00     0.127 S 
ATOM     93  O   UNL A   1      47.014  23.413  36.669  1.00  0.00    -0.237 OA
ATOM     94  O   UNL A   1      44.892  24.275  37.569  1.00  0.00    -0.237 OA
ATOM     95  O   UNL A   1      44.862  22.818  35.599  1.00  0.00    -0.744 OA
ENDBRANCH  89  92
ENDBRANCH  62  85
ENDBRANCH  36  37
ENDBRANCH  28  31
ENDBRANCH  26  27
ENDBRANCH  25  26
ENDBRANCH   1  25
TORSDOF 19
ENDMDL
MODEL 2
REMARK VINA RESULT:     -11.4      1.767      2.270
REMARK SMILES CSCc1ccc(C(=O)N[C@](C)(C(=O)NCCCCNC(=O)c2ccc(-c3c4nc(c(-c5cccc(S(=O)(=O)[O-])c5F)c5ccc([nH]5)c(-c5cccc(S(=O)(=O)[O-])c5F)c5nc(c(-c6cccc(S(=O)(=O)[O-])c6F)c6ccc3[nH]6)C=C5)C=C4)cc2)C(F)(F)F)o1
REMARK SMILES IDX 17 1 16 2 15 3 13 4 14 5 11 7 12 8 10 9 8 10 9 11 7 13 4 14
REMARK SMILES IDX 5 15 90 16 6 17 3 18 2 19 1 20 86 21 87 22 88 23 89 24 18 25
REMARK SMILES IDX 19 26 20 27 21 28 22 30 23 31 24 32 85 33 25 34 84 35 26 36
REMARK SMILES IDX 27 37 28 38 78 39 29 40 83 41 77 42 79 43 30 44 82 45 76 46
REMARK SMILES IDX 75 47 31 49 63 50 43 51 62 52 44 53 47 54 61 55 80 56 45 57
REMARK SMILES IDX 46 58 60 60 81 61 48 62 32 63 33 64 41 65 34 66 36 67 42 68
REMARK SMILES IDX 35 69 37 70 38 71 39 72 40 73 64 74 65 75 73 76 66 77 68 78
REMARK SMILES IDX 74 79 67 80 69 81 70 82 71 83 72 84 49 85 50 86 58 87 51 88
REMARK SMILES IDX 53 89 59 90 52 91 54 92 55 93 56 94 57 95
REMARK H PARENT 15 6 10 12 20 29 79 48 47 59
REMARK Flexibility Score: inf
ROOT
ATOM      1  C   UNL A   1      31.768  27.901  27.184  1.00  0.00     0.023 C 
ENDROOT
BRANCH   1   2
ATOM      2  C   UNL A   1      31.554  26.470  26.692  1.00  0.00     0.116 C 
BRANCH   2   3
ATOM      3  N   UNL A   1      32.747  25.913  26.067  1.00  0.00    -0.354 N 
ATOM      4  C   UNL A   1      32.897  25.169  24.926  1.00  0.00     0.254 C 
ATOM      5  O   UNL A   1      34.048  24.831  24.639  1.00  0.00    -0.272 OA
ATOM      6  H   UNL A   1      33.586  26.105  26.544  1.00  0.00     0.163 HD
BRANCH   4   7
ATOM      7  C   UNL A   1      31.684  24.637  24.140  1.00  0.00     0.212 C 
ATOM      8  C   UNL A   1      32.248  23.629  23.103  1.00  0.00     0.056 C 
BRANCH   7   9
ATOM      9  N   UNL A   1      30.685  23.917  24.973  1.00  0.00    -0.328 N 
ATOM     10  C   UNL A   1      30.831  22.915  25.920  1.00  0.00     0.288 C 
ATOM     11  O   UNL A   1      29.897  22.823  26.720  1.00  0.00    -0.266 OA
ATOM     12  H   UNL A   1      29.755  24.203  24.827  1.00  0.00     0.165 HD
BRANCH  10  13
ATOM     13  C   UNL A   1      31.908  21.957  25.845  1.00  0.00     0.191 A 
ATOM     14  C   UNL A   1      32.754  20.035  25.123  1.00  0.00     0.114 A 
ATOM     15  C   UNL A   1      33.757  20.664  25.823  1.00  0.00     0.047 A 
ATOM     16  O   UNL A   1      31.632  20.812  25.135  1.00  0.00    -0.455 OA
ATOM     17  C   UNL A   1      33.205  21.878  26.310  1.00  0.00     0.056 A 
BRANCH  14  18
ATOM     18  C   UNL A   1      32.665  18.775  24.349  1.00  0.00     0.144 C 
BRANCH  18  19
ATOM     19  S   UNL A   1      32.630  17.291  25.387  1.00  0.00    -0.157 SA
ATOM     20  C   UNL A   1      33.591  16.168  24.343  1.00  0.00     0.085 C 
ENDBRANCH  18  19
ENDBRANCH  14  18
ENDBRANCH  10  13
ENDBRANCH   7   9
BRANCH   7  21
ATOM     21  C   UNL A   1      31.035  25.776  23.315  1.00  0.00     0.420 C 
ATOM     22  F   UNL A   1      31.662  26.964  23.444  1.00  0.00    -0.168 F 
ATOM     23  F   UNL A   1      31.104  25.458  21.990  1.00  0.00    -0.168 F 
ATOM     24  F   UNL A   1      29.728  25.958  23.585  1.00  0.00    -0.168 F 
ENDBRANCH   7  21
ENDBRANCH   4   7
ENDBRANCH   2   3
ENDBRANCH   1   2
BRANCH   1  25
ATOM     25  C   UNL A   1      31.607  28.990  26.117  1.00  0.00     0.023 C 
BRANCH  25  26
ATOM     26  C   UNL A   1      32.821  29.895  25.904  1.00  0.00     0.116 C 
BRANCH  26  27
ATOM     27  N   UNL A   1      32.609  31.254  26.378  1.00  0.00    -0.352 N 
ATOM     28  C   UNL A   1      33.338  31.994  27.279  1.00  0.00     0.251 C 
ATOM     29  H   UNL A   1      31.826  31.713  25.997  1.00  0.00     0.163 HD
ATOM     30  O   UNL A   1      32.914  33.084  27.654  1.00  0.00    -0.269 OA
BRANCH  28  31
ATOM     31  C   UNL A   1      34.614  31.473  27.821  1.00  0.00     0.039 A 
ATOM     32  C   UNL A   1      35.690  32.350  27.982  1.00  0.00     0.014 A 
ATOM     33  C   UNL A   1      34.759  30.126  28.162  1.00  0.00     0.014 A 
ATOM     34  C   UNL A   1      36.877  31.894  28.564  1.00  0.00     0.010 A 
ATOM     35  C   UNL A   1      35.923  29.682  28.792  1.00  0.00     0.010 A 
ATOM     36  C   UNL A   1      36.988  30.566  29.013  1.00  0.00    -0.014 A 
BRANCH  36  37
ATOM     37  C   UNL A   1      38.181  30.123  29.781  1.00  0.00     0.031 A 
ATOM     38  C   UNL A   1      38.440  30.613  31.177  1.00  0.00     0.074 A 
ATOM     39  C   UNL A   1      39.078  29.314  29.181  1.00  0.00     0.049 A 
ATOM     40  N   UNL A   1      39.416  30.295  31.989  1.00  0.00    -0.248 NA
ATOM     41  C   UNL A   1      37.497  31.599  31.729  1.00  0.00     0.031 C 
ATOM     42  C   UNL A   1      38.992  28.836  27.800  1.00  0.00     0.029 A 
ATOM     43  N   UNL A   1      40.242  28.759  29.652  1.00  0.00    -0.354 N 
ATOM     44  C   UNL A   1      39.221  31.052  33.136  1.00  0.00     0.074 A 
ATOM     45  C   UNL A   1      38.047  31.868  32.906  1.00  0.00     0.031 C 
ATOM     46  C   UNL A   1      40.040  28.038  27.544  1.00  0.00     0.029 A 
ATOM     47  C   UNL A   1      40.881  27.958  28.735  1.00  0.00     0.049 A 
ATOM     48  H   UNL A   1      40.587  28.920  30.560  1.00  0.00     0.167 HD
ATOM     49  C   UNL A   1      39.928  31.042  34.291  1.00  0.00     0.034 A 
ATOM     50  C   UNL A   1      42.004  27.222  28.844  1.00  0.00     0.034 A 
ATOM     51  C   UNL A   1      41.060  30.190  34.546  1.00  0.00     0.049 A 
ATOM     52  C   UNL A   1      42.741  27.189  30.153  1.00  0.00     0.074 A 
ATOM     53  C   UNL A   1      41.777  30.041  35.721  1.00  0.00     0.029 A 
ATOM     54  N   UNL A   1      41.639  29.343  33.615  1.00  0.00    -0.354 N 
ATOM     55  N   UNL A   1      42.438  27.779  31.283  1.00  0.00    -0.248 NA
ATOM     56  C   UNL A   1      43.959  26.367  30.210  1.00  0.00     0.031 C 
ATOM     57  C   UNL A   1      42.787  29.097  35.501  1.00  0.00     0.029 A 
ATOM     58  C   UNL A   1      42.706  28.670  34.186  1.00  0.00     0.049 A 
ATOM     59  H   UNL A   1      41.335  29.236  32.685  1.00  0.00     0.167 HD
ATOM     60  C   UNL A   1      43.408  27.378  32.193  1.00  0.00     0.074 A 
ATOM     61  C   UNL A   1      44.302  26.482  31.487  1.00  0.00     0.031 C 
ATOM     62  C   UNL A   1      43.555  27.738  33.491  1.00  0.00     0.034 A 
BRANCH  49  63
ATOM     63  C   UNL A   1      39.439  31.920  35.409  1.00  0.00     0.023 A 
ATOM     64  C   UNL A   1      38.542  31.378  36.352  1.00  0.00     0.012 A 
ATOM     65  C   UNL A   1      39.891  33.242  35.563  1.00  0.00     0.148 A 
ATOM     66  C   UNL A   1      38.088  32.148  37.423  1.00  0.00     0.002 A 
ATOM     67  C   UNL A   1      39.454  33.995  36.649  1.00  0.00     0.091 A 
ATOM     68  F   UNL A   1      40.720  33.754  34.641  1.00  0.00    -0.205 F 
ATOM     69  C   UNL A   1      38.551  33.453  37.576  1.00  0.00     0.022 A 
BRANCH  67  70
ATOM     70  S   UNL A   1      40.066  35.662  36.924  1.00  0.00     0.127 S 
ATOM     71  O   UNL A   1      39.551  36.369  35.754  1.00  0.00    -0.237 OA
ATOM     72  O   UNL A   1      39.431  36.039  38.189  1.00  0.00    -0.237 OA
ATOM     73  O   UNL A   1      41.513  35.518  37.006  1.00  0.00    -0.744 OA
ENDBRANCH  67  70
ENDBRANCH  49  63
BRANCH  50  74
ATOM     74  C   UNL A   1      42.424  26.358  27.708  1.00  0.00     0.023 A 
ATOM     75  C   UNL A   1      43.348  26.867  26.775  1.00  0.00     0.012 A 
ATOM     76  C   UNL A   1      41.977  25.031  27.580  1.00  0.00     0.148 A 
ATOM     77  C   UNL A   1      43.810  26.072  25.727  1.00  0.00     0.002 A 
ATOM     78  C   UNL A   1      42.477  24.229  26.558  1.00  0.00     0.091 A 
ATOM     79  F   UNL A   1      41.081  24.569  28.464  1.00  0.00    -0.205 F 
ATOM     80  C   UNL A   1      43.385  24.750  25.626  1.00  0.00     0.022 A 
BRANCH  78  81
ATOM     81  S   UNL A   1      42.071  22.481  26.457  1.00  0.00     0.127 S 
ATOM     82  O   UNL A   1      40.614  22.514  26.378  1.00  0.00    -0.237 OA
ATOM     83  O   UNL A   1      42.746  22.071  25.224  1.00  0.00    -0.237 OA
ATOM     84  O   UNL A   1      42.639  21.895  27.664  1.00  0.00    -0.744 OA
ENDBRANCH  78  81
ENDBRANCH  50  74
BRANCH  62  85
ATOM     85  C   UNL A   1      44.725  27.164  34.241  1.00  0.00     0.023 A 
ATOM     86  C   UNL A   1      45.948  27.864  34.241  1.00  0.00     0.012 A 
ATOM     87  C   UNL A   1      44.603  25.984  34.996  1.00  0.00     0.148 A 
ATOM     88  C   UNL A   1      47.036  27.387  34.969  1.00  0.00     0.002 A 
ATOM     89  C   UNL A   1      45.685  25.530  35.745  1.00  0.00     0.091 A 
ATOM     90  F   UNL A   1      43.441  25.314  34.965  1.00  0.00    -0.205 F 
ATOM     91  C   UNL A   1      46.903  26.228  35.729  1.00  0.00     0.022 A 
BRANCH  89  92
ATOM     92  S   UNL A   1      45.548  24.081  36.798  1.00  0.00     0.127 S 
ATOM     93  O   UNL A   1      44.725  23.191  35.983  1.00  0.00    -0.237 OA
ATOM     94  O   UNL A   1      46.941  23.655  36.947  1.00  0.00    -0.237 OA
ATOM     95  O   UNL A   1      44.941  24.564  38.032  1.00  0.00    -0.744 OA
ENDBRANCH  89  92
ENDBRANCH  62  85
ENDBRANCH  36  37
ENDBRANCH  28  31
ENDBRANCH  26  27
ENDBRANCH  25  26
ENDBRANCH   1  25
TORSDOF 19
ENDMDL
MODEL 3
REMARK VINA RESULT:     -11.0      0.763      7.491
REMARK SMILES CSCc1ccc(C(=O)N[C@](C)(C(=O)NCCCCNC(=O)c2ccc(-c3c4nc(c(-c5cccc(S(=O)(=O)[O-])c5F)c5ccc([nH]5)c(-c5cccc(S(=O)(=O)[O-])c5F)c5nc(c(-c6cccc(S(=O)(=O)[O-])c6F)c6ccc3[nH]6)C=C5)C=C4)cc2)C(F)(F)F)o1
REMARK SMILES IDX 17 1 16 2 15 3 13 4 14 5 11 7 12 8 10 9 8 10 9 11 7 13 4 14
REMARK SMILES IDX 5 15 90 16 6 17 3 18 2 19 1 20 86 21 87 22 88 23 89 24 18 25
REMARK SMILES IDX 19 26 20 27 21 28 22 30 23 31 24 32 85 33 25 34 84 35 26 36
REMARK SMILES IDX 27 37 28 38 78 39 29 40 83 41 77 42 79 43 30 44 82 45 76 46
REMARK SMILES IDX 75 47 31 49 63 50 43 51 62 52 44 53 47 54 61 55 80 56 45 57
REMARK SMILES IDX 46 58 60 60 81 61 48 62 32 63 33 64 41 65 34 66 36 67 42 68
REMARK SMILES IDX 35 69 37 70 38 71 39 72 40 73 64 74 65 75 73 76 66 77 68 78
REMARK SMILES IDX 74 79 67 80 69 81 70 82 71 83 72 84 49 85 50 86 58 87 51 88
REMARK SMILES IDX 53 89 59 90 52 91 54 92 55 93 56 94 57 95
REMARK H PARENT 15 6 10 12 20 29 79 48 47 59
REMARK Flexibility Score: inf
ROOT
ATOM      1  C   UNL A   1      32.939  28.860  24.644  1.00  0.00     0.023 C 
ENDROOT
BRANCH   1   2
ATOM      2  C   UNL A   1      32.468  27.784  23.666  1.00  0.00     0.116 C 
BRANCH   2   3
ATOM      3  N   UNL A   1      31.253  27.118  24.117  1.00  0.00    -0.354 N 
ATOM      4  C   UNL A   1      31.065  25.886  24.688  1.00  0.00     0.254 C 
ATOM      5  O   UNL A   1      29.903  25.583  24.970  1.00  0.00    -0.272 OA
ATOM      6  H   UNL A   1      30.428  27.641  23.991  1.00  0.00     0.163 HD
BRANCH   4   7
ATOM      7  C   UNL A   1      32.213  24.868  24.815  1.00  0.00     0.212 C 
ATOM      8  C   UNL A   1      31.546  23.495  25.098  1.00  0.00     0.056 C 
BRANCH   7   9
ATOM      9  N   UNL A   1      33.039  24.724  23.586  1.00  0.00    -0.328 N 
ATOM     10  C   UNL A   1      33.814  23.673  23.119  1.00  0.00     0.288 C 
ATOM     11  O   UNL A   1      34.029  23.693  21.905  1.00  0.00    -0.266 OA
ATOM     12  H   UNL A   1      33.034  25.515  23.000  1.00  0.00     0.165 HD
BRANCH  10  13
ATOM     13  C   UNL A   1      34.454  22.747  24.023  1.00  0.00     0.191 A 
ATOM     14  C   UNL A   1      34.666  20.719  24.900  1.00  0.00     0.114 A 
ATOM     15  C   UNL A   1      35.658  21.489  25.458  1.00  0.00     0.047 A 
ATOM     16  O   UNL A   1      33.932  21.475  24.033  1.00  0.00    -0.455 OA
ATOM     17  C   UNL A   1      35.503  22.794  24.919  1.00  0.00     0.056 A 
BRANCH  14  18
ATOM     18  C   UNL A   1      34.284  19.290  25.001  1.00  0.00     0.144 C 
BRANCH  18  19
ATOM     19  S   UNL A   1      32.524  18.991  24.696  1.00  0.00    -0.157 SA
ATOM     20  C   UNL A   1      32.637  18.086  23.132  1.00  0.00     0.085 C 
ENDBRANCH  18  19
ENDBRANCH  14  18
ENDBRANCH  10  13
ENDBRANCH   7   9
BRANCH   7  21
ATOM     21  C   UNL A   1      33.079  25.184  26.058  1.00  0.00     0.420 C 
ATOM     22  F   UNL A   1      33.384  24.096  26.799  1.00  0.00    -0.168 F 
ATOM     23  F   UNL A   1      34.273  25.702  25.647  1.00  0.00    -0.168 F 
ATOM     24  F   UNL A   1      32.535  26.109  26.873  1.00  0.00    -0.168 F 
ENDBRANCH   7  21
ENDBRANCH   4   7
ENDBRANCH   2   3
ENDBRANCH   1   2
BRANCH   1  25
ATOM     25  C   UNL A   1      31.830  29.744  25.227  1.00  0.00     0.023 C 
BRANCH  25  26
ATOM     26  C   UNL A   1      32.039  30.210  26.668  1.00  0.00     0.116 C 
BRANCH  26  27
ATOM     27  N   UNL A   1      32.045  31.658  26.804  1.00  0.00    -0.352 N 
ATOM     28  C   UNL A   1      32.966  32.480  27.410  1.00  0.00     0.251 C 
ATOM     29  H   UNL A   1      31.273  32.119  26.403  1.00  0.00     0.163 HD
ATOM     30  O   UNL A   1      32.719  33.676  27.541  1.00  0.00    -0.269 OA
BRANCH  28  31
ATOM     31  C   UNL A   1      34.238  31.928  27.932  1.00  0.00     0.039 A 
ATOM     32  C   UNL A   1      35.309  32.796  28.162  1.00  0.00     0.014 A 
ATOM     33  C   UNL A   1      34.383  30.562  28.187  1.00  0.00     0.014 A 
ATOM     34  C   UNL A   1      36.490  32.306  28.726  1.00  0.00     0.010 A 
ATOM     35  C   UNL A   1      35.541  30.082  28.800  1.00  0.00     0.010 A 
ATOM     36  C   UNL A   1      36.601  30.952  29.090  1.00  0.00    -0.014 A 
BRANCH  36  37
ATOM     37  C   UNL A   1      37.786  30.463  29.841  1.00  0.00     0.031 A 
ATOM     38  C   UNL A   1      38.771  29.514  29.217  1.00  0.00     0.074 A 
ATOM     39  C   UNL A   1      37.941  30.831  31.129  1.00  0.00     0.049 A 
ATOM     40  N   UNL A   1      39.871  29.023  29.729  1.00  0.00    -0.248 NA
ATOM     41  C   UNL A   1      38.478  29.041  27.856  1.00  0.00     0.031 C 
ATOM     42  C   UNL A   1      37.011  31.677  31.881  1.00  0.00     0.029 A 
ATOM     43  N   UNL A   1      38.928  30.536  32.035  1.00  0.00    -0.354 N 
ATOM     44  C   UNL A   1      40.391  28.169  28.766  1.00  0.00     0.074 A 
ATOM     45  C   UNL A   1      39.471  28.187  27.648  1.00  0.00     0.031 C 
ATOM     46  C   UNL A   1      37.486  31.855  33.123  1.00  0.00     0.029 A 
ATOM     47  C   UNL A   1      38.744  31.128  33.263  1.00  0.00     0.049 A 
ATOM     48  H   UNL A   1      39.695  29.956  31.827  1.00  0.00     0.167 HD
ATOM     49  C   UNL A   1      41.547  27.464  28.791  1.00  0.00     0.034 A 
ATOM     50  C   UNL A   1      39.510  31.108  34.370  1.00  0.00     0.034 A 
ATOM     51  C   UNL A   1      42.493  27.489  29.875  1.00  0.00     0.049 A 
ATOM     52  C   UNL A   1      40.813  30.360  34.355  1.00  0.00     0.074 A 
ATOM     53  C   UNL A   1      43.737  26.885  29.945  1.00  0.00     0.029 A 
ATOM     54  N   UNL A   1      42.303  28.152  31.076  1.00  0.00    -0.354 N 
ATOM     55  N   UNL A   1      41.371  29.702  33.368  1.00  0.00    -0.248 NA
ATOM     56  C   UNL A   1      41.606  30.377  35.593  1.00  0.00     0.031 C 
ATOM     57  C   UNL A   1      44.302  27.189  31.190  1.00  0.00     0.029 A 
ATOM     58  C   UNL A   1      43.404  27.971  31.897  1.00  0.00     0.049 A 
ATOM     59  H   UNL A   1      41.503  28.675  31.311  1.00  0.00     0.167 HD
ATOM     60  C   UNL A   1      42.590  29.249  33.857  1.00  0.00     0.074 A 
ATOM     61  C   UNL A   1      42.699  29.722  35.221  1.00  0.00     0.031 C 
ATOM     62  C   UNL A   1      43.526  28.493  33.233  1.00  0.00     0.034 A 
BRANCH  49  63
ATOM     63  C   UNL A   1      41.901  26.673  27.562  1.00  0.00     0.023 A 
ATOM     64  C   UNL A   1      42.456  27.350  26.457  1.00  0.00     0.012 A 
ATOM     65  C   UNL A   1      41.740  25.277  27.509  1.00  0.00     0.148 A 
ATOM     66  C   UNL A   1      42.829  26.651  25.310  1.00  0.00     0.002 A 
ATOM     67  C   UNL A   1      42.140  24.583  26.371  1.00  0.00     0.091 A 
ATOM     68  F   UNL A   1      41.183  24.650  28.555  1.00  0.00    -0.205 F 
ATOM     69  C   UNL A   1      42.679  25.266  25.270  1.00  0.00     0.022 A 
BRANCH  67  70
ATOM     70  S   UNL A   1      42.021  22.792  26.291  1.00  0.00     0.127 S 
ATOM     71  O   UNL A   1      42.647  22.505  25.003  1.00  0.00    -0.237 OA
ATOM     72  O   UNL A   1      42.800  22.361  27.454  1.00  0.00    -0.237 OA
ATOM     73  O   UNL A   1      40.596  22.509  26.393  1.00  0.00    -0.744 OA
ENDBRANCH  67  70
ENDBRANCH  49  63
BRANCH  50  74
ATOM     74  C   UNL A   1      39.115  31.929  35.547  1.00  0.00     0.023 A 
ATOM     75  C   UNL A   1      39.406  33.307  35.540  1.00  0.00     0.012 A 
ATOM     76  C   UNL A   1      38.405  31.381  36.630  1.00  0.00     0.148 A 
ATOM     77  C   UNL A   1      39.004  34.123  36.598  1.00  0.00     0.002 A 
ATOM     78  C   UNL A   1      37.968  32.209  37.660  1.00  0.00     0.091 A 
ATOM     79  F   UNL A   1      38.156  30.063  36.631  1.00  0.00    -0.205 F 
ATOM     80  C   UNL A   1      38.275  33.577  37.651  1.00  0.00     0.022 A 
BRANCH  78  81
ATOM     81  S   UNL A   1      36.911  31.589  38.973  1.00  0.00     0.127 S 
ATOM     82  O   UNL A   1      35.791  32.523  38.925  1.00  0.00    -0.237 OA
ATOM     83  O   UNL A   1      36.602  30.232  38.516  1.00  0.00    -0.237 OA
ATOM     84  O   UNL A   1      37.738  31.633  40.173  1.00  0.00    -0.744 OA
ENDBRANCH  78  81
ENDBRANCH  50  74
BRANCH  62  85
ATOM     85  C   UNL A   1      44.755  28.125  34.018  1.00  0.00     0.023 A 
ATOM     86  C   UNL A   1      45.860  28.998  34.009  1.00  0.00     0.012 A 
ATOM     87  C   UNL A   1      44.794  26.966  34.815  1.00  0.00     0.148 A 
ATOM     88  C   UNL A   1      46.993  28.713  34.769  1.00  0.00     0.002 A 
ATOM     89  C   UNL A   1      45.918  26.704  35.594  1.00  0.00     0.091 A 
ATOM     90  F   UNL A   1      43.745  26.131  34.793  1.00  0.00    -0.205 F 
ATOM     91  C   UNL A   1      47.019  27.574  35.569  1.00  0.00     0.022 A 
BRANCH  89  92
ATOM     92  S   UNL A   1      45.977  25.288  36.698  1.00  0.00     0.127 S 
ATOM     93  O   UNL A   1      45.953  24.169  35.758  1.00  0.00    -0.237 OA
ATOM     94  O   UNL A   1      47.252  25.470  37.393  1.00  0.00    -0.237 OA
ATOM     95  O   UNL A   1      44.808  25.426  37.557  1.00  0.00    -0.744 OA
ENDBRANCH  89  92
ENDBRANCH  62  85
ENDBRANCH  36  37
ENDBRANCH  28  31
ENDBRANCH  26  27
ENDBRANCH  25  26
ENDBRANCH   1  25
TORSDOF 19
ENDMDL
