MODEL 1
REMARK VINA RESULT:     -13.6      0.000      0.000
REMARK SMILES Cc1ccc(S(=O)(=O)N2c3ccc(C(=O)NCCCCNC(=O)c4ccc(-c5c6nc(c(-c7cccc(S(=O)(=O)[O-])c7F)c7ccc([nH]7)c(-c7cccc(S(=O)(=O)[O-])c7F)c7nc(c(-c8cccc(S(=O)(=O)[O-])c8F)c8ccc5[nH]8)C=C7)C=C6)cc4)cc3C[C@H]2C)cc1
REMARK SMILES IDX 19 1 18 2 17 3 16 4 14 5 15 6 13 8 9 9 10 10 90 11 11 12
REMARK SMILES IDX 88 13 89 14 91 15 12 16 87 17 6 18 7 19 8 20 5 21 1 22 2 23
REMARK SMILES IDX 3 24 93 25 4 26 92 27 20 28 21 29 22 30 23 32 24 33 25 34
REMARK SMILES IDX 86 35 26 36 85 37 27 38 28 39 29 40 79 41 30 42 84 43 78 44
REMARK SMILES IDX 80 45 31 46 83 47 77 48 76 49 32 51 64 52 44 53 63 54 45 55
REMARK SMILES IDX 48 56 62 57 81 58 46 59 47 60 61 62 82 63 49 64 33 65 34 66
REMARK SMILES IDX 42 67 35 68 37 69 43 70 36 71 38 72 39 73 40 74 41 75 65 76
REMARK SMILES IDX 66 77 74 78 67 79 69 80 75 81 68 82 70 83 71 84 72 85 73 86
REMARK SMILES IDX 50 87 51 88 59 89 52 90 54 91 60 92 53 93 55 94 56 95 57 96
REMARK SMILES IDX 58 97
REMARK H PARENT 16 7 21 31 80 50 48 61
REMARK Flexibility Score: inf
ROOT
ATOM      1  C   UNL A   1      37.362  21.203  25.025  1.00  0.00     0.023 C 
ENDROOT
BRANCH   1   2
ATOM      2  C   UNL A   1      35.983  21.473  24.439  1.00  0.00     0.023 C 
BRANCH   2   3
ATOM      3  C   UNL A   1      34.819  20.747  25.109  1.00  0.00     0.116 C 
BRANCH   3   4
ATOM      4  N   UNL A   1      34.634  21.079  26.517  1.00  0.00    -0.352 N 
ATOM      5  C   UNL A   1      33.956  22.110  27.127  1.00  0.00     0.251 C 
ATOM      6  O   UNL A   1      34.017  22.236  28.349  1.00  0.00    -0.269 OA
ATOM      7  H   UNL A   1      35.072  20.455  27.142  1.00  0.00     0.163 HD
BRANCH   5   8
ATOM      8  C   UNL A   1      33.219  23.123  26.332  1.00  0.00     0.040 A 
ATOM      9  N   UNL A   1      31.360  25.619  23.497  1.00  0.00    -0.263 N 
ATOM     10  C   UNL A   1      31.863  24.777  24.564  1.00  0.00     0.055 A 
ATOM     11  C   UNL A   1      32.609  26.144  22.811  1.00  0.00     0.101 C 
ATOM     12  C   UNL A   1      31.133  24.006  25.448  1.00  0.00     0.028 A 
ATOM     13  C   UNL A   1      33.254  24.806  24.631  1.00  0.00    -0.021 A 
ATOM     14  C   UNL A   1      33.798  25.881  23.758  1.00  0.00     0.063 C 
ATOM     15  C   UNL A   1      32.805  25.363  21.502  1.00  0.00     0.032 C 
ATOM     16  C   UNL A   1      31.823  23.247  26.392  1.00  0.00     0.016 A 
ATOM     17  C   UNL A   1      33.953  23.970  25.491  1.00  0.00     0.019 A 
BRANCH   9  18
ATOM     18  S   UNL A   1      30.217  26.763  24.081  1.00  0.00     0.264 S 
ATOM     19  O   UNL A   1      29.288  26.056  24.936  1.00  0.00    -0.201 OA
ATOM     20  O   UNL A   1      29.747  27.537  22.942  1.00  0.00    -0.201 OA
BRANCH  18  21
ATOM     21  C   UNL A   1      31.014  27.968  25.124  1.00  0.00     0.088 A 
ATOM     22  C   UNL A   1      33.516  30.371  27.668  1.00  0.00     0.044 C 
ATOM     23  C   UNL A   1      32.594  29.566  26.805  1.00  0.00    -0.051 A 
ATOM     24  C   UNL A   1      32.145  28.318  27.243  1.00  0.00     0.005 A 
ATOM     25  C   UNL A   1      32.175  30.039  25.555  1.00  0.00     0.005 A 
ATOM     26  C   UNL A   1      31.363  27.522  26.408  1.00  0.00     0.022 A 
ATOM     27  C   UNL A   1      31.378  29.248  24.720  1.00  0.00     0.022 A 
ENDBRANCH  18  21
ENDBRANCH   9  18
ENDBRANCH   5   8
ENDBRANCH   3   4
ENDBRANCH   2   3
ENDBRANCH   1   2
BRANCH   1  28
ATOM     28  C   UNL A   1      38.127  22.455  25.416  1.00  0.00     0.116 C 
BRANCH  28  29
ATOM     29  N   UNL A   1      39.391  22.202  26.076  1.00  0.00    -0.352 N 
ATOM     30  C   UNL A   1      40.350  23.103  26.505  1.00  0.00     0.251 C 
ATOM     31  H   UNL A   1      39.597  21.253  26.243  1.00  0.00     0.163 HD
ATOM     32  O   UNL A   1      41.489  22.682  26.688  1.00  0.00    -0.269 OA
BRANCH  30  33
ATOM     33  C   UNL A   1      39.976  24.493  26.885  1.00  0.00     0.039 A 
ATOM     34  C   UNL A   1      40.582  25.548  26.185  1.00  0.00     0.014 A 
ATOM     35  C   UNL A   1      39.260  24.772  28.043  1.00  0.00     0.014 A 
ATOM     36  C   UNL A   1      40.695  26.807  26.775  1.00  0.00     0.010 A 
ATOM     37  C   UNL A   1      39.464  25.967  28.683  1.00  0.00     0.010 A 
ATOM     38  C   UNL A   1      40.231  26.960  28.073  1.00  0.00    -0.014 A 
BRANCH  38  39
ATOM     39  C   UNL A   1      40.451  28.111  28.923  1.00  0.00     0.031 A 
ATOM     40  C   UNL A   1      39.517  29.245  28.845  1.00  0.00     0.074 A 
ATOM     41  C   UNL A   1      41.283  27.939  29.974  1.00  0.00     0.049 A 
ATOM     42  N   UNL A   1      39.722  30.391  29.390  1.00  0.00    -0.248 NA
ATOM     43  C   UNL A   1      38.247  29.156  28.132  1.00  0.00     0.031 C 
ATOM     44  C   UNL A   1      41.305  28.685  31.224  1.00  0.00     0.029 A 
ATOM     45  N   UNL A   1      42.422  27.129  30.039  1.00  0.00    -0.354 N 
ATOM     46  C   UNL A   1      38.523  31.073  29.364  1.00  0.00     0.074 A 
ATOM     47  C   UNL A   1      37.661  30.297  28.504  1.00  0.00     0.031 C 
ATOM     48  C   UNL A   1      42.511  28.531  31.793  1.00  0.00     0.029 A 
ATOM     49  C   UNL A   1      43.346  27.835  30.826  1.00  0.00     0.049 A 
ATOM     50  H   UNL A   1      42.550  26.248  29.619  1.00  0.00     0.167 HD
ATOM     51  C   UNL A   1      38.339  32.122  30.212  1.00  0.00     0.034 A 
ATOM     52  C   UNL A   1      44.537  28.294  30.337  1.00  0.00     0.034 A 
ATOM     53  C   UNL A   1      39.547  32.347  31.017  1.00  0.00     0.049 A 
ATOM     54  C   UNL A   1      44.650  29.809  30.407  1.00  0.00     0.074 A 
ATOM     55  C   UNL A   1      39.917  31.930  32.286  1.00  0.00     0.029 A 
ATOM     56  N   UNL A   1      40.705  32.800  30.400  1.00  0.00    -0.354 N 
ATOM     57  N   UNL A   1      43.658  30.600  30.712  1.00  0.00    -0.248 NA
ATOM     58  C   UNL A   1      45.877  30.555  30.148  1.00  0.00     0.031 C 
ATOM     59  C   UNL A   1      41.329  32.050  32.392  1.00  0.00     0.029 A 
ATOM     60  C   UNL A   1      41.811  32.568  31.203  1.00  0.00     0.049 A 
ATOM     61  H   UNL A   1      40.736  33.228  29.514  1.00  0.00     0.167 HD
ATOM     62  C   UNL A   1      44.041  31.911  30.611  1.00  0.00     0.074 A 
ATOM     63  C   UNL A   1      45.462  31.825  30.314  1.00  0.00     0.031 C 
ATOM     64  C   UNL A   1      43.145  32.940  30.739  1.00  0.00     0.034 A 
BRANCH  51  65
ATOM     65  C   UNL A   1      36.983  32.706  30.560  1.00  0.00     0.023 A 
ATOM     66  C   UNL A   1      36.424  32.343  31.807  1.00  0.00     0.012 A 
ATOM     67  C   UNL A   1      36.188  33.543  29.745  1.00  0.00     0.148 A 
ATOM     68  C   UNL A   1      35.123  32.691  32.181  1.00  0.00     0.002 A 
ATOM     69  C   UNL A   1      34.861  33.835  30.086  1.00  0.00     0.091 A 
ATOM     70  F   UNL A   1      36.731  34.128  28.671  1.00  0.00    -0.205 F 
ATOM     71  C   UNL A   1      34.325  33.405  31.303  1.00  0.00     0.022 A 
BRANCH  69  72
ATOM     72  S   UNL A   1      33.734  34.681  28.962  1.00  0.00     0.127 S 
ATOM     73  O   UNL A   1      34.475  35.905  28.642  1.00  0.00    -0.237 OA
ATOM     74  O   UNL A   1      33.622  33.737  27.854  1.00  0.00    -0.237 OA
ATOM     75  O   UNL A   1      32.513  34.915  29.723  1.00  0.00    -0.744 OA
ENDBRANCH  69  72
ENDBRANCH  51  65
BRANCH  52  76
ATOM     76  C   UNL A   1      45.127  27.397  29.296  1.00  0.00     0.023 A 
ATOM     77  C   UNL A   1      45.497  26.100  29.734  1.00  0.00     0.012 A 
ATOM     78  C   UNL A   1      44.917  27.611  27.922  1.00  0.00     0.148 A 
ATOM     79  C   UNL A   1      45.496  25.016  28.856  1.00  0.00     0.002 A 
ATOM     80  C   UNL A   1      44.928  26.521  27.048  1.00  0.00     0.091 A 
ATOM     81  F   UNL A   1      44.617  28.848  27.506  1.00  0.00    -0.205 F 
ATOM     82  C   UNL A   1      45.172  25.221  27.522  1.00  0.00     0.022 A 
BRANCH  80  83
ATOM     83  S   UNL A   1      44.500  26.687  25.308  1.00  0.00     0.127 S 
ATOM     84  O   UNL A   1      45.819  26.800  24.693  1.00  0.00    -0.237 OA
ATOM     85  O   UNL A   1      43.802  25.433  25.035  1.00  0.00    -0.237 OA
ATOM     86  O   UNL A   1      43.653  27.869  25.240  1.00  0.00    -0.744 OA
ENDBRANCH  80  83
ENDBRANCH  52  76
BRANCH  64  87
ATOM     87  C   UNL A   1      43.406  34.404  30.426  1.00  0.00     0.023 A 
ATOM     88  C   UNL A   1      43.887  35.309  31.388  1.00  0.00     0.012 A 
ATOM     89  C   UNL A   1      43.339  34.877  29.086  1.00  0.00     0.148 A 
ATOM     90  C   UNL A   1      44.248  36.621  31.054  1.00  0.00     0.002 A 
ATOM     91  C   UNL A   1      43.819  36.136  28.741  1.00  0.00     0.091 A 
ATOM     92  F   UNL A   1      42.787  34.115  28.130  1.00  0.00    -0.205 F 
ATOM     93  C   UNL A   1      44.245  37.025  29.726  1.00  0.00     0.022 A 
BRANCH  91  94
ATOM     94  S   UNL A   1      44.080  36.575  27.014  1.00  0.00     0.127 S 
ATOM     95  O   UNL A   1      42.715  36.795  26.544  1.00  0.00    -0.237 OA
ATOM     96  O   UNL A   1      44.892  37.789  27.116  1.00  0.00    -0.237 OA
ATOM     97  O   UNL A   1      44.786  35.435  26.443  1.00  0.00    -0.744 OA
ENDBRANCH  91  94
ENDBRANCH  64  87
ENDBRANCH  38  39
ENDBRANCH  30  33
ENDBRANCH  28  29
ENDBRANCH   1  28
TORSDOF 16
ENDMDL
MODEL 2
REMARK VINA RESULT:     -13.5      3.889      9.563
REMARK SMILES Cc1ccc(S(=O)(=O)N2c3ccc(C(=O)NCCCCNC(=O)c4ccc(-c5c6nc(c(-c7cccc(S(=O)(=O)[O-])c7F)c7ccc([nH]7)c(-c7cccc(S(=O)(=O)[O-])c7F)c7nc(c(-c8cccc(S(=O)(=O)[O-])c8F)c8ccc5[nH]8)C=C7)C=C6)cc4)cc3C[C@H]2C)cc1
REMARK SMILES IDX 19 1 18 2 17 3 16 4 14 5 15 6 13 8 9 9 10 10 90 11 11 12
REMARK SMILES IDX 88 13 89 14 91 15 12 16 87 17 6 18 7 19 8 20 5 21 1 22 2 23
REMARK SMILES IDX 3 24 93 25 4 26 92 27 20 28 21 29 22 30 23 32 24 33 25 34
REMARK SMILES IDX 86 35 26 36 85 37 27 38 28 39 29 40 79 41 30 42 84 43 78 44
REMARK SMILES IDX 80 45 31 46 83 47 77 48 76 49 32 51 64 52 44 53 63 54 45 55
REMARK SMILES IDX 48 56 62 57 81 58 46 59 47 60 61 62 82 63 49 64 33 65 34 66
REMARK SMILES IDX 42 67 35 68 37 69 43 70 36 71 38 72 39 73 40 74 41 75 65 76
REMARK SMILES IDX 66 77 74 78 67 79 69 80 75 81 68 82 70 83 71 84 72 85 73 86
REMARK SMILES IDX 50 87 51 88 59 89 52 90 54 91 60 92 53 93 55 94 56 95 57 96
REMARK SMILES IDX 58 97
REMARK H PARENT 16 7 21 31 80 50 48 61
REMARK Flexibility Score: inf
ROOT
ATOM      1  C   UNL A   1      32.257  30.563  26.966  1.00  0.00     0.023 C 
ENDROOT
BRANCH   1   2
ATOM      2  C   UNL A   1      31.631  29.570  25.996  1.00  0.00     0.023 C 
BRANCH   2   3
ATOM      3  C   UNL A   1      32.289  29.475  24.621  1.00  0.00     0.116 C 
BRANCH   3   4
ATOM      4  N   UNL A   1      31.355  29.246  23.523  1.00  0.00    -0.352 N 
ATOM      5  C   UNL A   1      30.934  28.086  22.914  1.00  0.00     0.251 C 
ATOM      6  O   UNL A   1      30.197  28.150  21.932  1.00  0.00    -0.269 OA
ATOM      7  H   UNL A   1      30.956  30.067  23.153  1.00  0.00     0.163 HD
BRANCH   5   8
ATOM      8  C   UNL A   1      31.420  26.758  23.368  1.00  0.00     0.040 A 
ATOM      9  N   UNL A   1      33.460  23.297  24.624  1.00  0.00    -0.263 N 
ATOM     10  C   UNL A   1      32.643  24.451  24.305  1.00  0.00     0.055 A 
ATOM     11  C   UNL A   1      34.256  23.037  23.358  1.00  0.00     0.101 C 
ATOM     12  C   UNL A   1      31.782  25.135  25.141  1.00  0.00     0.028 A 
ATOM     13  C   UNL A   1      32.810  24.850  22.981  1.00  0.00    -0.021 A 
ATOM     14  C   UNL A   1      33.580  23.829  22.220  1.00  0.00     0.063 C 
ATOM     15  C   UNL A   1      35.687  23.554  23.572  1.00  0.00     0.032 C 
ATOM     16  C   UNL A   1      31.104  26.242  24.632  1.00  0.00     0.016 A 
ATOM     17  C   UNL A   1      32.228  26.013  22.498  1.00  0.00     0.019 A 
BRANCH   9  18
ATOM     18  S   UNL A   1      32.514  22.011  25.264  1.00  0.00     0.264 S 
ATOM     19  O   UNL A   1      31.139  22.245  24.878  1.00  0.00    -0.201 OA
ATOM     20  O   UNL A   1      32.882  21.847  26.661  1.00  0.00    -0.201 OA
BRANCH  18  21
ATOM     21  C   UNL A   1      32.972  20.463  24.510  1.00  0.00     0.088 A 
ATOM     22  C   UNL A   1      34.056  16.448  23.408  1.00  0.00     0.044 C 
ATOM     23  C   UNL A   1      33.707  17.867  23.737  1.00  0.00    -0.051 A 
ATOM     24  C   UNL A   1      34.537  18.608  24.581  1.00  0.00     0.005 A 
ATOM     25  C   UNL A   1      32.552  18.467  23.220  1.00  0.00     0.005 A 
ATOM     26  C   UNL A   1      34.171  19.897  24.968  1.00  0.00     0.022 A 
ATOM     27  C   UNL A   1      32.190  19.765  23.595  1.00  0.00     0.022 A 
ENDBRANCH  18  21
ENDBRANCH   9  18
ENDBRANCH   5   8
ENDBRANCH   3   4
ENDBRANCH   2   3
ENDBRANCH   1   2
BRANCH   1  28
ATOM     28  C   UNL A   1      33.714  30.286  27.285  1.00  0.00     0.116 C 
BRANCH  28  29
ATOM     29  N   UNL A   1      34.403  31.381  27.935  1.00  0.00    -0.352 N 
ATOM     30  C   UNL A   1      35.468  31.345  28.818  1.00  0.00     0.251 C 
ATOM     31  H   UNL A   1      34.065  32.281  27.717  1.00  0.00     0.163 HD
ATOM     32  O   UNL A   1      35.653  32.327  29.532  1.00  0.00    -0.269 OA
BRANCH  30  33
ATOM     33  C   UNL A   1      36.448  30.223  28.787  1.00  0.00     0.039 A 
ATOM     34  C   UNL A   1      36.712  29.552  29.992  1.00  0.00     0.014 A 
ATOM     35  C   UNL A   1      37.270  29.995  27.691  1.00  0.00     0.014 A 
ATOM     36  C   UNL A   1      37.921  28.881  30.169  1.00  0.00     0.010 A 
ATOM     37  C   UNL A   1      38.508  29.440  27.887  1.00  0.00     0.010 A 
ATOM     38  C   UNL A   1      38.852  28.939  29.143  1.00  0.00    -0.014 A 
BRANCH  38  39
ATOM     39  C   UNL A   1      40.229  28.497  29.220  1.00  0.00     0.031 A 
ATOM     40  C   UNL A   1      40.544  27.087  28.939  1.00  0.00     0.074 A 
ATOM     41  C   UNL A   1      41.177  29.460  29.201  1.00  0.00     0.049 A 
ATOM     42  N   UNL A   1      41.682  26.538  29.175  1.00  0.00    -0.248 NA
ATOM     43  C   UNL A   1      39.567  26.177  28.349  1.00  0.00     0.031 C 
ATOM     44  C   UNL A   1      42.561  29.338  28.768  1.00  0.00     0.029 A 
ATOM     45  N   UNL A   1      41.103  30.743  29.753  1.00  0.00    -0.354 N 
ATOM     46  C   UNL A   1      41.692  25.328  28.512  1.00  0.00     0.074 A 
ATOM     47  C   UNL A   1      40.332  25.116  28.082  1.00  0.00     0.031 C 
ATOM     48  C   UNL A   1      43.269  30.343  29.309  1.00  0.00     0.029 A 
ATOM     49  C   UNL A   1      42.388  31.020  30.248  1.00  0.00     0.049 A 
ATOM     50  H   UNL A   1      40.314  31.330  29.789  1.00  0.00     0.167 HD
ATOM     51  C   UNL A   1      42.887  24.727  28.251  1.00  0.00     0.034 A 
ATOM     52  C   UNL A   1      42.645  31.205  31.577  1.00  0.00     0.034 A 
ATOM     53  C   UNL A   1      43.992  25.530  28.788  1.00  0.00     0.049 A 
ATOM     54  C   UNL A   1      43.610  30.170  32.134  1.00  0.00     0.074 A 
ATOM     55  C   UNL A   1      44.824  26.481  28.215  1.00  0.00     0.029 A 
ATOM     56  N   UNL A   1      44.140  25.659  30.162  1.00  0.00    -0.354 N 
ATOM     57  N   UNL A   1      43.997  29.109  31.479  1.00  0.00    -0.248 NA
ATOM     58  C   UNL A   1      44.218  30.240  33.458  1.00  0.00     0.031 C 
ATOM     59  C   UNL A   1      45.402  27.246  29.264  1.00  0.00     0.029 A 
ATOM     60  C   UNL A   1      44.948  26.742  30.470  1.00  0.00     0.049 A 
ATOM     61  H   UNL A   1      43.727  25.061  30.827  1.00  0.00     0.167 HD
ATOM     62  C   UNL A   1      44.797  28.325  32.267  1.00  0.00     0.074 A 
ATOM     63  C   UNL A   1      44.954  29.113  33.479  1.00  0.00     0.031 C 
ATOM     64  C   UNL A   1      45.217  27.084  31.865  1.00  0.00     0.034 A 
BRANCH  51  65
ATOM     65  C   UNL A   1      43.077  23.624  27.227  1.00  0.00     0.023 A 
ATOM     66  C   UNL A   1      43.694  23.977  26.005  1.00  0.00     0.012 A 
ATOM     67  C   UNL A   1      42.656  22.280  27.344  1.00  0.00     0.148 A 
ATOM     68  C   UNL A   1      43.792  23.093  24.926  1.00  0.00     0.002 A 
ATOM     69  C   UNL A   1      42.691  21.414  26.244  1.00  0.00     0.091 A 
ATOM     70  F   UNL A   1      42.291  21.803  28.540  1.00  0.00    -0.205 F 
ATOM     71  C   UNL A   1      43.254  21.821  25.031  1.00  0.00     0.022 A 
BRANCH  69  72
ATOM     72  S   UNL A   1      41.935  19.778  26.273  1.00  0.00     0.127 S 
ATOM     73  O   UNL A   1      42.502  19.152  25.075  1.00  0.00    -0.237 OA
ATOM     74  O   UNL A   1      42.425  19.224  27.532  1.00  0.00    -0.237 OA
ATOM     75  O   UNL A   1      40.497  20.001  26.195  1.00  0.00    -0.744 OA
ENDBRANCH  69  72
ENDBRANCH  51  65
BRANCH  52  76
ATOM     76  C   UNL A   1      41.517  31.864  32.305  1.00  0.00     0.023 A 
ATOM     77  C   UNL A   1      41.198  33.181  31.891  1.00  0.00     0.012 A 
ATOM     78  C   UNL A   1      40.547  31.122  33.003  1.00  0.00     0.148 A 
ATOM     79  C   UNL A   1      39.903  33.684  32.020  1.00  0.00     0.002 A 
ATOM     80  C   UNL A   1      39.255  31.637  33.137  1.00  0.00     0.091 A 
ATOM     81  F   UNL A   1      40.868  29.897  33.438  1.00  0.00    -0.205 F 
ATOM     82  C   UNL A   1      38.922  32.895  32.607  1.00  0.00     0.022 A 
BRANCH  80  83
ATOM     83  S   UNL A   1      37.916  30.680  33.864  1.00  0.00     0.127 S 
ATOM     84  O   UNL A   1      37.993  31.086  35.264  1.00  0.00    -0.237 OA
ATOM     85  O   UNL A   1      36.746  31.180  33.145  1.00  0.00    -0.237 OA
ATOM     86  O   UNL A   1      38.246  29.291  33.577  1.00  0.00    -0.744 OA
ENDBRANCH  80  83
ENDBRANCH  52  76
BRANCH  64  87
ATOM     87  C   UNL A   1      45.908  26.044  32.731  1.00  0.00     0.023 A 
ATOM     88  C   UNL A   1      47.303  26.003  32.898  1.00  0.00     0.012 A 
ATOM     89  C   UNL A   1      45.144  25.169  33.553  1.00  0.00     0.148 A 
ATOM     90  C   UNL A   1      47.914  25.124  33.801  1.00  0.00     0.002 A 
ATOM     91  C   UNL A   1      45.748  24.393  34.537  1.00  0.00     0.091 A 
ATOM     92  F   UNL A   1      43.819  25.066  33.376  1.00  0.00    -0.205 F 
ATOM     93  C   UNL A   1      47.136  24.342  34.644  1.00  0.00     0.022 A 
BRANCH  91  94
ATOM     94  S   UNL A   1      44.757  23.591  35.808  1.00  0.00     0.127 S 
ATOM     95  O   UNL A   1      45.781  23.013  36.675  1.00  0.00    -0.237 OA
ATOM     96  O   UNL A   1      44.025  24.715  36.395  1.00  0.00    -0.237 OA
ATOM     97  O   UNL A   1      43.915  22.648  35.084  1.00  0.00    -0.744 OA
ENDBRANCH  91  94
ENDBRANCH  64  87
ENDBRANCH  38  39
ENDBRANCH  30  33
ENDBRANCH  28  29
ENDBRANCH   1  28
TORSDOF 16
ENDMDL
MODEL 3
REMARK VINA RESULT:     -13.2      1.756      2.427
REMARK SMILES Cc1ccc(S(=O)(=O)N2c3ccc(C(=O)NCCCCNC(=O)c4ccc(-c5c6nc(c(-c7cccc(S(=O)(=O)[O-])c7F)c7ccc([nH]7)c(-c7cccc(S(=O)(=O)[O-])c7F)c7nc(c(-c8cccc(S(=O)(=O)[O-])c8F)c8ccc5[nH]8)C=C7)C=C6)cc4)cc3C[C@H]2C)cc1
REMARK SMILES IDX 19 1 18 2 17 3 16 4 14 5 15 6 13 8 9 9 10 10 90 11 11 12
REMARK SMILES IDX 88 13 89 14 91 15 12 16 87 17 6 18 7 19 8 20 5 21 1 22 2 23
REMARK SMILES IDX 3 24 93 25 4 26 92 27 20 28 21 29 22 30 23 32 24 33 25 34
REMARK SMILES IDX 86 35 26 36 85 37 27 38 28 39 29 40 79 41 30 42 84 43 78 44
REMARK SMILES IDX 80 45 31 46 83 47 77 48 76 49 32 51 64 52 44 53 63 54 45 55
REMARK SMILES IDX 48 56 62 57 81 58 46 59 47 60 61 62 82 63 49 64 33 65 34 66
REMARK SMILES IDX 42 67 35 68 37 69 43 70 36 71 38 72 39 73 40 74 41 75 65 76
REMARK SMILES IDX 66 77 74 78 67 79 69 80 75 81 68 82 70 83 71 84 72 85 73 86
REMARK SMILES IDX 50 87 51 88 59 89 52 90 54 91 60 92 53 93 55 94 56 95 57 96
REMARK SMILES IDX 58 97
REMARK H PARENT 16 7 21 31 80 50 48 61
REMARK Flexibility Score: inf
ROOT
ATOM      1  C   UNL A   1      37.568  21.229  24.941  1.00  0.00     0.023 C 
ENDROOT
BRANCH   1   2
ATOM      2  C   UNL A   1      36.070  21.284  24.672  1.00  0.00     0.023 C 
BRANCH   2   3
ATOM      3  C   UNL A   1      35.165  21.078  25.885  1.00  0.00     0.116 C 
BRANCH   3   4
ATOM      4  N   UNL A   1      33.973  20.280  25.617  1.00  0.00    -0.352 N 
ATOM      5  C   UNL A   1      32.724  20.637  25.163  1.00  0.00     0.251 C 
ATOM      6  O   UNL A   1      31.837  19.787  25.099  1.00  0.00    -0.269 OA
ATOM      7  H   UNL A   1      34.083  19.317  25.791  1.00  0.00     0.163 HD
BRANCH   5   8
ATOM      8  C   UNL A   1      32.399  22.046  24.829  1.00  0.00     0.040 A 
ATOM      9  N   UNL A   1      31.828  26.205  24.501  1.00  0.00    -0.263 N 
ATOM     10  C   UNL A   1      32.054  24.773  24.452  1.00  0.00     0.055 A 
ATOM     11  C   UNL A   1      30.952  26.405  25.726  1.00  0.00     0.101 C 
ATOM     12  C   UNL A   1      32.846  24.073  23.562  1.00  0.00     0.028 A 
ATOM     13  C   UNL A   1      31.354  24.106  25.454  1.00  0.00    -0.021 A 
ATOM     14  C   UNL A   1      30.389  25.024  26.118  1.00  0.00     0.063 C 
ATOM     15  C   UNL A   1      31.829  26.951  26.862  1.00  0.00     0.032 C 
ATOM     16  C   UNL A   1      32.942  22.689  23.707  1.00  0.00     0.016 A 
ATOM     17  C   UNL A   1      31.530  22.748  25.676  1.00  0.00     0.019 A 
BRANCH   9  18
ATOM     18  S   UNL A   1      31.262  26.807  22.994  1.00  0.00     0.264 S 
ATOM     19  O   UNL A   1      30.552  25.734  22.332  1.00  0.00    -0.201 OA
ATOM     20  O   UNL A   1      32.375  27.482  22.344  1.00  0.00    -0.201 OA
BRANCH  18  21
ATOM     21  C   UNL A   1      30.060  28.099  23.247  1.00  0.00     0.088 A 
ATOM     22  C   UNL A   1      27.561  31.599  23.328  1.00  0.00     0.044 C 
ATOM     23  C   UNL A   1      28.411  30.366  23.359  1.00  0.00    -0.051 A 
ATOM     24  C   UNL A   1      29.757  30.461  23.721  1.00  0.00     0.005 A 
ATOM     25  C   UNL A   1      27.883  29.114  23.023  1.00  0.00     0.005 A 
ATOM     26  C   UNL A   1      30.578  29.335  23.662  1.00  0.00     0.022 A 
ATOM     27  C   UNL A   1      28.701  27.980  22.979  1.00  0.00     0.022 A 
ENDBRANCH  18  21
ENDBRANCH   9  18
ENDBRANCH   5   8
ENDBRANCH   3   4
ENDBRANCH   2   3
ENDBRANCH   1   2
BRANCH   1  28
ATOM     28  C   UNL A   1      38.097  22.398  25.750  1.00  0.00     0.116 C 
BRANCH  28  29
ATOM     29  N   UNL A   1      39.414  22.187  26.315  1.00  0.00    -0.352 N 
ATOM     30  C   UNL A   1      40.393  23.115  26.622  1.00  0.00     0.251 C 
ATOM     31  H   UNL A   1      39.644  21.249  26.508  1.00  0.00     0.163 HD
ATOM     32  O   UNL A   1      41.549  22.713  26.731  1.00  0.00    -0.269 OA
BRANCH  30  33
ATOM     33  C   UNL A   1      40.034  24.519  26.967  1.00  0.00     0.039 A 
ATOM     34  C   UNL A   1      40.657  25.550  26.246  1.00  0.00     0.014 A 
ATOM     35  C   UNL A   1      39.316  24.834  28.114  1.00  0.00     0.014 A 
ATOM     36  C   UNL A   1      40.782  26.821  26.807  1.00  0.00     0.010 A 
ATOM     37  C   UNL A   1      39.531  26.042  28.727  1.00  0.00     0.010 A 
ATOM     38  C   UNL A   1      40.313  27.010  28.098  1.00  0.00    -0.014 A 
BRANCH  38  39
ATOM     39  C   UNL A   1      40.542  28.178  28.923  1.00  0.00     0.031 A 
ATOM     40  C   UNL A   1      39.605  29.309  28.835  1.00  0.00     0.074 A 
ATOM     41  C   UNL A   1      41.389  28.028  29.965  1.00  0.00     0.049 A 
ATOM     42  N   UNL A   1      39.816  30.466  29.354  1.00  0.00    -0.248 NA
ATOM     43  C   UNL A   1      38.326  29.204  28.140  1.00  0.00     0.031 C 
ATOM     44  C   UNL A   1      41.426  28.799  31.199  1.00  0.00     0.029 A 
ATOM     45  N   UNL A   1      42.530  27.222  30.031  1.00  0.00    -0.354 N 
ATOM     46  C   UNL A   1      38.615  31.145  29.330  1.00  0.00     0.074 A 
ATOM     47  C   UNL A   1      37.743  30.351  28.498  1.00  0.00     0.031 C 
ATOM     48  C   UNL A   1      42.640  28.658  31.755  1.00  0.00     0.029 A 
ATOM     49  C   UNL A   1      43.464  27.944  30.791  1.00  0.00     0.049 A 
ATOM     50  H   UNL A   1      42.654  26.333  29.627  1.00  0.00     0.167 HD
ATOM     51  C   UNL A   1      38.441  32.211  30.160  1.00  0.00     0.034 A 
ATOM     52  C   UNL A   1      44.647  28.395  30.277  1.00  0.00     0.034 A 
ATOM     53  C   UNL A   1      39.659  32.454  30.944  1.00  0.00     0.049 A 
ATOM     54  C   UNL A   1      44.758  29.911  30.315  1.00  0.00     0.074 A 
ATOM     55  C   UNL A   1      40.047  32.062  32.216  1.00  0.00     0.029 A 
ATOM     56  N   UNL A   1      40.808  32.896  30.303  1.00  0.00    -0.354 N 
ATOM     57  N   UNL A   1      43.769  30.707  30.618  1.00  0.00    -0.248 NA
ATOM     58  C   UNL A   1      45.980  30.654  30.025  1.00  0.00     0.031 C 
ATOM     59  C   UNL A   1      41.460  32.187  32.301  1.00  0.00     0.029 A 
ATOM     60  C   UNL A   1      41.925  32.681  31.095  1.00  0.00     0.049 A 
ATOM     61  H   UNL A   1      40.826  33.307  29.408  1.00  0.00     0.167 HD
ATOM     62  C   UNL A   1      44.148  32.016  30.486  1.00  0.00     0.074 A 
ATOM     63  C   UNL A   1      45.566  31.927  30.171  1.00  0.00     0.031 C 
ATOM     64  C   UNL A   1      43.252  33.046  30.605  1.00  0.00     0.034 A 
BRANCH  51  65
ATOM     65  C   UNL A   1      37.088  32.799  30.515  1.00  0.00     0.023 A 
ATOM     66  C   UNL A   1      36.584  32.526  31.807  1.00  0.00     0.012 A 
ATOM     67  C   UNL A   1      36.249  33.558  29.669  1.00  0.00     0.148 A 
ATOM     68  C   UNL A   1      35.291  32.882  32.203  1.00  0.00     0.002 A 
ATOM     69  C   UNL A   1      34.931  33.856  30.038  1.00  0.00     0.091 A 
ATOM     70  F   UNL A   1      36.740  34.067  28.533  1.00  0.00    -0.205 F 
ATOM     71  C   UNL A   1      34.448  33.514  31.305  1.00  0.00     0.022 A 
BRANCH  69  72
ATOM     72  S   UNL A   1      33.747  34.596  28.898  1.00  0.00     0.127 S 
ATOM     73  O   UNL A   1      32.559  34.754  29.742  1.00  0.00    -0.237 OA
ATOM     74  O   UNL A   1      34.399  35.851  28.532  1.00  0.00    -0.237 OA
ATOM     75  O   UNL A   1      33.577  33.631  27.818  1.00  0.00    -0.744 OA
ENDBRANCH  69  72
ENDBRANCH  51  65
BRANCH  52  76
ATOM     76  C   UNL A   1      45.224  27.479  29.246  1.00  0.00     0.023 A 
ATOM     77  C   UNL A   1      45.563  26.178  29.695  1.00  0.00     0.012 A 
ATOM     78  C   UNL A   1      45.028  27.688  27.869  1.00  0.00     0.148 A 
ATOM     79  C   UNL A   1      45.545  25.087  28.824  1.00  0.00     0.002 A 
ATOM     80  C   UNL A   1      45.021  26.592  27.003  1.00  0.00     0.091 A 
ATOM     81  F   UNL A   1      44.758  28.928  27.442  1.00  0.00    -0.205 F 
ATOM     82  C   UNL A   1      45.234  25.290  27.486  1.00  0.00     0.022 A 
BRANCH  80  83
ATOM     83  S   UNL A   1      44.609  26.755  25.259  1.00  0.00     0.127 S 
ATOM     84  O   UNL A   1      44.021  25.450  24.975  1.00  0.00    -0.237 OA
ATOM     85  O   UNL A   1      43.660  27.867  25.262  1.00  0.00    -0.237 OA
ATOM     86  O   UNL A   1      45.872  27.050  24.599  1.00  0.00    -0.744 OA
ENDBRANCH  80  83
ENDBRANCH  52  76
BRANCH  64  87
ATOM     87  C   UNL A   1      43.507  34.504  30.260  1.00  0.00     0.023 A 
ATOM     88  C   UNL A   1      43.154  35.061  29.018  1.00  0.00     0.012 A 
ATOM     89  C   UNL A   1      43.957  35.412  31.259  1.00  0.00     0.148 A 
ATOM     90  C   UNL A   1      43.273  36.433  28.763  1.00  0.00     0.002 A 
ATOM     91  C   UNL A   1      43.951  36.786  31.041  1.00  0.00     0.091 A 
ATOM     92  F   UNL A   1      44.418  34.949  32.430  1.00  0.00    -0.205 F 
ATOM     93  C   UNL A   1      43.640  37.300  29.783  1.00  0.00     0.022 A 
BRANCH  91  94
ATOM     94  S   UNL A   1      44.154  37.933  32.413  1.00  0.00     0.127 S 
ATOM     95  O   UNL A   1      45.592  37.860  32.663  1.00  0.00    -0.237 OA
ATOM     96  O   UNL A   1      43.700  39.199  31.837  1.00  0.00    -0.237 OA
ATOM     97  O   UNL A   1      43.288  37.413  33.463  1.00  0.00    -0.744 OA
ENDBRANCH  91  94
ENDBRANCH  64  87
ENDBRANCH  38  39
ENDBRANCH  30  33
ENDBRANCH  28  29
ENDBRANCH   1  28
TORSDOF 16
ENDMDL
