MODEL 1
REMARK VINA RESULT:     -12.4      0.000      0.000
REMARK SMILES C[C@@H]1CN(S(=O)(=O)c2ccc(Cl)c(C(=O)NCCCCNC(=O)c3ccc(-c4c5nc(c(-c6cccc(S(=O)(=O)[O-])c6F)c6ccc([nH]6)c(-c6cccc(S(=O)(=O)[O-])c6F)c6nc(c(-c7cccc(S(=O)(=O)[O-])c7F)c7ccc4[nH]7)C=C6)C=C5)cc3)c2Cl)C[C@H]1C
REMARK SMILES IDX 19 1 18 2 17 3 16 4 14 5 15 6 13 8 8 9 9 10 87 11 10 12
REMARK SMILES IDX 88 13 11 14 12 15 5 16 6 17 7 18 4 19 1 20 2 21 3 22 90 23
REMARK SMILES IDX 89 24 91 25 20 26 21 27 22 28 23 30 24 31 25 32 86 33 26 34
REMARK SMILES IDX 85 35 27 36 28 37 29 38 79 39 30 40 84 41 78 42 80 43 31 44
REMARK SMILES IDX 83 45 77 46 76 47 32 49 64 50 44 51 63 52 45 53 48 54 62 55
REMARK SMILES IDX 81 56 46 57 47 58 61 60 82 61 49 62 33 63 34 64 42 65 35 66
REMARK SMILES IDX 37 67 43 68 36 69 38 70 39 71 40 72 41 73 65 74 66 75 74 76
REMARK SMILES IDX 67 77 69 78 75 79 68 80 70 81 71 82 72 83 73 84 50 85 51 86
REMARK SMILES IDX 59 87 52 88 54 89 60 90 53 91 55 92 56 93 57 94 58 95
REMARK H PARENT 16 7 21 29 80 48 48 59
REMARK Flexibility Score: inf
ROOT
ATOM      1  C   UNL A   1      31.512  31.965  26.501  1.00  0.00     0.023 C 
ENDROOT
BRANCH   1   2
ATOM      2  C   UNL A   1      31.540  30.445  26.419  1.00  0.00     0.023 C 
BRANCH   2   3
ATOM      3  C   UNL A   1      32.903  29.782  26.166  1.00  0.00     0.116 C 
BRANCH   3   4
ATOM      4  N   UNL A   1      33.179  29.794  24.744  1.00  0.00    -0.352 N 
ATOM      5  C   UNL A   1      32.885  28.917  23.733  1.00  0.00     0.254 C 
ATOM      6  O   UNL A   1      33.626  28.957  22.747  1.00  0.00    -0.269 OA
ATOM      7  H   UNL A   1      33.675  30.591  24.445  1.00  0.00     0.163 HD
BRANCH   5   8
ATOM      8  C   UNL A   1      31.739  27.960  23.675  1.00  0.00     0.078 A 
ATOM      9  C   UNL A   1      30.783  26.000  24.814  1.00  0.00     0.102 A 
ATOM     10  C   UNL A   1      29.514  26.374  24.364  1.00  0.00     0.025 A 
ATOM     11  C   UNL A   1      31.907  26.745  24.416  1.00  0.00     0.075 A 
ATOM     12  C   UNL A   1      29.360  27.453  23.519  1.00  0.00     0.023 A 
ATOM     13  Cl  UNL A   1      33.510  26.125  24.698  1.00  0.00    -0.082 Cl
ATOM     14  C   UNL A   1      30.444  28.285  23.232  1.00  0.00     0.055 A 
ATOM     15  Cl  UNL A   1      29.929  29.720  22.450  1.00  0.00    -0.083 Cl
BRANCH   9  16
ATOM     16  S   UNL A   1      30.787  24.772  26.107  1.00  0.00     0.244 S 
ATOM     17  O   UNL A   1      29.436  24.727  26.638  1.00  0.00    -0.207 OA
ATOM     18  O   UNL A   1      31.893  24.987  27.012  1.00  0.00    -0.207 OA
BRANCH  16  19
ATOM     19  N   UNL A   1      31.036  23.279  25.317  1.00  0.00    -0.197 NA
ATOM     20  C   UNL A   1      34.120  21.260  24.633  1.00  0.00     0.009 C 
ATOM     21  C   UNL A   1      33.167  22.444  24.583  1.00  0.00     0.005 C 
ATOM     22  C   UNL A   1      32.189  22.443  25.750  1.00  0.00     0.106 C 
ATOM     23  C   UNL A   1      32.226  22.450  23.383  1.00  0.00     0.005 C 
ATOM     24  C   UNL A   1      31.143  23.439  23.826  1.00  0.00     0.106 C 
ATOM     25  C   UNL A   1      32.911  22.866  22.089  1.00  0.00     0.009 C 
ENDBRANCH  16  19
ENDBRANCH   9  16
ENDBRANCH   5   8
ENDBRANCH   3   4
ENDBRANCH   2   3
ENDBRANCH   1   2
BRANCH   1  26
ATOM     26  C   UNL A   1      32.732  32.584  27.158  1.00  0.00     0.116 C 
BRANCH  26  27
ATOM     27  N   UNL A   1      32.522  33.947  27.627  1.00  0.00    -0.352 N 
ATOM     28  C   UNL A   1      33.203  34.631  28.603  1.00  0.00     0.251 C 
ATOM     29  H   UNL A   1      31.797  34.444  27.184  1.00  0.00     0.163 HD
ATOM     30  O   UNL A   1      32.850  35.762  28.924  1.00  0.00    -0.269 OA
BRANCH  28  31
ATOM     31  C   UNL A   1      34.332  33.975  29.292  1.00  0.00     0.039 A 
ATOM     32  C   UNL A   1      35.635  34.343  28.949  1.00  0.00     0.014 A 
ATOM     33  C   UNL A   1      34.106  33.027  30.293  1.00  0.00     0.014 A 
ATOM     34  C   UNL A   1      36.711  33.790  29.644  1.00  0.00     0.010 A 
ATOM     35  C   UNL A   1      35.169  32.550  31.046  1.00  0.00     0.010 A 
ATOM     36  C   UNL A   1      36.483  32.904  30.710  1.00  0.00    -0.014 A 
BRANCH  36  37
ATOM     37  C   UNL A   1      37.607  32.292  31.454  1.00  0.00     0.031 A 
ATOM     38  C   UNL A   1      38.392  31.173  30.822  1.00  0.00     0.074 A 
ATOM     39  C   UNL A   1      37.870  32.685  32.714  1.00  0.00     0.049 A 
ATOM     40  N   UNL A   1      39.390  30.489  31.312  1.00  0.00    -0.248 NA
ATOM     41  C   UNL A   1      37.977  30.743  29.475  1.00  0.00     0.031 C 
ATOM     42  C   UNL A   1      37.112  33.688  33.466  1.00  0.00     0.029 A 
ATOM     43  N   UNL A   1      38.837  32.272  33.593  1.00  0.00    -0.354 N 
ATOM     44  C   UNL A   1      39.694  29.526  30.357  1.00  0.00     0.074 A 
ATOM     45  C   UNL A   1      38.745  29.682  29.278  1.00  0.00     0.031 C 
ATOM     46  C   UNL A   1      37.653  33.822  34.688  1.00  0.00     0.029 A 
ATOM     47  C   UNL A   1      38.784  32.908  34.811  1.00  0.00     0.049 A 
ATOM     48  H   UNL A   1      39.506  31.584  33.374  1.00  0.00     0.167 HD
ATOM     49  C   UNL A   1      40.699  28.621  30.355  1.00  0.00     0.034 A 
ATOM     50  C   UNL A   1      39.573  32.778  35.895  1.00  0.00     0.034 A 
ATOM     51  C   UNL A   1      41.682  28.522  31.397  1.00  0.00     0.049 A 
ATOM     52  C   UNL A   1      40.747  31.837  35.826  1.00  0.00     0.074 A 
ATOM     53  C   UNL A   1      42.797  27.705  31.457  1.00  0.00     0.029 A 
ATOM     54  N   UNL A   1      41.675  29.277  32.560  1.00  0.00    -0.354 N 
ATOM     55  N   UNL A   1      41.120  31.053  34.844  1.00  0.00    -0.248 NA
ATOM     56  C   UNL A   1      41.639  31.802  36.994  1.00  0.00     0.031 C 
ATOM     57  C   UNL A   1      43.463  27.968  32.659  1.00  0.00     0.029 A 
ATOM     58  C   UNL A   1      42.770  28.956  33.340  1.00  0.00     0.049 A 
ATOM     59  H   UNL A   1      40.990  29.945  32.794  1.00  0.00     0.167 HD
ATOM     60  C   UNL A   1      42.309  30.465  35.254  1.00  0.00     0.074 A 
ATOM     61  C   UNL A   1      42.604  30.998  36.569  1.00  0.00     0.031 C 
ATOM     62  C   UNL A   1      43.082  29.553  34.612  1.00  0.00     0.034 A 
BRANCH  49  63
ATOM     63  C   UNL A   1      40.830  27.727  29.151  1.00  0.00     0.023 A 
ATOM     64  C   UNL A   1      40.102  26.519  29.106  1.00  0.00     0.012 A 
ATOM     65  C   UNL A   1      41.636  28.088  28.055  1.00  0.00     0.148 A 
ATOM     66  C   UNL A   1      40.203  25.667  28.007  1.00  0.00     0.002 A 
ATOM     67  C   UNL A   1      41.698  27.254  26.943  1.00  0.00     0.091 A 
ATOM     68  F   UNL A   1      42.342  29.226  28.126  1.00  0.00    -0.205 F 
ATOM     69  C   UNL A   1      40.992  26.039  26.923  1.00  0.00     0.022 A 
BRANCH  67  70
ATOM     70  S   UNL A   1      42.627  27.681  25.466  1.00  0.00     0.127 S 
ATOM     71  O   UNL A   1      42.418  26.497  24.634  1.00  0.00    -0.237 OA
ATOM     72  O   UNL A   1      41.933  28.882  25.001  1.00  0.00    -0.237 OA
ATOM     73  O   UNL A   1      43.996  27.906  25.907  1.00  0.00    -0.744 OA
ENDBRANCH  67  70
ENDBRANCH  49  63
BRANCH  50  74
ATOM     74  C   UNL A   1      39.348  33.642  37.087  1.00  0.00     0.023 A 
ATOM     75  C   UNL A   1      39.778  34.983  37.053  1.00  0.00     0.012 A 
ATOM     76  C   UNL A   1      38.687  33.163  38.234  1.00  0.00     0.148 A 
ATOM     77  C   UNL A   1      39.585  35.822  38.151  1.00  0.00     0.002 A 
ATOM     78  C   UNL A   1      38.454  34.019  39.306  1.00  0.00     0.091 A 
ATOM     79  F   UNL A   1      38.295  31.881  38.254  1.00  0.00    -0.205 F 
ATOM     80  C   UNL A   1      38.916  35.343  39.273  1.00  0.00     0.022 A 
BRANCH  78  81
ATOM     81  S   UNL A   1      37.488  33.520  40.737  1.00  0.00     0.127 S 
ATOM     82  O   UNL A   1      37.394  34.771  41.485  1.00  0.00    -0.237 OA
ATOM     83  O   UNL A   1      36.237  33.074  40.122  1.00  0.00    -0.237 OA
ATOM     84  O   UNL A   1      38.255  32.456  41.369  1.00  0.00    -0.744 OA
ENDBRANCH  78  81
ENDBRANCH  50  74
BRANCH  62  85
ATOM     85  C   UNL A   1      44.345  29.105  35.294  1.00  0.00     0.023 A 
ATOM     86  C   UNL A   1      45.558  29.764  35.020  1.00  0.00     0.012 A 
ATOM     87  C   UNL A   1      44.313  28.087  36.267  1.00  0.00     0.148 A 
ATOM     88  C   UNL A   1      46.728  29.397  35.682  1.00  0.00     0.002 A 
ATOM     89  C   UNL A   1      45.473  27.757  36.956  1.00  0.00     0.091 A 
ATOM     90  F   UNL A   1      43.152  27.456  36.498  1.00  0.00    -0.205 F 
ATOM     91  C   UNL A   1      46.683  28.403  36.658  1.00  0.00     0.022 A 
BRANCH  89  92
ATOM     92  S   UNL A   1      45.475  26.557  38.293  1.00  0.00     0.127 S 
ATOM     93  O   UNL A   1      45.078  25.335  37.599  1.00  0.00    -0.237 OA
ATOM     94  O   UNL A   1      46.869  26.581  38.738  1.00  0.00    -0.237 OA
ATOM     95  O   UNL A   1      44.526  27.064  39.277  1.00  0.00    -0.744 OA
ENDBRANCH  89  92
ENDBRANCH  62  85
ENDBRANCH  36  37
ENDBRANCH  28  31
ENDBRANCH  26  27
ENDBRANCH   1  26
TORSDOF 16
ENDMDL
MODEL 2
REMARK VINA RESULT:     -12.2      6.276     11.624
REMARK SMILES C[C@@H]1CN(S(=O)(=O)c2ccc(Cl)c(C(=O)NCCCCNC(=O)c3ccc(-c4c5nc(c(-c6cccc(S(=O)(=O)[O-])c6F)c6ccc([nH]6)c(-c6cccc(S(=O)(=O)[O-])c6F)c6nc(c(-c7cccc(S(=O)(=O)[O-])c7F)c7ccc4[nH]7)C=C6)C=C5)cc3)c2Cl)C[C@H]1C
REMARK SMILES IDX 19 1 18 2 17 3 16 4 14 5 15 6 13 8 8 9 9 10 87 11 10 12
REMARK SMILES IDX 88 13 11 14 12 15 5 16 6 17 7 18 4 19 1 20 2 21 3 22 90 23
REMARK SMILES IDX 89 24 91 25 20 26 21 27 22 28 23 30 24 31 25 32 86 33 26 34
REMARK SMILES IDX 85 35 27 36 28 37 29 38 79 39 30 40 84 41 78 42 80 43 31 44
REMARK SMILES IDX 83 45 77 46 76 47 32 49 64 50 44 51 63 52 45 53 48 54 62 55
REMARK SMILES IDX 81 56 46 57 47 58 61 60 82 61 49 62 33 63 34 64 42 65 35 66
REMARK SMILES IDX 37 67 43 68 36 69 38 70 39 71 40 72 41 73 65 74 66 75 74 76
REMARK SMILES IDX 67 77 69 78 75 79 68 80 70 81 71 82 72 83 73 84 50 85 51 86
REMARK SMILES IDX 59 87 52 88 54 89 60 90 53 91 55 92 56 93 57 94 58 95
REMARK H PARENT 16 7 21 29 80 48 48 59
REMARK Flexibility Score: inf
ROOT
ATOM      1  C   UNL A   1      37.903  19.843  24.977  1.00  0.00     0.023 C 
ENDROOT
BRANCH   1   2
ATOM      2  C   UNL A   1      36.988  21.001  24.603  1.00  0.00     0.023 C 
BRANCH   2   3
ATOM      3  C   UNL A   1      36.628  21.998  25.716  1.00  0.00     0.116 C 
BRANCH   3   4
ATOM      4  N   UNL A   1      35.542  21.455  26.505  1.00  0.00    -0.352 N 
ATOM      5  C   UNL A   1      34.184  21.629  26.462  1.00  0.00     0.254 C 
ATOM      6  O   UNL A   1      33.575  21.418  27.514  1.00  0.00    -0.269 OA
ATOM      7  H   UNL A   1      35.839  20.837  27.213  1.00  0.00     0.163 HD
BRANCH   5   8
ATOM      8  C   UNL A   1      33.360  21.996  25.270  1.00  0.00     0.078 A 
ATOM      9  C   UNL A   1      32.885  23.856  23.732  1.00  0.00     0.102 A 
ATOM     10  C   UNL A   1      32.548  22.932  22.739  1.00  0.00     0.025 A 
ATOM     11  C   UNL A   1      33.222  23.400  25.018  1.00  0.00     0.075 A 
ATOM     12  C   UNL A   1      32.525  21.582  23.018  1.00  0.00     0.023 A 
ATOM     13  Cl  UNL A   1      33.337  24.525  26.342  1.00  0.00    -0.082 Cl
ATOM     14  C   UNL A   1      32.994  21.106  24.244  1.00  0.00     0.055 A 
ATOM     15  Cl  UNL A   1      33.175  19.402  24.215  1.00  0.00    -0.083 Cl
BRANCH   9  16
ATOM     16  S   UNL A   1      33.140  25.523  23.149  1.00  0.00     0.244 S 
ATOM     17  O   UNL A   1      33.279  25.438  21.706  1.00  0.00    -0.207 OA
ATOM     18  O   UNL A   1      34.170  26.181  23.919  1.00  0.00    -0.207 OA
BRANCH  16  19
ATOM     19  N   UNL A   1      31.666  26.336  23.437  1.00  0.00    -0.197 NA
ATOM     20  C   UNL A   1      30.214  29.506  22.063  1.00  0.00     0.009 C 
ATOM     21  C   UNL A   1      31.192  28.603  22.796  1.00  0.00     0.005 C 
ATOM     22  C   UNL A   1      31.094  27.155  22.334  1.00  0.00     0.106 C 
ATOM     23  C   UNL A   1      30.935  28.474  24.294  1.00  0.00     0.005 C 
ATOM     24  C   UNL A   1      31.734  27.217  24.652  1.00  0.00     0.106 C 
ATOM     25  C   UNL A   1      31.377  29.698  25.084  1.00  0.00     0.009 C 
ENDBRANCH  16  19
ENDBRANCH   9  16
ENDBRANCH   5   8
ENDBRANCH   3   4
ENDBRANCH   2   3
ENDBRANCH   1   2
BRANCH   1  26
ATOM     26  C   UNL A   1      39.042  20.214  25.909  1.00  0.00     0.116 C 
BRANCH  26  27
ATOM     27  N   UNL A   1      40.107  19.222  25.964  1.00  0.00    -0.352 N 
ATOM     28  C   UNL A   1      41.450  19.419  26.171  1.00  0.00     0.251 C 
ATOM     29  H   UNL A   1      39.827  18.288  25.836  1.00  0.00     0.163 HD
ATOM     30  O   UNL A   1      42.227  18.470  26.120  1.00  0.00    -0.269 OA
BRANCH  28  31
ATOM     31  C   UNL A   1      41.952  20.787  26.410  1.00  0.00     0.039 A 
ATOM     32  C   UNL A   1      42.288  21.582  25.312  1.00  0.00     0.014 A 
ATOM     33  C   UNL A   1      42.058  21.293  27.707  1.00  0.00     0.014 A 
ATOM     34  C   UNL A   1      42.689  22.902  25.517  1.00  0.00     0.010 A 
ATOM     35  C   UNL A   1      42.365  22.632  27.904  1.00  0.00     0.010 A 
ATOM     36  C   UNL A   1      42.711  23.441  26.814  1.00  0.00    -0.014 A 
BRANCH  36  37
ATOM     37  C   UNL A   1      43.148  24.834  27.060  1.00  0.00     0.031 A 
ATOM     38  C   UNL A   1      42.218  25.790  27.757  1.00  0.00     0.074 A 
ATOM     39  C   UNL A   1      44.339  25.255  26.593  1.00  0.00     0.049 A 
ATOM     40  N   UNL A   1      42.398  27.052  28.044  1.00  0.00    -0.248 NA
ATOM     41  C   UNL A   1      40.896  25.270  28.152  1.00  0.00     0.031 C 
ATOM     42  C   UNL A   1      45.280  24.445  25.816  1.00  0.00     0.029 A 
ATOM     43  N   UNL A   1      44.951  26.477  26.689  1.00  0.00    -0.354 N 
ATOM     44  C   UNL A   1      41.205  27.484  28.612  1.00  0.00     0.074 A 
ATOM     45  C   UNL A   1      40.291  26.365  28.587  1.00  0.00     0.031 C 
ATOM     46  C   UNL A   1      46.357  25.190  25.517  1.00  0.00     0.029 A 
ATOM     47  C   UNL A   1      46.178  26.529  26.070  1.00  0.00     0.049 A 
ATOM     48  H   UNL A   1      44.551  27.246  27.156  1.00  0.00     0.167 HD
ATOM     49  C   UNL A   1      40.910  28.691  29.147  1.00  0.00     0.034 A 
ATOM     50  C   UNL A   1      47.064  27.540  25.977  1.00  0.00     0.034 A 
ATOM     51  C   UNL A   1      41.848  29.774  29.234  1.00  0.00     0.049 A 
ATOM     52  C   UNL A   1      46.752  28.840  26.671  1.00  0.00     0.074 A 
ATOM     53  C   UNL A   1      41.688  31.009  29.836  1.00  0.00     0.029 A 
ATOM     54  N   UNL A   1      43.132  29.746  28.712  1.00  0.00    -0.354 N 
ATOM     55  N   UNL A   1      45.683  29.176  27.352  1.00  0.00    -0.248 NA
ATOM     56  C   UNL A   1      47.789  29.880  26.629  1.00  0.00     0.031 C 
ATOM     57  C   UNL A   1      42.878  31.727  29.677  1.00  0.00     0.029 A 
ATOM     58  C   UNL A   1      43.781  30.935  28.987  1.00  0.00     0.049 A 
ATOM     59  H   UNL A   1      43.525  28.989  28.219  1.00  0.00     0.167 HD
ATOM     60  C   UNL A   1      45.935  30.446  27.856  1.00  0.00     0.074 A 
ATOM     61  C   UNL A   1      47.266  30.812  27.416  1.00  0.00     0.031 C 
ATOM     62  C   UNL A   1      45.133  31.247  28.601  1.00  0.00     0.034 A 
BRANCH  49  63
ATOM     63  C   UNL A   1      39.542  28.869  29.752  1.00  0.00     0.023 A 
ATOM     64  C   UNL A   1      39.293  28.378  31.051  1.00  0.00     0.012 A 
ATOM     65  C   UNL A   1      38.519  29.545  29.060  1.00  0.00     0.148 A 
ATOM     66  C   UNL A   1      38.037  28.523  31.638  1.00  0.00     0.002 A 
ATOM     67  C   UNL A   1      37.281  29.724  29.670  1.00  0.00     0.091 A 
ATOM     68  F   UNL A   1      38.765  29.980  27.817  1.00  0.00    -0.205 F 
ATOM     69  C   UNL A   1      37.036  29.205  30.952  1.00  0.00     0.022 A 
BRANCH  67  70
ATOM     70  S   UNL A   1      35.952  30.653  28.900  1.00  0.00     0.127 S 
ATOM     71  O   UNL A   1      35.234  31.166  30.067  1.00  0.00    -0.237 OA
ATOM     72  O   UNL A   1      36.683  31.668  28.140  1.00  0.00    -0.237 OA
ATOM     73  O   UNL A   1      35.218  29.697  28.082  1.00  0.00    -0.744 OA
ENDBRANCH  67  70
ENDBRANCH  49  63
BRANCH  50  74
ATOM     74  C   UNL A   1      48.372  27.324  25.301  1.00  0.00     0.023 A 
ATOM     75  C   UNL A   1      49.473  26.881  26.062  1.00  0.00     0.012 A 
ATOM     76  C   UNL A   1      48.531  27.517  23.915  1.00  0.00     0.148 A 
ATOM     77  C   UNL A   1      50.715  26.669  25.462  1.00  0.00     0.002 A 
ATOM     78  C   UNL A   1      49.758  27.255  23.316  1.00  0.00     0.091 A 
ATOM     79  F   UNL A   1      47.476  27.949  23.209  1.00  0.00    -0.205 F 
ATOM     80  C   UNL A   1      50.855  26.847  24.090  1.00  0.00     0.022 A 
BRANCH  78  81
ATOM     81  S   UNL A   1      49.992  27.336  21.536  1.00  0.00     0.127 S 
ATOM     82  O   UNL A   1      49.848  28.767  21.280  1.00  0.00    -0.237 OA
ATOM     83  O   UNL A   1      51.352  26.816  21.382  1.00  0.00    -0.237 OA
ATOM     84  O   UNL A   1      48.959  26.480  20.970  1.00  0.00    -0.744 OA
ENDBRANCH  78  81
ENDBRANCH  50  74
BRANCH  62  85
ATOM     85  C   UNL A   1      45.683  32.579  29.031  1.00  0.00     0.023 A 
ATOM     86  C   UNL A   1      46.410  32.679  30.233  1.00  0.00     0.012 A 
ATOM     87  C   UNL A   1      45.551  33.711  28.204  1.00  0.00     0.148 A 
ATOM     88  C   UNL A   1      46.972  33.895  30.620  1.00  0.00     0.002 A 
ATOM     89  C   UNL A   1      46.153  34.907  28.572  1.00  0.00     0.091 A 
ATOM     90  F   UNL A   1      44.837  33.600  27.074  1.00  0.00    -0.205 F 
ATOM     91  C   UNL A   1      46.855  35.004  29.785  1.00  0.00     0.022 A 
BRANCH  89  92
ATOM     92  S   UNL A   1      46.129  36.352  27.505  1.00  0.00     0.127 S 
ATOM     93  O   UNL A   1      46.748  35.836  26.288  1.00  0.00    -0.237 OA
ATOM     94  O   UNL A   1      44.698  36.636  27.389  1.00  0.00    -0.237 OA
ATOM     95  O   UNL A   1      46.885  37.377  28.215  1.00  0.00    -0.744 OA
ENDBRANCH  89  92
ENDBRANCH  62  85
ENDBRANCH  36  37
ENDBRANCH  28  31
ENDBRANCH  26  27
ENDBRANCH   1  26
TORSDOF 16
ENDMDL
MODEL 3
REMARK VINA RESULT:     -12.2      2.806      8.119
REMARK SMILES C[C@@H]1CN(S(=O)(=O)c2ccc(Cl)c(C(=O)NCCCCNC(=O)c3ccc(-c4c5nc(c(-c6cccc(S(=O)(=O)[O-])c6F)c6ccc([nH]6)c(-c6cccc(S(=O)(=O)[O-])c6F)c6nc(c(-c7cccc(S(=O)(=O)[O-])c7F)c7ccc4[nH]7)C=C6)C=C5)cc3)c2Cl)C[C@H]1C
REMARK SMILES IDX 19 1 18 2 17 3 16 4 14 5 15 6 13 8 8 9 9 10 87 11 10 12
REMARK SMILES IDX 88 13 11 14 12 15 5 16 6 17 7 18 4 19 1 20 2 21 3 22 90 23
REMARK SMILES IDX 89 24 91 25 20 26 21 27 22 28 23 30 24 31 25 32 86 33 26 34
REMARK SMILES IDX 85 35 27 36 28 37 29 38 79 39 30 40 84 41 78 42 80 43 31 44
REMARK SMILES IDX 83 45 77 46 76 47 32 49 64 50 44 51 63 52 45 53 48 54 62 55
REMARK SMILES IDX 81 56 46 57 47 58 61 60 82 61 49 62 33 63 34 64 42 65 35 66
REMARK SMILES IDX 37 67 43 68 36 69 38 70 39 71 40 72 41 73 65 74 66 75 74 76
REMARK SMILES IDX 67 77 69 78 75 79 68 80 70 81 71 82 72 83 73 84 50 85 51 86
REMARK SMILES IDX 59 87 52 88 54 89 60 90 53 91 55 92 56 93 57 94 58 95
REMARK H PARENT 16 7 21 29 80 48 48 59
REMARK Flexibility Score: inf
ROOT
ATOM      1  C   UNL A   1      32.717  28.690  24.462  1.00  0.00     0.023 C 
ENDROOT
BRANCH   1   2
ATOM      2  C   UNL A   1      31.297  28.274  24.822  1.00  0.00     0.023 C 
BRANCH   2   3
ATOM      3  C   UNL A   1      31.137  27.165  25.874  1.00  0.00     0.116 C 
BRANCH   3   4
ATOM      4  N   UNL A   1      30.588  25.985  25.240  1.00  0.00    -0.352 N 
ATOM      5  C   UNL A   1      31.134  25.032  24.420  1.00  0.00     0.254 C 
ATOM      6  O   UNL A   1      30.346  24.434  23.683  1.00  0.00    -0.269 OA
ATOM      7  H   UNL A   1      29.635  25.838  25.437  1.00  0.00     0.163 HD
BRANCH   5   8
ATOM      8  C   UNL A   1      32.565  24.606  24.360  1.00  0.00     0.078 A 
ATOM      9  C   UNL A   1      34.081  22.783  25.015  1.00  0.00     0.102 A 
ATOM     10  C   UNL A   1      34.918  23.112  23.945  1.00  0.00     0.025 A 
ATOM     11  C   UNL A   1      32.944  23.567  25.272  1.00  0.00     0.075 A 
ATOM     12  C   UNL A   1      34.646  24.209  23.155  1.00  0.00     0.023 A 
ATOM     13  Cl  UNL A   1      32.069  23.375  26.766  1.00  0.00    -0.082 Cl
ATOM     14  C   UNL A   1      33.448  24.909  23.308  1.00  0.00     0.055 A 
ATOM     15  Cl  UNL A   1      33.200  25.998  22.007  1.00  0.00    -0.083 Cl
BRANCH   9  16
ATOM     16  S   UNL A   1      34.407  21.195  25.759  1.00  0.00     0.244 S 
ATOM     17  O   UNL A   1      34.440  21.411  27.195  1.00  0.00    -0.207 OA
ATOM     18  O   UNL A   1      35.530  20.551  25.117  1.00  0.00    -0.207 OA
BRANCH  16  19
ATOM     19  N   UNL A   1      33.015  20.255  25.452  1.00  0.00    -0.197 NA
ATOM     20  C   UNL A   1      32.460  16.555  25.224  1.00  0.00     0.009 C 
ATOM     21  C   UNL A   1      33.025  17.922  24.874  1.00  0.00     0.005 C 
ATOM     22  C   UNL A   1      32.949  18.892  26.046  1.00  0.00     0.106 C 
ATOM     23  C   UNL A   1      32.250  18.671  23.794  1.00  0.00     0.005 C 
ATOM     24  C   UNL A   1      32.744  20.110  23.981  1.00  0.00     0.106 C 
ATOM     25  C   UNL A   1      32.510  18.136  22.393  1.00  0.00     0.009 C 
ENDBRANCH  16  19
ENDBRANCH   9  16
ENDBRANCH   5   8
ENDBRANCH   3   4
ENDBRANCH   2   3
ENDBRANCH   1   2
BRANCH   1  26
ATOM     26  C   UNL A   1      33.519  29.260  25.617  1.00  0.00     0.116 C 
BRANCH  26  27
ATOM     27  N   UNL A   1      33.024  30.539  26.105  1.00  0.00    -0.352 N 
ATOM     28  C   UNL A   1      33.548  31.340  27.090  1.00  0.00     0.251 C 
ATOM     29  H   UNL A   1      32.206  30.874  25.673  1.00  0.00     0.163 HD
ATOM     30  O   UNL A   1      32.962  32.365  27.428  1.00  0.00    -0.269 OA
BRANCH  28  31
ATOM     31  C   UNL A   1      34.796  30.933  27.766  1.00  0.00     0.039 A 
ATOM     32  C   UNL A   1      35.835  31.860  27.874  1.00  0.00     0.014 A 
ATOM     33  C   UNL A   1      34.927  29.657  28.318  1.00  0.00     0.014 A 
ATOM     34  C   UNL A   1      36.990  31.517  28.577  1.00  0.00     0.010 A 
ATOM     35  C   UNL A   1      36.034  29.351  29.096  1.00  0.00     0.010 A 
ATOM     36  C   UNL A   1      37.088  30.267  29.209  1.00  0.00    -0.014 A 
BRANCH  36  37
ATOM     37  C   UNL A   1      38.309  29.872  29.948  1.00  0.00     0.031 A 
ATOM     38  C   UNL A   1      38.567  30.447  31.315  1.00  0.00     0.074 A 
ATOM     39  C   UNL A   1      39.215  29.066  29.363  1.00  0.00     0.049 A 
ATOM     40  N   UNL A   1      39.582  30.252  32.112  1.00  0.00    -0.248 NA
ATOM     41  C   UNL A   1      37.568  31.396  31.841  1.00  0.00     0.031 C 
ATOM     42  C   UNL A   1      39.120  28.529  28.004  1.00  0.00     0.029 A 
ATOM     43  N   UNL A   1      40.403  28.572  29.833  1.00  0.00    -0.354 N 
ATOM     44  C   UNL A   1      39.367  31.078  33.209  1.00  0.00     0.074 A 
ATOM     45  C   UNL A   1      38.149  31.814  32.955  1.00  0.00     0.031 C 
ATOM     46  C   UNL A   1      40.201  27.770  27.755  1.00  0.00     0.029 A 
ATOM     47  C   UNL A   1      41.066  27.775  28.930  1.00  0.00     0.049 A 
ATOM     48  H   UNL A   1      40.751  28.770  30.734  1.00  0.00     0.167 HD
ATOM     49  C   UNL A   1      40.093  31.185  34.345  1.00  0.00     0.034 A 
ATOM     50  C   UNL A   1      42.233  27.111  29.048  1.00  0.00     0.034 A 
ATOM     51  C   UNL A   1      41.261  30.397  34.621  1.00  0.00     0.049 A 
ATOM     52  C   UNL A   1      42.967  27.166  30.362  1.00  0.00     0.074 A 
ATOM     53  C   UNL A   1      42.022  30.356  35.775  1.00  0.00     0.029 A 
ATOM     54  N   UNL A   1      41.831  29.499  33.732  1.00  0.00    -0.354 N 
ATOM     55  N   UNL A   1      42.657  27.824  31.453  1.00  0.00    -0.248 NA
ATOM     56  C   UNL A   1      44.181  26.347  30.479  1.00  0.00     0.031 C 
ATOM     57  C   UNL A   1      43.053  29.430  35.582  1.00  0.00     0.029 A 
ATOM     58  C   UNL A   1      42.926  28.888  34.313  1.00  0.00     0.049 A 
ATOM     59  H   UNL A   1      41.502  29.321  32.820  1.00  0.00     0.167 HD
ATOM     60  C   UNL A   1      43.610  27.466  32.398  1.00  0.00     0.074 A 
ATOM     61  C   UNL A   1      44.498  26.519  31.755  1.00  0.00     0.031 C 
ATOM     62  C   UNL A   1      43.751  27.893  33.678  1.00  0.00     0.034 A 
BRANCH  49  63
ATOM     63  C   UNL A   1      39.592  32.131  35.405  1.00  0.00     0.023 A 
ATOM     64  C   UNL A   1      38.675  31.663  36.370  1.00  0.00     0.012 A 
ATOM     65  C   UNL A   1      40.047  33.461  35.473  1.00  0.00     0.148 A 
ATOM     66  C   UNL A   1      38.190  32.513  37.362  1.00  0.00     0.002 A 
ATOM     67  C   UNL A   1      39.592  34.291  36.492  1.00  0.00     0.091 A 
ATOM     68  F   UNL A   1      40.897  33.897  34.532  1.00  0.00    -0.205 F 
ATOM     69  C   UNL A   1      38.655  33.823  37.429  1.00  0.00     0.022 A 
BRANCH  67  70
ATOM     70  S   UNL A   1      40.189  35.971  36.708  1.00  0.00     0.127 S 
ATOM     71  O   UNL A   1      39.740  36.606  35.469  1.00  0.00    -0.237 OA
ATOM     72  O   UNL A   1      39.472  36.403  37.908  1.00  0.00    -0.237 OA
ATOM     73  O   UNL A   1      41.632  35.864  36.872  1.00  0.00    -0.744 OA
ENDBRANCH  67  70
ENDBRANCH  49  63
BRANCH  50  74
ATOM     74  C   UNL A   1      42.713  26.248  27.934  1.00  0.00     0.023 A 
ATOM     75  C   UNL A   1      43.735  26.725  27.089  1.00  0.00     0.012 A 
ATOM     76  C   UNL A   1      42.197  24.955  27.723  1.00  0.00     0.148 A 
ATOM     77  C   UNL A   1      44.210  25.944  26.034  1.00  0.00     0.002 A 
ATOM     78  C   UNL A   1      42.710  24.163  26.701  1.00  0.00     0.091 A 
ATOM     79  F   UNL A   1      41.218  24.522  28.529  1.00  0.00    -0.205 F 
ATOM     80  C   UNL A   1      43.705  24.662  25.845  1.00  0.00     0.022 A 
BRANCH  78  81
ATOM     81  S   UNL A   1      42.206  22.454  26.467  1.00  0.00     0.127 S 
ATOM     82  O   UNL A   1      42.674  21.834  27.704  1.00  0.00    -0.237 OA
ATOM     83  O   UNL A   1      40.752  22.578  26.351  1.00  0.00    -0.237 OA
ATOM     84  O   UNL A   1      42.867  22.019  25.246  1.00  0.00    -0.744 OA
ENDBRANCH  78  81
ENDBRANCH  50  74
BRANCH  62  85
ATOM     85  C   UNL A   1      44.876  27.310  34.488  1.00  0.00     0.023 A 
ATOM     86  C   UNL A   1      46.125  27.957  34.516  1.00  0.00     0.012 A 
ATOM     87  C   UNL A   1      44.667  26.168  35.286  1.00  0.00     0.148 A 
ATOM     88  C   UNL A   1      47.162  27.459  35.304  1.00  0.00     0.002 A 
ATOM     89  C   UNL A   1      45.690  25.704  36.104  1.00  0.00     0.091 A 
ATOM     90  F   UNL A   1      43.477  25.553  35.229  1.00  0.00    -0.205 F 
ATOM     91  C   UNL A   1      46.941  26.342  36.107  1.00  0.00     0.022 A 
BRANCH  89  92
ATOM     92  S   UNL A   1      45.452  24.331  37.237  1.00  0.00     0.127 S 
ATOM     93  O   UNL A   1      44.382  24.832  38.096  1.00  0.00    -0.237 OA
ATOM     94  O   UNL A   1      45.056  23.245  36.339  1.00  0.00    -0.237 OA
ATOM     95  O   UNL A   1      46.742  24.129  37.885  1.00  0.00    -0.744 OA
ENDBRANCH  89  92
ENDBRANCH  62  85
ENDBRANCH  36  37
ENDBRANCH  28  31
ENDBRANCH  26  27
ENDBRANCH   1  26
TORSDOF 16
ENDMDL
