MODEL 1
REMARK VINA RESULT:     -14.0      0.000      0.000
REMARK SMILES O=C1C[C@H](c2cn[nH]c2C(=O)NCCCCNC(=O)c2ccc(-c3c4nc(c(-c5cccc(S(=O)(=O)[O-])c5F)c5ccc([nH]5)c(-c5cccc(S(=O)(=O)[O-])c5F)c5nc(c(-c6cccc(S(=O)(=O)[O-])c6F)c6ccc3[nH]6)C=C5)C=C4)cc2)c2c(-c3cccs3)n[nH]c2N1
REMARK SMILES IDX 15 1 14 2 13 3 12 4 10 5 11 6 9 8 5 9 6 10 7 11 8 12 4 14
REMARK SMILES IDX 1 15 2 16 3 17 93 18 92 19 83 21 91 22 84 23 90 24 85 26
REMARK SMILES IDX 86 27 89 28 87 29 88 30 16 31 17 32 18 33 19 35 20 36 21 37
REMARK SMILES IDX 82 38 22 39 81 40 23 41 24 42 25 43 75 44 26 45 80 46 74 47
REMARK SMILES IDX 76 48 27 49 79 50 73 51 72 52 28 54 60 55 40 56 59 57 41 58
REMARK SMILES IDX 44 59 58 60 77 61 42 62 43 63 57 65 78 66 45 67 29 68 30 69
REMARK SMILES IDX 38 70 31 71 33 72 39 73 32 74 34 75 35 76 36 77 37 78 61 79
REMARK SMILES IDX 62 80 70 81 63 82 65 83 71 84 64 85 66 86 67 87 68 88 69 89
REMARK SMILES IDX 46 90 47 91 55 92 48 93 50 94 56 95 49 96 51 97 52 98 53 99
REMARK SMILES IDX 54 100
REMARK H PARENT 12 7 8 13 93 20 91 25 17 34 76 53 44 64
REMARK Flexibility Score: inf
ROOT
ATOM      1  C   UNL A   1      39.545  20.723  25.659  1.00  0.00     0.023 C 
ENDROOT
BRANCH   1   2
ATOM      2  C   UNL A   1      39.069  22.097  26.139  1.00  0.00     0.023 C 
BRANCH   2   3
ATOM      3  C   UNL A   1      37.470  22.649  25.602  1.00  0.00     0.116 C 
BRANCH   3   4
ATOM      4  N   UNL A   1      35.598  21.531  25.667  1.00  0.00    -0.351 N 
ATOM      5  C   UNL A   1      34.230  21.287  25.925  1.00  0.00     0.269 C 
ATOM      6  O   UNL A   1      33.836  20.140  25.697  1.00  0.00    -0.268 OA
ATOM      7  H   UNL A   1      35.875  20.671  25.277  1.00  0.00     0.163 HD
BRANCH   5   8
ATOM      8  C   UNL A   1      33.300  22.289  26.392  1.00  0.00     0.126 A 
ATOM      9  C   UNL A   1      32.805  23.442  25.806  1.00  0.00     0.011 A 
ATOM     10  C   UNL A   1      31.872  23.944  26.732  1.00  0.00     0.140 A 
ATOM     11  N   UNL A   1      31.806  23.206  27.842  1.00  0.00    -0.183 NA
ATOM     12  N   UNL A   1      32.650  22.185  27.590  1.00  0.00    -0.273 N 
ATOM     13  H   UNL A   1      32.785  21.433  28.211  1.00  0.00     0.190 HD
BRANCH   9  14
ATOM     14  C   UNL A   1      33.199  23.946  24.465  1.00  0.00     0.069 C 
ATOM     15  O   UNL A   1      32.028  21.355  21.915  1.00  0.00    -0.275 OA
ATOM     16  C   UNL A   1      31.945  22.292  22.720  1.00  0.00     0.226 C 
ATOM     17  C   UNL A   1      33.240  22.823  23.401  1.00  0.00     0.114 C 
ATOM     18  N   UNL A   1      30.714  22.877  22.896  1.00  0.00    -0.311 N 
ATOM     19  C   UNL A   1      30.687  24.136  23.412  1.00  0.00     0.132 A 
ATOM     20  H   UNL A   1      29.884  22.403  22.658  1.00  0.00     0.171 HD
ATOM     21  C   UNL A   1      32.138  24.878  24.084  1.00  0.00     0.031 A 
ATOM     22  N   UNL A   1      29.327  25.399  23.452  1.00  0.00    -0.262 N 
ATOM     23  C   UNL A   1      31.689  26.703  24.600  1.00  0.00     0.108 A 
ATOM     24  N   UNL A   1      29.991  26.999  24.205  1.00  0.00    -0.173 NA
ATOM     25  H   UNL A   1      28.407  25.257  23.132  1.00  0.00     0.192 HD
BRANCH  23  26
ATOM     26  C   UNL A   1      32.530  27.451  25.573  1.00  0.00     0.055 A 
ATOM     27  C   UNL A   1      33.751  27.997  25.262  1.00  0.00     0.022 A 
ATOM     28  S   UNL A   1      31.993  27.880  27.132  1.00  0.00    -0.142 S 
ATOM     29  C   UNL A   1      34.214  28.847  26.310  1.00  0.00     0.012 A 
ATOM     30  C   UNL A   1      33.404  28.802  27.422  1.00  0.00     0.065 A 
ENDBRANCH  23  26
ENDBRANCH   9  14
ENDBRANCH   5   8
ENDBRANCH   3   4
ENDBRANCH   2   3
ENDBRANCH   1   2
BRANCH   1  31
ATOM     31  C   UNL A   1      40.193  19.878  26.727  1.00  0.00     0.116 C 
BRANCH  31  32
ATOM     32  N   UNL A   1      41.441  19.294  26.246  1.00  0.00    -0.352 N 
ATOM     33  C   UNL A   1      42.511  20.008  25.757  1.00  0.00     0.251 C 
ATOM     34  H   UNL A   1      41.524  18.314  26.273  1.00  0.00     0.163 HD
ATOM     35  O   UNL A   1      43.281  19.532  24.936  1.00  0.00    -0.269 OA
BRANCH  33  36
ATOM     36  C   UNL A   1      42.734  21.330  26.363  1.00  0.00     0.039 A 
ATOM     37  C   UNL A   1      42.891  22.492  25.610  1.00  0.00     0.014 A 
ATOM     38  C   UNL A   1      42.709  21.366  27.760  1.00  0.00     0.014 A 
ATOM     39  C   UNL A   1      43.071  23.693  26.296  1.00  0.00     0.010 A 
ATOM     40  C   UNL A   1      42.692  22.566  28.413  1.00  0.00     0.010 A 
ATOM     41  C   UNL A   1      43.001  23.714  27.707  1.00  0.00    -0.014 A 
BRANCH  41  42
ATOM     42  C   UNL A   1      42.907  24.951  28.480  1.00  0.00     0.031 A 
ATOM     43  C   UNL A   1      41.582  25.578  28.203  1.00  0.00     0.074 A 
ATOM     44  C   UNL A   1      43.814  25.333  29.422  1.00  0.00     0.049 A 
ATOM     45  N   UNL A   1      41.389  26.515  27.333  1.00  0.00    -0.248 NA
ATOM     46  C   UNL A   1      40.321  24.918  28.607  1.00  0.00     0.031 C 
ATOM     47  C   UNL A   1      45.045  24.654  29.854  1.00  0.00     0.029 A 
ATOM     48  N   UNL A   1      43.811  26.421  30.258  1.00  0.00    -0.354 N 
ATOM     49  C   UNL A   1      40.040  26.827  27.432  1.00  0.00     0.074 A 
ATOM     50  C   UNL A   1      39.412  25.649  27.949  1.00  0.00     0.031 C 
ATOM     51  C   UNL A   1      45.516  25.211  31.000  1.00  0.00     0.029 A 
ATOM     52  C   UNL A   1      44.714  26.372  31.340  1.00  0.00     0.049 A 
ATOM     53  H   UNL A   1      43.214  27.190  30.111  1.00  0.00     0.167 HD
ATOM     54  C   UNL A   1      39.674  28.140  27.461  1.00  0.00     0.034 A 
ATOM     55  C   UNL A   1      44.793  27.225  32.415  1.00  0.00     0.034 A 
ATOM     56  C   UNL A   1      40.803  28.960  27.068  1.00  0.00     0.049 A 
ATOM     57  C   UNL A   1      44.136  28.489  32.014  1.00  0.00     0.074 A 
ATOM     58  C   UNL A   1      41.625  29.023  25.960  1.00  0.00     0.029 A 
ATOM     59  N   UNL A   1      41.503  29.515  28.112  1.00  0.00    -0.354 N 
ATOM     60  N   UNL A   1      44.656  29.272  31.112  1.00  0.00    -0.248 NA
ATOM     61  C   UNL A   1      42.692  28.551  32.169  1.00  0.00     0.031 C 
ATOM     62  C   UNL A   1      42.936  29.209  26.486  1.00  0.00     0.029 A 
ATOM     63  C   UNL A   1      42.843  29.432  27.860  1.00  0.00     0.049 A 
ATOM     64  H   UNL A   1      41.101  29.910  28.919  1.00  0.00     0.167 HD
ATOM     65  C   UNL A   1      43.606  29.473  30.231  1.00  0.00     0.074 A 
ATOM     66  C   UNL A   1      42.401  29.056  30.965  1.00  0.00     0.031 C 
ATOM     67  C   UNL A   1      43.839  29.583  28.891  1.00  0.00     0.034 A 
BRANCH  54  68
ATOM     68  C   UNL A   1      38.554  28.737  28.294  1.00  0.00     0.023 A 
ATOM     69  C   UNL A   1      37.669  29.601  27.604  1.00  0.00     0.012 A 
ATOM     70  C   UNL A   1      38.479  28.751  29.707  1.00  0.00     0.148 A 
ATOM     71  C   UNL A   1      36.824  30.488  28.275  1.00  0.00     0.002 A 
ATOM     72  C   UNL A   1      37.595  29.596  30.372  1.00  0.00     0.091 A 
ATOM     73  F   UNL A   1      39.323  28.021  30.435  1.00  0.00    -0.205 F 
ATOM     74  C   UNL A   1      36.788  30.487  29.662  1.00  0.00     0.022 A 
BRANCH  72  75
ATOM     75  S   UNL A   1      37.465  29.634  32.168  1.00  0.00     0.127 S 
ATOM     76  O   UNL A   1      37.358  28.213  32.487  1.00  0.00    -0.237 OA
ATOM     77  O   UNL A   1      38.734  30.260  32.538  1.00  0.00    -0.237 OA
ATOM     78  O   UNL A   1      36.285  30.435  32.470  1.00  0.00    -0.744 OA
ENDBRANCH  72  75
ENDBRANCH  54  68
BRANCH  55  79
ATOM     79  C   UNL A   1      45.116  26.993  33.864  1.00  0.00     0.023 A 
ATOM     80  C   UNL A   1      46.305  27.488  34.463  1.00  0.00     0.012 A 
ATOM     81  C   UNL A   1      44.095  26.575  34.735  1.00  0.00     0.148 A 
ATOM     82  C   UNL A   1      46.448  27.581  35.865  1.00  0.00     0.002 A 
ATOM     83  C   UNL A   1      44.235  26.681  36.122  1.00  0.00     0.091 A 
ATOM     84  F   UNL A   1      42.940  26.161  34.201  1.00  0.00    -0.205 F 
ATOM     85  C   UNL A   1      45.405  27.189  36.695  1.00  0.00     0.022 A 
BRANCH  83  86
ATOM     86  S   UNL A   1      42.896  26.245  37.229  1.00  0.00     0.127 S 
ATOM     87  O   UNL A   1      43.526  26.367  38.544  1.00  0.00    -0.237 OA
ATOM     88  O   UNL A   1      41.895  27.262  36.927  1.00  0.00    -0.237 OA
ATOM     89  O   UNL A   1      42.536  24.884  36.866  1.00  0.00    -0.744 OA
ENDBRANCH  83  86
ENDBRANCH  55  79
BRANCH  67  90
ATOM     90  C   UNL A   1      45.259  29.755  28.419  1.00  0.00     0.023 A 
ATOM     91  C   UNL A   1      46.164  28.696  28.185  1.00  0.00     0.012 A 
ATOM     92  C   UNL A   1      45.625  31.056  28.044  1.00  0.00     0.148 A 
ATOM     93  C   UNL A   1      47.420  28.948  27.617  1.00  0.00     0.002 A 
ATOM     94  C   UNL A   1      46.848  31.294  27.442  1.00  0.00     0.091 A 
ATOM     95  F   UNL A   1      44.740  32.042  28.255  1.00  0.00    -0.205 F 
ATOM     96  C   UNL A   1      47.758  30.247  27.238  1.00  0.00     0.022 A 
BRANCH  94  97
ATOM     97  S   UNL A   1      47.266  32.927  26.840  1.00  0.00     0.127 S 
ATOM     98  O   UNL A   1      46.225  33.152  25.840  1.00  0.00    -0.237 OA
ATOM     99  O   UNL A   1      47.148  33.746  28.047  1.00  0.00    -0.237 OA
ATOM    100  O   UNL A   1      48.624  32.830  26.319  1.00  0.00    -0.744 OA
ENDBRANCH  94  97
ENDBRANCH  67  90
ENDBRANCH  41  42
ENDBRANCH  33  36
ENDBRANCH  31  32
ENDBRANCH   1  31
TORSDOF 16
ENDMDL
MODEL 2
REMARK VINA RESULT:     -14.0      1.845      2.099
REMARK SMILES O=C1C[C@H](c2cn[nH]c2C(=O)NCCCCNC(=O)c2ccc(-c3c4nc(c(-c5cccc(S(=O)(=O)[O-])c5F)c5ccc([nH]5)c(-c5cccc(S(=O)(=O)[O-])c5F)c5nc(c(-c6cccc(S(=O)(=O)[O-])c6F)c6ccc3[nH]6)C=C5)C=C4)cc2)c2c(-c3cccs3)n[nH]c2N1
REMARK SMILES IDX 15 1 14 2 13 3 12 4 10 5 11 6 9 8 5 9 6 10 7 11 8 12 4 14
REMARK SMILES IDX 1 15 2 16 3 17 93 18 92 19 83 21 91 22 84 23 90 24 85 26
REMARK SMILES IDX 86 27 89 28 87 29 88 30 16 31 17 32 18 33 19 35 20 36 21 37
REMARK SMILES IDX 82 38 22 39 81 40 23 41 24 42 25 43 75 44 26 45 80 46 74 47
REMARK SMILES IDX 76 48 27 49 79 50 73 51 72 52 28 54 60 55 40 56 59 57 41 58
REMARK SMILES IDX 44 59 58 60 77 61 42 62 43 63 57 65 78 66 45 67 29 68 30 69
REMARK SMILES IDX 38 70 31 71 33 72 39 73 32 74 34 75 35 76 36 77 37 78 61 79
REMARK SMILES IDX 62 80 70 81 63 82 65 83 71 84 64 85 66 86 67 87 68 88 69 89
REMARK SMILES IDX 46 90 47 91 55 92 48 93 50 94 56 95 49 96 51 97 52 98 53 99
REMARK SMILES IDX 54 100
REMARK H PARENT 12 7 8 13 93 20 91 25 17 34 76 53 44 64
REMARK Flexibility Score: inf
ROOT
ATOM      1  C   UNL A   1      38.533  19.402  25.341  1.00  0.00     0.023 C 
ENDROOT
BRANCH   1   2
ATOM      2  C   UNL A   1      37.596  20.384  24.632  1.00  0.00     0.023 C 
BRANCH   2   3
ATOM      3  C   UNL A   1      35.898  20.419  25.147  1.00  0.00     0.116 C 
BRANCH   3   4
ATOM      4  N   UNL A   1      35.026  21.627  26.741  1.00  0.00    -0.351 N 
ATOM      5  C   UNL A   1      34.145  22.549  27.348  1.00  0.00     0.269 C 
ATOM      6  O   UNL A   1      34.377  22.819  28.529  1.00  0.00    -0.268 OA
ATOM      7  H   UNL A   1      35.592  21.373  27.505  1.00  0.00     0.163 HD
BRANCH   5   8
ATOM      8  C   UNL A   1      33.007  23.142  26.685  1.00  0.00     0.126 A 
ATOM      9  C   UNL A   1      32.902  24.157  25.748  1.00  0.00     0.011 A 
ATOM     10  C   UNL A   1      31.532  24.216  25.432  1.00  0.00     0.140 A 
ATOM     11  N   UNL A   1      30.807  23.348  26.140  1.00  0.00    -0.183 NA
ATOM     12  N   UNL A   1      31.732  22.680  26.859  1.00  0.00    -0.273 N 
ATOM     13  H   UNL A   1      31.510  21.927  27.453  1.00  0.00     0.190 HD
BRANCH   9  14
ATOM     14  C   UNL A   1      34.049  24.938  25.216  1.00  0.00     0.069 C 
ATOM     15  O   UNL A   1      35.826  22.710  22.673  1.00  0.00    -0.275 OA
ATOM     16  C   UNL A   1      34.960  23.471  23.125  1.00  0.00     0.226 C 
ATOM     17  C   UNL A   1      35.125  24.036  24.566  1.00  0.00     0.114 C 
ATOM     18  N   UNL A   1      33.939  23.849  22.286  1.00  0.00    -0.311 N 
ATOM     19  C   UNL A   1      33.256  24.982  22.603  1.00  0.00     0.132 A 
ATOM     20  H   UNL A   1      33.712  23.321  21.486  1.00  0.00     0.171 HD
ATOM     21  C   UNL A   1      33.478  25.777  24.161  1.00  0.00     0.031 A 
ATOM     22  N   UNL A   1      32.110  26.030  21.585  1.00  0.00    -0.262 N 
ATOM     23  C   UNL A   1      32.410  27.407  24.156  1.00  0.00     0.108 A 
ATOM     24  N   UNL A   1      31.598  27.543  22.592  1.00  0.00    -0.173 NA
ATOM     25  H   UNL A   1      31.817  25.828  20.667  1.00  0.00     0.192 HD
BRANCH  23  26
ATOM     26  C   UNL A   1      32.028  28.074  25.430  1.00  0.00     0.055 A 
ATOM     27  C   UNL A   1      31.478  27.413  26.501  1.00  0.00     0.022 A 
ATOM     28  S   UNL A   1      32.402  29.699  25.779  1.00  0.00    -0.142 S 
ATOM     29  C   UNL A   1      31.435  28.251  27.653  1.00  0.00     0.012 A 
ATOM     30  C   UNL A   1      31.818  29.545  27.379  1.00  0.00     0.065 A 
ENDBRANCH  23  26
ENDBRANCH   9  14
ENDBRANCH   5   8
ENDBRANCH   3   4
ENDBRANCH   2   3
ENDBRANCH   1   2
BRANCH   1  31
ATOM     31  C   UNL A   1      39.647  20.054  26.121  1.00  0.00     0.116 C 
BRANCH  31  32
ATOM     32  N   UNL A   1      40.884  19.287  26.006  1.00  0.00    -0.352 N 
ATOM     33  C   UNL A   1      42.129  19.827  25.775  1.00  0.00     0.251 C 
ATOM     34  H   UNL A   1      40.823  18.310  26.101  1.00  0.00     0.163 HD
ATOM     35  O   UNL A   1      43.007  19.197  25.203  1.00  0.00    -0.269 OA
BRANCH  33  36
ATOM     36  C   UNL A   1      42.372  21.158  26.352  1.00  0.00     0.039 A 
ATOM     37  C   UNL A   1      42.382  22.324  25.590  1.00  0.00     0.014 A 
ATOM     38  C   UNL A   1      42.525  21.195  27.740  1.00  0.00     0.014 A 
ATOM     39  C   UNL A   1      42.598  23.533  26.252  1.00  0.00     0.010 A 
ATOM     40  C   UNL A   1      42.541  22.394  28.395  1.00  0.00     0.010 A 
ATOM     41  C   UNL A   1      42.709  23.553  27.661  1.00  0.00    -0.014 A 
BRANCH  41  42
ATOM     42  C   UNL A   1      42.663  24.786  28.444  1.00  0.00     0.031 A 
ATOM     43  C   UNL A   1      41.347  25.446  28.203  1.00  0.00     0.074 A 
ATOM     44  C   UNL A   1      43.601  25.140  29.366  1.00  0.00     0.049 A 
ATOM     45  N   UNL A   1      41.154  26.393  27.345  1.00  0.00    -0.248 NA
ATOM     46  C   UNL A   1      40.080  24.812  28.634  1.00  0.00     0.031 C 
ATOM     47  C   UNL A   1      44.826  24.429  29.763  1.00  0.00     0.029 A 
ATOM     48  N   UNL A   1      43.644  26.220  30.209  1.00  0.00    -0.354 N 
ATOM     49  C   UNL A   1      39.816  26.736  27.480  1.00  0.00     0.074 A 
ATOM     50  C   UNL A   1      39.173  25.569  28.003  1.00  0.00     0.031 C 
ATOM     51  C   UNL A   1      45.338  24.966  30.901  1.00  0.00     0.029 A 
ATOM     52  C   UNL A   1      44.572  26.142  31.269  1.00  0.00     0.049 A 
ATOM     53  H   UNL A   1      43.061  27.005  30.083  1.00  0.00     0.167 HD
ATOM     54  C   UNL A   1      39.482  28.056  27.527  1.00  0.00     0.034 A 
ATOM     55  C   UNL A   1      44.697  26.985  32.347  1.00  0.00     0.034 A 
ATOM     56  C   UNL A   1      40.620  28.853  27.112  1.00  0.00     0.049 A 
ATOM     57  C   UNL A   1      44.060  28.268  31.971  1.00  0.00     0.074 A 
ATOM     58  C   UNL A   1      41.416  28.905  25.985  1.00  0.00     0.029 A 
ATOM     59  N   UNL A   1      41.358  29.384  28.142  1.00  0.00    -0.354 N 
ATOM     60  N   UNL A   1      44.577  29.045  31.062  1.00  0.00    -0.248 NA
ATOM     61  C   UNL A   1      42.623  28.362  32.162  1.00  0.00     0.031 C 
ATOM     62  C   UNL A   1      42.743  29.057  26.480  1.00  0.00     0.029 A 
ATOM     63  C   UNL A   1      42.688  29.272  27.856  1.00  0.00     0.049 A 
ATOM     64  H   UNL A   1      40.985  29.782  28.962  1.00  0.00     0.167 HD
ATOM     65  C   UNL A   1      43.510  29.277  30.209  1.00  0.00     0.074 A 
ATOM     66  C   UNL A   1      42.314  28.883  30.969  1.00  0.00     0.031 C 
ATOM     67  C   UNL A   1      43.713  29.392  28.864  1.00  0.00     0.034 A 
BRANCH  54  68
ATOM     68  C   UNL A   1      38.396  28.674  28.391  1.00  0.00     0.023 A 
ATOM     69  C   UNL A   1      37.487  29.527  27.720  1.00  0.00     0.012 A 
ATOM     70  C   UNL A   1      38.377  28.715  29.805  1.00  0.00     0.148 A 
ATOM     71  C   UNL A   1      36.672  30.430  28.407  1.00  0.00     0.002 A 
ATOM     72  C   UNL A   1      37.522  29.575  30.488  1.00  0.00     0.091 A 
ATOM     73  F   UNL A   1      39.247  27.995  30.513  1.00  0.00    -0.205 F 
ATOM     74  C   UNL A   1      36.690  30.455  29.793  1.00  0.00     0.022 A 
BRANCH  72  75
ATOM     75  S   UNL A   1      37.462  29.647  32.286  1.00  0.00     0.127 S 
ATOM     76  O   UNL A   1      38.706  30.346  32.597  1.00  0.00    -0.237 OA
ATOM     77  O   UNL A   1      36.242  30.422  32.507  1.00  0.00    -0.237 OA
ATOM     78  O   UNL A   1      37.389  28.264  32.744  1.00  0.00    -0.744 OA
ENDBRANCH  72  75
ENDBRANCH  54  68
BRANCH  55  79
ATOM     79  C   UNL A   1      45.050  26.735  33.786  1.00  0.00     0.023 A 
ATOM     80  C   UNL A   1      46.308  27.106  34.333  1.00  0.00     0.012 A 
ATOM     81  C   UNL A   1      44.025  26.437  34.701  1.00  0.00     0.148 A 
ATOM     82  C   UNL A   1      46.513  27.198  35.727  1.00  0.00     0.002 A 
ATOM     83  C   UNL A   1      44.229  26.542  36.079  1.00  0.00     0.091 A 
ATOM     84  F   UNL A   1      42.813  26.144  34.217  1.00  0.00    -0.205 F 
ATOM     85  C   UNL A   1      45.468  26.928  36.601  1.00  0.00     0.022 A 
BRANCH  83  86
ATOM     86  S   UNL A   1      42.896  26.263  37.243  1.00  0.00     0.127 S 
ATOM     87  O   UNL A   1      43.575  26.387  38.532  1.00  0.00    -0.237 OA
ATOM     88  O   UNL A   1      41.971  27.346  36.925  1.00  0.00    -0.237 OA
ATOM     89  O   UNL A   1      42.415  24.923  36.950  1.00  0.00    -0.744 OA
ENDBRANCH  83  86
ENDBRANCH  55  79
BRANCH  67  90
ATOM     90  C   UNL A   1      45.125  29.534  28.359  1.00  0.00     0.023 A 
ATOM     91  C   UNL A   1      45.890  30.719  28.432  1.00  0.00     0.012 A 
ATOM     92  C   UNL A   1      45.746  28.349  27.938  1.00  0.00     0.148 A 
ATOM     93  C   UNL A   1      47.241  30.715  28.058  1.00  0.00     0.002 A 
ATOM     94  C   UNL A   1      47.091  28.340  27.612  1.00  0.00     0.091 A 
ATOM     95  F   UNL A   1      45.004  27.232  27.898  1.00  0.00    -0.205 F 
ATOM     96  C   UNL A   1      47.843  29.523  27.655  1.00  0.00     0.022 A 
BRANCH  94  97
ATOM     97  S   UNL A   1      47.920  26.807  27.204  1.00  0.00     0.127 S 
ATOM     98  O   UNL A   1      49.287  27.262  26.962  1.00  0.00    -0.237 OA
ATOM     99  O   UNL A   1      47.739  26.019  28.425  1.00  0.00    -0.237 OA
ATOM    100  O   UNL A   1      47.223  26.269  26.042  1.00  0.00    -0.744 OA
ENDBRANCH  94  97
ENDBRANCH  67  90
ENDBRANCH  41  42
ENDBRANCH  33  36
ENDBRANCH  31  32
ENDBRANCH   1  31
TORSDOF 16
ENDMDL
MODEL 3
REMARK VINA RESULT:     -13.9      3.838      9.092
REMARK SMILES O=C1C[C@H](c2cn[nH]c2C(=O)NCCCCNC(=O)c2ccc(-c3c4nc(c(-c5cccc(S(=O)(=O)[O-])c5F)c5ccc([nH]5)c(-c5cccc(S(=O)(=O)[O-])c5F)c5nc(c(-c6cccc(S(=O)(=O)[O-])c6F)c6ccc3[nH]6)C=C5)C=C4)cc2)c2c(-c3cccs3)n[nH]c2N1
REMARK SMILES IDX 15 1 14 2 13 3 12 4 10 5 11 6 9 8 5 9 6 10 7 11 8 12 4 14
REMARK SMILES IDX 1 15 2 16 3 17 93 18 92 19 83 21 91 22 84 23 90 24 85 26
REMARK SMILES IDX 86 27 89 28 87 29 88 30 16 31 17 32 18 33 19 35 20 36 21 37
REMARK SMILES IDX 82 38 22 39 81 40 23 41 24 42 25 43 75 44 26 45 80 46 74 47
REMARK SMILES IDX 76 48 27 49 79 50 73 51 72 52 28 54 60 55 40 56 59 57 41 58
REMARK SMILES IDX 44 59 58 60 77 61 42 62 43 63 57 65 78 66 45 67 29 68 30 69
REMARK SMILES IDX 38 70 31 71 33 72 39 73 32 74 34 75 35 76 36 77 37 78 61 79
REMARK SMILES IDX 62 80 70 81 63 82 65 83 71 84 64 85 66 86 67 87 68 88 69 89
REMARK SMILES IDX 46 90 47 91 55 92 48 93 50 94 56 95 49 96 51 97 52 98 53 99
REMARK SMILES IDX 54 100
REMARK H PARENT 12 7 8 13 93 20 91 25 17 34 76 53 44 64
REMARK Flexibility Score: inf
ROOT
ATOM      1  C   UNL A   1      31.917  32.028  27.328  1.00  0.00     0.023 C 
ENDROOT
BRANCH   1   2
ATOM      2  C   UNL A   1      31.099  31.901  26.039  1.00  0.00     0.023 C 
BRANCH   2   3
ATOM      3  C   UNL A   1      31.180  30.362  25.160  1.00  0.00     0.116 C 
BRANCH   3   4
ATOM      4  N   UNL A   1      32.909  29.518  24.131  1.00  0.00    -0.351 N 
ATOM      5  C   UNL A   1      33.705  28.531  23.509  1.00  0.00     0.269 C 
ATOM      6  O   UNL A   1      34.833  28.891  23.161  1.00  0.00    -0.268 OA
ATOM      7  H   UNL A   1      33.488  30.310  24.050  1.00  0.00     0.163 HD
BRANCH   5   8
ATOM      8  C   UNL A   1      33.265  27.182  23.241  1.00  0.00     0.126 A 
ATOM      9  C   UNL A   1      33.202  26.050  24.036  1.00  0.00     0.011 A 
ATOM     10  C   UNL A   1      32.604  25.071  23.222  1.00  0.00     0.140 A 
ATOM     11  N   UNL A   1      32.347  25.517  21.991  1.00  0.00    -0.183 NA
ATOM     12  N   UNL A   1      32.717  26.813  22.044  1.00  0.00    -0.273 N 
ATOM     13  H   UNL A   1      32.602  27.436  21.291  1.00  0.00     0.190 HD
BRANCH   9  14
ATOM     14  C   UNL A   1      33.655  25.983  25.449  1.00  0.00     0.069 C 
ATOM     15  O   UNL A   1      31.051  27.834  27.541  1.00  0.00    -0.275 OA
ATOM     16  C   UNL A   1      31.550  26.910  26.885  1.00  0.00     0.226 C 
ATOM     17  C   UNL A   1      32.997  27.069  26.332  1.00  0.00     0.114 C 
ATOM     18  N   UNL A   1      30.825  25.750  26.759  1.00  0.00    -0.311 N 
ATOM     19  C   UNL A   1      31.508  24.617  26.438  1.00  0.00     0.132 A 
ATOM     20  H   UNL A   1      29.850  25.738  26.897  1.00  0.00     0.171 HD
ATOM     21  C   UNL A   1      33.196  24.681  25.933  1.00  0.00     0.031 A 
ATOM     22  N   UNL A   1      31.009  22.832  26.547  1.00  0.00    -0.262 N 
ATOM     23  C   UNL A   1      33.812  22.849  25.684  1.00  0.00     0.108 A 
ATOM     24  N   UNL A   1      32.481  21.750  26.065  1.00  0.00    -0.173 NA
ATOM     25  H   UNL A   1      30.121  22.503  26.812  1.00  0.00     0.192 HD
BRANCH  23  26
ATOM     26  C   UNL A   1      35.016  22.553  24.862  1.00  0.00     0.055 A 
ATOM     27  C   UNL A   1      35.222  23.058  23.602  1.00  0.00     0.022 A 
ATOM     28  S   UNL A   1      36.368  21.705  25.462  1.00  0.00    -0.142 S 
ATOM     29  C   UNL A   1      36.552  22.800  23.157  1.00  0.00     0.012 A 
ATOM     30  C   UNL A   1      37.253  21.995  24.027  1.00  0.00     0.065 A 
ENDBRANCH  23  26
ENDBRANCH   9  14
ENDBRANCH   5   8
ENDBRANCH   3   4
ENDBRANCH   2   3
ENDBRANCH   1   2
BRANCH   1  31
ATOM     31  C   UNL A   1      33.087  32.974  27.235  1.00  0.00     0.116 C 
BRANCH  31  32
ATOM     32  N   UNL A   1      32.831  34.197  27.990  1.00  0.00    -0.352 N 
ATOM     33  C   UNL A   1      33.257  34.434  29.277  1.00  0.00     0.251 C 
ATOM     34  H   UNL A   1      32.314  34.906  27.544  1.00  0.00     0.163 HD
ATOM     35  O   UNL A   1      32.645  35.179  30.030  1.00  0.00    -0.269 OA
BRANCH  33  36
ATOM     36  C   UNL A   1      34.544  33.830  29.652  1.00  0.00     0.039 A 
ATOM     37  C   UNL A   1      34.649  32.756  30.532  1.00  0.00     0.014 A 
ATOM     38  C   UNL A   1      35.669  34.357  29.010  1.00  0.00     0.014 A 
ATOM     39  C   UNL A   1      35.923  32.249  30.793  1.00  0.00     0.010 A 
ATOM     40  C   UNL A   1      36.878  33.731  29.123  1.00  0.00     0.010 A 
ATOM     41  C   UNL A   1      37.041  32.769  30.103  1.00  0.00    -0.014 A 
BRANCH  41  42
ATOM     42  C   UNL A   1      38.352  32.122  30.113  1.00  0.00     0.031 A 
ATOM     43  C   UNL A   1      38.241  30.827  29.382  1.00  0.00     0.074 A 
ATOM     44  C   UNL A   1      39.493  32.718  30.557  1.00  0.00     0.049 A 
ATOM     45  N   UNL A   1      38.057  29.682  29.954  1.00  0.00    -0.248 NA
ATOM     46  C   UNL A   1      37.938  30.785  27.934  1.00  0.00     0.031 C 
ATOM     47  C   UNL A   1      39.678  34.063  31.122  1.00  0.00     0.029 A 
ATOM     48  N   UNL A   1      40.785  32.256  30.559  1.00  0.00    -0.354 N 
ATOM     49  C   UNL A   1      38.059  28.756  28.920  1.00  0.00     0.074 A 
ATOM     50  C   UNL A   1      37.665  29.487  27.752  1.00  0.00     0.031 C 
ATOM     51  C   UNL A   1      40.999  34.375  31.181  1.00  0.00     0.029 A 
ATOM     52  C   UNL A   1      41.787  33.224  30.784  1.00  0.00     0.049 A 
ATOM     53  H   UNL A   1      41.000  31.307  30.412  1.00  0.00     0.167 HD
ATOM     54  C   UNL A   1      38.772  27.606  29.074  1.00  0.00     0.034 A 
ATOM     55  C   UNL A   1      43.148  33.076  30.660  1.00  0.00     0.034 A 
ATOM     56  C   UNL A   1      39.152  27.462  30.466  1.00  0.00     0.049 A 
ATOM     57  C   UNL A   1      43.437  31.627  30.757  1.00  0.00     0.074 A 
ATOM     58  C   UNL A   1      38.469  27.416  31.665  1.00  0.00     0.029 A 
ATOM     59  N   UNL A   1      40.435  27.859  30.757  1.00  0.00    -0.354 N 
ATOM     60  N   UNL A   1      43.275  30.972  31.871  1.00  0.00    -0.248 NA
ATOM     61  C   UNL A   1      43.319  30.856  29.530  1.00  0.00     0.031 C 
ATOM     62  C   UNL A   1      39.244  28.208  32.560  1.00  0.00     0.029 A 
ATOM     63  C   UNL A   1      40.444  28.548  31.935  1.00  0.00     0.049 A 
ATOM     64  H   UNL A   1      41.226  27.675  30.200  1.00  0.00     0.167 HD
ATOM     65  C   UNL A   1      42.493  29.895  31.488  1.00  0.00     0.074 A 
ATOM     66  C   UNL A   1      42.602  29.839  30.022  1.00  0.00     0.031 C 
ATOM     67  C   UNL A   1      41.539  29.399  32.330  1.00  0.00     0.034 A 
BRANCH  54  68
ATOM     68  C   UNL A   1      39.564  26.892  27.992  1.00  0.00     0.023 A 
ATOM     69  C   UNL A   1      39.386  25.489  27.925  1.00  0.00     0.012 A 
ATOM     70  C   UNL A   1      40.648  27.428  27.259  1.00  0.00     0.148 A 
ATOM     71  C   UNL A   1      40.281  24.659  27.245  1.00  0.00     0.002 A 
ATOM     72  C   UNL A   1      41.505  26.604  26.536  1.00  0.00     0.091 A 
ATOM     73  F   UNL A   1      40.928  28.730  27.323  1.00  0.00    -0.205 F 
ATOM     74  C   UNL A   1      41.344  25.217  26.550  1.00  0.00     0.022 A 
BRANCH  72  75
ATOM     75  S   UNL A   1      42.889  27.252  25.583  1.00  0.00     0.127 S 
ATOM     76  O   UNL A   1      43.722  27.838  26.630  1.00  0.00    -0.237 OA
ATOM     77  O   UNL A   1      43.421  26.033  24.976  1.00  0.00    -0.237 OA
ATOM     78  O   UNL A   1      42.318  28.199  24.634  1.00  0.00    -0.744 OA
ENDBRANCH  72  75
ENDBRANCH  54  68
BRANCH  55  79
ATOM     79  C   UNL A   1      44.224  34.008  30.179  1.00  0.00     0.023 A 
ATOM     80  C   UNL A   1      45.529  34.011  30.740  1.00  0.00     0.012 A 
ATOM     81  C   UNL A   1      44.064  34.659  28.943  1.00  0.00     0.148 A 
ATOM     82  C   UNL A   1      46.620  34.615  30.078  1.00  0.00     0.002 A 
ATOM     83  C   UNL A   1      45.150  35.243  28.285  1.00  0.00     0.091 A 
ATOM     84  F   UNL A   1      42.860  34.620  28.361  1.00  0.00    -0.205 F 
ATOM     85  C   UNL A   1      46.432  35.221  28.842  1.00  0.00     0.022 A 
BRANCH  83  86
ATOM     86  S   UNL A   1      44.968  35.983  26.664  1.00  0.00     0.127 S 
ATOM     87  O   UNL A   1      44.339  34.907  25.898  1.00  0.00    -0.237 OA
ATOM     88  O   UNL A   1      44.109  37.130  26.938  1.00  0.00    -0.237 OA
ATOM     89  O   UNL A   1      46.322  36.301  26.241  1.00  0.00    -0.744 OA
ENDBRANCH  83  86
ENDBRANCH  55  79
BRANCH  67  90
ATOM     90  C   UNL A   1      41.537  29.858  33.765  1.00  0.00     0.023 A 
ATOM     91  C   UNL A   1      42.444  29.415  34.753  1.00  0.00     0.012 A 
ATOM     92  C   UNL A   1      40.665  30.913  34.068  1.00  0.00     0.148 A 
ATOM     93  C   UNL A   1      42.448  30.001  36.026  1.00  0.00     0.002 A 
ATOM     94  C   UNL A   1      40.703  31.519  35.312  1.00  0.00     0.091 A 
ATOM     95  F   UNL A   1      39.829  31.331  33.106  1.00  0.00    -0.205 F 
ATOM     96  C   UNL A   1      41.582  31.059  36.302  1.00  0.00     0.022 A 
BRANCH  94  97
ATOM     97  S   UNL A   1      39.688  32.952  35.659  1.00  0.00     0.127 S 
ATOM     98  O   UNL A   1      40.060  33.254  37.039  1.00  0.00    -0.237 OA
ATOM     99  O   UNL A   1      40.162  33.919  34.667  1.00  0.00    -0.237 OA
ATOM    100  O   UNL A   1      38.308  32.526  35.461  1.00  0.00    -0.744 OA
ENDBRANCH  94  97
ENDBRANCH  67  90
ENDBRANCH  41  42
ENDBRANCH  33  36
ENDBRANCH  31  32
ENDBRANCH   1  31
TORSDOF 16
ENDMDL
