MODEL 1
REMARK VINA RESULT:     -12.4      0.000      0.000
REMARK SMILES C[N@H+]1Cc2ccccc2C[C@@H]1C(=O)NCCC(=O)NCC(=O)NCCCCNC(=O)c1ccc(-c2c3nc(c(-c4cccc(S(=O)(=O)[O-])c4F)c4ccc([nH]4)c(-c4cccc(S(=O)(=O)[O-])c4F)c4nc(c(-c5cccc(S(=O)(=O)[O-])c5F)c5ccc2[nH]5)C=C4)C=C3)cc1
REMARK SMILES IDX 24 1 23 2 21 3 22 4 20 6 19 7 17 8 18 9 16 11 15 12 14 13
REMARK SMILES IDX 12 14 13 15 11 17 1 18 2 19 3 20 4 22 10 23 5 24 9 25 6 26
REMARK SMILES IDX 8 27 7 28 25 29 26 30 27 31 28 32 29 33 30 35 31 36 32 37
REMARK SMILES IDX 93 38 33 39 92 40 34 41 35 42 36 43 86 44 37 45 91 46 85 47
REMARK SMILES IDX 87 48 38 49 90 50 84 51 83 52 39 54 71 55 51 56 70 57 52 58
REMARK SMILES IDX 55 59 69 60 88 61 53 62 54 63 68 65 89 66 56 67 40 68 41 69
REMARK SMILES IDX 49 70 42 71 44 72 50 73 43 74 45 75 46 76 47 77 48 78 72 79
REMARK SMILES IDX 73 80 81 81 74 82 76 83 82 84 75 85 77 86 78 87 79 88 80 89
REMARK SMILES IDX 57 90 58 91 66 92 59 93 61 94 67 95 60 96 62 97 63 98 64 99
REMARK SMILES IDX 65 100
REMARK H PARENT 23 5 19 10 14 16 2 21 28 34 87 53 55 64
REMARK Flexibility Score: inf
ROOT
ATOM      1  C   UNL A   1      33.452  19.853  25.452  1.00  0.00     0.116 C 
ENDROOT
BRANCH   1   2
ATOM      2  N   UNL A   1      32.503  20.951  25.517  1.00  0.00    -0.355 N 
ATOM      3  C   UNL A   1      31.961  21.768  24.572  1.00  0.00     0.239 C 
ATOM      4  O   UNL A   1      31.116  22.582  24.962  1.00  0.00    -0.273 OA
ATOM      5  H   UNL A   1      32.188  21.142  26.429  1.00  0.00     0.163 HD
BRANCH   3   6
ATOM      6  C   UNL A   1      32.210  21.614  23.059  1.00  0.00     0.216 C 
BRANCH   6   7
ATOM      7  N   UNL A   1      32.262  22.818  22.249  1.00  0.00    -0.347 N 
ATOM      8  C   UNL A   1      33.216  23.785  22.182  1.00  0.00     0.222 C 
ATOM      9  O   UNL A   1      33.000  24.771  21.474  1.00  0.00    -0.275 OA
ATOM     10  H   UNL A   1      31.488  22.955  21.657  1.00  0.00     0.164 HD
BRANCH   8  11
ATOM     11  C   UNL A   1      34.490  23.681  22.991  1.00  0.00     0.121 C 
BRANCH  11  12
ATOM     12  C   UNL A   1      34.522  24.669  24.159  1.00  0.00     0.126 C 
BRANCH  12  13
ATOM     13  N   UNL A   1      33.236  24.795  24.835  1.00  0.00    -0.350 N 
ATOM     14  C   UNL A   1      32.675  25.972  25.241  1.00  0.00     0.278 C 
ATOM     15  O   UNL A   1      32.616  26.176  26.459  1.00  0.00    -0.268 OA
ATOM     16  H   UNL A   1      32.734  23.968  25.013  1.00  0.00     0.163 HD
BRANCH  14  17
ATOM     17  C   UNL A   1      31.961  26.905  24.237  1.00  0.00     0.278 C 
ATOM     18  C   UNL A   1      34.071  28.202  24.106  1.00  0.00     0.333 C 
ATOM     19  N   UNL A   1      32.606  28.253  24.176  1.00  0.00    -0.323 N 
ATOM     20  C   UNL A   1      32.102  28.976  22.988  1.00  0.00     0.299 C 
ATOM     21  H   UNL A   1      32.364  28.732  25.044  1.00  0.00     0.348 HD
ATOM     22  C   UNL A   1      30.594  28.964  22.846  1.00  0.00     0.010 A 
ATOM     23  C   UNL A   1      30.468  27.101  24.531  1.00  0.00     0.111 C 
ATOM     24  C   UNL A   1      29.971  29.834  21.940  1.00  0.00     0.010 A 
ATOM     25  C   UNL A   1      29.809  28.049  23.566  1.00  0.00    -0.033 A 
ATOM     26  C   UNL A   1      28.584  29.818  21.783  1.00  0.00     0.001 A 
ATOM     27  C   UNL A   1      28.415  28.057  23.425  1.00  0.00     0.004 A 
ATOM     28  C   UNL A   1      27.806  28.937  22.532  1.00  0.00     0.000 A 
ENDBRANCH  14  17
ENDBRANCH  12  13
ENDBRANCH  11  12
ENDBRANCH   8  11
ENDBRANCH   6   7
ENDBRANCH   3   6
ENDBRANCH   1   2
BRANCH   1  29
ATOM     29  C   UNL A   1      34.845  20.289  25.021  1.00  0.00     0.023 C 
BRANCH  29  30
ATOM     30  C   UNL A   1      35.443  21.413  25.863  1.00  0.00     0.023 C 
BRANCH  30  31
ATOM     31  C   UNL A   1      36.823  21.899  25.428  1.00  0.00     0.116 C 
BRANCH  31  32
ATOM     32  N   UNL A   1      37.846  20.857  25.440  1.00  0.00    -0.352 N 
ATOM     33  C   UNL A   1      39.131  20.924  25.927  1.00  0.00     0.251 C 
ATOM     34  H   UNL A   1      37.581  19.993  25.048  1.00  0.00     0.163 HD
ATOM     35  O   UNL A   1      39.905  19.983  25.790  1.00  0.00    -0.269 OA
BRANCH  33  36
ATOM     36  C   UNL A   1      39.577  22.171  26.580  1.00  0.00     0.039 A 
ATOM     37  C   UNL A   1      40.574  22.108  27.556  1.00  0.00     0.014 A 
ATOM     38  C   UNL A   1      39.085  23.402  26.139  1.00  0.00     0.014 A 
ATOM     39  C   UNL A   1      41.156  23.291  28.017  1.00  0.00     0.010 A 
ATOM     40  C   UNL A   1      39.719  24.570  26.542  1.00  0.00     0.010 A 
ATOM     41  C   UNL A   1      40.771  24.527  27.472  1.00  0.00    -0.014 A 
BRANCH  41  42
ATOM     42  C   UNL A   1      41.475  25.789  27.814  1.00  0.00     0.031 A 
ATOM     43  C   UNL A   1      40.753  26.869  28.569  1.00  0.00     0.074 A 
ATOM     44  C   UNL A   1      42.712  26.017  27.328  1.00  0.00     0.049 A 
ATOM     45  N   UNL A   1      41.145  28.087  28.843  1.00  0.00    -0.248 NA
ATOM     46  C   UNL A   1      39.398  26.550  29.046  1.00  0.00     0.031 C 
ATOM     47  C   UNL A   1      43.490  25.080  26.514  1.00  0.00     0.029 A 
ATOM     48  N   UNL A   1      43.521  27.122  27.422  1.00  0.00    -0.354 N 
ATOM     49  C   UNL A   1      40.068  28.695  29.475  1.00  0.00     0.074 A 
ATOM     50  C   UNL A   1      38.998  27.721  29.519  1.00  0.00     0.031 C 
ATOM     51  C   UNL A   1      44.663  25.645  26.191  1.00  0.00     0.029 A 
ATOM     52  C   UNL A   1      44.711  26.994  26.744  1.00  0.00     0.049 A 
ATOM     53  H   UNL A   1      43.272  27.930  27.926  1.00  0.00     0.167 HD
ATOM     54  C   UNL A   1      39.984  29.941  30.000  1.00  0.00     0.034 A 
ATOM     55  C   UNL A   1      45.726  27.867  26.583  1.00  0.00     0.034 A 
ATOM     56  C   UNL A   1      41.071  30.881  30.017  1.00  0.00     0.049 A 
ATOM     57  C   UNL A   1      45.633  29.225  27.226  1.00  0.00     0.074 A 
ATOM     58  C   UNL A   1      41.123  32.125  30.618  1.00  0.00     0.029 A 
ATOM     59  N   UNL A   1      42.299  30.679  29.406  1.00  0.00    -0.354 N 
ATOM     60  N   UNL A   1      44.666  29.727  27.955  1.00  0.00    -0.248 NA
ATOM     61  C   UNL A   1      46.782  30.125  27.050  1.00  0.00     0.031 C 
ATOM     62  C   UNL A   1      42.384  32.679  30.366  1.00  0.00     0.029 A 
ATOM     63  C   UNL A   1      43.118  31.775  29.613  1.00  0.00     0.049 A 
ATOM     64  H   UNL A   1      42.552  29.873  28.899  1.00  0.00     0.167 HD
ATOM     65  C   UNL A   1      45.103  30.984  28.356  1.00  0.00     0.074 A 
ATOM     66  C   UNL A   1      46.429  31.161  27.798  1.00  0.00     0.031 C 
ATOM     67  C   UNL A   1      44.459  31.913  29.104  1.00  0.00     0.034 A 
BRANCH  54  68
ATOM     68  C   UNL A   1      38.687  30.324  30.660  1.00  0.00     0.023 A 
ATOM     69  C   UNL A   1      38.464  29.968  32.007  1.00  0.00     0.012 A 
ATOM     70  C   UNL A   1      37.699  31.046  29.965  1.00  0.00     0.148 A 
ATOM     71  C   UNL A   1      37.263  30.286  32.637  1.00  0.00     0.002 A 
ATOM     72  C   UNL A   1      36.520  31.397  30.614  1.00  0.00     0.091 A 
ATOM     73  F   UNL A   1      37.911  31.353  28.677  1.00  0.00    -0.205 F 
ATOM     74  C   UNL A   1      36.295  31.007  31.944  1.00  0.00     0.022 A 
BRANCH  72  75
ATOM     75  S   UNL A   1      35.254  32.390  29.813  1.00  0.00     0.127 S 
ATOM     76  O   UNL A   1      34.316  32.618  30.911  1.00  0.00    -0.237 OA
ATOM     77  O   UNL A   1      36.000  33.577  29.395  1.00  0.00    -0.237 OA
ATOM     78  O   UNL A   1      34.761  31.574  28.712  1.00  0.00    -0.744 OA
ENDBRANCH  72  75
ENDBRANCH  54  68
BRANCH  55  79
ATOM     79  C   UNL A   1      46.960  27.442  25.865  1.00  0.00     0.023 A 
ATOM     80  C   UNL A   1      47.904  26.651  26.547  1.00  0.00     0.012 A 
ATOM     81  C   UNL A   1      47.181  27.764  24.511  1.00  0.00     0.148 A 
ATOM     82  C   UNL A   1      49.056  26.203  25.903  1.00  0.00     0.002 A 
ATOM     83  C   UNL A   1      48.309  27.274  23.861  1.00  0.00     0.091 A 
ATOM     84  F   UNL A   1      46.275  28.525  23.884  1.00  0.00    -0.205 F 
ATOM     85  C   UNL A   1      49.255  26.505  24.558  1.00  0.00     0.022 A 
BRANCH  83  86
ATOM     86  S   UNL A   1      48.590  27.506  22.101  1.00  0.00     0.127 S 
ATOM     87  O   UNL A   1      47.366  28.188  21.691  1.00  0.00    -0.237 OA
ATOM     88  O   UNL A   1      49.793  28.340  22.097  1.00  0.00    -0.237 OA
ATOM     89  O   UNL A   1      48.784  26.171  21.555  1.00  0.00    -0.744 OA
ENDBRANCH  83  86
ENDBRANCH  55  79
BRANCH  67  90
ATOM     90  C   UNL A   1      45.183  33.198  29.399  1.00  0.00     0.023 A 
ATOM     91  C   UNL A   1      46.078  33.260  30.485  1.00  0.00     0.012 A 
ATOM     92  C   UNL A   1      45.044  34.315  28.552  1.00  0.00     0.148 A 
ATOM     93  C   UNL A   1      46.808  34.421  30.737  1.00  0.00     0.002 A 
ATOM     94  C   UNL A   1      45.805  35.456  28.785  1.00  0.00     0.091 A 
ATOM     95  F   UNL A   1      44.169  34.246  27.538  1.00  0.00    -0.205 F 
ATOM     96  C   UNL A   1      46.682  35.512  29.881  1.00  0.00     0.022 A 
BRANCH  94  97
ATOM     97  S   UNL A   1      45.772  36.870  27.677  1.00  0.00     0.127 S 
ATOM     98  O   UNL A   1      46.629  37.822  28.382  1.00  0.00    -0.237 OA
ATOM     99  O   UNL A   1      46.349  36.323  26.449  1.00  0.00    -0.237 OA
ATOM    100  O   UNL A   1      44.370  37.250  27.563  1.00  0.00    -0.744 OA
ENDBRANCH  94  97
ENDBRANCH  67  90
ENDBRANCH  41  42
ENDBRANCH  33  36
ENDBRANCH  31  32
ENDBRANCH  30  31
ENDBRANCH  29  30
ENDBRANCH   1  29
TORSDOF 19
ENDMDL
MODEL 2
REMARK VINA RESULT:     -12.0      1.641      7.617
REMARK SMILES C[N@H+]1Cc2ccccc2C[C@@H]1C(=O)NCCC(=O)NCC(=O)NCCCCNC(=O)c1ccc(-c2c3nc(c(-c4cccc(S(=O)(=O)[O-])c4F)c4ccc([nH]4)c(-c4cccc(S(=O)(=O)[O-])c4F)c4nc(c(-c5cccc(S(=O)(=O)[O-])c5F)c5ccc2[nH]5)C=C4)C=C3)cc1
REMARK SMILES IDX 24 1 23 2 21 3 22 4 20 6 19 7 17 8 18 9 16 11 15 12 14 13
REMARK SMILES IDX 12 14 13 15 11 17 1 18 2 19 3 20 4 22 10 23 5 24 9 25 6 26
REMARK SMILES IDX 8 27 7 28 25 29 26 30 27 31 28 32 29 33 30 35 31 36 32 37
REMARK SMILES IDX 93 38 33 39 92 40 34 41 35 42 36 43 86 44 37 45 91 46 85 47
REMARK SMILES IDX 87 48 38 49 90 50 84 51 83 52 39 54 71 55 51 56 70 57 52 58
REMARK SMILES IDX 55 59 69 60 88 61 53 62 54 63 68 65 89 66 56 67 40 68 41 69
REMARK SMILES IDX 49 70 42 71 44 72 50 73 43 74 45 75 46 76 47 77 48 78 72 79
REMARK SMILES IDX 73 80 81 81 74 82 76 83 82 84 75 85 77 86 78 87 79 88 80 89
REMARK SMILES IDX 57 90 58 91 66 92 59 93 61 94 67 95 60 96 62 97 63 98 64 99
REMARK SMILES IDX 65 100
REMARK H PARENT 23 5 19 10 14 16 2 21 28 34 87 53 55 64
REMARK Flexibility Score: inf
ROOT
ATOM      1  C   UNL A   1      34.088  22.811  24.676  1.00  0.00     0.116 C 
ENDROOT
BRANCH   1   2
ATOM      2  N   UNL A   1      33.451  21.510  24.771  1.00  0.00    -0.355 N 
ATOM      3  C   UNL A   1      32.189  21.112  25.096  1.00  0.00     0.239 C 
ATOM      4  O   UNL A   1      31.953  19.901  25.018  1.00  0.00    -0.273 OA
ATOM      5  H   UNL A   1      34.054  20.762  24.555  1.00  0.00     0.163 HD
BRANCH   3   6
ATOM      6  C   UNL A   1      31.029  22.086  25.377  1.00  0.00     0.216 C 
BRANCH   6   7
ATOM      7  N   UNL A   1      31.347  23.384  25.942  1.00  0.00    -0.347 N 
ATOM      8  C   UNL A   1      31.177  24.629  25.423  1.00  0.00     0.222 C 
ATOM      9  O   UNL A   1      31.608  25.593  26.060  1.00  0.00    -0.275 OA
ATOM     10  H   UNL A   1      31.750  23.359  26.841  1.00  0.00     0.164 HD
BRANCH   8  11
ATOM     11  C   UNL A   1      30.519  24.829  24.076  1.00  0.00     0.121 C 
BRANCH  11  12
ATOM     12  C   UNL A   1      31.529  24.832  22.927  1.00  0.00     0.126 C 
BRANCH  12  13
ATOM     13  N   UNL A   1      32.606  25.798  23.117  1.00  0.00    -0.350 N 
ATOM     14  C   UNL A   1      32.730  26.978  22.441  1.00  0.00     0.278 C 
ATOM     15  O   UNL A   1      33.655  27.064  21.626  1.00  0.00    -0.268 OA
ATOM     16  H   UNL A   1      33.297  25.582  23.784  1.00  0.00     0.163 HD
BRANCH  14  17
ATOM     17  C   UNL A   1      31.885  28.213  22.828  1.00  0.00     0.278 C 
ATOM     18  C   UNL A   1      33.217  28.334  24.917  1.00  0.00     0.333 C 
ATOM     19  N   UNL A   1      31.888  28.445  24.306  1.00  0.00    -0.323 N 
ATOM     20  C   UNL A   1      31.353  29.797  24.583  1.00  0.00     0.299 C 
ATOM     21  H   UNL A   1      31.306  27.714  24.717  1.00  0.00     0.348 HD
ATOM     22  C   UNL A   1      30.052  30.107  23.872  1.00  0.00     0.010 A 
ATOM     23  C   UNL A   1      30.428  28.135  22.358  1.00  0.00     0.111 C 
ATOM     24  C   UNL A   1      29.296  31.224  24.256  1.00  0.00     0.010 A 
ATOM     25  C   UNL A   1      29.617  29.328  22.789  1.00  0.00    -0.033 A 
ATOM     26  C   UNL A   1      28.107  31.536  23.596  1.00  0.00     0.001 A 
ATOM     27  C   UNL A   1      28.408  29.629  22.148  1.00  0.00     0.004 A 
ATOM     28  C   UNL A   1      27.658  30.733  22.549  1.00  0.00     0.000 A 
ENDBRANCH  14  17
ENDBRANCH  12  13
ENDBRANCH  11  12
ENDBRANCH   8  11
ENDBRANCH   6   7
ENDBRANCH   3   6
ENDBRANCH   1   2
BRANCH   1  29
ATOM     29  C   UNL A   1      35.123  23.053  25.766  1.00  0.00     0.023 C 
BRANCH  29  30
ATOM     30  C   UNL A   1      36.071  21.881  26.006  1.00  0.00     0.023 C 
BRANCH  30  31
ATOM     31  C   UNL A   1      37.244  21.774  25.036  1.00  0.00     0.116 C 
BRANCH  31  32
ATOM     32  N   UNL A   1      38.223  20.754  25.405  1.00  0.00    -0.352 N 
ATOM     33  C   UNL A   1      39.385  20.904  26.126  1.00  0.00     0.251 C 
ATOM     34  H   UNL A   1      38.025  19.841  25.097  1.00  0.00     0.163 HD
ATOM     35  O   UNL A   1      40.153  19.962  26.285  1.00  0.00    -0.269 OA
BRANCH  33  36
ATOM     36  C   UNL A   1      39.716  22.239  26.667  1.00  0.00     0.039 A 
ATOM     37  C   UNL A   1      40.736  22.353  27.614  1.00  0.00     0.014 A 
ATOM     38  C   UNL A   1      39.091  23.375  26.147  1.00  0.00     0.014 A 
ATOM     39  C   UNL A   1      41.204  23.622  27.965  1.00  0.00     0.010 A 
ATOM     40  C   UNL A   1      39.612  24.629  26.439  1.00  0.00     0.010 A 
ATOM     41  C   UNL A   1      40.684  24.765  27.337  1.00  0.00    -0.014 A 
BRANCH  41  42
ATOM     42  C   UNL A   1      41.263  26.115  27.560  1.00  0.00     0.031 A 
ATOM     43  C   UNL A   1      42.663  26.415  27.106  1.00  0.00     0.074 A 
ATOM     44  C   UNL A   1      40.581  27.022  28.289  1.00  0.00     0.049 A 
ATOM     45  N   UNL A   1      43.392  27.478  27.325  1.00  0.00    -0.248 NA
ATOM     46  C   UNL A   1      43.347  25.364  26.334  1.00  0.00     0.031 C 
ATOM     47  C   UNL A   1      39.245  26.824  28.855  1.00  0.00     0.029 A 
ATOM     48  N   UNL A   1      40.933  28.281  28.707  1.00  0.00    -0.354 N 
ATOM     49  C   UNL A   1      44.634  27.205  26.768  1.00  0.00     0.074 A 
ATOM     50  C   UNL A   1      44.569  25.865  26.225  1.00  0.00     0.031 C 
ATOM     51  C   UNL A   1      38.888  27.924  29.537  1.00  0.00     0.029 A 
ATOM     52  C   UNL A   1      39.978  28.892  29.486  1.00  0.00     0.049 A 
ATOM     53  H   UNL A   1      41.789  28.707  28.470  1.00  0.00     0.167 HD
ATOM     54  C   UNL A   1      45.724  28.006  26.687  1.00  0.00     0.034 A 
ATOM     55  C   UNL A   1      39.982  30.095  30.094  1.00  0.00     0.034 A 
ATOM     56  C   UNL A   1      45.763  29.360  27.165  1.00  0.00     0.049 A 
ATOM     57  C   UNL A   1      41.182  30.990  29.940  1.00  0.00     0.074 A 
ATOM     58  C   UNL A   1      46.779  30.290  27.036  1.00  0.00     0.029 A 
ATOM     59  N   UNL A   1      44.739  29.981  27.864  1.00  0.00    -0.354 N 
ATOM     60  N   UNL A   1      42.291  30.774  29.276  1.00  0.00    -0.248 NA
ATOM     61  C   UNL A   1      41.119  32.305  30.594  1.00  0.00     0.031 C 
ATOM     62  C   UNL A   1      46.370  31.474  27.662  1.00  0.00     0.029 A 
ATOM     63  C   UNL A   1      45.097  31.282  28.175  1.00  0.00     0.049 A 
ATOM     64  H   UNL A   1      43.882  29.558  28.104  1.00  0.00     0.167 HD
ATOM     65  C   UNL A   1      43.042  31.937  29.399  1.00  0.00     0.074 A 
ATOM     66  C   UNL A   1      42.255  32.859  30.192  1.00  0.00     0.031 C 
ATOM     67  C   UNL A   1      44.278  32.210  28.912  1.00  0.00     0.034 A 
BRANCH  54  68
ATOM     68  C   UNL A   1      46.937  27.449  25.993  1.00  0.00     0.023 A 
ATOM     69  C   UNL A   1      47.054  27.580  24.593  1.00  0.00     0.012 A 
ATOM     70  C   UNL A   1      47.967  26.816  26.714  1.00  0.00     0.148 A 
ATOM     71  C   UNL A   1      48.154  27.052  23.919  1.00  0.00     0.002 A 
ATOM     72  C   UNL A   1      49.080  26.329  26.039  1.00  0.00     0.091 A 
ATOM     73  F   UNL A   1      47.829  26.672  28.041  1.00  0.00    -0.205 F 
ATOM     74  C   UNL A   1      49.170  26.435  24.642  1.00  0.00     0.022 A 
BRANCH  72  75
ATOM     75  S   UNL A   1      50.468  25.586  26.907  1.00  0.00     0.127 S 
ATOM     76  O   UNL A   1      51.368  25.259  25.803  1.00  0.00    -0.237 OA
ATOM     77  O   UNL A   1      50.928  26.680  27.764  1.00  0.00    -0.237 OA
ATOM     78  O   UNL A   1      49.909  24.453  27.632  1.00  0.00    -0.744 OA
ENDBRANCH  72  75
ENDBRANCH  54  68
BRANCH  55  79
ATOM     79  C   UNL A   1      38.767  30.560  30.819  1.00  0.00     0.023 A 
ATOM     80  C   UNL A   1      38.706  30.395  32.217  1.00  0.00     0.012 A 
ATOM     81  C   UNL A   1      37.705  31.207  30.155  1.00  0.00     0.148 A 
ATOM     82  C   UNL A   1      37.601  30.847  32.939  1.00  0.00     0.002 A 
ATOM     83  C   UNL A   1      36.629  31.697  30.889  1.00  0.00     0.091 A 
ATOM     84  F   UNL A   1      37.780  31.345  28.825  1.00  0.00    -0.205 F 
ATOM     85  C   UNL A   1      36.569  31.506  32.278  1.00  0.00     0.022 A 
BRANCH  83  86
ATOM     86  S   UNL A   1      35.312  32.666  30.144  1.00  0.00     0.127 S 
ATOM     87  O   UNL A   1      36.045  33.819  29.628  1.00  0.00    -0.237 OA
ATOM     88  O   UNL A   1      34.805  31.749  29.122  1.00  0.00    -0.237 OA
ATOM     89  O   UNL A   1      34.372  32.944  31.220  1.00  0.00    -0.744 OA
ENDBRANCH  83  86
ENDBRANCH  55  79
BRANCH  67  90
ATOM     90  C   UNL A   1      44.853  33.572  29.190  1.00  0.00     0.023 A 
ATOM     91  C   UNL A   1      45.592  33.788  30.369  1.00  0.00     0.012 A 
ATOM     92  C   UNL A   1      44.738  34.610  28.245  1.00  0.00     0.148 A 
ATOM     93  C   UNL A   1      46.189  35.024  30.615  1.00  0.00     0.002 A 
ATOM     94  C   UNL A   1      45.370  35.827  28.477  1.00  0.00     0.091 A 
ATOM     95  F   UNL A   1      44.011  34.393  27.139  1.00  0.00    -0.205 F 
ATOM     96  C   UNL A   1      46.090  36.038  29.665  1.00  0.00     0.022 A 
BRANCH  94  97
ATOM     97  S   UNL A   1      45.370  37.152  27.263  1.00  0.00     0.127 S 
ATOM     98  O   UNL A   1      46.032  36.515  26.126  1.00  0.00    -0.237 OA
ATOM     99  O   UNL A   1      43.941  37.405  27.073  1.00  0.00    -0.237 OA
ATOM    100  O   UNL A   1      46.097  38.253  27.880  1.00  0.00    -0.744 OA
ENDBRANCH  94  97
ENDBRANCH  67  90
ENDBRANCH  41  42
ENDBRANCH  33  36
ENDBRANCH  31  32
ENDBRANCH  30  31
ENDBRANCH  29  30
ENDBRANCH   1  29
TORSDOF 19
ENDMDL
MODEL 3
REMARK VINA RESULT:     -11.9      1.696      7.753
REMARK SMILES C[N@H+]1Cc2ccccc2C[C@@H]1C(=O)NCCC(=O)NCC(=O)NCCCCNC(=O)c1ccc(-c2c3nc(c(-c4cccc(S(=O)(=O)[O-])c4F)c4ccc([nH]4)c(-c4cccc(S(=O)(=O)[O-])c4F)c4nc(c(-c5cccc(S(=O)(=O)[O-])c5F)c5ccc2[nH]5)C=C4)C=C3)cc1
REMARK SMILES IDX 24 1 23 2 21 3 22 4 20 6 19 7 17 8 18 9 16 11 15 12 14 13
REMARK SMILES IDX 12 14 13 15 11 17 1 18 2 19 3 20 4 22 10 23 5 24 9 25 6 26
REMARK SMILES IDX 8 27 7 28 25 29 26 30 27 31 28 32 29 33 30 35 31 36 32 37
REMARK SMILES IDX 93 38 33 39 92 40 34 41 35 42 36 43 86 44 37 45 91 46 85 47
REMARK SMILES IDX 87 48 38 49 90 50 84 51 83 52 39 54 71 55 51 56 70 57 52 58
REMARK SMILES IDX 55 59 69 60 88 61 53 62 54 63 68 65 89 66 56 67 40 68 41 69
REMARK SMILES IDX 49 70 42 71 44 72 50 73 43 74 45 75 46 76 47 77 48 78 72 79
REMARK SMILES IDX 73 80 81 81 74 82 76 83 82 84 75 85 77 86 78 87 79 88 80 89
REMARK SMILES IDX 57 90 58 91 66 92 59 93 61 94 67 95 60 96 62 97 63 98 64 99
REMARK SMILES IDX 65 100
REMARK H PARENT 23 5 19 10 14 16 2 21 28 34 87 53 55 64
REMARK Flexibility Score: inf
ROOT
ATOM      1  C   UNL A   1      33.792  19.649  25.066  1.00  0.00     0.116 C 
ENDROOT
BRANCH   1   2
ATOM      2  N   UNL A   1      32.782  20.688  25.166  1.00  0.00    -0.355 N 
ATOM      3  C   UNL A   1      32.151  21.464  24.242  1.00  0.00     0.239 C 
ATOM      4  O   UNL A   1      31.276  22.228  24.665  1.00  0.00    -0.273 OA
ATOM      5  H   UNL A   1      32.495  20.867  26.091  1.00  0.00     0.163 HD
BRANCH   3   6
ATOM      6  C   UNL A   1      32.343  21.313  22.721  1.00  0.00     0.216 C 
BRANCH   6   7
ATOM      7  N   UNL A   1      32.410  22.521  21.918  1.00  0.00    -0.347 N 
ATOM      8  C   UNL A   1      33.234  23.597  22.025  1.00  0.00     0.222 C 
ATOM      9  O   UNL A   1      33.045  24.555  21.272  1.00  0.00    -0.275 OA
ATOM     10  H   UNL A   1      31.757  22.568  21.182  1.00  0.00     0.164 HD
BRANCH   8  11
ATOM     11  C   UNL A   1      34.326  23.642  23.070  1.00  0.00     0.121 C 
BRANCH  11  12
ATOM     12  C   UNL A   1      34.182  24.838  24.014  1.00  0.00     0.126 C 
BRANCH  12  13
ATOM     13  N   UNL A   1      32.836  24.976  24.559  1.00  0.00    -0.350 N 
ATOM     14  C   UNL A   1      32.543  25.318  25.848  1.00  0.00     0.278 C 
ATOM     15  O   UNL A   1      32.057  24.438  26.566  1.00  0.00    -0.268 OA
ATOM     16  H   UNL A   1      32.081  24.809  23.950  1.00  0.00     0.163 HD
BRANCH  14  17
ATOM     17  C   UNL A   1      32.620  26.787  26.321  1.00  0.00     0.278 C 
ATOM     18  C   UNL A   1      30.570  27.211  24.992  1.00  0.00     0.333 C 
ATOM     19  N   UNL A   1      31.890  27.707  25.395  1.00  0.00    -0.323 N 
ATOM     20  C   UNL A   1      31.718  29.020  26.056  1.00  0.00     0.299 C 
ATOM     21  H   UNL A   1      32.455  27.779  24.548  1.00  0.00     0.348 HD
ATOM     22  C   UNL A   1      32.985  29.577  26.670  1.00  0.00     0.010 A 
ATOM     23  C   UNL A   1      34.053  27.309  26.483  1.00  0.00     0.111 C 
ATOM     24  C   UNL A   1      33.034  30.920  27.074  1.00  0.00     0.010 A 
ATOM     25  C   UNL A   1      34.099  28.754  26.899  1.00  0.00    -0.033 A 
ATOM     26  C   UNL A   1      34.187  31.441  27.662  1.00  0.00     0.001 A 
ATOM     27  C   UNL A   1      35.263  29.290  27.464  1.00  0.00     0.004 A 
ATOM     28  C   UNL A   1      35.305  30.630  27.847  1.00  0.00     0.000 A 
ENDBRANCH  14  17
ENDBRANCH  12  13
ENDBRANCH  11  12
ENDBRANCH   8  11
ENDBRANCH   6   7
ENDBRANCH   3   6
ENDBRANCH   1   2
BRANCH   1  29
ATOM     29  C   UNL A   1      35.188  20.193  24.800  1.00  0.00     0.023 C 
BRANCH  29  30
ATOM     30  C   UNL A   1      35.578  21.385  25.670  1.00  0.00     0.023 C 
BRANCH  30  31
ATOM     31  C   UNL A   1      36.973  21.952  25.424  1.00  0.00     0.116 C 
BRANCH  31  32
ATOM     32  N   UNL A   1      38.044  20.973  25.588  1.00  0.00    -0.352 N 
ATOM     33  C   UNL A   1      39.293  21.154  26.138  1.00  0.00     0.251 C 
ATOM     34  H   UNL A   1      37.848  20.066  25.262  1.00  0.00     0.163 HD
ATOM     35  O   UNL A   1      40.121  20.250  26.130  1.00  0.00    -0.269 OA
BRANCH  33  36
ATOM     36  C   UNL A   1      39.635  22.478  26.698  1.00  0.00     0.039 A 
ATOM     37  C   UNL A   1      40.652  22.570  27.651  1.00  0.00     0.014 A 
ATOM     38  C   UNL A   1      39.024  23.627  26.191  1.00  0.00     0.014 A 
ATOM     39  C   UNL A   1      41.131  23.828  28.020  1.00  0.00     0.010 A 
ATOM     40  C   UNL A   1      39.556  24.872  26.502  1.00  0.00     0.010 A 
ATOM     41  C   UNL A   1      40.625  24.985  27.406  1.00  0.00    -0.014 A 
BRANCH  41  42
ATOM     42  C   UNL A   1      41.217  26.326  27.649  1.00  0.00     0.031 A 
ATOM     43  C   UNL A   1      42.608  26.630  27.169  1.00  0.00     0.074 A 
ATOM     44  C   UNL A   1      40.558  27.217  28.417  1.00  0.00     0.049 A 
ATOM     45  N   UNL A   1      43.347  27.684  27.398  1.00  0.00    -0.248 NA
ATOM     46  C   UNL A   1      43.267  25.597  26.355  1.00  0.00     0.031 C 
ATOM     47  C   UNL A   1      39.235  27.012  29.010  1.00  0.00     0.029 A 
ATOM     48  N   UNL A   1      40.927  28.464  28.858  1.00  0.00    -0.354 N 
ATOM     49  C   UNL A   1      44.574  27.419  26.805  1.00  0.00     0.074 A 
ATOM     50  C   UNL A   1      44.489  26.093  26.229  1.00  0.00     0.031 C 
ATOM     51  C   UNL A   1      38.900  28.095  29.728  1.00  0.00     0.029 A 
ATOM     52  C   UNL A   1      39.994  29.059  29.675  1.00  0.00     0.049 A 
ATOM     53  H   UNL A   1      41.779  28.891  28.612  1.00  0.00     0.167 HD
ATOM     54  C   UNL A   1      45.666  28.216  26.718  1.00  0.00     0.034 A 
ATOM     55  C   UNL A   1      40.019  30.246  30.314  1.00  0.00     0.034 A 
ATOM     56  C   UNL A   1      45.724  29.558  27.229  1.00  0.00     0.049 A 
ATOM     57  C   UNL A   1      41.220  31.139  30.154  1.00  0.00     0.074 A 
ATOM     58  C   UNL A   1      46.742  30.485  27.099  1.00  0.00     0.029 A 
ATOM     59  N   UNL A   1      44.721  30.165  27.968  1.00  0.00    -0.354 N 
ATOM     60  N   UNL A   1      42.312  30.934  29.458  1.00  0.00    -0.248 NA
ATOM     61  C   UNL A   1      41.180  32.437  30.843  1.00  0.00     0.031 C 
ATOM     62  C   UNL A   1      46.355  31.655  27.765  1.00  0.00     0.029 A 
ATOM     63  C   UNL A   1      45.093  31.456  28.303  1.00  0.00     0.049 A 
ATOM     64  H   UNL A   1      43.867  29.741  28.218  1.00  0.00     0.167 HD
ATOM     65  C   UNL A   1      43.072  32.090  29.592  1.00  0.00     0.074 A 
ATOM     66  C   UNL A   1      42.309  32.996  30.427  1.00  0.00     0.031 C 
ATOM     67  C   UNL A   1      44.297  32.370  29.083  1.00  0.00     0.034 A 
BRANCH  54  68
ATOM     68  C   UNL A   1      46.859  27.672  25.981  1.00  0.00     0.023 A 
ATOM     69  C   UNL A   1      46.953  27.855  24.585  1.00  0.00     0.012 A 
ATOM     70  C   UNL A   1      47.893  26.999  26.658  1.00  0.00     0.148 A 
ATOM     71  C   UNL A   1      48.033  27.339  23.871  1.00  0.00     0.002 A 
ATOM     72  C   UNL A   1      48.988  26.524  25.945  1.00  0.00     0.091 A 
ATOM     73  F   UNL A   1      47.778  26.806  27.981  1.00  0.00    -0.205 F 
ATOM     74  C   UNL A   1      49.055  26.682  24.551  1.00  0.00     0.022 A 
BRANCH  72  75
ATOM     75  S   UNL A   1      50.381  25.731  26.758  1.00  0.00     0.127 S 
ATOM     76  O   UNL A   1      49.762  24.522  27.297  1.00  0.00    -0.237 OA
ATOM     77  O   UNL A   1      51.306  25.498  25.648  1.00  0.00    -0.237 OA
ATOM     78  O   UNL A   1      50.857  26.696  27.740  1.00  0.00    -0.744 OA
ENDBRANCH  72  75
ENDBRANCH  54  68
BRANCH  55  79
ATOM     79  C   UNL A   1      38.824  30.699  31.079  1.00  0.00     0.023 A 
ATOM     80  C   UNL A   1      38.635  30.216  32.389  1.00  0.00     0.012 A 
ATOM     81  C   UNL A   1      37.912  31.634  30.552  1.00  0.00     0.148 A 
ATOM     82  C   UNL A   1      37.548  30.640  33.154  1.00  0.00     0.002 A 
ATOM     83  C   UNL A   1      36.857  32.087  31.337  1.00  0.00     0.091 A 
ATOM     84  F   UNL A   1      38.106  32.073  29.301  1.00  0.00    -0.205 F 
ATOM     85  C   UNL A   1      36.665  31.582  32.633  1.00  0.00     0.022 A 
BRANCH  83  86
ATOM     86  S   UNL A   1      35.741  33.390  30.800  1.00  0.00     0.127 S 
ATOM     87  O   UNL A   1      36.256  33.694  29.468  1.00  0.00    -0.237 OA
ATOM     88  O   UNL A   1      34.448  32.703  30.820  1.00  0.00    -0.237 OA
ATOM     89  O   UNL A   1      35.871  34.452  31.787  1.00  0.00    -0.744 OA
ENDBRANCH  83  86
ENDBRANCH  55  79
BRANCH  67  90
ATOM     90  C   UNL A   1      44.887  33.721  29.381  1.00  0.00     0.023 A 
ATOM     91  C   UNL A   1      45.626  33.912  30.565  1.00  0.00     0.012 A 
ATOM     92  C   UNL A   1      44.784  34.774  28.452  1.00  0.00     0.148 A 
ATOM     93  C   UNL A   1      46.236  35.138  30.829  1.00  0.00     0.002 A 
ATOM     94  C   UNL A   1      45.429  35.980  28.702  1.00  0.00     0.091 A 
ATOM     95  F   UNL A   1      44.056  34.581  27.342  1.00  0.00    -0.205 F 
ATOM     96  C   UNL A   1      46.149  36.166  29.894  1.00  0.00     0.022 A 
BRANCH  94  97
ATOM     97  S   UNL A   1      45.444  37.323  27.508  1.00  0.00     0.127 S 
ATOM     98  O   UNL A   1      44.015  37.546  27.291  1.00  0.00    -0.237 OA
ATOM     99  O   UNL A   1      46.123  38.391  28.242  1.00  0.00    -0.237 OA
ATOM    100  O   UNL A   1      46.184  36.820  26.358  1.00  0.00    -0.744 OA
ENDBRANCH  94  97
ENDBRANCH  67  90
ENDBRANCH  41  42
ENDBRANCH  33  36
ENDBRANCH  31  32
ENDBRANCH  30  31
ENDBRANCH  29  30
ENDBRANCH   1  29
TORSDOF 19
ENDMDL
