MODEL 1
REMARK VINA RESULT:      -9.5      0.000      0.000
REMARK SMILES CC[C@@H](Oc1ccccc1/C=C1\S/C(=[NH+]\c2cccc(O)c2)N(CC)C1=O)C(=O)NCCCCNC(=O)c1ccc(-c2c3nc(c(-c4cccc(S(=O)(=O)[O-])c4F)c4ccc([nH]4)c(-c4cccc(S(=O)(=O)[O-])c4F)c4nc(c(-c5cccc(S(=O)(=O)[O-])c5F)c5ccc2[nH]5)C=C4)C=C3)cc1
REMARK SMILES IDX 31 1 30 2 28 3 29 4 3 6 2 7 1 8 4 9 5 10 6 11 10 12 7 13
REMARK SMILES IDX 9 14 8 15 11 16 12 17 13 18 26 19 14 20 23 21 27 22 15 23
REMARK SMILES IDX 24 25 25 26 16 27 17 28 22 29 18 30 20 31 19 32 21 33 32 35
REMARK SMILES IDX 33 36 34 37 35 38 36 39 37 41 38 42 39 43 100 44 40 45 99 46
REMARK SMILES IDX 41 47 42 48 43 49 93 50 44 51 98 52 92 53 94 54 45 55 97 56
REMARK SMILES IDX 91 57 90 58 46 60 78 61 58 62 77 63 59 64 62 65 76 66 95 67
REMARK SMILES IDX 60 68 61 69 75 71 96 72 63 73 47 74 48 75 56 76 49 77 51 78
REMARK SMILES IDX 57 79 50 80 52 81 53 82 54 83 55 84 79 85 80 86 88 87 81 88
REMARK SMILES IDX 83 89 89 90 82 91 84 92 85 93 86 94 87 95 64 96 65 97 73 98
REMARK SMILES IDX 66 99 68 100 74 101 67 102 69 103 70 104 71 105 72 106
REMARK H PARENT 30 5 15 24 21 34 35 40 94 59 62 70
REMARK Flexibility Score: inf
ROOT
ATOM      1  C   UNL A   1      51.895  22.594  37.205  1.00  0.00     0.116 C 
ENDROOT
BRANCH   1   2
ATOM      2  N   UNL A   1      51.782  21.181  37.415  1.00  0.00    -0.353 N 
ATOM      3  C   UNL A   1      51.054  20.277  36.700  1.00  0.00     0.261 C 
ATOM      4  O   UNL A   1      51.161  19.083  36.983  1.00  0.00    -0.271 OA
ATOM      5  H   UNL A   1      52.295  20.817  38.172  1.00  0.00     0.163 HD
BRANCH   3   6
ATOM      6  C   UNL A   1      50.033  20.776  35.659  1.00  0.00     0.261 C 
BRANCH   6   7
ATOM      7  C   UNL A   1      50.179  19.829  34.464  1.00  0.00     0.052 C 
ATOM      8  C   UNL A   1      51.309  20.267  33.550  1.00  0.00     0.008 C 
ENDBRANCH   6   7
BRANCH   6   9
ATOM      9  O   UNL A   1      48.756  20.718  36.288  1.00  0.00    -0.480 OA
BRANCH   9  10
ATOM     10  C   UNL A   1      47.621  21.247  35.782  1.00  0.00     0.127 A 
ATOM     11  C   UNL A   1      47.844  22.177  34.759  1.00  0.00     0.047 A 
ATOM     12  C   UNL A   1      46.348  21.109  36.385  1.00  0.00     0.018 A 
ATOM     13  C   UNL A   1      46.784  22.878  34.206  1.00  0.00     0.004 A 
ATOM     14  C   UNL A   1      45.283  21.782  35.769  1.00  0.00     0.012 A 
ATOM     15  C   UNL A   1      45.498  22.649  34.685  1.00  0.00     0.001 A 
BRANCH  12  16
ATOM     16  C   UNL A   1      46.030  20.154  37.480  1.00  0.00     0.036 C 
ATOM     17  C   UNL A   1      46.623  19.674  38.595  1.00  0.00     0.110 C 
ATOM     18  S   UNL A   1      48.106  20.020  39.391  1.00  0.00     0.007 SA
ATOM     19  C   UNL A   1      46.022  18.459  39.235  1.00  0.00     0.348 C 
ATOM     20  C   UNL A   1      48.163  18.447  40.272  1.00  0.00     0.324 C 
ATOM     21  N   UNL A   1      46.949  17.816  40.043  1.00  0.00    -0.186 N 
ATOM     22  O   UNL A   1      44.894  18.060  38.966  1.00  0.00    -0.240 OA
ATOM     23  N   UNL A   1      49.134  17.875  40.943  1.00  0.00    -0.234 N 
ATOM     24  H   UNL A   1      48.966  16.994  41.350  1.00  0.00     0.313 HD
BRANCH  21  25
ATOM     25  C   UNL A   1      46.730  16.412  40.378  1.00  0.00     0.244 C 
ATOM     26  C   UNL A   1      46.068  16.184  41.727  1.00  0.00     0.055 C 
ENDBRANCH  21  25
BRANCH  23  27
ATOM     27  C   UNL A   1      50.425  18.469  41.113  1.00  0.00     0.129 A 
ATOM     28  C   UNL A   1      50.666  19.805  42.359  1.00  0.00     0.052 A 
ATOM     29  C   UNL A   1      51.820  17.428  40.667  1.00  0.00     0.097 A 
ATOM     30  C   UNL A   1      52.336  19.927  43.265  1.00  0.00     0.008 A 
ATOM     31  C   UNL A   1      53.402  17.603  41.502  1.00  0.00     0.119 A 
ATOM     32  C   UNL A   1      53.679  18.819  42.774  1.00  0.00     0.046 A 
BRANCH  31  33
ATOM     33  O   UNL A   1      54.321  16.596  41.354  1.00  0.00    -0.508 OA
ATOM     34  H   UNL A   1      54.064  15.704  41.478  1.00  0.00     0.293 HD
ENDBRANCH  31  33
ENDBRANCH  23  27
ENDBRANCH  12  16
ENDBRANCH   9  10
ENDBRANCH   6   9
ENDBRANCH   3   6
ENDBRANCH   1   2
BRANCH   1  35
ATOM     35  C   UNL A   1      52.804  22.893  36.065  1.00  0.00     0.023 C 
BRANCH  35  36
ATOM     36  C   UNL A   1      54.017  22.037  36.231  1.00  0.00     0.023 C 
BRANCH  36  37
ATOM     37  C   UNL A   1      55.387  22.727  35.783  1.00  0.00     0.116 C 
BRANCH  37  38
ATOM     38  N   UNL A   1      55.678  23.246  34.151  1.00  0.00    -0.352 N 
ATOM     39  C   UNL A   1      54.631  24.041  32.673  1.00  0.00     0.251 C 
ATOM     40  H   UNL A   1      56.617  23.106  33.892  1.00  0.00     0.163 HD
ATOM     41  O   UNL A   1      54.990  24.288  31.487  1.00  0.00    -0.269 OA
BRANCH  39  42
ATOM     42  C   UNL A   1      52.873  24.589  32.658  1.00  0.00     0.039 A 
ATOM     43  C   UNL A   1      51.812  23.668  32.742  1.00  0.00     0.014 A 
ATOM     44  C   UNL A   1      52.380  25.942  32.596  1.00  0.00     0.014 A 
ATOM     45  C   UNL A   1      50.424  24.094  32.705  1.00  0.00     0.010 A 
ATOM     46  C   UNL A   1      51.073  26.361  32.492  1.00  0.00     0.010 A 
ATOM     47  C   UNL A   1      50.055  25.445  32.534  1.00  0.00    -0.014 A 
BRANCH  47  48
ATOM     48  C   UNL A   1      48.732  26.140  32.516  1.00  0.00     0.031 A 
ATOM     49  C   UNL A   1      47.931  26.267  33.806  1.00  0.00     0.074 A 
ATOM     50  C   UNL A   1      48.039  26.115  31.355  1.00  0.00     0.049 A 
ATOM     51  N   UNL A   1      46.681  26.618  33.985  1.00  0.00    -0.248 NA
ATOM     52  C   UNL A   1      48.612  25.857  35.050  1.00  0.00     0.031 C 
ATOM     53  C   UNL A   1      48.578  25.650  30.072  1.00  0.00     0.029 A 
ATOM     54  N   UNL A   1      46.712  26.354  31.088  1.00  0.00    -0.354 N 
ATOM     55  C   UNL A   1      46.425  26.474  35.348  1.00  0.00     0.074 A 
ATOM     56  C   UNL A   1      47.632  25.937  35.941  1.00  0.00     0.031 C 
ATOM     57  C   UNL A   1      47.590  25.619  29.165  1.00  0.00     0.029 A 
ATOM     58  C   UNL A   1      46.348  26.070  29.790  1.00  0.00     0.049 A 
ATOM     59  H   UNL A   1      46.080  26.696  31.761  1.00  0.00     0.167 HD
ATOM     60  C   UNL A   1      45.304  26.786  36.050  1.00  0.00     0.034 A 
ATOM     61  C   UNL A   1      45.158  26.167  29.162  1.00  0.00     0.034 A 
ATOM     62  C   UNL A   1      44.098  27.283  35.441  1.00  0.00     0.049 A 
ATOM     63  C   UNL A   1      43.963  26.680  29.916  1.00  0.00     0.074 A 
ATOM     64  C   UNL A   1      42.980  27.831  36.048  1.00  0.00     0.029 A 
ATOM     65  N   UNL A   1      43.829  27.239  34.082  1.00  0.00    -0.354 N 
ATOM     66  N   UNL A   1      43.837  26.901  31.201  1.00  0.00    -0.248 NA
ATOM     67  C   UNL A   1      42.765  27.015  29.131  1.00  0.00     0.031 C 
ATOM     68  C   UNL A   1      42.020  28.074  35.058  1.00  0.00     0.029 A 
ATOM     69  C   UNL A   1      42.561  27.730  33.831  1.00  0.00     0.049 A 
ATOM     70  H   UNL A   1      44.452  26.907  33.395  1.00  0.00     0.167 HD
ATOM     71  C   UNL A   1      42.567  27.440  31.374  1.00  0.00     0.074 A 
ATOM     72  C   UNL A   1      41.962  27.515  30.061  1.00  0.00     0.031 C 
ATOM     73  C   UNL A   1      41.966  27.841  32.522  1.00  0.00     0.034 A 
BRANCH  60  74
ATOM     74  C   UNL A   1      45.352  26.687  37.562  1.00  0.00     0.023 A 
ATOM     75  C   UNL A   1      45.037  25.457  38.179  1.00  0.00     0.012 A 
ATOM     76  C   UNL A   1      45.784  27.759  38.371  1.00  0.00     0.148 A 
ATOM     77  C   UNL A   1      45.090  25.310  39.565  1.00  0.00     0.002 A 
ATOM     78  C   UNL A   1      45.884  27.591  39.750  1.00  0.00     0.091 A 
ATOM     79  F   UNL A   1      46.083  28.928  37.783  1.00  0.00    -0.205 F 
ATOM     80  C   UNL A   1      45.520  26.375  40.349  1.00  0.00     0.022 A 
BRANCH  78  81
ATOM     81  S   UNL A   1      46.515  28.870  40.847  1.00  0.00     0.127 S 
ATOM     82  O   UNL A   1      45.490  29.904  40.715  1.00  0.00    -0.237 OA
ATOM     83  O   UNL A   1      46.525  28.188  42.142  1.00  0.00    -0.237 OA
ATOM     84  O   UNL A   1      47.832  29.221  40.337  1.00  0.00    -0.744 OA
ENDBRANCH  78  81
ENDBRANCH  60  74
BRANCH  61  85
ATOM     85  C   UNL A   1      45.091  25.908  27.696  1.00  0.00     0.023 A 
ATOM     86  C   UNL A   1      45.322  26.975  26.804  1.00  0.00     0.012 A 
ATOM     87  C   UNL A   1      44.893  24.613  27.184  1.00  0.00     0.148 A 
ATOM     88  C   UNL A   1      45.337  26.761  25.427  1.00  0.00     0.002 A 
ATOM     89  C   UNL A   1      44.962  24.397  25.812  1.00  0.00     0.091 A 
ATOM     90  F   UNL A   1      44.682  23.615  28.052  1.00  0.00    -0.205 F 
ATOM     91  C   UNL A   1      45.169  25.472  24.931  1.00  0.00     0.022 A 
BRANCH  89  92
ATOM     92  S   UNL A   1      44.893  22.756  25.083  1.00  0.00     0.127 S 
ATOM     93  O   UNL A   1      46.005  22.085  25.751  1.00  0.00    -0.237 OA
ATOM     94  O   UNL A   1      43.563  22.305  25.494  1.00  0.00    -0.237 OA
ATOM     95  O   UNL A   1      45.050  22.952  23.649  1.00  0.00    -0.744 OA
ENDBRANCH  89  92
ENDBRANCH  61  85
BRANCH  73  96
ATOM     96  C   UNL A   1      40.594  28.457  32.433  1.00  0.00     0.023 A 
ATOM     97  C   UNL A   1      39.441  27.651  32.492  1.00  0.00     0.012 A 
ATOM     98  C   UNL A   1      40.453  29.860  32.391  1.00  0.00     0.148 A 
ATOM     99  C   UNL A   1      38.171  28.230  32.489  1.00  0.00     0.002 A 
ATOM    100  C   UNL A   1      39.189  30.431  32.442  1.00  0.00     0.091 A 
ATOM    101  F   UNL A   1      41.563  30.609  32.314  1.00  0.00    -0.205 F 
ATOM    102  C   UNL A   1      38.046  29.618  32.479  1.00  0.00     0.022 A 
BRANCH 100 103
ATOM    103  S   UNL A   1      38.933  32.207  32.535  1.00  0.00     0.127 S 
ATOM    104  O   UNL A   1      39.635  32.544  33.773  1.00  0.00    -0.237 OA
ATOM    105  O   UNL A   1      39.589  32.676  31.314  1.00  0.00    -0.237 OA
ATOM    106  O   UNL A   1      37.490  32.408  32.566  1.00  0.00    -0.744 OA
ENDBRANCH 100 103
ENDBRANCH  73  96
ENDBRANCH  47  48
ENDBRANCH  39  42
ENDBRANCH  37  38
ENDBRANCH  36  37
ENDBRANCH  35  36
ENDBRANCH   1  35
TORSDOF 21
ENDMDL
MODEL 2
REMARK VINA RESULT:      -9.4      5.151     13.140
REMARK SMILES CC[C@@H](Oc1ccccc1/C=C1\S/C(=[NH+]\c2cccc(O)c2)N(CC)C1=O)C(=O)NCCCCNC(=O)c1ccc(-c2c3nc(c(-c4cccc(S(=O)(=O)[O-])c4F)c4ccc([nH]4)c(-c4cccc(S(=O)(=O)[O-])c4F)c4nc(c(-c5cccc(S(=O)(=O)[O-])c5F)c5ccc2[nH]5)C=C4)C=C3)cc1
REMARK SMILES IDX 31 1 30 2 28 3 29 4 3 6 2 7 1 8 4 9 5 10 6 11 10 12 7 13
REMARK SMILES IDX 9 14 8 15 11 16 12 17 13 18 26 19 14 20 23 21 27 22 15 23
REMARK SMILES IDX 24 25 25 26 16 27 17 28 22 29 18 30 20 31 19 32 21 33 32 35
REMARK SMILES IDX 33 36 34 37 35 38 36 39 37 41 38 42 39 43 100 44 40 45 99 46
REMARK SMILES IDX 41 47 42 48 43 49 93 50 44 51 98 52 92 53 94 54 45 55 97 56
REMARK SMILES IDX 91 57 90 58 46 60 78 61 58 62 77 63 59 64 62 65 76 66 95 67
REMARK SMILES IDX 60 68 61 69 75 71 96 72 63 73 47 74 48 75 56 76 49 77 51 78
REMARK SMILES IDX 57 79 50 80 52 81 53 82 54 83 55 84 79 85 80 86 88 87 81 88
REMARK SMILES IDX 83 89 89 90 82 91 84 92 85 93 86 94 87 95 64 96 65 97 73 98
REMARK SMILES IDX 66 99 68 100 74 101 67 102 69 103 70 104 71 105 72 106
REMARK H PARENT 30 5 15 24 21 34 35 40 94 59 62 70
REMARK Flexibility Score: inf
ROOT
ATOM      1  C   UNL A   1      38.006  33.741  29.367  1.00  0.00     0.116 C 
ENDROOT
BRANCH   1   2
ATOM      2  N   UNL A   1      38.568  33.977  30.664  1.00  0.00    -0.353 N 
ATOM      3  C   UNL A   1      39.876  34.177  30.993  1.00  0.00     0.261 C 
ATOM      4  O   UNL A   1      40.150  34.457  32.161  1.00  0.00    -0.271 OA
ATOM      5  H   UNL A   1      37.929  33.996  31.412  1.00  0.00     0.163 HD
BRANCH   3   6
ATOM      6  C   UNL A   1      40.972  33.923  29.939  1.00  0.00     0.261 C 
BRANCH   6   7
ATOM      7  C   UNL A   1      41.405  35.313  29.465  1.00  0.00     0.052 C 
ATOM      8  C   UNL A   1      41.583  35.350  27.959  1.00  0.00     0.008 C 
ENDBRANCH   6   7
BRANCH   6   9
ATOM      9  O   UNL A   1      42.002  33.192  30.599  1.00  0.00    -0.480 OA
BRANCH   9  10
ATOM     10  C   UNL A   1      43.314  33.249  30.283  1.00  0.00     0.127 A 
ATOM     11  C   UNL A   1      43.968  34.370  30.811  1.00  0.00     0.047 A 
ATOM     12  C   UNL A   1      43.927  32.435  29.301  1.00  0.00     0.018 A 
ATOM     13  C   UNL A   1      45.294  34.620  30.495  1.00  0.00     0.004 A 
ATOM     14  C   UNL A   1      45.285  32.672  29.044  1.00  0.00     0.012 A 
ATOM     15  C   UNL A   1      45.963  33.747  29.643  1.00  0.00     0.001 A 
BRANCH  12  16
ATOM     16  C   UNL A   1      43.299  31.236  28.685  1.00  0.00     0.036 C 
ATOM     17  C   UNL A   1      43.694  30.129  28.019  1.00  0.00     0.110 C 
ATOM     18  S   UNL A   1      45.229  29.481  27.600  1.00  0.00     0.007 SA
ATOM     19  C   UNL A   1      42.641  29.336  27.303  1.00  0.00     0.348 C 
ATOM     20  C   UNL A   1      44.591  28.466  26.253  1.00  0.00     0.324 C 
ATOM     21  N   UNL A   1      43.206  28.543  26.314  1.00  0.00    -0.186 N 
ATOM     22  O   UNL A   1      41.443  29.481  27.519  1.00  0.00    -0.240 OA
ATOM     23  N   UNL A   1      45.214  27.818  25.297  1.00  0.00    -0.234 N 
ATOM     24  H   UNL A   1      44.675  27.321  24.641  1.00  0.00     0.313 HD
BRANCH  21  25
ATOM     25  C   UNL A   1      42.355  28.064  25.230  1.00  0.00     0.244 C 
ATOM     26  C   UNL A   1      41.951  26.603  25.347  1.00  0.00     0.055 C 
ENDBRANCH  21  25
BRANCH  23  27
ATOM     27  C   UNL A   1      46.639  27.801  25.163  1.00  0.00     0.129 A 
ATOM     28  C   UNL A   1      47.668  26.889  26.389  1.00  0.00     0.052 A 
ATOM     29  C   UNL A   1      47.259  28.021  23.491  1.00  0.00     0.097 A 
ATOM     30  C   UNL A   1      49.274  26.054  25.801  1.00  0.00     0.008 A 
ATOM     31  C   UNL A   1      48.808  27.265  22.979  1.00  0.00     0.119 A 
ATOM     32  C   UNL A   1      49.812  26.301  24.091  1.00  0.00     0.046 A 
BRANCH  31  33
ATOM     33  O   UNL A   1      49.076  27.195  21.636  1.00  0.00    -0.508 OA
ATOM     34  H   UNL A   1      48.791  27.881  21.064  1.00  0.00     0.293 HD
ENDBRANCH  31  33
ENDBRANCH  23  27
ENDBRANCH  12  16
ENDBRANCH   9  10
ENDBRANCH   6   9
ENDBRANCH   3   6
ENDBRANCH   1   2
BRANCH   1  35
ATOM     35  C   UNL A   1      36.549  33.450  29.462  1.00  0.00     0.023 C 
BRANCH  35  36
ATOM     36  C   UNL A   1      35.824  34.619  28.880  1.00  0.00     0.023 C 
BRANCH  36  37
ATOM     37  C   UNL A   1      34.272  34.367  28.592  1.00  0.00     0.116 C 
BRANCH  37  38
ATOM     38  N   UNL A   1      33.685  32.894  27.885  1.00  0.00    -0.352 N 
ATOM     39  C   UNL A   1      34.309  31.027  27.692  1.00  0.00     0.251 C 
ATOM     40  H   UNL A   1      32.802  33.023  27.467  1.00  0.00     0.163 HD
ATOM     41  O   UNL A   1      33.778  30.072  27.057  1.00  0.00    -0.269 OA
BRANCH  39  42
ATOM     42  C   UNL A   1      35.828  30.234  28.366  1.00  0.00     0.039 A 
ATOM     43  C   UNL A   1      37.009  30.137  27.607  1.00  0.00     0.014 A 
ATOM     44  C   UNL A   1      36.011  29.674  29.682  1.00  0.00     0.014 A 
ATOM     45  C   UNL A   1      38.202  29.490  28.125  1.00  0.00     0.010 A 
ATOM     46  C   UNL A   1      37.107  28.999  30.167  1.00  0.00     0.010 A 
ATOM     47  C   UNL A   1      38.235  28.879  29.397  1.00  0.00    -0.014 A 
BRANCH  47  48
ATOM     48  C   UNL A   1      39.322  28.210  30.172  1.00  0.00     0.031 A 
ATOM     49  C   UNL A   1      40.102  29.003  31.213  1.00  0.00     0.074 A 
ATOM     50  C   UNL A   1      39.958  27.176  29.574  1.00  0.00     0.049 A 
ATOM     51  N   UNL A   1      41.219  28.704  31.831  1.00  0.00    -0.248 NA
ATOM     52  C   UNL A   1      39.597  30.353  31.530  1.00  0.00     0.031 C 
ATOM     53  C   UNL A   1      39.521  26.537  28.328  1.00  0.00     0.029 A 
ATOM     54  N   UNL A   1      41.164  26.575  29.848  1.00  0.00    -0.354 N 
ATOM     55  C   UNL A   1      41.549  29.816  32.605  1.00  0.00     0.074 A 
ATOM     56  C   UNL A   1      40.549  30.825  32.325  1.00  0.00     0.031 C 
ATOM     57  C   UNL A   1      40.451  25.652  27.939  1.00  0.00     0.029 A 
ATOM     58  C   UNL A   1      41.547  25.648  28.904  1.00  0.00     0.049 A 
ATOM     59  H   UNL A   1      41.704  26.789  30.643  1.00  0.00     0.167 HD
ATOM     60  C   UNL A   1      42.569  29.976  33.488  1.00  0.00     0.034 A 
ATOM     61  C   UNL A   1      42.647  24.870  28.822  1.00  0.00     0.034 A 
ATOM     62  C   UNL A   1      43.578  28.978  33.728  1.00  0.00     0.049 A 
ATOM     63  C   UNL A   1      43.686  24.941  29.906  1.00  0.00     0.074 A 
ATOM     64  C   UNL A   1      44.528  28.926  34.733  1.00  0.00     0.029 A 
ATOM     65  N   UNL A   1      43.803  27.879  32.912  1.00  0.00    -0.354 N 
ATOM     66  N   UNL A   1      43.791  25.804  30.887  1.00  0.00    -0.248 NA
ATOM     67  C   UNL A   1      44.725  23.899  29.911  1.00  0.00     0.031 C 
ATOM     68  C   UNL A   1      45.356  27.822  34.497  1.00  0.00     0.029 A 
ATOM     69  C   UNL A   1      44.886  27.155  33.378  1.00  0.00     0.049 A 
ATOM     70  H   UNL A   1      43.270  27.649  32.118  1.00  0.00     0.167 HD
ATOM     71  C   UNL A   1      44.877  25.386  31.649  1.00  0.00     0.074 A 
ATOM     72  C   UNL A   1      45.396  24.191  31.018  1.00  0.00     0.031 C 
ATOM     73  C   UNL A   1      45.386  25.945  32.775  1.00  0.00     0.034 A 
BRANCH  60  74
ATOM     74  C   UNL A   1      42.599  31.237  34.330  1.00  0.00     0.023 A 
ATOM     75  C   UNL A   1      43.224  32.392  33.812  1.00  0.00     0.012 A 
ATOM     76  C   UNL A   1      41.948  31.321  35.579  1.00  0.00     0.148 A 
ATOM     77  C   UNL A   1      43.257  33.582  34.538  1.00  0.00     0.002 A 
ATOM     78  C   UNL A   1      41.940  32.527  36.277  1.00  0.00     0.091 A 
ATOM     79  F   UNL A   1      41.355  30.223  36.070  1.00  0.00    -0.205 F 
ATOM     80  C   UNL A   1      42.608  33.651  35.766  1.00  0.00     0.022 A 
BRANCH  78  81
ATOM     81  S   UNL A   1      41.056  32.753  37.827  1.00  0.00     0.127 S 
ATOM     82  O   UNL A   1      39.707  32.324  37.462  1.00  0.00    -0.237 OA
ATOM     83  O   UNL A   1      41.763  31.836  38.722  1.00  0.00    -0.237 OA
ATOM     84  O   UNL A   1      41.198  34.160  38.168  1.00  0.00    -0.744 OA
ENDBRANCH  78  81
ENDBRANCH  60  74
BRANCH  61  85
ATOM     85  C   UNL A   1      42.733  23.852  27.738  1.00  0.00     0.023 A 
ATOM     86  C   UNL A   1      41.709  22.888  27.626  1.00  0.00     0.012 A 
ATOM     87  C   UNL A   1      43.757  23.884  26.774  1.00  0.00     0.148 A 
ATOM     88  C   UNL A   1      41.716  21.961  26.585  1.00  0.00     0.002 A 
ATOM     89  C   UNL A   1      43.729  22.990  25.709  1.00  0.00     0.091 A 
ATOM     90  F   UNL A   1      44.714  24.813  26.899  1.00  0.00    -0.205 F 
ATOM     91  C   UNL A   1      42.717  22.019  25.620  1.00  0.00     0.022 A 
BRANCH  89  92
ATOM     92  S   UNL A   1      44.894  23.069  24.344  1.00  0.00     0.127 S 
ATOM     93  O   UNL A   1      45.097  24.509  24.206  1.00  0.00    -0.237 OA
ATOM     94  O   UNL A   1      46.037  22.335  24.888  1.00  0.00    -0.237 OA
ATOM     95  O   UNL A   1      44.235  22.419  23.221  1.00  0.00    -0.744 OA
ENDBRANCH  89  92
ENDBRANCH  61  85
BRANCH  73  96
ATOM     96  C   UNL A   1      46.540  25.255  33.455  1.00  0.00     0.023 A 
ATOM     97  C   UNL A   1      47.865  25.668  33.214  1.00  0.00     0.012 A 
ATOM     98  C   UNL A   1      46.295  24.256  34.419  1.00  0.00     0.148 A 
ATOM     99  C   UNL A   1      48.927  25.082  33.904  1.00  0.00     0.002 A 
ATOM    100  C   UNL A   1      47.350  23.714  35.140  1.00  0.00     0.091 A 
ATOM    101  F   UNL A   1      45.029  23.862  34.619  1.00  0.00    -0.205 F 
ATOM    102  C   UNL A   1      48.669  24.117  34.876  1.00  0.00     0.022 A 
BRANCH 100 103
ATOM    103  S   UNL A   1      47.106  22.541  36.479  1.00  0.00     0.127 S 
ATOM    104  O   UNL A   1      46.549  21.391  35.769  1.00  0.00    -0.237 OA
ATOM    105  O   UNL A   1      48.469  22.352  36.975  1.00  0.00    -0.237 OA
ATOM    106  O   UNL A   1      46.200  23.186  37.421  1.00  0.00    -0.744 OA
ENDBRANCH 100 103
ENDBRANCH  73  96
ENDBRANCH  47  48
ENDBRANCH  39  42
ENDBRANCH  37  38
ENDBRANCH  36  37
ENDBRANCH  35  36
ENDBRANCH   1  35
TORSDOF 21
ENDMDL
MODEL 3
REMARK VINA RESULT:      -9.1      9.145     15.562
REMARK SMILES CC[C@@H](Oc1ccccc1/C=C1\S/C(=[NH+]\c2cccc(O)c2)N(CC)C1=O)C(=O)NCCCCNC(=O)c1ccc(-c2c3nc(c(-c4cccc(S(=O)(=O)[O-])c4F)c4ccc([nH]4)c(-c4cccc(S(=O)(=O)[O-])c4F)c4nc(c(-c5cccc(S(=O)(=O)[O-])c5F)c5ccc2[nH]5)C=C4)C=C3)cc1
REMARK SMILES IDX 31 1 30 2 28 3 29 4 3 6 2 7 1 8 4 9 5 10 6 11 10 12 7 13
REMARK SMILES IDX 9 14 8 15 11 16 12 17 13 18 26 19 14 20 23 21 27 22 15 23
REMARK SMILES IDX 24 25 25 26 16 27 17 28 22 29 18 30 20 31 19 32 21 33 32 35
REMARK SMILES IDX 33 36 34 37 35 38 36 39 37 41 38 42 39 43 100 44 40 45 99 46
REMARK SMILES IDX 41 47 42 48 43 49 93 50 44 51 98 52 92 53 94 54 45 55 97 56
REMARK SMILES IDX 91 57 90 58 46 60 78 61 58 62 77 63 59 64 62 65 76 66 95 67
REMARK SMILES IDX 60 68 61 69 75 71 96 72 63 73 47 74 48 75 56 76 49 77 51 78
REMARK SMILES IDX 57 79 50 80 52 81 53 82 54 83 55 84 79 85 80 86 88 87 81 88
REMARK SMILES IDX 83 89 89 90 82 91 84 92 85 93 86 94 87 95 64 96 65 97 73 98
REMARK SMILES IDX 66 99 68 100 74 101 67 102 69 103 70 104 71 105 72 106
REMARK H PARENT 30 5 15 24 21 34 35 40 94 59 62 70
REMARK Flexibility Score: inf
ROOT
ATOM      1  C   UNL A   1      43.764  35.949  29.719  1.00  0.00     0.116 C 
ENDROOT
BRANCH   1   2
ATOM      2  N   UNL A   1      44.145  34.674  29.188  1.00  0.00    -0.353 N 
ATOM      3  C   UNL A   1      43.594  33.454  29.444  1.00  0.00     0.261 C 
ATOM      4  O   UNL A   1      44.007  32.480  28.813  1.00  0.00    -0.271 OA
ATOM      5  H   UNL A   1      44.902  34.680  28.559  1.00  0.00     0.163 HD
BRANCH   3   6
ATOM      6  C   UNL A   1      42.575  33.306  30.591  1.00  0.00     0.261 C 
BRANCH   6   7
ATOM      7  C   UNL A   1      41.202  33.297  29.913  1.00  0.00     0.052 C 
ATOM      8  C   UNL A   1      40.251  34.272  30.583  1.00  0.00     0.008 C 
ENDBRANCH   6   7
BRANCH   6   9
ATOM      9  O   UNL A   1      42.896  32.089  31.259  1.00  0.00    -0.480 OA
BRANCH   9  10
ATOM     10  C   UNL A   1      42.661  31.840  32.566  1.00  0.00     0.127 A 
ATOM     11  C   UNL A   1      43.498  32.555  33.432  1.00  0.00     0.047 A 
ATOM     12  C   UNL A   1      41.857  30.773  33.035  1.00  0.00     0.018 A 
ATOM     13  C   UNL A   1      43.444  32.334  34.799  1.00  0.00     0.004 A 
ATOM     14  C   UNL A   1      41.775  30.610  34.425  1.00  0.00     0.012 A 
ATOM     15  C   UNL A   1      42.552  31.390  35.298  1.00  0.00     0.001 A 
BRANCH  12  16
ATOM     16  C   UNL A   1      40.950  29.960  32.182  1.00  0.00     0.036 C 
ATOM     17  C   UNL A   1      41.042  28.908  31.339  1.00  0.00     0.110 C 
ATOM     18  S   UNL A   1      42.332  27.871  30.873  1.00  0.00     0.007 SA
ATOM     19  C   UNL A   1      39.871  28.628  30.446  1.00  0.00     0.348 C 
ATOM     20  C   UNL A   1      41.545  27.351  29.336  1.00  0.00     0.324 C 
ATOM     21  N   UNL A   1      40.256  27.865  29.352  1.00  0.00    -0.186 N 
ATOM     22  O   UNL A   1      38.764  29.118  30.633  1.00  0.00    -0.240 OA
ATOM     23  N   UNL A   1      42.026  26.699  28.304  1.00  0.00    -0.234 N 
ATOM     24  H   UNL A   1      41.426  26.517  27.545  1.00  0.00     0.313 HD
BRANCH  21  25
ATOM     25  C   UNL A   1      39.409  27.871  28.162  1.00  0.00     0.244 C 
ATOM     26  C   UNL A   1      39.576  29.097  27.279  1.00  0.00     0.055 C 
ENDBRANCH  21  25
BRANCH  23  27
ATOM     27  C   UNL A   1      43.380  26.240  28.230  1.00  0.00     0.129 A 
ATOM     28  C   UNL A   1      43.898  24.745  29.174  1.00  0.00     0.052 A 
ATOM     29  C   UNL A   1      44.259  26.671  26.723  1.00  0.00     0.097 A 
ATOM     30  C   UNL A   1      45.230  23.606  28.433  1.00  0.00     0.008 A 
ATOM     31  C   UNL A   1      45.552  25.603  26.076  1.00  0.00     0.119 A 
ATOM     32  C   UNL A   1      46.046  24.100  26.896  1.00  0.00     0.046 A 
BRANCH  31  33
ATOM     33  O   UNL A   1      45.966  25.804  24.785  1.00  0.00    -0.508 OA
ATOM     34  H   UNL A   1      46.832  25.559  24.526  1.00  0.00     0.293 HD
ENDBRANCH  31  33
ENDBRANCH  23  27
ENDBRANCH  12  16
ENDBRANCH   9  10
ENDBRANCH   6   9
ENDBRANCH   3   6
ENDBRANCH   1   2
BRANCH   1  35
ATOM     35  C   UNL A   1      42.736  36.599  28.859  1.00  0.00     0.023 C 
BRANCH  35  36
ATOM     36  C   UNL A   1      43.045  38.060  28.827  1.00  0.00     0.023 C 
BRANCH  36  37
ATOM     37  C   UNL A   1      44.531  38.418  28.361  1.00  0.00     0.116 C 
BRANCH  37  38
ATOM     38  N   UNL A   1      45.775  38.873  29.484  1.00  0.00    -0.352 N 
ATOM     39  C   UNL A   1      46.066  38.790  31.439  1.00  0.00     0.251 C 
ATOM     40  H   UNL A   1      46.543  39.283  29.024  1.00  0.00     0.163 HD
ATOM     41  O   UNL A   1      47.022  39.256  32.122  1.00  0.00    -0.269 OA
BRANCH  39  42
ATOM     42  C   UNL A   1      45.001  38.041  32.741  1.00  0.00     0.039 A 
ATOM     43  C   UNL A   1      43.814  38.662  33.171  1.00  0.00     0.014 A 
ATOM     44  C   UNL A   1      45.207  36.789  33.426  1.00  0.00     0.014 A 
ATOM     45  C   UNL A   1      42.984  38.087  34.216  1.00  0.00     0.010 A 
ATOM     46  C   UNL A   1      44.472  36.262  34.462  1.00  0.00     0.010 A 
ATOM     47  C   UNL A   1      43.340  36.903  34.895  1.00  0.00    -0.014 A 
BRANCH  47  48
ATOM     48  C   UNL A   1      42.655  36.090  35.945  1.00  0.00     0.031 A 
ATOM     49  C   UNL A   1      41.461  35.223  35.565  1.00  0.00     0.074 A 
ATOM     50  C   UNL A   1      42.706  36.554  37.214  1.00  0.00     0.049 A 
ATOM     51  N   UNL A   1      40.582  34.624  36.332  1.00  0.00    -0.248 NA
ATOM     52  C   UNL A   1      41.171  35.091  34.124  1.00  0.00     0.031 C 
ATOM     53  C   UNL A   1      43.555  37.664  37.662  1.00  0.00     0.029 A 
ATOM     54  N   UNL A   1      41.946  36.253  38.319  1.00  0.00    -0.354 N 
ATOM     55  C   UNL A   1      39.645  34.047  35.476  1.00  0.00     0.074 A 
ATOM     56  C   UNL A   1      40.023  34.427  34.132  1.00  0.00     0.031 C 
ATOM     57  C   UNL A   1      43.255  37.960  38.935  1.00  0.00     0.029 A 
ATOM     58  C   UNL A   1      42.202  37.062  39.404  1.00  0.00     0.049 A 
ATOM     59  H   UNL A   1      41.280  35.528  38.334  1.00  0.00     0.167 HD
ATOM     60  C   UNL A   1      38.584  33.251  35.775  1.00  0.00     0.034 A 
ATOM     61  C   UNL A   1      41.665  37.080  40.642  1.00  0.00     0.034 A 
ATOM     62  C   UNL A   1      38.197  32.913  37.119  1.00  0.00     0.049 A 
ATOM     63  C   UNL A   1      40.610  36.073  41.006  1.00  0.00     0.074 A 
ATOM     64  C   UNL A   1      37.289  31.960  37.549  1.00  0.00     0.029 A 
ATOM     65  N   UNL A   1      38.659  33.561  38.255  1.00  0.00    -0.354 N 
ATOM     66  N   UNL A   1      39.965  35.242  40.224  1.00  0.00    -0.248 NA
ATOM     67  C   UNL A   1      40.248  35.961  42.427  1.00  0.00     0.031 C 
ATOM     68  C   UNL A   1      37.168  32.066  38.940  1.00  0.00     0.029 A 
ATOM     69  C   UNL A   1      38.043  33.045  39.381  1.00  0.00     0.049 A 
ATOM     70  H   UNL A   1      39.328  34.283  38.258  1.00  0.00     0.167 HD
ATOM     71  C   UNL A   1      39.155  34.480  41.061  1.00  0.00     0.074 A 
ATOM     72  C   UNL A   1      39.392  34.947  42.410  1.00  0.00     0.031 C 
ATOM     73  C   UNL A   1      38.301  33.481  40.731  1.00  0.00     0.034 A 
BRANCH  60  74
ATOM     74  C   UNL A   1      37.819  32.614  34.630  1.00  0.00     0.023 A 
ATOM     75  C   UNL A   1      38.147  31.299  34.235  1.00  0.00     0.012 A 
ATOM     76  C   UNL A   1      36.733  33.260  34.003  1.00  0.00     0.148 A 
ATOM     77  C   UNL A   1      37.457  30.663  33.204  1.00  0.00     0.002 A 
ATOM     78  C   UNL A   1      36.015  32.600  33.008  1.00  0.00     0.091 A 
ATOM     79  F   UNL A   1      36.423  34.510  34.379  1.00  0.00    -0.205 F 
ATOM     80  C   UNL A   1      36.386  31.310  32.597  1.00  0.00     0.022 A 
BRANCH  78  81
ATOM     81  S   UNL A   1      34.559  33.306  32.222  1.00  0.00     0.127 S 
ATOM     82  O   UNL A   1      33.566  33.198  33.289  1.00  0.00    -0.237 OA
ATOM     83  O   UNL A   1      34.996  34.673  31.935  1.00  0.00    -0.237 OA
ATOM     84  O   UNL A   1      34.306  32.492  31.043  1.00  0.00    -0.744 OA
ENDBRANCH  78  81
ENDBRANCH  60  74
BRANCH  61  85
ATOM     85  C   UNL A   1      42.239  37.998  41.666  1.00  0.00     0.023 A 
ATOM     86  C   UNL A   1      43.348  37.567  42.423  1.00  0.00     0.012 A 
ATOM     87  C   UNL A   1      41.761  39.310  41.831  1.00  0.00     0.148 A 
ATOM     88  C   UNL A   1      43.957  38.420  43.342  1.00  0.00     0.002 A 
ATOM     89  C   UNL A   1      42.406  40.174  42.710  1.00  0.00     0.091 A 
ATOM     90  F   UNL A   1      40.711  39.698  41.095  1.00  0.00    -0.205 F 
ATOM     91  C   UNL A   1      43.495  39.726  43.476  1.00  0.00     0.022 A 
BRANCH  89  92
ATOM     92  S   UNL A   1      41.974  41.911  42.857  1.00  0.00     0.127 S 
ATOM     93  O   UNL A   1      42.326  42.420  41.534  1.00  0.00    -0.237 OA
ATOM     94  O   UNL A   1      40.538  41.837  43.127  1.00  0.00    -0.237 OA
ATOM     95  O   UNL A   1      42.773  42.426  43.960  1.00  0.00    -0.744 OA
ENDBRANCH  89  92
ENDBRANCH  61  85
BRANCH  73  96
ATOM     96  C   UNL A   1      37.580  32.762  41.842  1.00  0.00     0.023 A 
ATOM     97  C   UNL A   1      38.230  31.758  42.586  1.00  0.00     0.012 A 
ATOM     98  C   UNL A   1      36.279  33.160  42.211  1.00  0.00     0.148 A 
ATOM     99  C   UNL A   1      37.588  31.149  43.665  1.00  0.00     0.002 A 
ATOM    100  C   UNL A   1      35.667  32.587  43.318  1.00  0.00     0.091 A 
ATOM    101  F   UNL A   1      35.669  34.102  41.477  1.00  0.00    -0.205 F 
ATOM    102  C   UNL A   1      36.315  31.573  44.039  1.00  0.00     0.022 A 
BRANCH 100 103
ATOM    103  S   UNL A   1      34.072  33.139  43.934  1.00  0.00     0.127 S 
ATOM    104  O   UNL A   1      33.181  32.753  42.840  1.00  0.00    -0.237 OA
ATOM    105  O   UNL A   1      33.922  32.344  45.153  1.00  0.00    -0.237 OA
ATOM    106  O   UNL A   1      34.197  34.574  44.155  1.00  0.00    -0.744 OA
ENDBRANCH 100 103
ENDBRANCH  73  96
ENDBRANCH  47  48
ENDBRANCH  39  42
ENDBRANCH  37  38
ENDBRANCH  36  37
ENDBRANCH  35  36
ENDBRANCH   1  35
TORSDOF 21
ENDMDL
