MODEL 1
REMARK VINA RESULT:     -12.0      0.000      0.000
REMARK SMILES Cc1nc2nc(CNC(=O)OC(C)(C)C)nn2c(C)c1CCC(=O)NCCCCNC(=O)c1ccc(-c2c3nc(c(-c4cccc(S(=O)(=O)[O-])c4F)c4ccc([nH]4)c(-c4cccc(S(=O)(=O)[O-])c4F)c4nc(c(-c5cccc(S(=O)(=O)[O-])c5F)c5ccc2[nH]5)C=C4)C=C3)cc1
REMARK SMILES IDX 26 1 25 2 23 3 24 4 22 6 21 7 20 8 1 9 2 10 3 11 4 12 18 13
REMARK SMILES IDX 5 14 17 15 19 16 6 17 16 18 7 19 8 20 9 21 10 23 11 24 12 25
REMARK SMILES IDX 13 26 14 27 15 28 27 29 28 30 29 31 30 32 31 33 32 35 33 36
REMARK SMILES IDX 34 37 95 38 35 39 94 40 36 41 37 42 38 43 88 44 39 45 93 46
REMARK SMILES IDX 87 47 89 48 40 49 92 50 86 51 85 52 41 54 73 55 53 56 72 57
REMARK SMILES IDX 54 58 57 59 71 60 90 61 55 62 56 63 70 65 91 66 58 67 42 68
REMARK SMILES IDX 43 69 51 70 44 71 46 72 52 73 45 74 47 75 48 76 49 77 50 78
REMARK SMILES IDX 74 79 75 80 83 81 76 82 78 83 84 84 77 85 79 86 80 87 81 88
REMARK SMILES IDX 82 89 59 90 60 91 68 92 61 93 63 94 69 95 62 96 64 97 65 98
REMARK SMILES IDX 66 99 67 100
REMARK H PARENT 25 5 8 22 30 34 89 53 57 64
REMARK Flexibility Score: inf
ROOT
ATOM      1  C   UNL A   1      31.353  28.220  27.652  1.00  0.00     0.116 C 
ENDROOT
BRANCH   1   2
ATOM      2  N   UNL A   1      31.312  26.846  27.173  1.00  0.00    -0.356 N 
ATOM      3  C   UNL A   1      31.014  26.398  25.914  1.00  0.00     0.220 C 
ATOM      4  O   UNL A   1      30.712  25.216  25.748  1.00  0.00    -0.275 OA
ATOM      5  H   UNL A   1      31.527  26.152  27.837  1.00  0.00     0.163 HD
BRANCH   3   6
ATOM      6  C   UNL A   1      31.072  27.353  24.727  1.00  0.00     0.105 C 
BRANCH   6   7
ATOM      7  C   UNL A   1      32.443  27.390  24.013  1.00  0.00     0.049 C 
BRANCH   7   8
ATOM      8  C   UNL A   1      33.006  26.020  23.674  1.00  0.00    -0.005 A 
ATOM      9  C   UNL A   1      31.825  26.121  21.346  1.00  0.00     0.067 C 
ATOM     10  C   UNL A   1      32.501  25.303  22.429  1.00  0.00     0.046 A 
ATOM     11  N   UNL A   1      32.658  24.037  22.181  1.00  0.00    -0.216 NA
ATOM     12  C   UNL A   1      33.326  23.303  23.110  1.00  0.00     0.252 A 
ATOM     13  C   UNL A   1      33.866  25.291  24.436  1.00  0.00     0.048 A 
ATOM     14  N   UNL A   1      33.366  21.996  23.259  1.00  0.00    -0.192 NA
ATOM     15  N   UNL A   1      34.015  23.909  24.165  1.00  0.00    -0.201 N 
ATOM     16  C   UNL A   1      34.496  25.800  25.705  1.00  0.00     0.067 C 
ATOM     17  C   UNL A   1      34.147  21.802  24.369  1.00  0.00     0.172 A 
ATOM     18  N   UNL A   1      34.622  22.936  24.911  1.00  0.00    -0.148 NA
BRANCH  17  19
ATOM     19  C   UNL A   1      34.353  20.428  24.978  1.00  0.00     0.199 C 
BRANCH  19  20
ATOM     20  N   UNL A   1      33.132  19.651  24.897  1.00  0.00    -0.314 N 
ATOM     21  C   UNL A   1      32.882  18.350  25.166  1.00  0.00     0.408 C 
ATOM     22  H   UNL A   1      32.345  20.162  24.595  1.00  0.00     0.167 HD
ATOM     23  O   UNL A   1      31.743  17.910  25.085  1.00  0.00    -0.225 OA
BRANCH  21  24
ATOM     24  O   UNL A   1      33.965  17.620  25.512  1.00  0.00    -0.444 OA
BRANCH  24  25
ATOM     25  C   UNL A   1      34.155  16.339  24.843  1.00  0.00     0.106 C 
ATOM     26  C   UNL A   1      33.115  15.288  25.267  1.00  0.00     0.056 C 
ATOM     27  C   UNL A   1      34.186  16.505  23.314  1.00  0.00     0.056 C 
ATOM     28  C   UNL A   1      35.537  15.862  25.307  1.00  0.00     0.056 C 
ENDBRANCH  24  25
ENDBRANCH  21  24
ENDBRANCH  19  20
ENDBRANCH  17  19
ENDBRANCH   7   8
ENDBRANCH   6   7
ENDBRANCH   3   6
ENDBRANCH   1   2
BRANCH   1  29
ATOM     29  C   UNL A   1      32.713  28.815  27.329  1.00  0.00     0.023 C 
BRANCH  29  30
ATOM     30  C   UNL A   1      32.763  30.237  26.784  1.00  0.00     0.023 C 
BRANCH  30  31
ATOM     31  C   UNL A   1      34.040  30.967  27.134  1.00  0.00     0.116 C 
BRANCH  31  32
ATOM     32  N   UNL A   1      33.989  31.691  28.417  1.00  0.00    -0.352 N 
ATOM     33  C   UNL A   1      34.965  31.685  29.405  1.00  0.00     0.251 C 
ATOM     34  H   UNL A   1      33.184  32.230  28.591  1.00  0.00     0.163 HD
ATOM     35  O   UNL A   1      34.822  32.248  30.480  1.00  0.00    -0.269 OA
BRANCH  33  36
ATOM     36  C   UNL A   1      36.235  31.073  29.015  1.00  0.00     0.039 A 
ATOM     37  C   UNL A   1      37.422  31.806  28.961  1.00  0.00     0.014 A 
ATOM     38  C   UNL A   1      36.218  29.686  29.119  1.00  0.00     0.014 A 
ATOM     39  C   UNL A   1      38.628  31.121  29.083  1.00  0.00     0.010 A 
ATOM     40  C   UNL A   1      37.397  29.062  29.434  1.00  0.00     0.010 A 
ATOM     41  C   UNL A   1      38.613  29.745  29.350  1.00  0.00    -0.014 A 
BRANCH  41  42
ATOM     42  C   UNL A   1      39.854  29.003  29.576  1.00  0.00     0.031 A 
ATOM     43  C   UNL A   1      40.319  28.842  30.980  1.00  0.00     0.074 A 
ATOM     44  C   UNL A   1      40.515  28.395  28.565  1.00  0.00     0.049 A 
ATOM     45  N   UNL A   1      41.300  29.475  31.537  1.00  0.00    -0.248 NA
ATOM     46  C   UNL A   1      39.586  27.964  31.902  1.00  0.00     0.031 C 
ATOM     47  C   UNL A   1      40.087  28.260  27.162  1.00  0.00     0.029 A 
ATOM     48  N   UNL A   1      41.655  27.650  28.599  1.00  0.00    -0.354 N 
ATOM     49  C   UNL A   1      41.487  28.872  32.780  1.00  0.00     0.074 A 
ATOM     50  C   UNL A   1      40.290  28.113  33.031  1.00  0.00     0.031 C 
ATOM     51  C   UNL A   1      40.761  27.252  26.578  1.00  0.00     0.029 A 
ATOM     52  C   UNL A   1      41.831  26.866  27.469  1.00  0.00     0.049 A 
ATOM     53  H   UNL A   1      42.291  27.667  29.351  1.00  0.00     0.167 HD
ATOM     54  C   UNL A   1      42.731  28.819  33.337  1.00  0.00     0.034 A 
ATOM     55  C   UNL A   1      42.820  25.987  27.223  1.00  0.00     0.034 A 
ATOM     56  C   UNL A   1      43.655  29.647  32.599  1.00  0.00     0.049 A 
ATOM     57  C   UNL A   1      44.004  26.463  27.963  1.00  0.00     0.074 A 
ATOM     58  C   UNL A   1      43.904  30.988  32.421  1.00  0.00     0.029 A 
ATOM     59  N   UNL A   1      44.316  28.968  31.609  1.00  0.00    -0.354 N 
ATOM     60  N   UNL A   1      44.597  27.600  27.707  1.00  0.00    -0.248 NA
ATOM     61  C   UNL A   1      44.380  25.829  29.218  1.00  0.00     0.031 C 
ATOM     62  C   UNL A   1      44.585  31.097  31.172  1.00  0.00     0.029 A 
ATOM     63  C   UNL A   1      44.748  29.820  30.635  1.00  0.00     0.049 A 
ATOM     64  H   UNL A   1      44.460  27.994  31.602  1.00  0.00     0.167 HD
ATOM     65  C   UNL A   1      45.041  28.028  28.944  1.00  0.00     0.074 A 
ATOM     66  C   UNL A   1      45.069  26.830  29.774  1.00  0.00     0.031 C 
ATOM     67  C   UNL A   1      45.018  29.346  29.290  1.00  0.00     0.034 A 
BRANCH  54  68
ATOM     68  C   UNL A   1      43.306  27.705  34.207  1.00  0.00     0.023 A 
ATOM     69  C   UNL A   1      43.715  28.075  35.515  1.00  0.00     0.012 A 
ATOM     70  C   UNL A   1      43.764  26.456  33.737  1.00  0.00     0.148 A 
ATOM     71  C   UNL A   1      44.607  27.302  36.267  1.00  0.00     0.002 A 
ATOM     72  C   UNL A   1      44.603  25.659  34.514  1.00  0.00     0.091 A 
ATOM     73  F   UNL A   1      43.501  26.073  32.488  1.00  0.00    -0.205 F 
ATOM     74  C   UNL A   1      45.056  26.092  35.762  1.00  0.00     0.022 A 
BRANCH  72  75
ATOM     75  S   UNL A   1      45.198  24.066  33.928  1.00  0.00     0.127 S 
ATOM     76  O   UNL A   1      43.954  23.429  33.508  1.00  0.00    -0.237 OA
ATOM     77  O   UNL A   1      46.091  24.462  32.840  1.00  0.00    -0.237 OA
ATOM     78  O   UNL A   1      45.877  23.461  35.067  1.00  0.00    -0.744 OA
ENDBRANCH  72  75
ENDBRANCH  54  68
BRANCH  55  79
ATOM     79  C   UNL A   1      42.767  24.726  26.461  1.00  0.00     0.023 A 
ATOM     80  C   UNL A   1      43.847  24.368  25.637  1.00  0.00     0.012 A 
ATOM     81  C   UNL A   1      41.786  23.749  26.753  1.00  0.00     0.148 A 
ATOM     82  C   UNL A   1      43.986  23.058  25.172  1.00  0.00     0.002 A 
ATOM     83  C   UNL A   1      41.930  22.447  26.287  1.00  0.00     0.091 A 
ATOM     84  F   UNL A   1      40.767  24.073  27.561  1.00  0.00    -0.205 F 
ATOM     85  C   UNL A   1      43.039  22.095  25.509  1.00  0.00     0.022 A 
BRANCH  83  86
ATOM     86  S   UNL A   1      40.758  21.148  26.704  1.00  0.00     0.127 S 
ATOM     87  O   UNL A   1      41.361  19.975  26.068  1.00  0.00    -0.237 OA
ATOM     88  O   UNL A   1      40.814  21.149  28.163  1.00  0.00    -0.237 OA
ATOM     89  O   UNL A   1      39.489  21.556  26.115  1.00  0.00    -0.744 OA
ENDBRANCH  83  86
ENDBRANCH  55  79
BRANCH  67  90
ATOM     90  C   UNL A   1      45.032  30.379  28.201  1.00  0.00     0.023 A 
ATOM     91  C   UNL A   1      43.857  30.873  27.603  1.00  0.00     0.012 A 
ATOM     92  C   UNL A   1      46.263  30.987  27.895  1.00  0.00     0.148 A 
ATOM     93  C   UNL A   1      43.912  31.951  26.715  1.00  0.00     0.002 A 
ATOM     94  C   UNL A   1      46.307  32.091  27.054  1.00  0.00     0.091 A 
ATOM     95  F   UNL A   1      47.373  30.494  28.467  1.00  0.00    -0.205 F 
ATOM     96  C   UNL A   1      45.134  32.571  26.454  1.00  0.00     0.022 A 
BRANCH  94  97
ATOM     97  S   UNL A   1      47.828  33.012  26.806  1.00  0.00     0.127 S 
ATOM     98  O   UNL A   1      48.059  33.585  28.130  1.00  0.00    -0.237 OA
ATOM     99  O   UNL A   1      48.774  31.964  26.420  1.00  0.00    -0.237 OA
ATOM    100  O   UNL A   1      47.543  33.971  25.746  1.00  0.00    -0.744 OA
ENDBRANCH  94  97
ENDBRANCH  67  90
ENDBRANCH  41  42
ENDBRANCH  33  36
ENDBRANCH  31  32
ENDBRANCH  30  31
ENDBRANCH  29  30
ENDBRANCH   1  29
TORSDOF 20
ENDMDL
MODEL 2
REMARK VINA RESULT:     -10.9      3.067      9.137
REMARK SMILES Cc1nc2nc(CNC(=O)OC(C)(C)C)nn2c(C)c1CCC(=O)NCCCCNC(=O)c1ccc(-c2c3nc(c(-c4cccc(S(=O)(=O)[O-])c4F)c4ccc([nH]4)c(-c4cccc(S(=O)(=O)[O-])c4F)c4nc(c(-c5cccc(S(=O)(=O)[O-])c5F)c5ccc2[nH]5)C=C4)C=C3)cc1
REMARK SMILES IDX 26 1 25 2 23 3 24 4 22 6 21 7 20 8 1 9 2 10 3 11 4 12 18 13
REMARK SMILES IDX 5 14 17 15 19 16 6 17 16 18 7 19 8 20 9 21 10 23 11 24 12 25
REMARK SMILES IDX 13 26 14 27 15 28 27 29 28 30 29 31 30 32 31 33 32 35 33 36
REMARK SMILES IDX 34 37 95 38 35 39 94 40 36 41 37 42 38 43 88 44 39 45 93 46
REMARK SMILES IDX 87 47 89 48 40 49 92 50 86 51 85 52 41 54 73 55 53 56 72 57
REMARK SMILES IDX 54 58 57 59 71 60 90 61 55 62 56 63 70 65 91 66 58 67 42 68
REMARK SMILES IDX 43 69 51 70 44 71 46 72 52 73 45 74 47 75 48 76 49 77 50 78
REMARK SMILES IDX 74 79 75 80 83 81 76 82 78 83 84 84 77 85 79 86 80 87 81 88
REMARK SMILES IDX 82 89 59 90 60 91 68 92 61 93 63 94 69 95 62 96 64 97 65 98
REMARK SMILES IDX 66 99 67 100
REMARK H PARENT 25 5 8 22 30 34 89 53 57 64
REMARK Flexibility Score: inf
ROOT
ATOM      1  C   UNL A   1      37.805  21.871  25.382  1.00  0.00     0.116 C 
ENDROOT
BRANCH   1   2
ATOM      2  N   UNL A   1      36.997  20.869  24.701  1.00  0.00    -0.356 N 
ATOM      3  C   UNL A   1      35.822  20.304  25.119  1.00  0.00     0.220 C 
ATOM      4  O   UNL A   1      35.434  19.259  24.597  1.00  0.00    -0.275 OA
ATOM      5  H   UNL A   1      37.338  20.559  23.831  1.00  0.00     0.163 HD
BRANCH   3   6
ATOM      6  C   UNL A   1      34.994  20.975  26.209  1.00  0.00     0.105 C 
BRANCH   6   7
ATOM      7  C   UNL A   1      33.468  20.915  25.970  1.00  0.00     0.049 C 
BRANCH   7   8
ATOM      8  C   UNL A   1      32.953  21.935  24.969  1.00  0.00    -0.005 A 
ATOM      9  C   UNL A   1      32.373  20.002  23.310  1.00  0.00     0.067 C 
ATOM     10  C   UNL A   1      32.620  21.479  23.555  1.00  0.00     0.046 A 
ATOM     11  N   UNL A   1      32.464  22.266  22.533  1.00  0.00    -0.216 NA
ATOM     12  C   UNL A   1      32.612  23.600  22.751  1.00  0.00     0.252 A 
ATOM     13  C   UNL A   1      32.846  23.277  25.169  1.00  0.00     0.048 A 
ATOM     14  N   UNL A   1      32.801  24.565  21.878  1.00  0.00    -0.192 NA
ATOM     15  N   UNL A   1      32.693  24.125  24.045  1.00  0.00    -0.201 N 
ATOM     16  C   UNL A   1      33.119  23.950  26.488  1.00  0.00     0.067 C 
ATOM     17  C   UNL A   1      32.924  25.698  22.641  1.00  0.00     0.172 A 
ATOM     18  N   UNL A   1      32.794  25.487  23.961  1.00  0.00    -0.148 NA
BRANCH  17  19
ATOM     19  C   UNL A   1      33.285  27.041  22.036  1.00  0.00     0.199 C 
BRANCH  19  20
ATOM     20  N   UNL A   1      32.116  27.898  21.974  1.00  0.00    -0.314 N 
ATOM     21  C   UNL A   1      31.760  28.975  22.709  1.00  0.00     0.408 C 
ATOM     22  H   UNL A   1      31.469  27.651  21.273  1.00  0.00     0.167 HD
ATOM     23  O   UNL A   1      30.739  29.595  22.441  1.00  0.00    -0.225 OA
BRANCH  21  24
ATOM     24  O   UNL A   1      32.601  29.281  23.720  1.00  0.00    -0.444 OA
BRANCH  24  25
ATOM     25  C   UNL A   1      32.177  28.946  25.073  1.00  0.00     0.106 C 
ATOM     26  C   UNL A   1      30.995  27.961  25.098  1.00  0.00     0.056 C 
ATOM     27  C   UNL A   1      33.353  28.423  25.916  1.00  0.00     0.056 C 
ATOM     28  C   UNL A   1      31.705  30.277  25.672  1.00  0.00     0.056 C 
ENDBRANCH  24  25
ENDBRANCH  21  24
ENDBRANCH  19  20
ENDBRANCH  17  19
ENDBRANCH   7   8
ENDBRANCH   6   7
ENDBRANCH   3   6
ENDBRANCH   1   2
BRANCH   1  29
ATOM     29  C   UNL A   1      39.071  21.212  25.905  1.00  0.00     0.023 C 
BRANCH  29  30
ATOM     30  C   UNL A   1      39.923  21.986  26.901  1.00  0.00     0.023 C 
BRANCH  30  31
ATOM     31  C   UNL A   1      41.320  21.427  27.055  1.00  0.00     0.116 C 
BRANCH  31  32
ATOM     32  N   UNL A   1      42.268  21.881  26.021  1.00  0.00    -0.352 N 
ATOM     33  C   UNL A   1      42.625  23.195  25.751  1.00  0.00     0.251 C 
ATOM     34  H   UNL A   1      42.689  21.184  25.469  1.00  0.00     0.163 HD
ATOM     35  O   UNL A   1      43.361  23.505  24.827  1.00  0.00    -0.269 OA
BRANCH  33  36
ATOM     36  C   UNL A   1      42.167  24.174  26.738  1.00  0.00     0.039 A 
ATOM     37  C   UNL A   1      42.837  24.372  27.947  1.00  0.00     0.014 A 
ATOM     38  C   UNL A   1      41.310  25.125  26.195  1.00  0.00     0.014 A 
ATOM     39  C   UNL A   1      42.688  25.596  28.593  1.00  0.00     0.010 A 
ATOM     40  C   UNL A   1      41.336  26.383  26.739  1.00  0.00     0.010 A 
ATOM     41  C   UNL A   1      41.955  26.617  27.970  1.00  0.00    -0.014 A 
BRANCH  41  42
ATOM     42  C   UNL A   1      41.850  27.947  28.569  1.00  0.00     0.031 A 
ATOM     43  C   UNL A   1      42.834  28.979  28.146  1.00  0.00     0.074 A 
ATOM     44  C   UNL A   1      40.839  28.274  29.407  1.00  0.00     0.049 A 
ATOM     45  N   UNL A   1      43.841  29.404  28.838  1.00  0.00    -0.248 NA
ATOM     46  C   UNL A   1      42.770  29.546  26.792  1.00  0.00     0.031 C 
ATOM     47  C   UNL A   1      39.663  27.460  29.758  1.00  0.00     0.029 A 
ATOM     48  N   UNL A   1      40.574  29.457  30.026  1.00  0.00    -0.354 N 
ATOM     49  C   UNL A   1      44.362  30.486  28.130  1.00  0.00     0.074 A 
ATOM     50  C   UNL A   1      43.810  30.389  26.805  1.00  0.00     0.031 C 
ATOM     51  C   UNL A   1      38.691  28.253  30.246  1.00  0.00     0.029 A 
ATOM     52  C   UNL A   1      39.270  29.555  30.486  1.00  0.00     0.049 A 
ATOM     53  H   UNL A   1      41.243  30.172  30.137  1.00  0.00     0.167 HD
ATOM     54  C   UNL A   1      44.957  31.519  28.794  1.00  0.00     0.034 A 
ATOM     55  C   UNL A   1      38.686  30.608  31.088  1.00  0.00     0.034 A 
ATOM     56  C   UNL A   1      45.155  31.183  30.184  1.00  0.00     0.049 A 
ATOM     57  C   UNL A   1      39.757  31.342  31.790  1.00  0.00     0.074 A 
ATOM     58  C   UNL A   1      45.974  30.367  30.929  1.00  0.00     0.029 A 
ATOM     59  N   UNL A   1      44.111  31.565  30.986  1.00  0.00    -0.354 N 
ATOM     60  N   UNL A   1      40.446  30.828  32.775  1.00  0.00    -0.248 NA
ATOM     61  C   UNL A   1      40.300  32.562  31.213  1.00  0.00     0.031 C 
ATOM     62  C   UNL A   1      45.279  30.123  32.151  1.00  0.00     0.029 A 
ATOM     63  C   UNL A   1      44.065  30.812  32.123  1.00  0.00     0.049 A 
ATOM     64  H   UNL A   1      43.478  32.288  30.770  1.00  0.00     0.167 HD
ATOM     65  C   UNL A   1      41.703  31.384  32.623  1.00  0.00     0.074 A 
ATOM     66  C   UNL A   1      41.498  32.571  31.803  1.00  0.00     0.031 C 
ATOM     67  C   UNL A   1      42.833  30.662  32.874  1.00  0.00     0.034 A 
BRANCH  54  68
ATOM     68  C   UNL A   1      44.939  32.995  28.410  1.00  0.00     0.023 A 
ATOM     69  C   UNL A   1      43.668  33.628  28.401  1.00  0.00     0.012 A 
ATOM     70  C   UNL A   1      45.986  33.682  27.760  1.00  0.00     0.148 A 
ATOM     71  C   UNL A   1      43.429  34.817  27.702  1.00  0.00     0.002 A 
ATOM     72  C   UNL A   1      45.757  34.898  27.117  1.00  0.00     0.091 A 
ATOM     73  F   UNL A   1      47.187  33.118  27.644  1.00  0.00    -0.205 F 
ATOM     74  C   UNL A   1      44.476  35.451  27.053  1.00  0.00     0.022 A 
BRANCH  72  75
ATOM     75  S   UNL A   1      47.079  35.785  26.281  1.00  0.00     0.127 S 
ATOM     76  O   UNL A   1      47.365  34.891  25.162  1.00  0.00    -0.237 OA
ATOM     77  O   UNL A   1      46.418  37.039  25.920  1.00  0.00    -0.237 OA
ATOM     78  O   UNL A   1      48.138  35.932  27.272  1.00  0.00    -0.744 OA
ENDBRANCH  72  75
ENDBRANCH  54  68
BRANCH  55  79
ATOM     79  C   UNL A   1      37.283  31.053  31.015  1.00  0.00     0.023 A 
ATOM     80  C   UNL A   1      36.592  31.367  32.197  1.00  0.00     0.012 A 
ATOM     81  C   UNL A   1      36.712  31.434  29.777  1.00  0.00     0.148 A 
ATOM     82  C   UNL A   1      35.401  32.096  32.156  1.00  0.00     0.002 A 
ATOM     83  C   UNL A   1      35.527  32.160  29.742  1.00  0.00     0.091 A 
ATOM     84  F   UNL A   1      37.378  31.165  28.644  1.00  0.00    -0.205 F 
ATOM     85  C   UNL A   1      34.877  32.507  30.932  1.00  0.00     0.022 A 
BRANCH  83  86
ATOM     86  S   UNL A   1      34.808  32.743  28.200  1.00  0.00     0.127 S 
ATOM     87  O   UNL A   1      34.416  31.490  27.551  1.00  0.00    -0.237 OA
ATOM     88  O   UNL A   1      33.694  33.559  28.676  1.00  0.00    -0.237 OA
ATOM     89  O   UNL A   1      35.875  33.460  27.513  1.00  0.00    -0.744 OA
ENDBRANCH  83  86
ENDBRANCH  55  79
BRANCH  67  90
ATOM     90  C   UNL A   1      42.748  29.488  33.806  1.00  0.00     0.023 A 
ATOM     91  C   UNL A   1      42.212  28.246  33.419  1.00  0.00     0.012 A 
ATOM     92  C   UNL A   1      43.386  29.600  35.054  1.00  0.00     0.148 A 
ATOM     93  C   UNL A   1      42.308  27.138  34.265  1.00  0.00     0.002 A 
ATOM     94  C   UNL A   1      43.526  28.484  35.869  1.00  0.00     0.091 A 
ATOM     95  F   UNL A   1      43.882  30.796  35.409  1.00  0.00    -0.205 F 
ATOM     96  C   UNL A   1      42.980  27.252  35.482  1.00  0.00     0.022 A 
BRANCH  94  97
ATOM     97  S   UNL A   1      44.509  28.546  37.369  1.00  0.00     0.127 S 
ATOM     98  O   UNL A   1      44.112  27.314  38.048  1.00  0.00    -0.237 OA
ATOM     99  O   UNL A   1      45.878  28.544  36.852  1.00  0.00    -0.237 OA
ATOM    100  O   UNL A   1      44.133  29.783  38.041  1.00  0.00    -0.744 OA
ENDBRANCH  94  97
ENDBRANCH  67  90
ENDBRANCH  41  42
ENDBRANCH  33  36
ENDBRANCH  31  32
ENDBRANCH  30  31
ENDBRANCH  29  30
ENDBRANCH   1  29
TORSDOF 20
ENDMDL
MODEL 3
REMARK VINA RESULT:     -10.9      3.397      7.301
REMARK SMILES Cc1nc2nc(CNC(=O)OC(C)(C)C)nn2c(C)c1CCC(=O)NCCCCNC(=O)c1ccc(-c2c3nc(c(-c4cccc(S(=O)(=O)[O-])c4F)c4ccc([nH]4)c(-c4cccc(S(=O)(=O)[O-])c4F)c4nc(c(-c5cccc(S(=O)(=O)[O-])c5F)c5ccc2[nH]5)C=C4)C=C3)cc1
REMARK SMILES IDX 26 1 25 2 23 3 24 4 22 6 21 7 20 8 1 9 2 10 3 11 4 12 18 13
REMARK SMILES IDX 5 14 17 15 19 16 6 17 16 18 7 19 8 20 9 21 10 23 11 24 12 25
REMARK SMILES IDX 13 26 14 27 15 28 27 29 28 30 29 31 30 32 31 33 32 35 33 36
REMARK SMILES IDX 34 37 95 38 35 39 94 40 36 41 37 42 38 43 88 44 39 45 93 46
REMARK SMILES IDX 87 47 89 48 40 49 92 50 86 51 85 52 41 54 73 55 53 56 72 57
REMARK SMILES IDX 54 58 57 59 71 60 90 61 55 62 56 63 70 65 91 66 58 67 42 68
REMARK SMILES IDX 43 69 51 70 44 71 46 72 52 73 45 74 47 75 48 76 49 77 50 78
REMARK SMILES IDX 74 79 75 80 83 81 76 82 78 83 84 84 77 85 79 86 80 87 81 88
REMARK SMILES IDX 82 89 59 90 60 91 68 92 61 93 63 94 69 95 62 96 64 97 65 98
REMARK SMILES IDX 66 99 67 100
REMARK H PARENT 25 5 8 22 30 34 89 53 57 64
REMARK Flexibility Score: inf
ROOT
ATOM      1  C   UNL A   1      32.192  30.203  26.174  1.00  0.00     0.116 C 
ENDROOT
BRANCH   1   2
ATOM      2  N   UNL A   1      31.072  30.024  25.261  1.00  0.00    -0.356 N 
ATOM      3  C   UNL A   1      31.101  29.598  23.960  1.00  0.00     0.220 C 
ATOM      4  O   UNL A   1      30.128  29.802  23.235  1.00  0.00    -0.275 OA
ATOM      5  H   UNL A   1      30.182  30.234  25.625  1.00  0.00     0.163 HD
BRANCH   3   6
ATOM      6  C   UNL A   1      32.323  28.863  23.422  1.00  0.00     0.105 C 
BRANCH   6   7
ATOM      7  C   UNL A   1      31.988  27.586  22.618  1.00  0.00     0.049 C 
BRANCH   7   8
ATOM      8  C   UNL A   1      32.968  26.443  22.825  1.00  0.00    -0.005 A 
ATOM      9  C   UNL A   1      32.553  25.654  20.369  1.00  0.00     0.067 C 
ATOM     10  C   UNL A   1      33.067  25.355  21.765  1.00  0.00     0.046 A 
ATOM     11  N   UNL A   1      33.619  24.191  21.938  1.00  0.00    -0.216 NA
ATOM     12  C   UNL A   1      34.148  23.934  23.163  1.00  0.00     0.252 A 
ATOM     13  C   UNL A   1      33.722  26.220  23.936  1.00  0.00     0.048 A 
ATOM     14  N   UNL A   1      34.486  22.778  23.693  1.00  0.00    -0.192 NA
ATOM     15  N   UNL A   1      34.305  24.942  24.120  1.00  0.00    -0.201 N 
ATOM     16  C   UNL A   1      33.786  27.164  25.106  1.00  0.00     0.067 C 
ATOM     17  C   UNL A   1      34.923  23.092  24.954  1.00  0.00     0.172 A 
ATOM     18  N   UNL A   1      34.896  24.407  25.231  1.00  0.00    -0.148 NA
BRANCH  17  19
ATOM     19  C   UNL A   1      35.293  22.027  25.967  1.00  0.00     0.199 C 
BRANCH  19  20
ATOM     20  N   UNL A   1      34.507  22.184  27.176  1.00  0.00    -0.314 N 
ATOM     21  C   UNL A   1      33.170  22.209  27.374  1.00  0.00     0.408 C 
ATOM     22  H   UNL A   1      35.041  22.292  27.996  1.00  0.00     0.167 HD
ATOM     23  O   UNL A   1      32.715  22.295  28.507  1.00  0.00    -0.225 OA
BRANCH  21  24
ATOM     24  O   UNL A   1      32.424  22.136  26.250  1.00  0.00    -0.444 OA
BRANCH  24  25
ATOM     25  C   UNL A   1      31.332  23.090  26.104  1.00  0.00     0.106 C 
ATOM     26  C   UNL A   1      30.991  23.379  24.632  1.00  0.00     0.056 C 
ATOM     27  C   UNL A   1      30.086  22.641  26.885  1.00  0.00     0.056 C 
ATOM     28  C   UNL A   1      31.861  24.383  26.736  1.00  0.00     0.056 C 
ENDBRANCH  24  25
ENDBRANCH  21  24
ENDBRANCH  19  20
ENDBRANCH  17  19
ENDBRANCH   7   8
ENDBRANCH   6   7
ENDBRANCH   3   6
ENDBRANCH   1   2
BRANCH   1  29
ATOM     29  C   UNL A   1      32.027  31.525  26.904  1.00  0.00     0.023 C 
BRANCH  29  30
ATOM     30  C   UNL A   1      33.213  32.061  27.695  1.00  0.00     0.023 C 
BRANCH  30  31
ATOM     31  C   UNL A   1      33.468  33.534  27.468  1.00  0.00     0.116 C 
BRANCH  31  32
ATOM     32  N   UNL A   1      32.707  34.423  28.364  1.00  0.00    -0.352 N 
ATOM     33  C   UNL A   1      33.056  34.780  29.660  1.00  0.00     0.251 C 
ATOM     34  H   UNL A   1      31.871  34.801  28.009  1.00  0.00     0.163 HD
ATOM     35  O   UNL A   1      32.337  35.462  30.375  1.00  0.00    -0.269 OA
BRANCH  33  36
ATOM     36  C   UNL A   1      34.409  34.396  30.064  1.00  0.00     0.039 A 
ATOM     37  C   UNL A   1      34.643  33.349  30.957  1.00  0.00     0.014 A 
ATOM     38  C   UNL A   1      35.384  34.865  29.191  1.00  0.00     0.014 A 
ATOM     39  C   UNL A   1      35.880  32.713  30.920  1.00  0.00     0.010 A 
ATOM     40  C   UNL A   1      36.512  34.102  29.035  1.00  0.00     0.010 A 
ATOM     41  C   UNL A   1      36.809  33.073  29.933  1.00  0.00    -0.014 A 
BRANCH  41  42
ATOM     42  C   UNL A   1      38.084  32.369  29.800  1.00  0.00     0.031 A 
ATOM     43  C   UNL A   1      38.059  30.988  29.247  1.00  0.00     0.074 A 
ATOM     44  C   UNL A   1      39.264  32.972  30.071  1.00  0.00     0.049 A 
ATOM     45  N   UNL A   1      38.211  29.894  29.920  1.00  0.00    -0.248 NA
ATOM     46  C   UNL A   1      37.749  30.767  27.828  1.00  0.00     0.031 C 
ATOM     47  C   UNL A   1      39.495  34.387  30.408  1.00  0.00     0.029 A 
ATOM     48  N   UNL A   1      40.531  32.481  29.977  1.00  0.00    -0.354 N 
ATOM     49  C   UNL A   1      38.300  28.872  28.975  1.00  0.00     0.074 A 
ATOM     50  C   UNL A   1      37.802  29.433  27.746  1.00  0.00     0.031 C 
ATOM     51  C   UNL A   1      40.784  34.703  30.183  1.00  0.00     0.029 A 
ATOM     52  C   UNL A   1      41.502  33.471  29.952  1.00  0.00     0.049 A 
ATOM     53  H   UNL A   1      40.737  31.519  29.931  1.00  0.00     0.167 HD
ATOM     54  C   UNL A   1      39.056  27.765  29.230  1.00  0.00     0.034 A 
ATOM     55  C   UNL A   1      42.832  33.316  29.813  1.00  0.00     0.034 A 
ATOM     56  C   UNL A   1      39.474  27.742  30.611  1.00  0.00     0.049 A 
ATOM     57  C   UNL A   1      43.165  31.991  30.371  1.00  0.00     0.074 A 
ATOM     58  C   UNL A   1      38.908  27.513  31.843  1.00  0.00     0.029 A 
ATOM     59  N   UNL A   1      40.689  28.341  30.818  1.00  0.00    -0.354 N 
ATOM     60  N   UNL A   1      42.998  31.685  31.631  1.00  0.00    -0.248 NA
ATOM     61  C   UNL A   1      43.408  30.868  29.478  1.00  0.00     0.031 C 
ATOM     62  C   UNL A   1      39.749  28.172  32.789  1.00  0.00     0.029 A 
ATOM     63  C   UNL A   1      40.812  28.767  32.108  1.00  0.00     0.049 A 
ATOM     64  H   UNL A   1      41.381  28.449  30.126  1.00  0.00     0.167 HD
ATOM     65  C   UNL A   1      42.658  30.345  31.602  1.00  0.00     0.074 A 
ATOM     66  C   UNL A   1      43.125  29.861  30.310  1.00  0.00     0.031 C 
ATOM     67  C   UNL A   1      41.735  29.829  32.463  1.00  0.00     0.034 A 
BRANCH  54  68
ATOM     68  C   UNL A   1      39.858  26.945  28.224  1.00  0.00     0.023 A 
ATOM     69  C   UNL A   1      39.826  25.535  28.394  1.00  0.00     0.012 A 
ATOM     70  C   UNL A   1      40.864  27.452  27.375  1.00  0.00     0.148 A 
ATOM     71  C   UNL A   1      40.796  24.693  27.838  1.00  0.00     0.002 A 
ATOM     72  C   UNL A   1      41.791  26.602  26.772  1.00  0.00     0.091 A 
ATOM     73  F   UNL A   1      41.021  28.767  27.232  1.00  0.00    -0.205 F 
ATOM     74  C   UNL A   1      41.785  25.229  27.029  1.00  0.00     0.022 A 
BRANCH  72  75
ATOM     75  S   UNL A   1      43.082  27.232  25.690  1.00  0.00     0.127 S 
ATOM     76  O   UNL A   1      43.621  25.995  25.132  1.00  0.00    -0.237 OA
ATOM     77  O   UNL A   1      42.314  28.053  24.754  1.00  0.00    -0.237 OA
ATOM     78  O   UNL A   1      43.979  27.991  26.553  1.00  0.00    -0.744 OA
ENDBRANCH  72  75
ENDBRANCH  54  68
BRANCH  55  79
ATOM     79  C   UNL A   1      43.801  34.208  29.151  1.00  0.00     0.023 A 
ATOM     80  C   UNL A   1      44.447  35.207  29.899  1.00  0.00     0.012 A 
ATOM     81  C   UNL A   1      44.296  33.903  27.861  1.00  0.00     0.148 A 
ATOM     82  C   UNL A   1      45.592  35.838  29.408  1.00  0.00     0.002 A 
ATOM     83  C   UNL A   1      45.436  34.535  27.377  1.00  0.00     0.091 A 
ATOM     84  F   UNL A   1      43.704  32.932  27.151  1.00  0.00    -0.205 F 
ATOM     85  C   UNL A   1      46.096  35.492  28.156  1.00  0.00     0.022 A 
BRANCH  83  86
ATOM     86  S   UNL A   1      46.155  34.120  25.781  1.00  0.00     0.127 S 
ATOM     87  O   UNL A   1      46.768  35.388  25.382  1.00  0.00    -0.237 OA
ATOM     88  O   UNL A   1      47.102  33.069  26.142  1.00  0.00    -0.237 OA
ATOM     89  O   UNL A   1      45.038  33.709  24.940  1.00  0.00    -0.744 OA
ENDBRANCH  83  86
ENDBRANCH  55  79
BRANCH  67  90
ATOM     90  C   UNL A   1      41.483  30.537  33.762  1.00  0.00     0.023 A 
ATOM     91  C   UNL A   1      40.239  31.108  34.089  1.00  0.00     0.012 A 
ATOM     92  C   UNL A   1      42.486  30.471  34.745  1.00  0.00     0.148 A 
ATOM     93  C   UNL A   1      40.004  31.607  35.374  1.00  0.00     0.002 A 
ATOM     94  C   UNL A   1      42.232  30.920  36.034  1.00  0.00     0.091 A 
ATOM     95  F   UNL A   1      43.669  29.933  34.409  1.00  0.00    -0.205 F 
ATOM     96  C   UNL A   1      40.993  31.497  36.351  1.00  0.00     0.022 A 
BRANCH  94  97
ATOM     97  S   UNL A   1      43.415  30.664  37.359  1.00  0.00     0.127 S 
ATOM     98  O   UNL A   1      44.552  31.466  36.914  1.00  0.00    -0.237 OA
ATOM     99  O   UNL A   1      42.708  31.200  38.523  1.00  0.00    -0.237 OA
ATOM    100  O   UNL A   1      43.643  29.226  37.417  1.00  0.00    -0.744 OA
ENDBRANCH  94  97
ENDBRANCH  67  90
ENDBRANCH  41  42
ENDBRANCH  33  36
ENDBRANCH  31  32
ENDBRANCH  30  31
ENDBRANCH  29  30
ENDBRANCH   1  29
TORSDOF 20
ENDMDL
