MODEL 1
REMARK VINA RESULT:     -11.6      0.000      0.000
REMARK SMILES C[C@@H]1C[N@@H+](C[C@]2(C(=O)NCCCCNC(=O)c3ccc(-c4c5nc(c(-c6cccc(S(=O)(=O)[O-])c6F)c6ccc([nH]6)c(-c6cccc(S(=O)(=O)[O-])c6F)c6nc(c(-c7cccc(S(=O)(=O)[O-])c7F)c7ccc4[nH]7)C=C6)C=C5)cc3)CCOC2)C[C@@H]1C
REMARK SMILES IDX 12 1 11 2 10 3 9 4 7 5 8 6 6 8 80 9 83 10 81 11 82 12 5 13
REMARK SMILES IDX 4 14 1 15 2 16 3 17 85 18 84 19 86 20 13 22 14 23 15 24
REMARK SMILES IDX 16 26 17 27 18 28 79 29 19 30 78 31 20 32 21 33 22 34 72 35
REMARK SMILES IDX 23 36 77 37 71 38 73 39 24 40 76 41 70 42 69 43 25 45 57 46
REMARK SMILES IDX 37 47 56 48 38 49 41 50 55 51 74 52 39 53 40 54 54 56 75 57
REMARK SMILES IDX 42 58 26 59 27 60 35 61 28 62 30 63 36 64 29 65 31 66 32 67
REMARK SMILES IDX 33 68 34 69 58 70 59 71 67 72 60 73 62 74 68 75 61 76 63 77
REMARK SMILES IDX 64 78 65 79 66 80 43 81 44 82 52 83 45 84 47 85 53 86 46 87
REMARK SMILES IDX 48 88 49 89 50 90 51 91
REMARK H PARENT 9 7 4 21 14 25 73 44 41 55
REMARK Flexibility Score: inf
ROOT
ATOM      1  C   UNL A   1      37.838  20.937  25.378  1.00  0.00     0.023 C 
ENDROOT
BRANCH   1   2
ATOM      2  C   UNL A   1      37.357  22.099  24.505  1.00  0.00     0.023 C 
BRANCH   2   3
ATOM      3  C   UNL A   1      36.081  22.778  25.006  1.00  0.00     0.116 C 
BRANCH   3   4
ATOM      4  N   UNL A   1      35.033  22.700  24.007  1.00  0.00    -0.355 N 
ATOM      5  C   UNL A   1      33.753  22.241  24.073  1.00  0.00     0.234 C 
ATOM      6  O   UNL A   1      33.171  22.098  22.995  1.00  0.00    -0.274 OA
ATOM      7  H   UNL A   1      35.295  23.039  23.120  1.00  0.00     0.163 HD
BRANCH   5   8
ATOM      8  C   UNL A   1      33.057  21.942  25.413  1.00  0.00     0.123 C 
ATOM      9  C   UNL A   1      33.151  23.159  26.326  1.00  0.00     0.054 C 
ATOM     10  C   UNL A   1      31.544  21.905  25.158  1.00  0.00     0.183 C 
ATOM     11  C   UNL A   1      31.803  23.269  27.009  1.00  0.00     0.161 C 
ATOM     12  O   UNL A   1      30.888  22.414  26.326  1.00  0.00    -0.380 OA
BRANCH   8  13
ATOM     13  C   UNL A   1      33.590  20.590  25.979  1.00  0.00     0.281 C 
BRANCH  13  14
ATOM     14  N   UNL A   1      33.553  19.343  25.242  1.00  0.00    -0.333 N 
ATOM     15  C   UNL A   1      32.613  15.778  25.486  1.00  0.00     0.014 C 
ATOM     16  C   UNL A   1      33.440  17.045  25.598  1.00  0.00     0.049 C 
ATOM     17  C   UNL A   1      32.595  18.312  25.572  1.00  0.00     0.265 C 
ATOM     18  C   UNL A   1      34.501  17.289  24.514  1.00  0.00     0.049 C 
ATOM     19  C   UNL A   1      34.727  18.809  24.581  1.00  0.00     0.265 C 
ATOM     20  C   UNL A   1      34.099  16.845  23.111  1.00  0.00     0.014 C 
ATOM     21  H   UNL A   1      33.110  19.911  24.520  1.00  0.00     0.348 HD
ENDBRANCH  13  14
ENDBRANCH   8  13
ENDBRANCH   5   8
ENDBRANCH   3   4
ENDBRANCH   2   3
ENDBRANCH   1   2
BRANCH   1  22
ATOM     22  C   UNL A   1      39.250  21.085  25.932  1.00  0.00     0.116 C 
BRANCH  22  23
ATOM     23  N   UNL A   1      40.011  19.843  25.897  1.00  0.00    -0.352 N 
ATOM     24  C   UNL A   1      41.368  19.670  26.051  1.00  0.00     0.251 C 
ATOM     25  H   UNL A   1      39.488  19.023  25.742  1.00  0.00     0.163 HD
ATOM     26  O   UNL A   1      41.879  18.571  25.891  1.00  0.00    -0.269 OA
BRANCH  24  27
ATOM     27  C   UNL A   1      42.201  20.848  26.371  1.00  0.00     0.039 A 
ATOM     28  C   UNL A   1      42.665  21.648  25.324  1.00  0.00     0.014 A 
ATOM     29  C   UNL A   1      42.450  21.197  27.700  1.00  0.00     0.014 A 
ATOM     30  C   UNL A   1      43.305  22.854  25.615  1.00  0.00     0.010 A 
ATOM     31  C   UNL A   1      43.039  22.425  27.987  1.00  0.00     0.010 A 
ATOM     32  C   UNL A   1      43.452  23.273  26.947  1.00  0.00    -0.014 A 
BRANCH  32  33
ATOM     33  C   UNL A   1      43.958  24.628  27.280  1.00  0.00     0.031 A 
ATOM     34  C   UNL A   1      43.020  25.693  27.769  1.00  0.00     0.074 A 
ATOM     35  C   UNL A   1      45.249  24.925  27.024  1.00  0.00     0.049 A 
ATOM     36  N   UNL A   1      43.264  26.953  28.014  1.00  0.00    -0.248 NA
ATOM     37  C   UNL A   1      41.620  25.297  27.992  1.00  0.00     0.031 C 
ATOM     38  C   UNL A   1      46.238  23.994  26.473  1.00  0.00     0.029 A 
ATOM     39  N   UNL A   1      45.941  26.103  27.156  1.00  0.00    -0.354 N 
ATOM     40  C   UNL A   1      42.049  27.508  28.394  1.00  0.00     0.074 A 
ATOM     41  C   UNL A   1      41.061  26.453  28.322  1.00  0.00     0.031 C 
ATOM     42  C   UNL A   1      47.403  24.638  26.306  1.00  0.00     0.029 A 
ATOM     43  C   UNL A   1      47.240  26.032  26.708  1.00  0.00     0.049 A 
ATOM     44  H   UNL A   1      45.546  26.921  27.535  1.00  0.00     0.167 HD
ATOM     45  C   UNL A   1      41.787  28.775  28.795  1.00  0.00     0.034 A 
ATOM     46  C   UNL A   1      48.188  26.984  26.615  1.00  0.00     0.034 A 
ATOM     47  C   UNL A   1      42.780  29.810  28.904  1.00  0.00     0.049 A 
ATOM     48  C   UNL A   1      47.869  28.380  27.079  1.00  0.00     0.074 A 
ATOM     49  C   UNL A   1      42.630  31.097  29.393  1.00  0.00     0.029 A 
ATOM     50  N   UNL A   1      44.103  29.683  28.513  1.00  0.00    -0.354 N 
ATOM     51  N   UNL A   1      46.758  28.842  27.598  1.00  0.00    -0.248 NA
ATOM     52  C   UNL A   1      48.943  29.378  26.968  1.00  0.00     0.031 C 
ATOM     53  C   UNL A   1      43.861  31.752  29.283  1.00  0.00     0.029 A 
ATOM     54  C   UNL A   1      44.778  30.871  28.733  1.00  0.00     0.049 A 
ATOM     55  H   UNL A   1      44.504  28.868  28.133  1.00  0.00     0.167 HD
ATOM     56  C   UNL A   1      47.004  30.177  27.896  1.00  0.00     0.074 A 
ATOM     57  C   UNL A   1      48.380  30.441  27.529  1.00  0.00     0.031 C 
ATOM     58  C   UNL A   1      46.160  31.107  28.407  1.00  0.00     0.034 A 
BRANCH  45  59
ATOM     59  C   UNL A   1      40.381  29.098  29.220  1.00  0.00     0.023 A 
ATOM     60  C   UNL A   1      39.440  29.478  28.241  1.00  0.00     0.012 A 
ATOM     61  C   UNL A   1      39.967  28.953  30.558  1.00  0.00     0.148 A 
ATOM     62  C   UNL A   1      38.115  29.728  28.589  1.00  0.00     0.002 A 
ATOM     63  C   UNL A   1      38.635  29.169  30.892  1.00  0.00     0.091 A 
ATOM     64  F   UNL A   1      40.883  28.611  31.476  1.00  0.00    -0.205 F 
ATOM     65  C   UNL A   1      37.710  29.563  29.911  1.00  0.00     0.022 A 
BRANCH  63  66
ATOM     66  S   UNL A   1      37.998  28.921  32.553  1.00  0.00     0.127 S 
ATOM     67  O   UNL A   1      36.602  29.326  32.396  1.00  0.00    -0.237 OA
ATOM     68  O   UNL A   1      38.196  27.484  32.748  1.00  0.00    -0.237 OA
ATOM     69  O   UNL A   1      38.801  29.769  33.423  1.00  0.00    -0.744 OA
ENDBRANCH  63  66
ENDBRANCH  45  59
BRANCH  46  70
ATOM     70  C   UNL A   1      49.546  26.640  26.110  1.00  0.00     0.023 A 
ATOM     71  C   UNL A   1      50.405  25.867  26.915  1.00  0.00     0.012 A 
ATOM     72  C   UNL A   1      49.987  27.051  24.837  1.00  0.00     0.148 A 
ATOM     73  C   UNL A   1      51.686  25.534  26.475  1.00  0.00     0.002 A 
ATOM     74  C   UNL A   1      51.244  26.671  24.382  1.00  0.00     0.091 A 
ATOM     75  F   UNL A   1      49.166  27.805  24.091  1.00  0.00    -0.205 F 
ATOM     76  C   UNL A   1      52.102  25.926  25.205  1.00  0.00     0.022 A 
BRANCH  74  77
ATOM     77  S   UNL A   1      51.793  27.023  22.707  1.00  0.00     0.127 S 
ATOM     78  O   UNL A   1      50.576  26.786  21.937  1.00  0.00    -0.237 OA
ATOM     79  O   UNL A   1      52.200  28.425  22.802  1.00  0.00    -0.237 OA
ATOM     80  O   UNL A   1      52.895  26.100  22.469  1.00  0.00    -0.744 OA
ENDBRANCH  74  77
ENDBRANCH  46  70
BRANCH  58  81
ATOM     81  C   UNL A   1      46.697  32.499  28.603  1.00  0.00     0.023 A 
ATOM     82  C   UNL A   1      47.298  32.839  29.832  1.00  0.00     0.012 A 
ATOM     83  C   UNL A   1      46.676  33.441  27.557  1.00  0.00     0.148 A 
ATOM     84  C   UNL A   1      47.848  34.105  30.024  1.00  0.00     0.002 A 
ATOM     85  C   UNL A   1      47.265  34.687  27.741  1.00  0.00     0.091 A 
ATOM     86  F   UNL A   1      46.083  33.102  26.402  1.00  0.00    -0.205 F 
ATOM     87  C   UNL A   1      47.842  35.024  28.977  1.00  0.00     0.022 A 
BRANCH  85  88
ATOM     88  S   UNL A   1      47.382  35.902  26.424  1.00  0.00     0.127 S 
ATOM     89  O   UNL A   1      48.159  35.179  25.419  1.00  0.00    -0.237 OA
ATOM     90  O   UNL A   1      45.977  36.116  26.072  1.00  0.00    -0.237 OA
ATOM     91  O   UNL A   1      48.041  37.063  27.008  1.00  0.00    -0.744 OA
ENDBRANCH  85  88
ENDBRANCH  58  81
ENDBRANCH  32  33
ENDBRANCH  24  27
ENDBRANCH  22  23
ENDBRANCH   1  22
TORSDOF 16
ENDMDL
MODEL 2
REMARK VINA RESULT:     -11.6      2.142      2.943
REMARK SMILES C[C@@H]1C[N@@H+](C[C@]2(C(=O)NCCCCNC(=O)c3ccc(-c4c5nc(c(-c6cccc(S(=O)(=O)[O-])c6F)c6ccc([nH]6)c(-c6cccc(S(=O)(=O)[O-])c6F)c6nc(c(-c7cccc(S(=O)(=O)[O-])c7F)c7ccc4[nH]7)C=C6)C=C5)cc3)CCOC2)C[C@@H]1C
REMARK SMILES IDX 12 1 11 2 10 3 9 4 7 5 8 6 6 8 80 9 83 10 81 11 82 12 5 13
REMARK SMILES IDX 4 14 1 15 2 16 3 17 85 18 84 19 86 20 13 22 14 23 15 24
REMARK SMILES IDX 16 26 17 27 18 28 79 29 19 30 78 31 20 32 21 33 22 34 72 35
REMARK SMILES IDX 23 36 77 37 71 38 73 39 24 40 76 41 70 42 69 43 25 45 57 46
REMARK SMILES IDX 37 47 56 48 38 49 41 50 55 51 74 52 39 53 40 54 54 56 75 57
REMARK SMILES IDX 42 58 26 59 27 60 35 61 28 62 30 63 36 64 29 65 31 66 32 67
REMARK SMILES IDX 33 68 34 69 58 70 59 71 67 72 60 73 62 74 68 75 61 76 63 77
REMARK SMILES IDX 64 78 65 79 66 80 43 81 44 82 52 83 45 84 47 85 53 86 46 87
REMARK SMILES IDX 48 88 49 89 50 90 51 91
REMARK H PARENT 9 7 4 21 14 25 73 44 41 55
REMARK Flexibility Score: inf
ROOT
ATOM      1  C   UNL A   1      36.982  21.764  23.882  1.00  0.00     0.023 C 
ENDROOT
BRANCH   1   2
ATOM      2  C   UNL A   1      36.696  23.215  23.484  1.00  0.00     0.023 C 
BRANCH   2   3
ATOM      3  C   UNL A   1      35.335  23.739  23.946  1.00  0.00     0.116 C 
BRANCH   3   4
ATOM      4  N   UNL A   1      34.260  23.028  23.281  1.00  0.00    -0.355 N 
ATOM      5  C   UNL A   1      33.280  22.214  23.764  1.00  0.00     0.234 C 
ATOM      6  O   UNL A   1      32.643  21.575  22.923  1.00  0.00    -0.274 OA
ATOM      7  H   UNL A   1      34.234  23.155  22.306  1.00  0.00     0.163 HD
BRANCH   5   8
ATOM      8  C   UNL A   1      32.963  22.113  25.267  1.00  0.00     0.123 C 
ATOM      9  C   UNL A   1      32.981  23.504  25.892  1.00  0.00     0.054 C 
ATOM     10  C   UNL A   1      31.475  21.765  25.410  1.00  0.00     0.183 C 
ATOM     11  C   UNL A   1      31.814  23.537  26.859  1.00  0.00     0.161 C 
ATOM     12  O   UNL A   1      30.984  22.408  26.594  1.00  0.00    -0.380 OA
BRANCH   8  13
ATOM     13  C   UNL A   1      33.883  21.035  25.916  1.00  0.00     0.281 C 
BRANCH  13  14
ATOM     14  N   UNL A   1      33.764  19.615  25.650  1.00  0.00    -0.333 N 
ATOM     15  C   UNL A   1      34.107  17.051  23.012  1.00  0.00     0.014 C 
ATOM     16  C   UNL A   1      33.488  18.135  23.875  1.00  0.00     0.049 C 
ATOM     17  C   UNL A   1      34.524  18.991  24.590  1.00  0.00     0.265 C 
ATOM     18  C   UNL A   1      32.545  17.682  25.001  1.00  0.00     0.049 C 
ATOM     19  C   UNL A   1      32.561  18.874  25.972  1.00  0.00     0.265 C 
ATOM     20  C   UNL A   1      32.953  16.388  25.698  1.00  0.00     0.014 C 
ATOM     21  H   UNL A   1      34.334  19.522  26.490  1.00  0.00     0.348 HD
ENDBRANCH  13  14
ENDBRANCH   8  13
ENDBRANCH   5   8
ENDBRANCH   3   4
ENDBRANCH   2   3
ENDBRANCH   1   2
BRANCH   1  22
ATOM     22  C   UNL A   1      37.309  21.551  25.355  1.00  0.00     0.116 C 
BRANCH  22  23
ATOM     23  N   UNL A   1      38.316  20.521  25.574  1.00  0.00    -0.352 N 
ATOM     24  C   UNL A   1      39.551  20.649  26.168  1.00  0.00     0.251 C 
ATOM     25  H   UNL A   1      38.084  19.619  25.255  1.00  0.00     0.163 HD
ATOM     26  O   UNL A   1      40.335  19.711  26.187  1.00  0.00    -0.269 OA
BRANCH  24  27
ATOM     27  C   UNL A   1      39.927  21.956  26.747  1.00  0.00     0.039 A 
ATOM     28  C   UNL A   1      40.853  21.987  27.793  1.00  0.00     0.014 A 
ATOM     29  C   UNL A   1      39.427  23.141  26.202  1.00  0.00     0.014 A 
ATOM     30  C   UNL A   1      41.348  23.216  28.234  1.00  0.00     0.010 A 
ATOM     31  C   UNL A   1      39.962  24.360  26.605  1.00  0.00     0.010 A 
ATOM     32  C   UNL A   1      40.942  24.406  27.609  1.00  0.00    -0.014 A 
BRANCH  32  33
ATOM     33  C   UNL A   1      41.586  25.705  27.929  1.00  0.00     0.031 A 
ATOM     34  C   UNL A   1      40.813  26.786  28.627  1.00  0.00     0.074 A 
ATOM     35  C   UNL A   1      42.834  25.945  27.478  1.00  0.00     0.049 A 
ATOM     36  N   UNL A   1      41.178  28.012  28.898  1.00  0.00    -0.248 NA
ATOM     37  C   UNL A   1      39.444  26.456  29.058  1.00  0.00     0.031 C 
ATOM     38  C   UNL A   1      43.655  24.999  26.718  1.00  0.00     0.029 A 
ATOM     39  N   UNL A   1      43.615  27.070  27.559  1.00  0.00    -0.354 N 
ATOM     40  C   UNL A   1      40.081  28.608  29.507  1.00  0.00     0.074 A 
ATOM     41  C   UNL A   1      39.026  27.618  29.542  1.00  0.00     0.031 C 
ATOM     42  C   UNL A   1      44.818  25.585  26.394  1.00  0.00     0.029 A 
ATOM     43  C   UNL A   1      44.817  26.956  26.896  1.00  0.00     0.049 A 
ATOM     44  H   UNL A   1      43.343  27.883  28.044  1.00  0.00     0.167 HD
ATOM     45  C   UNL A   1      39.973  29.858  30.018  1.00  0.00     0.034 A 
ATOM     46  C   UNL A   1      45.798  27.857  26.700  1.00  0.00     0.034 A 
ATOM     47  C   UNL A   1      41.038  30.825  30.017  1.00  0.00     0.049 A 
ATOM     48  C   UNL A   1      45.653  29.234  27.289  1.00  0.00     0.074 A 
ATOM     49  C   UNL A   1      41.056  32.083  30.596  1.00  0.00     0.029 A 
ATOM     50  N   UNL A   1      42.267  30.650  29.404  1.00  0.00    -0.354 N 
ATOM     51  N   UNL A   1      44.675  29.723  28.012  1.00  0.00    -0.248 NA
ATOM     52  C   UNL A   1      46.759  30.175  27.057  1.00  0.00     0.031 C 
ATOM     53  C   UNL A   1      42.293  32.673  30.319  1.00  0.00     0.029 A 
ATOM     54  C   UNL A   1      43.048  31.781  29.575  1.00  0.00     0.049 A 
ATOM     55  H   UNL A   1      42.545  29.841  28.917  1.00  0.00     0.167 HD
ATOM     56  C   UNL A   1      45.055  31.019  28.340  1.00  0.00     0.074 A 
ATOM     57  C   UNL A   1      46.367  31.228  27.763  1.00  0.00     0.031 C 
ATOM     58  C   UNL A   1      44.371  31.959  29.037  1.00  0.00     0.034 A 
BRANCH  45  59
ATOM     59  C   UNL A   1      38.680  30.231  30.689  1.00  0.00     0.023 A 
ATOM     60  C   UNL A   1      38.493  29.901  32.046  1.00  0.00     0.012 A 
ATOM     61  C   UNL A   1      37.691  30.971  30.013  1.00  0.00     0.148 A 
ATOM     62  C   UNL A   1      37.332  30.282  32.716  1.00  0.00     0.002 A 
ATOM     63  C   UNL A   1      36.552  31.379  30.697  1.00  0.00     0.091 A 
ATOM     64  F   UNL A   1      37.880  31.257  28.716  1.00  0.00    -0.205 F 
ATOM     65  C   UNL A   1      36.368  31.030  32.046  1.00  0.00     0.022 A 
BRANCH  63  66
ATOM     66  S   UNL A   1      35.279  32.401  29.945  1.00  0.00     0.127 S 
ATOM     67  O   UNL A   1      34.358  32.594  31.063  1.00  0.00    -0.237 OA
ATOM     68  O   UNL A   1      36.031  33.597  29.562  1.00  0.00    -0.237 OA
ATOM     69  O   UNL A   1      34.753  31.629  28.828  1.00  0.00    -0.744 OA
ENDBRANCH  63  66
ENDBRANCH  45  59
BRANCH  46  70
ATOM     70  C   UNL A   1      47.029  27.471  25.957  1.00  0.00     0.023 A 
ATOM     71  C   UNL A   1      47.092  27.693  24.567  1.00  0.00     0.012 A 
ATOM     72  C   UNL A   1      48.142  26.910  26.611  1.00  0.00     0.148 A 
ATOM     73  C   UNL A   1      48.227  27.336  23.839  1.00  0.00     0.002 A 
ATOM     74  C   UNL A   1      49.291  26.606  25.889  1.00  0.00     0.091 A 
ATOM     75  F   UNL A   1      48.059  26.685  27.930  1.00  0.00    -0.205 F 
ATOM     76  C   UNL A   1      49.331  26.803  24.500  1.00  0.00     0.022 A 
BRANCH  74  77
ATOM     77  S   UNL A   1      50.797  26.046  26.695  1.00  0.00     0.127 S 
ATOM     78  O   UNL A   1      50.390  24.747  27.221  1.00  0.00    -0.237 OA
ATOM     79  O   UNL A   1      51.743  25.992  25.580  1.00  0.00    -0.237 OA
ATOM     80  O   UNL A   1      51.102  27.073  27.682  1.00  0.00    -0.744 OA
ENDBRANCH  74  77
ENDBRANCH  46  70
BRANCH  58  81
ATOM     81  C   UNL A   1      45.024  33.302  29.219  1.00  0.00     0.023 A 
ATOM     82  C   UNL A   1      45.813  33.535  30.363  1.00  0.00     0.012 A 
ATOM     83  C   UNL A   1      44.922  34.301  28.232  1.00  0.00     0.148 A 
ATOM     84  C   UNL A   1      46.471  34.752  30.533  1.00  0.00     0.002 A 
ATOM     85  C   UNL A   1      45.614  35.496  28.388  1.00  0.00     0.091 A 
ATOM     86  F   UNL A   1      44.150  34.065  27.160  1.00  0.00    -0.205 F 
ATOM     87  C   UNL A   1      46.382  35.727  29.542  1.00  0.00     0.022 A 
BRANCH  85  88
ATOM     88  S   UNL A   1      45.629  36.774  27.126  1.00  0.00     0.127 S 
ATOM     89  O   UNL A   1      46.517  37.771  27.721  1.00  0.00    -0.237 OA
ATOM     90  O   UNL A   1      46.189  36.067  25.973  1.00  0.00    -0.237 OA
ATOM     91  O   UNL A   1      44.242  37.191  26.962  1.00  0.00    -0.744 OA
ENDBRANCH  85  88
ENDBRANCH  58  81
ENDBRANCH  32  33
ENDBRANCH  24  27
ENDBRANCH  22  23
ENDBRANCH   1  22
TORSDOF 16
ENDMDL
MODEL 3
REMARK VINA RESULT:     -11.6      6.116     11.206
REMARK SMILES C[C@@H]1C[N@@H+](C[C@]2(C(=O)NCCCCNC(=O)c3ccc(-c4c5nc(c(-c6cccc(S(=O)(=O)[O-])c6F)c6ccc([nH]6)c(-c6cccc(S(=O)(=O)[O-])c6F)c6nc(c(-c7cccc(S(=O)(=O)[O-])c7F)c7ccc4[nH]7)C=C6)C=C5)cc3)CCOC2)C[C@@H]1C
REMARK SMILES IDX 12 1 11 2 10 3 9 4 7 5 8 6 6 8 80 9 83 10 81 11 82 12 5 13
REMARK SMILES IDX 4 14 1 15 2 16 3 17 85 18 84 19 86 20 13 22 14 23 15 24
REMARK SMILES IDX 16 26 17 27 18 28 79 29 19 30 78 31 20 32 21 33 22 34 72 35
REMARK SMILES IDX 23 36 77 37 71 38 73 39 24 40 76 41 70 42 69 43 25 45 57 46
REMARK SMILES IDX 37 47 56 48 38 49 41 50 55 51 74 52 39 53 40 54 54 56 75 57
REMARK SMILES IDX 42 58 26 59 27 60 35 61 28 62 30 63 36 64 29 65 31 66 32 67
REMARK SMILES IDX 33 68 34 69 58 70 59 71 67 72 60 73 62 74 68 75 61 76 63 77
REMARK SMILES IDX 64 78 65 79 66 80 43 81 44 82 52 83 45 84 47 85 53 86 46 87
REMARK SMILES IDX 48 88 49 89 50 90 51 91
REMARK H PARENT 9 7 4 21 14 25 73 44 41 55
REMARK Flexibility Score: inf
ROOT
ATOM      1  C   UNL A   1      32.094  29.908  25.389  1.00  0.00     0.023 C 
ENDROOT
BRANCH   1   2
ATOM      2  C   UNL A   1      33.383  29.234  24.911  1.00  0.00     0.023 C 
BRANCH   2   3
ATOM      3  C   UNL A   1      33.423  28.941  23.410  1.00  0.00     0.116 C 
BRANCH   3   4
ATOM      4  N   UNL A   1      32.088  28.694  22.901  1.00  0.00    -0.355 N 
ATOM      5  C   UNL A   1      31.383  27.541  22.732  1.00  0.00     0.234 C 
ATOM      6  O   UNL A   1      30.349  27.630  22.065  1.00  0.00    -0.274 OA
ATOM      7  H   UNL A   1      31.604  29.506  22.626  1.00  0.00     0.163 HD
BRANCH   5   8
ATOM      8  C   UNL A   1      31.830  26.207  23.357  1.00  0.00     0.123 C 
ATOM      9  C   UNL A   1      31.480  26.190  24.841  1.00  0.00     0.054 C 
ATOM     10  C   UNL A   1      30.891  25.109  22.840  1.00  0.00     0.183 C 
ATOM     11  C   UNL A   1      30.974  24.791  25.131  1.00  0.00     0.161 C 
ATOM     12  O   UNL A   1      30.727  24.141  23.885  1.00  0.00    -0.380 OA
BRANCH   8  13
ATOM     13  C   UNL A   1      33.318  25.934  22.979  1.00  0.00     0.281 C 
BRANCH  13  14
ATOM     14  N   UNL A   1      34.180  25.033  23.718  1.00  0.00    -0.333 N 
ATOM     15  C   UNL A   1      34.587  21.515  24.774  1.00  0.00     0.014 C 
ATOM     16  C   UNL A   1      34.128  22.962  24.780  1.00  0.00     0.049 C 
ATOM     17  C   UNL A   1      34.217  23.621  23.410  1.00  0.00     0.265 C 
ATOM     18  C   UNL A   1      34.881  23.933  25.703  1.00  0.00     0.049 C 
ATOM     19  C   UNL A   1      34.587  25.308  25.081  1.00  0.00     0.265 C 
ATOM     20  C   UNL A   1      36.381  23.680  25.815  1.00  0.00     0.014 C 
ATOM     21  H   UNL A   1      34.919  25.457  23.157  1.00  0.00     0.348 HD
ENDBRANCH  13  14
ENDBRANCH   8  13
ENDBRANCH   5   8
ENDBRANCH   3   4
ENDBRANCH   2   3
ENDBRANCH   1   2
BRANCH   1  22
ATOM     22  C   UNL A   1      32.105  30.368  26.842  1.00  0.00     0.116 C 
BRANCH  22  23
ATOM     23  N   UNL A   1      31.991  31.813  26.985  1.00  0.00    -0.352 N 
ATOM     24  C   UNL A   1      32.917  32.695  27.494  1.00  0.00     0.251 C 
ATOM     25  H   UNL A   1      31.142  32.209  26.680  1.00  0.00     0.163 HD
ATOM     26  O   UNL A   1      32.635  33.875  27.648  1.00  0.00    -0.269 OA
BRANCH  24  27
ATOM     27  C   UNL A   1      34.244  32.180  27.890  1.00  0.00     0.039 A 
ATOM     28  C   UNL A   1      35.318  33.070  27.956  1.00  0.00     0.014 A 
ATOM     29  C   UNL A   1      34.400  30.844  28.267  1.00  0.00     0.014 A 
ATOM     30  C   UNL A   1      36.534  32.639  28.492  1.00  0.00     0.010 A 
ATOM     31  C   UNL A   1      35.594  30.432  28.850  1.00  0.00     0.010 A 
ATOM     32  C   UNL A   1      36.663  31.331  28.987  1.00  0.00    -0.014 A 
BRANCH  32  33
ATOM     33  C   UNL A   1      37.876  30.901  29.726  1.00  0.00     0.031 A 
ATOM     34  C   UNL A   1      38.831  29.917  29.116  1.00  0.00     0.074 A 
ATOM     35  C   UNL A   1      38.046  31.313  30.999  1.00  0.00     0.049 A 
ATOM     36  N   UNL A   1      39.884  29.355  29.649  1.00  0.00    -0.248 NA
ATOM     37  C   UNL A   1      38.557  29.491  27.734  1.00  0.00     0.031 C 
ATOM     38  C   UNL A   1      37.141  32.206  31.727  1.00  0.00     0.029 A 
ATOM     39  N   UNL A   1      39.016  31.003  31.920  1.00  0.00    -0.354 N 
ATOM     40  C   UNL A   1      40.384  28.492  28.682  1.00  0.00     0.074 A 
ATOM     41  C   UNL A   1      39.504  28.584  27.537  1.00  0.00     0.031 C 
ATOM     42  C   UNL A   1      37.593  32.365  32.981  1.00  0.00     0.029 A 
ATOM     43  C   UNL A   1      38.800  31.563  33.158  1.00  0.00     0.049 A 
ATOM     44  H   UNL A   1      39.793  30.433  31.714  1.00  0.00     0.167 HD
ATOM     45  C   UNL A   1      41.494  27.717  28.734  1.00  0.00     0.034 A 
ATOM     46  C   UNL A   1      39.486  31.434  34.310  1.00  0.00     0.034 A 
ATOM     47  C   UNL A   1      42.389  27.661  29.859  1.00  0.00     0.049 A 
ATOM     48  C   UNL A   1      40.720  30.574  34.332  1.00  0.00     0.074 A 
ATOM     49  C   UNL A   1      43.589  26.980  29.968  1.00  0.00     0.029 A 
ATOM     50  N   UNL A   1      42.180  28.300  31.070  1.00  0.00    -0.354 N 
ATOM     51  N   UNL A   1      41.273  29.900  33.353  1.00  0.00    -0.248 NA
ATOM     52  C   UNL A   1      41.440  30.477  35.611  1.00  0.00     0.031 C 
ATOM     53  C   UNL A   1      44.099  27.197  31.253  1.00  0.00     0.029 A 
ATOM     54  C   UNL A   1      43.220  28.018  31.940  1.00  0.00     0.049 A 
ATOM     55  H   UNL A   1      41.406  28.870  31.282  1.00  0.00     0.167 HD
ATOM     56  C   UNL A   1      42.416  29.318  33.890  1.00  0.00     0.074 A 
ATOM     57  C   UNL A   1      42.492  29.744  35.272  1.00  0.00     0.031 C 
ATOM     58  C   UNL A   1      43.309  28.487  33.298  1.00  0.00     0.034 A 
BRANCH  45  59
ATOM     59  C   UNL A   1      41.848  26.919  27.510  1.00  0.00     0.023 A 
ATOM     60  C   UNL A   1      42.413  27.581  26.401  1.00  0.00     0.012 A 
ATOM     61  C   UNL A   1      41.701  25.519  27.479  1.00  0.00     0.148 A 
ATOM     62  C   UNL A   1      42.808  26.866  25.272  1.00  0.00     0.002 A 
ATOM     63  C   UNL A   1      42.130  24.808  26.364  1.00  0.00     0.091 A 
ATOM     64  F   UNL A   1      41.142  24.912  28.537  1.00  0.00    -0.205 F 
ATOM     65  C   UNL A   1      42.676  25.480  25.258  1.00  0.00     0.022 A 
BRANCH  63  66
ATOM     66  S   UNL A   1      42.065  23.015  26.272  1.00  0.00     0.127 S 
ATOM     67  O   UNL A   1      42.860  22.631  27.437  1.00  0.00    -0.237 OA
ATOM     68  O   UNL A   1      40.631  22.751  26.399  1.00  0.00    -0.237 OA
ATOM     69  O   UNL A   1      42.637  22.659  24.981  1.00  0.00    -0.744 OA
ENDBRANCH  63  66
ENDBRANCH  45  59
BRANCH  46  70
ATOM     70  C   UNL A   1      39.053  32.177  35.525  1.00  0.00     0.023 A 
ATOM     71  C   UNL A   1      39.292  33.563  35.606  1.00  0.00     0.012 A 
ATOM     72  C   UNL A   1      38.390  31.534  36.588  1.00  0.00     0.148 A 
ATOM     73  C   UNL A   1      38.907  34.288  36.734  1.00  0.00     0.002 A 
ATOM     74  C   UNL A   1      37.961  32.271  37.685  1.00  0.00     0.091 A 
ATOM     75  F   UNL A   1      38.190  30.211  36.506  1.00  0.00    -0.205 F 
ATOM     76  C   UNL A   1      38.231  33.646  37.769  1.00  0.00     0.022 A 
BRANCH  74  77
ATOM     77  S   UNL A   1      36.966  31.537  38.990  1.00  0.00     0.127 S 
ATOM     78  O   UNL A   1      35.802  32.417  39.010  1.00  0.00    -0.237 OA
ATOM     79  O   UNL A   1      36.715  30.193  38.470  1.00  0.00    -0.237 OA
ATOM     80  O   UNL A   1      37.814  31.566  40.174  1.00  0.00    -0.744 OA
ENDBRANCH  74  77
ENDBRANCH  46  70
BRANCH  58  81
ATOM     81  C   UNL A   1      44.450  27.981  34.138  1.00  0.00     0.023 A 
ATOM     82  C   UNL A   1      45.633  28.743  34.222  1.00  0.00     0.012 A 
ATOM     83  C   UNL A   1      44.328  26.802  34.898  1.00  0.00     0.148 A 
ATOM     84  C   UNL A   1      46.687  28.324  35.033  1.00  0.00     0.002 A 
ATOM     85  C   UNL A   1      45.366  26.413  35.736  1.00  0.00     0.091 A 
ATOM     86  F   UNL A   1      43.200  26.084  34.788  1.00  0.00    -0.205 F 
ATOM     87  C   UNL A   1      46.550  27.168  35.797  1.00  0.00     0.022 A 
BRANCH  85  88
ATOM     88  S   UNL A   1      45.246  24.988  36.822  1.00  0.00     0.127 S 
ATOM     89  O   UNL A   1      45.156  23.889  35.863  1.00  0.00    -0.237 OA
ATOM     90  O   UNL A   1      46.509  25.052  37.560  1.00  0.00    -0.237 OA
ATOM     91  O   UNL A   1      44.059  25.205  37.638  1.00  0.00    -0.744 OA
ENDBRANCH  85  88
ENDBRANCH  58  81
ENDBRANCH  32  33
ENDBRANCH  24  27
ENDBRANCH  22  23
ENDBRANCH   1  22
TORSDOF 16
ENDMDL
