MODEL 1
REMARK VINA RESULT:     -10.2      0.000      0.000
REMARK SMILES C[N@H+](CCC(=O)Nc1sccc1C#N)CC(=O)NCCCCNC(=O)c1ccc(-c2c3nc(c(-c4cccc(S(=O)(=O)[O-])c4F)c4ccc([nH]4)c(-c4cccc(S(=O)(=O)[O-])c4F)c4nc(c(-c5cccc(S(=O)(=O)[O-])c5F)c5ccc2[nH]5)C=C4)C=C3)cc1
REMARK SMILES IDX 19 1 18 2 16 3 17 4 15 6 2 7 1 8 3 10 4 11 5 12 6 13 7 14
REMARK SMILES IDX 8 16 9 17 12 18 10 19 11 20 13 21 14 22 20 23 21 24 22 25
REMARK SMILES IDX 23 26 24 27 25 29 26 30 27 31 88 32 28 33 87 34 29 35 30 36
REMARK SMILES IDX 31 37 81 38 32 39 86 40 80 41 82 42 33 43 85 44 79 45 78 46
REMARK SMILES IDX 34 48 66 49 46 50 65 51 47 52 50 53 64 54 83 55 48 56 49 57
REMARK SMILES IDX 63 59 84 60 51 61 35 62 36 63 44 64 37 65 39 66 45 67 38 68
REMARK SMILES IDX 40 69 41 70 42 71 43 72 67 73 68 74 76 75 69 76 71 77 77 78
REMARK SMILES IDX 70 79 72 80 73 81 74 82 75 83 52 84 53 85 61 86 54 87 56 88
REMARK SMILES IDX 62 89 55 90 57 91 58 92 59 93 60 94
REMARK H PARENT 18 5 2 9 7 15 23 28 82 47 50 58
REMARK Flexibility Score: inf
ROOT
ATOM      1  C   UNL A   1      35.738  20.570  24.952  1.00  0.00     0.116 C 
ENDROOT
BRANCH   1   2
ATOM      2  N   UNL A   1      35.354  21.641  25.845  1.00  0.00    -0.351 N 
ATOM      3  C   UNL A   1      34.255  22.394  26.059  1.00  0.00     0.275 C 
ATOM      4  O   UNL A   1      34.330  23.148  27.041  1.00  0.00    -0.269 OA
ATOM      5  H   UNL A   1      36.086  21.885  26.456  1.00  0.00     0.163 HD
BRANCH   3   6
ATOM      6  C   UNL A   1      32.903  22.280  25.375  1.00  0.00     0.363 C 
BRANCH   6   7
ATOM      7  N   UNL A   1      32.468  23.322  24.442  1.00  0.00    -0.329 N 
ATOM      8  C   UNL A   1      31.684  22.681  23.362  1.00  0.00     0.333 C 
ATOM      9  H   UNL A   1      31.905  23.992  24.966  1.00  0.00     0.348 HD
BRANCH   7  10
ATOM     10  C   UNL A   1      33.586  24.095  23.855  1.00  0.00     0.272 C 
BRANCH  10  11
ATOM     11  C   UNL A   1      33.524  25.635  23.820  1.00  0.00     0.161 C 
BRANCH  11  12
ATOM     12  C   UNL A   1      33.357  26.679  24.952  1.00  0.00     0.230 C 
ATOM     13  O   UNL A   1      34.293  26.782  25.763  1.00  0.00    -0.274 OA
ATOM     14  N   UNL A   1      32.338  27.557  25.145  1.00  0.00    -0.316 N 
ATOM     15  H   UNL A   1      32.560  28.339  25.701  1.00  0.00     0.170 HD
BRANCH  14  16
ATOM     16  C   UNL A   1      31.052  27.518  24.685  1.00  0.00     0.113 A 
ATOM     17  S   UNL A   1      30.594  28.899  23.787  1.00  0.00    -0.125 S 
ATOM     18  C   UNL A   1      30.040  26.597  24.763  1.00  0.00     0.087 A 
ATOM     19  C   UNL A   1      29.269  28.045  23.106  1.00  0.00     0.068 A 
ATOM     20  C   UNL A   1      29.039  26.861  23.778  1.00  0.00     0.033 A 
BRANCH  18  21
ATOM     21  C   UNL A   1      30.043  25.512  25.687  1.00  0.00     0.102 C 
ATOM     22  N   UNL A   1      30.085  24.630  26.449  1.00  0.00    -0.192 NA
ENDBRANCH  18  21
ENDBRANCH  14  16
ENDBRANCH  11  12
ENDBRANCH  10  11
ENDBRANCH   7  10
ENDBRANCH   6   7
ENDBRANCH   3   6
ENDBRANCH   1   2
BRANCH   1  23
ATOM     23  C   UNL A   1      37.206  20.171  25.047  1.00  0.00     0.023 C 
BRANCH  23  24
ATOM     24  C   UNL A   1      38.125  21.385  25.062  1.00  0.00     0.023 C 
BRANCH  24  25
ATOM     25  C   UNL A   1      39.273  21.255  26.048  1.00  0.00     0.116 C 
BRANCH  25  26
ATOM     26  N   UNL A   1      39.879  19.923  26.039  1.00  0.00    -0.352 N 
ATOM     27  C   UNL A   1      41.225  19.640  26.074  1.00  0.00     0.251 C 
ATOM     28  H   UNL A   1      39.263  19.155  26.005  1.00  0.00     0.163 HD
ATOM     29  O   UNL A   1      41.668  18.517  25.880  1.00  0.00    -0.269 OA
BRANCH  27  30
ATOM     30  C   UNL A   1      42.106  20.785  26.351  1.00  0.00     0.039 A 
ATOM     31  C   UNL A   1      42.487  21.620  25.302  1.00  0.00     0.014 A 
ATOM     32  C   UNL A   1      42.269  21.157  27.689  1.00  0.00     0.014 A 
ATOM     33  C   UNL A   1      42.980  22.887  25.605  1.00  0.00     0.010 A 
ATOM     34  C   UNL A   1      42.650  22.456  27.976  1.00  0.00     0.010 A 
ATOM     35  C   UNL A   1      43.014  23.331  26.938  1.00  0.00    -0.014 A 
BRANCH  35  36
ATOM     36  C   UNL A   1      43.424  24.712  27.280  1.00  0.00     0.031 A 
ATOM     37  C   UNL A   1      42.417  25.638  27.902  1.00  0.00     0.074 A 
ATOM     38  C   UNL A   1      44.656  25.152  26.950  1.00  0.00     0.049 A 
ATOM     39  N   UNL A   1      42.546  26.899  28.213  1.00  0.00    -0.248 NA
ATOM     40  C   UNL A   1      41.079  25.085  28.185  1.00  0.00     0.031 C 
ATOM     41  C   UNL A   1      45.685  24.363  26.266  1.00  0.00     0.029 A 
ATOM     42  N   UNL A   1      45.243  26.381  27.118  1.00  0.00    -0.354 N 
ATOM     43  C   UNL A   1      41.302  27.299  28.681  1.00  0.00     0.074 A 
ATOM     44  C   UNL A   1      40.418  26.160  28.588  1.00  0.00     0.031 C 
ATOM     45  C   UNL A   1      46.775  25.126  26.080  1.00  0.00     0.029 A 
ATOM     46  C   UNL A   1      46.508  26.468  26.585  1.00  0.00     0.049 A 
ATOM     47  H   UNL A   1      44.800  27.131  27.578  1.00  0.00     0.167 HD
ATOM     48  C   UNL A   1      40.933  28.504  29.166  1.00  0.00     0.034 A 
ATOM     49  C   UNL A   1      47.344  27.521  26.487  1.00  0.00     0.034 A 
ATOM     50  C   UNL A   1      41.828  29.618  29.294  1.00  0.00     0.049 A 
ATOM     51  C   UNL A   1      46.908  28.846  27.057  1.00  0.00     0.074 A 
ATOM     52  C   UNL A   1      41.583  30.847  29.875  1.00  0.00     0.029 A 
ATOM     53  N   UNL A   1      43.124  29.649  28.809  1.00  0.00    -0.354 N 
ATOM     54  N   UNL A   1      45.788  29.151  27.667  1.00  0.00    -0.248 NA
ATOM     55  C   UNL A   1      47.856  29.965  26.948  1.00  0.00     0.031 C 
ATOM     56  C   UNL A   1      42.714  31.646  29.687  1.00  0.00     0.029 A 
ATOM     57  C   UNL A   1      43.681  30.892  29.042  1.00  0.00     0.049 A 
ATOM     58  H   UNL A   1      43.581  28.898  28.364  1.00  0.00     0.167 HD
ATOM     59  C   UNL A   1      45.909  30.485  28.037  1.00  0.00     0.074 A 
ATOM     60  C   UNL A   1      47.224  30.919  27.615  1.00  0.00     0.031 C 
ATOM     61  C   UNL A   1      45.008  31.289  28.653  1.00  0.00     0.034 A 
BRANCH  48  62
ATOM     62  C   UNL A   1      39.512  28.687  29.617  1.00  0.00     0.023 A 
ATOM     63  C   UNL A   1      39.134  28.338  30.929  1.00  0.00     0.012 A 
ATOM     64  C   UNL A   1      38.578  29.305  28.765  1.00  0.00     0.148 A 
ATOM     65  C   UNL A   1      37.840  28.592  31.382  1.00  0.00     0.002 A 
ATOM     66  C   UNL A   1      37.308  29.600  29.239  1.00  0.00     0.091 A 
ATOM     67  F   UNL A   1      38.955  29.600  27.512  1.00  0.00    -0.205 F 
ATOM     68  C   UNL A   1      36.934  29.237  30.543  1.00  0.00     0.022 A 
BRANCH  66  69
ATOM     69  S   UNL A   1      36.099  30.506  28.269  1.00  0.00     0.127 S 
ATOM     70  O   UNL A   1      36.938  31.515  27.622  1.00  0.00    -0.237 OA
ATOM     71  O   UNL A   1      35.591  29.468  27.374  1.00  0.00    -0.237 OA
ATOM     72  O   UNL A   1      35.127  31.030  29.218  1.00  0.00    -0.744 OA
ENDBRANCH  66  69
ENDBRANCH  48  62
BRANCH  49  73
ATOM     73  C   UNL A   1      48.672  27.384  25.819  1.00  0.00     0.023 A 
ATOM     74  C   UNL A   1      49.822  27.103  26.584  1.00  0.00     0.012 A 
ATOM     75  C   UNL A   1      48.805  27.565  24.428  1.00  0.00     0.148 A 
ATOM     76  C   UNL A   1      51.083  27.061  25.986  1.00  0.00     0.002 A 
ATOM     77  C   UNL A   1      50.054  27.459  23.830  1.00  0.00     0.091 A 
ATOM     78  F   UNL A   1      47.704  27.843  23.716  1.00  0.00    -0.205 F 
ATOM     79  C   UNL A   1      51.198  27.232  24.610  1.00  0.00     0.022 A 
BRANCH  77  80
ATOM     80  S   UNL A   1      50.275  27.535  22.050  1.00  0.00     0.127 S 
ATOM     81  O   UNL A   1      49.359  26.496  21.589  1.00  0.00    -0.237 OA
ATOM     82  O   UNL A   1      49.857  28.906  21.753  1.00  0.00    -0.237 OA
ATOM     83  O   UNL A   1      51.691  27.279  21.820  1.00  0.00    -0.744 OA
ENDBRANCH  77  80
ENDBRANCH  49  73
BRANCH  61  84
ATOM     84  C   UNL A   1      45.416  32.709  28.938  1.00  0.00     0.023 A 
ATOM     85  C   UNL A   1      46.153  33.009  30.100  1.00  0.00     0.012 A 
ATOM     86  C   UNL A   1      45.142  33.728  28.005  1.00  0.00     0.148 A 
ATOM     87  C   UNL A   1      46.582  34.311  30.347  1.00  0.00     0.002 A 
ATOM     88  C   UNL A   1      45.621  35.011  28.231  1.00  0.00     0.091 A 
ATOM     89  F   UNL A   1      44.432  33.419  26.911  1.00  0.00    -0.205 F 
ATOM     90  C   UNL A   1      46.327  35.308  29.407  1.00  0.00     0.022 A 
BRANCH  88  91
ATOM     91  S   UNL A   1      45.430  36.337  27.035  1.00  0.00     0.127 S 
ATOM     92  O   UNL A   1      46.292  35.881  25.945  1.00  0.00    -0.237 OA
ATOM     93  O   UNL A   1      43.997  36.282  26.744  1.00  0.00    -0.237 OA
ATOM     94  O   UNL A   1      45.870  37.553  27.703  1.00  0.00    -0.744 OA
ENDBRANCH  88  91
ENDBRANCH  61  84
ENDBRANCH  35  36
ENDBRANCH  27  30
ENDBRANCH  25  26
ENDBRANCH  24  25
ENDBRANCH  23  24
ENDBRANCH   1  23
TORSDOF 20
ENDMDL
MODEL 2
REMARK VINA RESULT:     -10.1      1.484      7.707
REMARK SMILES C[N@H+](CCC(=O)Nc1sccc1C#N)CC(=O)NCCCCNC(=O)c1ccc(-c2c3nc(c(-c4cccc(S(=O)(=O)[O-])c4F)c4ccc([nH]4)c(-c4cccc(S(=O)(=O)[O-])c4F)c4nc(c(-c5cccc(S(=O)(=O)[O-])c5F)c5ccc2[nH]5)C=C4)C=C3)cc1
REMARK SMILES IDX 19 1 18 2 16 3 17 4 15 6 2 7 1 8 3 10 4 11 5 12 6 13 7 14
REMARK SMILES IDX 8 16 9 17 12 18 10 19 11 20 13 21 14 22 20 23 21 24 22 25
REMARK SMILES IDX 23 26 24 27 25 29 26 30 27 31 88 32 28 33 87 34 29 35 30 36
REMARK SMILES IDX 31 37 81 38 32 39 86 40 80 41 82 42 33 43 85 44 79 45 78 46
REMARK SMILES IDX 34 48 66 49 46 50 65 51 47 52 50 53 64 54 83 55 48 56 49 57
REMARK SMILES IDX 63 59 84 60 51 61 35 62 36 63 44 64 37 65 39 66 45 67 38 68
REMARK SMILES IDX 40 69 41 70 42 71 43 72 67 73 68 74 76 75 69 76 71 77 77 78
REMARK SMILES IDX 70 79 72 80 73 81 74 82 75 83 52 84 53 85 61 86 54 87 56 88
REMARK SMILES IDX 62 89 55 90 57 91 58 92 59 93 60 94
REMARK H PARENT 18 5 2 9 7 15 23 28 82 47 50 58
REMARK Flexibility Score: inf
ROOT
ATOM      1  C   UNL A   1      34.826  19.892  25.252  1.00  0.00     0.116 C 
ENDROOT
BRANCH   1   2
ATOM      2  N   UNL A   1      34.301  20.974  26.056  1.00  0.00    -0.351 N 
ATOM      3  C   UNL A   1      33.220  21.781  26.028  1.00  0.00     0.275 C 
ATOM      4  O   UNL A   1      33.105  22.521  27.017  1.00  0.00    -0.269 OA
ATOM      5  H   UNL A   1      34.884  21.173  26.823  1.00  0.00     0.163 HD
BRANCH   3   6
ATOM      6  C   UNL A   1      32.058  21.745  25.051  1.00  0.00     0.363 C 
BRANCH   6   7
ATOM      7  N   UNL A   1      32.211  22.325  23.714  1.00  0.00    -0.329 N 
ATOM      8  C   UNL A   1      32.149  21.227  22.722  1.00  0.00     0.333 C 
ATOM      9  H   UNL A   1      31.454  22.995  23.580  1.00  0.00     0.348 HD
BRANCH   7  10
ATOM     10  C   UNL A   1      33.469  23.085  23.540  1.00  0.00     0.272 C 
BRANCH  10  11
ATOM     11  C   UNL A   1      33.440  24.627  23.507  1.00  0.00     0.161 C 
BRANCH  11  12
ATOM     12  C   UNL A   1      33.606  25.677  24.632  1.00  0.00     0.230 C 
ATOM     13  O   UNL A   1      34.513  25.477  25.459  1.00  0.00    -0.274 OA
ATOM     14  N   UNL A   1      32.927  26.841  24.806  1.00  0.00    -0.316 N 
ATOM     15  H   UNL A   1      33.383  27.513  25.362  1.00  0.00     0.170 HD
BRANCH  14  16
ATOM     16  C   UNL A   1      31.704  27.220  24.326  1.00  0.00     0.113 A 
ATOM     17  S   UNL A   1      31.766  28.525  23.223  1.00  0.00    -0.125 S 
ATOM     18  C   UNL A   1      30.425  26.765  24.513  1.00  0.00     0.087 A 
ATOM     19  C   UNL A   1      30.197  28.139  22.643  1.00  0.00     0.068 A 
ATOM     20  C   UNL A   1      29.563  27.239  23.476  1.00  0.00     0.033 A 
BRANCH  18  21
ATOM     21  C   UNL A   1      30.053  25.905  25.586  1.00  0.00     0.102 C 
ATOM     22  N   UNL A   1      29.764  25.228  26.491  1.00  0.00    -0.192 NA
ENDBRANCH  18  21
ENDBRANCH  14  16
ENDBRANCH  11  12
ENDBRANCH  10  11
ENDBRANCH   7  10
ENDBRANCH   6   7
ENDBRANCH   3   6
ENDBRANCH   1   2
BRANCH   1  23
ATOM     23  C   UNL A   1      36.312  20.012  24.935  1.00  0.00     0.023 C 
BRANCH  23  24
ATOM     24  C   UNL A   1      36.697  21.432  24.545  1.00  0.00     0.023 C 
BRANCH  24  25
ATOM     25  C   UNL A   1      37.936  21.937  25.265  1.00  0.00     0.116 C 
BRANCH  25  26
ATOM     26  N   UNL A   1      38.840  20.855  25.661  1.00  0.00    -0.352 N 
ATOM     27  C   UNL A   1      39.973  20.982  26.430  1.00  0.00     0.251 C 
ATOM     28  H   UNL A   1      38.615  19.950  25.344  1.00  0.00     0.163 HD
ATOM     29  O   UNL A   1      40.780  20.074  26.571  1.00  0.00    -0.269 OA
BRANCH  27  30
ATOM     30  C   UNL A   1      40.160  22.292  27.073  1.00  0.00     0.039 A 
ATOM     31  C   UNL A   1      41.180  22.450  28.010  1.00  0.00     0.014 A 
ATOM     32  C   UNL A   1      39.511  23.387  26.494  1.00  0.00     0.014 A 
ATOM     33  C   UNL A   1      41.605  23.740  28.320  1.00  0.00     0.010 A 
ATOM     34  C   UNL A   1      40.015  24.655  26.723  1.00  0.00     0.010 A 
ATOM     35  C   UNL A   1      41.062  24.844  27.641  1.00  0.00    -0.014 A 
BRANCH  35  36
ATOM     36  C   UNL A   1      41.574  26.215  27.867  1.00  0.00     0.031 A 
ATOM     37  C   UNL A   1      42.976  26.549  27.442  1.00  0.00     0.074 A 
ATOM     38  C   UNL A   1      40.819  27.117  28.529  1.00  0.00     0.049 A 
ATOM     39  N   UNL A   1      43.640  27.661  27.609  1.00  0.00    -0.248 NA
ATOM     40  C   UNL A   1      43.746  25.487  26.769  1.00  0.00     0.031 C 
ATOM     41  C   UNL A   1      39.475  26.873  29.062  1.00  0.00     0.029 A 
ATOM     42  N   UNL A   1      41.085  28.413  28.892  1.00  0.00    -0.354 N 
ATOM     43  C   UNL A   1      44.910  27.417  27.106  1.00  0.00     0.074 A 
ATOM     44  C   UNL A   1      44.942  26.046  26.654  1.00  0.00     0.031 C 
ATOM     45  C   UNL A   1      39.035  27.983  29.677  1.00  0.00     0.029 A 
ATOM     46  C   UNL A   1      40.080  29.000  29.627  1.00  0.00     0.049 A 
ATOM     47  H   UNL A   1      41.918  28.880  28.651  1.00  0.00     0.167 HD
ATOM     48  C   UNL A   1      45.954  28.269  27.010  1.00  0.00     0.034 A 
ATOM     49  C   UNL A   1      40.023  30.210  30.218  1.00  0.00     0.034 A 
ATOM     50  C   UNL A   1      45.902  29.642  27.423  1.00  0.00     0.049 A 
ATOM     51  C   UNL A   1      41.198  31.142  30.072  1.00  0.00     0.074 A 
ATOM     52  C   UNL A   1      46.868  30.617  27.267  1.00  0.00     0.029 A 
ATOM     53  N   UNL A   1      44.843  30.222  28.098  1.00  0.00    -0.354 N 
ATOM     54  N   UNL A   1      42.323  30.954  29.426  1.00  0.00    -0.248 NA
ATOM     55  C   UNL A   1      41.088  32.460  30.715  1.00  0.00     0.031 C 
ATOM     56  C   UNL A   1      46.417  31.776  27.903  1.00  0.00     0.029 A 
ATOM     57  C   UNL A   1      45.147  31.537  28.402  1.00  0.00     0.049 A 
ATOM     58  H   UNL A   1      43.999  29.769  28.328  1.00  0.00     0.167 HD
ATOM     59  C   UNL A   1      43.041  32.136  29.563  1.00  0.00     0.074 A 
ATOM     60  C   UNL A   1      42.209  33.046  30.321  1.00  0.00     0.031 C 
ATOM     61  C   UNL A   1      44.285  32.438  29.119  1.00  0.00     0.034 A 
BRANCH  48  62
ATOM     62  C   UNL A   1      47.238  27.759  26.419  1.00  0.00     0.023 A 
ATOM     63  C   UNL A   1      48.161  27.063  27.226  1.00  0.00     0.012 A 
ATOM     64  C   UNL A   1      47.475  27.882  25.038  1.00  0.00     0.148 A 
ATOM     65  C   UNL A   1      49.309  26.506  26.664  1.00  0.00     0.002 A 
ATOM     66  C   UNL A   1      48.594  27.282  24.478  1.00  0.00     0.091 A 
ATOM     67  F   UNL A   1      46.595  28.574  24.300  1.00  0.00    -0.205 F 
ATOM     68  C   UNL A   1      49.516  26.602  25.290  1.00  0.00     0.022 A 
BRANCH  66  69
ATOM     69  S   UNL A   1      48.904  27.273  22.710  1.00  0.00     0.127 S 
ATOM     70  O   UNL A   1      50.360  27.396  22.666  1.00  0.00    -0.237 OA
ATOM     71  O   UNL A   1      48.389  25.961  22.320  1.00  0.00    -0.237 OA
ATOM     72  O   UNL A   1      48.172  28.407  22.163  1.00  0.00    -0.744 OA
ENDBRANCH  66  69
ENDBRANCH  48  62
BRANCH  49  73
ATOM     73  C   UNL A   1      38.825  30.618  31.009  1.00  0.00     0.023 A 
ATOM     74  C   UNL A   1      38.750  30.318  32.384  1.00  0.00     0.012 A 
ATOM     75  C   UNL A   1      37.740  31.275  30.394  1.00  0.00     0.148 A 
ATOM     76  C   UNL A   1      37.598  30.612  33.116  1.00  0.00     0.002 A 
ATOM     77  C   UNL A   1      36.623  31.623  31.143  1.00  0.00     0.091 A 
ATOM     78  F   UNL A   1      37.822  31.544  29.084  1.00  0.00    -0.205 F 
ATOM     79  C   UNL A   1      36.538  31.270  32.498  1.00  0.00     0.022 A 
BRANCH  77  80
ATOM     80  S   UNL A   1      35.271  32.585  30.459  1.00  0.00     0.127 S 
ATOM     81  O   UNL A   1      34.938  31.823  29.258  1.00  0.00    -0.237 OA
ATOM     82  O   UNL A   1      34.278  32.514  31.531  1.00  0.00    -0.237 OA
ATOM     83  O   UNL A   1      35.814  33.918  30.234  1.00  0.00    -0.744 OA
ENDBRANCH  77  80
ENDBRANCH  49  73
BRANCH  61  84
ATOM     84  C   UNL A   1      44.817  33.816  29.410  1.00  0.00     0.023 A 
ATOM     85  C   UNL A   1      45.560  34.049  30.584  1.00  0.00     0.012 A 
ATOM     86  C   UNL A   1      44.652  34.854  28.473  1.00  0.00     0.148 A 
ATOM     87  C   UNL A   1      46.103  35.307  30.837  1.00  0.00     0.002 A 
ATOM     88  C   UNL A   1      45.243  36.088  28.706  1.00  0.00     0.091 A 
ATOM     89  F   UNL A   1      43.934  34.609  27.368  1.00  0.00    -0.205 F 
ATOM     90  C   UNL A   1      45.955  36.322  29.893  1.00  0.00     0.022 A 
BRANCH  88  91
ATOM     91  S   UNL A   1      45.192  37.424  27.507  1.00  0.00     0.127 S 
ATOM     92  O   UNL A   1      43.787  37.406  27.101  1.00  0.00    -0.237 OA
ATOM     93  O   UNL A   1      45.579  38.578  28.318  1.00  0.00    -0.237 OA
ATOM     94  O   UNL A   1      46.141  37.068  26.461  1.00  0.00    -0.744 OA
ENDBRANCH  88  91
ENDBRANCH  61  84
ENDBRANCH  35  36
ENDBRANCH  27  30
ENDBRANCH  25  26
ENDBRANCH  24  25
ENDBRANCH  23  24
ENDBRANCH   1  23
TORSDOF 20
ENDMDL
MODEL 3
REMARK VINA RESULT:      -9.9      1.490      7.775
REMARK SMILES C[N@H+](CCC(=O)Nc1sccc1C#N)CC(=O)NCCCCNC(=O)c1ccc(-c2c3nc(c(-c4cccc(S(=O)(=O)[O-])c4F)c4ccc([nH]4)c(-c4cccc(S(=O)(=O)[O-])c4F)c4nc(c(-c5cccc(S(=O)(=O)[O-])c5F)c5ccc2[nH]5)C=C4)C=C3)cc1
REMARK SMILES IDX 19 1 18 2 16 3 17 4 15 6 2 7 1 8 3 10 4 11 5 12 6 13 7 14
REMARK SMILES IDX 8 16 9 17 12 18 10 19 11 20 13 21 14 22 20 23 21 24 22 25
REMARK SMILES IDX 23 26 24 27 25 29 26 30 27 31 88 32 28 33 87 34 29 35 30 36
REMARK SMILES IDX 31 37 81 38 32 39 86 40 80 41 82 42 33 43 85 44 79 45 78 46
REMARK SMILES IDX 34 48 66 49 46 50 65 51 47 52 50 53 64 54 83 55 48 56 49 57
REMARK SMILES IDX 63 59 84 60 51 61 35 62 36 63 44 64 37 65 39 66 45 67 38 68
REMARK SMILES IDX 40 69 41 70 42 71 43 72 67 73 68 74 76 75 69 76 71 77 77 78
REMARK SMILES IDX 70 79 72 80 73 81 74 82 75 83 52 84 53 85 61 86 54 87 56 88
REMARK SMILES IDX 62 89 55 90 57 91 58 92 59 93 60 94
REMARK H PARENT 18 5 2 9 7 15 23 28 82 47 50 58
REMARK Flexibility Score: inf
ROOT
ATOM      1  C   UNL A   1      36.614  21.356  24.893  1.00  0.00     0.116 C 
ENDROOT
BRANCH   1   2
ATOM      2  N   UNL A   1      36.151  22.408  24.015  1.00  0.00    -0.351 N 
ATOM      3  C   UNL A   1      35.025  22.686  23.326  1.00  0.00     0.275 C 
ATOM      4  O   UNL A   1      35.020  23.797  22.774  1.00  0.00    -0.269 OA
ATOM      5  H   UNL A   1      36.836  23.103  23.889  1.00  0.00     0.163 HD
BRANCH   3   6
ATOM      6  C   UNL A   1      33.724  21.902  23.316  1.00  0.00     0.363 C 
BRANCH   6   7
ATOM      7  N   UNL A   1      33.120  21.476  24.581  1.00  0.00    -0.329 N 
ATOM      8  C   UNL A   1      33.102  19.995  24.611  1.00  0.00     0.333 C 
ATOM      9  H   UNL A   1      33.685  21.859  25.338  1.00  0.00     0.348 HD
BRANCH   7  10
ATOM     10  C   UNL A   1      31.749  21.996  24.786  1.00  0.00     0.272 C 
BRANCH  10  11
ATOM     11  C   UNL A   1      31.209  22.203  26.215  1.00  0.00     0.161 C 
BRANCH  11  12
ATOM     12  C   UNL A   1      30.500  23.411  26.876  1.00  0.00     0.230 C 
ATOM     13  O   UNL A   1      29.531  23.160  27.613  1.00  0.00    -0.274 OA
ATOM     14  N   UNL A   1      30.838  24.726  26.812  1.00  0.00    -0.316 N 
ATOM     15  H   UNL A   1      30.485  25.284  27.540  1.00  0.00     0.170 HD
BRANCH  14  16
ATOM     16  C   UNL A   1      31.595  25.389  25.887  1.00  0.00     0.113 A 
ATOM     17  S   UNL A   1      30.690  26.396  24.843  1.00  0.00    -0.125 S 
ATOM     18  C   UNL A   1      32.939  25.448  25.621  1.00  0.00     0.087 A 
ATOM     19  C   UNL A   1      32.109  27.256  24.404  1.00  0.00     0.068 A 
ATOM     20  C   UNL A   1      33.246  26.592  24.821  1.00  0.00     0.033 A 
BRANCH  18  21
ATOM     21  C   UNL A   1      33.875  24.501  26.126  1.00  0.00     0.102 C 
ATOM     22  N   UNL A   1      34.611  23.702  26.551  1.00  0.00    -0.192 NA
ENDBRANCH  18  21
ENDBRANCH  14  16
ENDBRANCH  11  12
ENDBRANCH  10  11
ENDBRANCH   7  10
ENDBRANCH   6   7
ENDBRANCH   3   6
ENDBRANCH   1   2
BRANCH   1  23
ATOM     23  C   UNL A   1      38.103  21.419  25.216  1.00  0.00     0.023 C 
BRANCH  23  24
ATOM     24  C   UNL A   1      38.751  20.042  25.181  1.00  0.00     0.023 C 
BRANCH  24  25
ATOM     25  C   UNL A   1      39.479  19.691  26.468  1.00  0.00     0.116 C 
BRANCH  25  26
ATOM     26  N   UNL A   1      40.839  19.203  26.233  1.00  0.00    -0.352 N 
ATOM     27  C   UNL A   1      41.986  19.963  26.227  1.00  0.00     0.251 C 
ATOM     28  H   UNL A   1      40.942  18.238  26.062  1.00  0.00     0.163 HD
ATOM     29  O   UNL A   1      43.064  19.527  25.845  1.00  0.00    -0.269 OA
BRANCH  27  30
ATOM     30  C   UNL A   1      41.834  21.346  26.704  1.00  0.00     0.039 A 
ATOM     31  C   UNL A   1      42.252  21.670  27.993  1.00  0.00     0.014 A 
ATOM     32  C   UNL A   1      41.564  22.327  25.745  1.00  0.00     0.014 A 
ATOM     33  C   UNL A   1      42.471  23.010  28.305  1.00  0.00     0.010 A 
ATOM     34  C   UNL A   1      41.892  23.641  26.028  1.00  0.00     0.010 A 
ATOM     35  C   UNL A   1      42.343  23.995  27.311  1.00  0.00    -0.014 A 
BRANCH  35  36
ATOM     36  C   UNL A   1      42.680  25.412  27.584  1.00  0.00     0.031 A 
ATOM     37  C   UNL A   1      44.098  25.872  27.398  1.00  0.00     0.074 A 
ATOM     38  C   UNL A   1      41.742  26.245  28.078  1.00  0.00     0.049 A 
ATOM     39  N   UNL A   1      44.618  27.043  27.646  1.00  0.00    -0.248 NA
ATOM     40  C   UNL A   1      45.068  24.880  26.899  1.00  0.00     0.031 C 
ATOM     41  C   UNL A   1      40.353  25.881  28.378  1.00  0.00     0.029 A 
ATOM     42  N   UNL A   1      41.821  27.565  28.446  1.00  0.00    -0.354 N 
ATOM     43  C   UNL A   1      45.974  26.915  27.378  1.00  0.00     0.074 A 
ATOM     44  C   UNL A   1      46.209  25.548  26.977  1.00  0.00     0.031 C 
ATOM     45  C   UNL A   1      39.713  26.952  28.875  1.00  0.00     0.029 A 
ATOM     46  C   UNL A   1      40.653  28.063  28.978  1.00  0.00     0.049 A 
ATOM     47  H   UNL A   1      42.636  28.106  28.339  1.00  0.00     0.167 HD
ATOM     48  C   UNL A   1      46.936  27.861  27.439  1.00  0.00     0.034 A 
ATOM     49  C   UNL A   1      40.382  29.269  29.515  1.00  0.00     0.034 A 
ATOM     50  C   UNL A   1      46.687  29.228  27.798  1.00  0.00     0.049 A 
ATOM     51  C   UNL A   1      41.475  30.307  29.549  1.00  0.00     0.074 A 
ATOM     52  C   UNL A   1      47.572  30.289  27.784  1.00  0.00     0.029 A 
ATOM     53  N   UNL A   1      45.478  29.714  28.263  1.00  0.00    -0.354 N 
ATOM     54  N   UNL A   1      42.708  30.218  29.113  1.00  0.00    -0.248 NA
ATOM     55  C   UNL A   1      41.134  31.616  30.125  1.00  0.00     0.031 C 
ATOM     56  C   UNL A   1      46.913  31.407  28.298  1.00  0.00     0.029 A 
ATOM     57  C   UNL A   1      45.602  31.054  28.577  1.00  0.00     0.049 A 
ATOM     58  H   UNL A   1      44.652  29.185  28.355  1.00  0.00     0.167 HD
ATOM     59  C   UNL A   1      43.280  31.465  29.338  1.00  0.00     0.074 A 
ATOM     60  C   UNL A   1      42.249  32.301  29.914  1.00  0.00     0.031 C 
ATOM     61  C   UNL A   1      44.550  31.879  29.108  1.00  0.00     0.034 A 
BRANCH  48  62
ATOM     62  C   UNL A   1      48.345  27.469  27.095  1.00  0.00     0.023 A 
ATOM     63  C   UNL A   1      49.145  26.799  28.042  1.00  0.00     0.012 A 
ATOM     64  C   UNL A   1      48.834  27.674  25.791  1.00  0.00     0.148 A 
ATOM     65  C   UNL A   1      50.419  26.349  27.697  1.00  0.00     0.002 A 
ATOM     66  C   UNL A   1      50.082  27.179  25.442  1.00  0.00     0.091 A 
ATOM     67  F   UNL A   1      48.063  28.339  24.919  1.00  0.00    -0.205 F 
ATOM     68  C   UNL A   1      50.879  26.524  26.394  1.00  0.00     0.022 A 
BRANCH  66  69
ATOM     69  S   UNL A   1      50.727  27.276  23.769  1.00  0.00     0.127 S 
ATOM     70  O   UNL A   1      49.628  26.697  22.996  1.00  0.00    -0.237 OA
ATOM     71  O   UNL A   1      50.903  28.717  23.596  1.00  0.00    -0.237 OA
ATOM     72  O   UNL A   1      51.960  26.500  23.763  1.00  0.00    -0.744 OA
ENDBRANCH  66  69
ENDBRANCH  48  62
BRANCH  49  73
ATOM     73  C   UNL A   1      39.032  29.571  30.075  1.00  0.00     0.023 A 
ATOM     74  C   UNL A   1      38.690  29.134  31.370  1.00  0.00     0.012 A 
ATOM     75  C   UNL A   1      38.070  30.262  29.312  1.00  0.00     0.148 A 
ATOM     76  C   UNL A   1      37.402  29.330  31.872  1.00  0.00     0.002 A 
ATOM     77  C   UNL A   1      36.810  30.510  29.842  1.00  0.00     0.091 A 
ATOM     78  F   UNL A   1      38.407  30.662  28.078  1.00  0.00    -0.205 F 
ATOM     79  C   UNL A   1      36.465  30.023  31.112  1.00  0.00     0.022 A 
BRANCH  77  80
ATOM     80  S   UNL A   1      35.588  31.507  28.985  1.00  0.00     0.127 S 
ATOM     81  O   UNL A   1      34.763  31.987  30.091  1.00  0.00    -0.237 OA
ATOM     82  O   UNL A   1      36.423  32.526  28.349  1.00  0.00    -0.237 OA
ATOM     83  O   UNL A   1      34.932  30.603  28.051  1.00  0.00    -0.744 OA
ENDBRANCH  77  80
ENDBRANCH  49  73
BRANCH  61  84
ATOM     84  C   UNL A   1      44.894  33.304  29.447  1.00  0.00     0.023 A 
ATOM     85  C   UNL A   1      45.445  33.614  30.706  1.00  0.00     0.012 A 
ATOM     86  C   UNL A   1      44.751  34.319  28.482  1.00  0.00     0.148 A 
ATOM     87  C   UNL A   1      45.817  34.921  31.011  1.00  0.00     0.002 A 
ATOM     88  C   UNL A   1      45.176  35.608  28.773  1.00  0.00     0.091 A 
ATOM     89  F   UNL A   1      44.217  34.001  27.294  1.00  0.00    -0.205 F 
ATOM     90  C   UNL A   1      45.695  35.914  30.041  1.00  0.00     0.022 A 
BRANCH  88  91
ATOM     91  S   UNL A   1      45.150  36.930  27.559  1.00  0.00     0.127 S 
ATOM     92  O   UNL A   1      45.998  36.380  26.501  1.00  0.00    -0.237 OA
ATOM     93  O   UNL A   1      43.729  37.010  27.223  1.00  0.00    -0.237 OA
ATOM     94  O   UNL A   1      45.685  38.108  28.229  1.00  0.00    -0.744 OA
ENDBRANCH  88  91
ENDBRANCH  61  84
ENDBRANCH  35  36
ENDBRANCH  27  30
ENDBRANCH  25  26
ENDBRANCH  24  25
ENDBRANCH  23  24
ENDBRANCH   1  23
TORSDOF 20
ENDMDL
