MODEL 1
REMARK VINA RESULT:     -12.2      0.000      0.000
REMARK SMILES CSc1ccccc1Sc1cc(C(=O)NCCCCNC(=O)c2ccc(-c3c4nc(c(-c5cccc(S(=O)(=O)[O-])c5F)c5ccc([nH]5)c(-c5cccc(S(=O)(=O)[O-])c5F)c5nc(c(-c6cccc(S(=O)(=O)[O-])c6F)c6ccc3[nH]6)C=C5)C=C4)cc2)c2ccccc2n1
REMARK SMILES IDX 17 1 16 2 15 3 13 4 14 5 12 7 10 8 11 9 92 10 91 11 86 12
REMARK SMILES IDX 90 13 87 14 89 15 88 16 9 17 8 18 3 19 4 20 5 21 7 22 6 23
REMARK SMILES IDX 2 24 1 25 18 26 19 27 20 28 21 29 22 31 23 32 24 33 85 34
REMARK SMILES IDX 25 35 84 36 26 37 27 38 28 39 78 40 29 41 83 42 77 43 79 44
REMARK SMILES IDX 30 45 82 46 76 47 75 48 31 50 63 51 43 52 62 53 44 54 47 55
REMARK SMILES IDX 61 56 80 57 45 58 46 59 60 61 81 62 48 63 32 64 33 65 41 66
REMARK SMILES IDX 34 67 36 68 42 69 35 70 37 71 38 72 39 73 40 74 64 75 65 76
REMARK SMILES IDX 73 77 66 78 68 79 74 80 67 81 69 82 70 83 71 84 72 85 49 86
REMARK SMILES IDX 50 87 58 88 51 89 53 90 59 91 52 92 54 93 55 94 56 95 57 96
REMARK H PARENT 15 6 20 30 79 49 47 60
REMARK Flexibility Score: inf
ROOT
ATOM      1  C   UNL A   1      32.303  29.302  23.253  1.00  0.00     0.023 C 
ENDROOT
BRANCH   1   2
ATOM      2  C   UNL A   1      33.740  28.822  23.021  1.00  0.00     0.116 C 
BRANCH   2   3
ATOM      3  N   UNL A   1      33.748  27.579  22.266  1.00  0.00    -0.352 N 
ATOM      4  C   UNL A   1      33.511  26.258  22.550  1.00  0.00     0.252 C 
ATOM      5  O   UNL A   1      33.652  25.485  21.605  1.00  0.00    -0.269 OA
ATOM      6  H   UNL A   1      33.983  27.720  21.320  1.00  0.00     0.163 HD
BRANCH   4   7
ATOM      7  C   UNL A   1      33.066  25.749  23.887  1.00  0.00     0.051 A 
ATOM      8  C   UNL A   1      33.526  24.654  25.960  1.00  0.00     0.102 A 
ATOM      9  C   UNL A   1      33.964  25.089  24.720  1.00  0.00     0.050 A 
ATOM     10  N   UNL A   1      32.327  24.987  26.463  1.00  0.00    -0.241 NA
ATOM     11  C   UNL A   1      31.416  25.484  25.630  1.00  0.00     0.072 A 
ATOM     12  C   UNL A   1      31.692  25.787  24.281  1.00  0.00     0.013 A 
ATOM     13  C   UNL A   1      30.122  25.575  26.122  1.00  0.00     0.029 A 
ATOM     14  C   UNL A   1      30.567  26.009  23.440  1.00  0.00     0.011 A 
ATOM     15  C   UNL A   1      29.036  25.786  25.278  1.00  0.00     0.002 A 
ATOM     16  C   UNL A   1      29.258  25.958  23.922  1.00  0.00     0.001 A 
BRANCH   8  17
ATOM     17  S   UNL A   1      34.419  23.316  26.725  1.00  0.00    -0.069 SA
BRANCH  17  18
ATOM     18  C   UNL A   1      33.912  21.814  25.892  1.00  0.00     0.027 A 
ATOM     19  C   UNL A   1      34.879  20.966  25.310  1.00  0.00     0.021 A 
ATOM     20  C   UNL A   1      34.466  19.824  24.604  1.00  0.00     0.016 A 
ATOM     21  C   UNL A   1      33.112  19.520  24.464  1.00  0.00     0.001 A 
ATOM     22  C   UNL A   1      32.551  21.509  25.709  1.00  0.00     0.016 A 
ATOM     23  C   UNL A   1      32.154  20.364  25.012  1.00  0.00     0.001 A 
BRANCH  19  24
ATOM     24  S   UNL A   1      36.641  21.341  25.352  1.00  0.00    -0.128 SA
ATOM     25  C   UNL A   1      37.313  19.730  24.889  1.00  0.00     0.091 C 
ENDBRANCH  19  24
ENDBRANCH  17  18
ENDBRANCH   8  17
ENDBRANCH   4   7
ENDBRANCH   2   3
ENDBRANCH   1   2
BRANCH   1  26
ATOM     26  C   UNL A   1      31.826  29.224  24.713  1.00  0.00     0.023 C 
BRANCH  26  27
ATOM     27  C   UNL A   1      32.814  29.732  25.763  1.00  0.00     0.116 C 
BRANCH  27  28
ATOM     28  N   UNL A   1      32.457  31.040  26.295  1.00  0.00    -0.352 N 
ATOM     29  C   UNL A   1      33.145  31.824  27.190  1.00  0.00     0.251 C 
ATOM     30  H   UNL A   1      31.608  31.415  25.967  1.00  0.00     0.163 HD
ATOM     31  O   UNL A   1      32.639  32.858  27.624  1.00  0.00    -0.269 OA
BRANCH  29  32
ATOM     32  C   UNL A   1      34.481  31.400  27.657  1.00  0.00     0.039 A 
ATOM     33  C   UNL A   1      35.487  32.361  27.799  1.00  0.00     0.014 A 
ATOM     34  C   UNL A   1      34.723  30.067  27.995  1.00  0.00     0.014 A 
ATOM     35  C   UNL A   1      36.711  32.001  28.367  1.00  0.00     0.010 A 
ATOM     36  C   UNL A   1      35.924  29.721  28.610  1.00  0.00     0.010 A 
ATOM     37  C   UNL A   1      36.921  30.688  28.822  1.00  0.00    -0.014 A 
BRANCH  37  38
ATOM     38  C   UNL A   1      38.137  30.315  29.588  1.00  0.00     0.031 A 
ATOM     39  C   UNL A   1      39.104  29.304  29.038  1.00  0.00     0.074 A 
ATOM     40  C   UNL A   1      38.297  30.792  30.838  1.00  0.00     0.049 A 
ATOM     41  N   UNL A   1      40.148  28.767  29.613  1.00  0.00    -0.248 NA
ATOM     42  C   UNL A   1      38.850  28.813  27.674  1.00  0.00     0.031 C 
ATOM     43  C   UNL A   1      37.387  31.721  31.511  1.00  0.00     0.029 A 
ATOM     44  N   UNL A   1      39.258  30.530  31.783  1.00  0.00    -0.354 N 
ATOM     45  C   UNL A   1      40.656  27.852  28.700  1.00  0.00     0.074 A 
ATOM     46  C   UNL A   1      39.791  27.890  27.540  1.00  0.00     0.031 C 
ATOM     47  C   UNL A   1      37.824  31.941  32.760  1.00  0.00     0.029 A 
ATOM     48  C   UNL A   1      39.023  31.143  32.992  1.00  0.00     0.049 A 
ATOM     49  H   UNL A   1      40.040  29.957  31.612  1.00  0.00     0.167 HD
ATOM     50  C   UNL A   1      41.756  27.070  28.807  1.00  0.00     0.034 A 
ATOM     51  C   UNL A   1      39.684  31.057  34.164  1.00  0.00     0.034 A 
ATOM     52  C   UNL A   1      42.636  27.066  29.946  1.00  0.00     0.049 A 
ATOM     53  C   UNL A   1      40.908  30.187  34.252  1.00  0.00     0.074 A 
ATOM     54  C   UNL A   1      43.834  26.392  30.103  1.00  0.00     0.029 A 
ATOM     55  N   UNL A   1      42.408  27.756  31.126  1.00  0.00    -0.354 N 
ATOM     56  N   UNL A   1      41.475  29.464  33.317  1.00  0.00    -0.248 NA
ATOM     57  C   UNL A   1      41.599  30.138  35.550  1.00  0.00     0.031 C 
ATOM     58  C   UNL A   1      44.320  26.657  31.389  1.00  0.00     0.029 A 
ATOM     59  C   UNL A   1      43.431  27.507  32.025  1.00  0.00     0.049 A 
ATOM     60  H   UNL A   1      41.633  28.338  31.299  1.00  0.00     0.167 HD
ATOM     61  C   UNL A   1      42.597  28.892  33.904  1.00  0.00     0.074 A 
ATOM     62  C   UNL A   1      42.647  29.375  35.268  1.00  0.00     0.031 C 
ATOM     63  C   UNL A   1      43.493  28.027  33.368  1.00  0.00     0.034 A 
BRANCH  50  64
ATOM     64  C   UNL A   1      42.108  26.191  27.637  1.00  0.00     0.023 A 
ATOM     65  C   UNL A   1      42.888  26.717  26.588  1.00  0.00     0.012 A 
ATOM     66  C   UNL A   1      41.730  24.835  27.605  1.00  0.00     0.148 A 
ATOM     67  C   UNL A   1      43.261  25.917  25.509  1.00  0.00     0.002 A 
ATOM     68  C   UNL A   1      42.138  24.033  26.545  1.00  0.00     0.091 A 
ATOM     69  F   UNL A   1      40.969  24.358  28.601  1.00  0.00    -0.205 F 
ATOM     70  C   UNL A   1      42.894  24.574  25.493  1.00  0.00     0.022 A 
BRANCH  68  71
ATOM     71  S   UNL A   1      41.778  22.274  26.465  1.00  0.00     0.127 S 
ATOM     72  O   UNL A   1      42.195  21.827  27.794  1.00  0.00    -0.237 OA
ATOM     73  O   UNL A   1      40.332  22.264  26.245  1.00  0.00    -0.237 OA
ATOM     74  O   UNL A   1      42.565  21.755  25.355  1.00  0.00    -0.744 OA
ENDBRANCH  68  71
ENDBRANCH  50  64
BRANCH  51  75
ATOM     75  C   UNL A   1      39.226  31.854  35.336  1.00  0.00     0.023 A 
ATOM     76  C   UNL A   1      38.300  31.288  36.234  1.00  0.00     0.012 A 
ATOM     77  C   UNL A   1      39.721  33.149  35.586  1.00  0.00     0.148 A 
ATOM     78  C   UNL A   1      37.858  32.005  37.347  1.00  0.00     0.002 A 
ATOM     79  C   UNL A   1      39.318  33.836  36.725  1.00  0.00     0.091 A 
ATOM     80  F   UNL A   1      40.588  33.677  34.711  1.00  0.00    -0.205 F 
ATOM     81  C   UNL A   1      38.374  33.273  37.599  1.00  0.00     0.022 A 
BRANCH  79  82
ATOM     82  S   UNL A   1      40.032  35.415  37.197  1.00  0.00     0.127 S 
ATOM     83  O   UNL A   1      39.570  36.286  36.120  1.00  0.00    -0.237 OA
ATOM     84  O   UNL A   1      39.406  35.657  38.498  1.00  0.00    -0.237 OA
ATOM     85  O   UNL A   1      41.470  35.189  37.260  1.00  0.00    -0.744 OA
ENDBRANCH  79  82
ENDBRANCH  51  75
BRANCH  63  86
ATOM     86  C   UNL A   1      44.612  27.543  34.250  1.00  0.00     0.023 A 
ATOM     87  C   UNL A   1      45.797  28.301  34.342  1.00  0.00     0.012 A 
ATOM     88  C   UNL A   1      44.460  26.395  35.053  1.00  0.00     0.148 A 
ATOM     89  C   UNL A   1      46.822  27.911  35.202  1.00  0.00     0.002 A 
ATOM     90  C   UNL A   1      45.468  26.038  35.941  1.00  0.00     0.091 A 
ATOM     91  F   UNL A   1      43.331  25.681  34.938  1.00  0.00    -0.205 F 
ATOM     92  C   UNL A   1      46.653  26.788  36.010  1.00  0.00     0.022 A 
BRANCH  90  93
ATOM     93  S   UNL A   1      45.307  24.662  37.085  1.00  0.00     0.127 S 
ATOM     94  O   UNL A   1      44.150  25.069  37.880  1.00  0.00    -0.237 OA
ATOM     95  O   UNL A   1      45.063  23.536  36.184  1.00  0.00    -0.237 OA
ATOM     96  O   UNL A   1      46.568  24.594  37.812  1.00  0.00    -0.744 OA
ENDBRANCH  90  93
ENDBRANCH  63  86
ENDBRANCH  37  38
ENDBRANCH  29  32
ENDBRANCH  27  28
ENDBRANCH  26  27
ENDBRANCH   1  26
TORSDOF 17
ENDMDL
MODEL 2
REMARK VINA RESULT:     -12.1      5.317     10.459
REMARK SMILES CSc1ccccc1Sc1cc(C(=O)NCCCCNC(=O)c2ccc(-c3c4nc(c(-c5cccc(S(=O)(=O)[O-])c5F)c5ccc([nH]5)c(-c5cccc(S(=O)(=O)[O-])c5F)c5nc(c(-c6cccc(S(=O)(=O)[O-])c6F)c6ccc3[nH]6)C=C5)C=C4)cc2)c2ccccc2n1
REMARK SMILES IDX 17 1 16 2 15 3 13 4 14 5 12 7 10 8 11 9 92 10 91 11 86 12
REMARK SMILES IDX 90 13 87 14 89 15 88 16 9 17 8 18 3 19 4 20 5 21 7 22 6 23
REMARK SMILES IDX 2 24 1 25 18 26 19 27 20 28 21 29 22 31 23 32 24 33 85 34
REMARK SMILES IDX 25 35 84 36 26 37 27 38 28 39 78 40 29 41 83 42 77 43 79 44
REMARK SMILES IDX 30 45 82 46 76 47 75 48 31 50 63 51 43 52 62 53 44 54 47 55
REMARK SMILES IDX 61 56 80 57 45 58 46 59 60 61 81 62 48 63 32 64 33 65 41 66
REMARK SMILES IDX 34 67 36 68 42 69 35 70 37 71 38 72 39 73 40 74 64 75 65 76
REMARK SMILES IDX 73 77 66 78 68 79 74 80 67 81 69 82 70 83 71 84 72 85 49 86
REMARK SMILES IDX 50 87 58 88 51 89 53 90 59 91 52 92 54 93 55 94 56 95 57 96
REMARK H PARENT 15 6 20 30 79 49 47 60
REMARK Flexibility Score: inf
ROOT
ATOM      1  C   UNL A   1      36.570  20.615  24.842  1.00  0.00     0.023 C 
ENDROOT
BRANCH   1   2
ATOM      2  C   UNL A   1      36.513  21.918  25.646  1.00  0.00     0.116 C 
BRANCH   2   3
ATOM      3  N   UNL A   1      35.543  21.811  26.725  1.00  0.00    -0.352 N 
ATOM      4  C   UNL A   1      34.197  22.038  26.859  1.00  0.00     0.252 C 
ATOM      5  O   UNL A   1      33.742  21.846  27.985  1.00  0.00    -0.269 OA
ATOM      6  H   UNL A   1      35.954  21.500  27.564  1.00  0.00     0.163 HD
BRANCH   4   7
ATOM      7  C   UNL A   1      33.294  22.450  25.737  1.00  0.00     0.051 A 
ATOM      8  C   UNL A   1      31.857  24.049  24.696  1.00  0.00     0.102 A 
ATOM      9  C   UNL A   1      32.664  23.690  25.762  1.00  0.00     0.050 A 
ATOM     10  N   UNL A   1      31.787  23.331  23.564  1.00  0.00    -0.241 NA
ATOM     11  C   UNL A   1      32.261  22.087  23.583  1.00  0.00     0.072 A 
ATOM     12  C   UNL A   1      32.935  21.539  24.694  1.00  0.00     0.013 A 
ATOM     13  C   UNL A   1      31.946  21.295  22.489  1.00  0.00     0.029 A 
ATOM     14  C   UNL A   1      33.105  20.128  24.697  1.00  0.00     0.011 A 
ATOM     15  C   UNL A   1      32.114  19.914  22.519  1.00  0.00     0.002 A 
ATOM     16  C   UNL A   1      32.654  19.324  23.649  1.00  0.00     0.001 A 
BRANCH   8  17
ATOM     17  S   UNL A   1      30.599  25.277  24.991  1.00  0.00    -0.069 SA
BRANCH  17  18
ATOM     18  C   UNL A   1      31.449  26.827  25.282  1.00  0.00     0.027 A 
ATOM     19  C   UNL A   1      31.891  27.607  24.192  1.00  0.00     0.021 A 
ATOM     20  C   UNL A   1      32.613  28.788  24.431  1.00  0.00     0.016 A 
ATOM     21  C   UNL A   1      32.904  29.197  25.732  1.00  0.00     0.001 A 
ATOM     22  C   UNL A   1      31.785  27.238  26.585  1.00  0.00     0.016 A 
ATOM     23  C   UNL A   1      32.495  28.421  26.808  1.00  0.00     0.001 A 
BRANCH  19  24
ATOM     24  S   UNL A   1      31.650  27.097  22.480  1.00  0.00    -0.128 SA
ATOM     25  C   UNL A   1      33.296  26.450  22.114  1.00  0.00     0.091 C 
ENDBRANCH  19  24
ENDBRANCH  17  18
ENDBRANCH   8  17
ENDBRANCH   4   7
ENDBRANCH   2   3
ENDBRANCH   1   2
BRANCH   1  26
ATOM     26  C   UNL A   1      37.971  19.988  24.731  1.00  0.00     0.023 C 
BRANCH  26  27
ATOM     27  C   UNL A   1      38.769  19.910  26.032  1.00  0.00     0.116 C 
BRANCH  27  28
ATOM     28  N   UNL A   1      40.037  19.210  25.881  1.00  0.00    -0.352 N 
ATOM     29  C   UNL A   1      41.314  19.692  26.043  1.00  0.00     0.251 C 
ATOM     30  H   UNL A   1      39.971  18.260  25.630  1.00  0.00     0.163 HD
ATOM     31  O   UNL A   1      42.282  18.988  25.761  1.00  0.00    -0.269 OA
BRANCH  29  32
ATOM     32  C   UNL A   1      41.518  21.074  26.524  1.00  0.00     0.039 A 
ATOM     33  C   UNL A   1      41.982  21.277  27.827  1.00  0.00     0.014 A 
ATOM     34  C   UNL A   1      41.292  22.161  25.676  1.00  0.00     0.014 A 
ATOM     35  C   UNL A   1      42.309  22.569  28.251  1.00  0.00     0.010 A 
ATOM     36  C   UNL A   1      41.668  23.439  26.081  1.00  0.00     0.010 A 
ATOM     37  C   UNL A   1      42.200  23.653  27.364  1.00  0.00    -0.014 A 
BRANCH  37  38
ATOM     38  C   UNL A   1      42.703  25.003  27.720  1.00  0.00     0.031 A 
ATOM     39  C   UNL A   1      41.784  26.022  28.334  1.00  0.00     0.074 A 
ATOM     40  C   UNL A   1      43.957  25.351  27.367  1.00  0.00     0.049 A 
ATOM     41  N   UNL A   1      42.011  27.282  28.598  1.00  0.00    -0.248 NA
ATOM     42  C   UNL A   1      40.423  25.572  28.672  1.00  0.00     0.031 C 
ATOM     43  C   UNL A   1      44.920  24.474  26.697  1.00  0.00     0.029 A 
ATOM     44  N   UNL A   1      44.623  26.546  27.482  1.00  0.00    -0.354 N 
ATOM     45  C   UNL A   1      40.818  27.786  29.100  1.00  0.00     0.074 A 
ATOM     46  C   UNL A   1      39.861  26.700  29.082  1.00  0.00     0.031 C 
ATOM     47  C   UNL A   1      46.045  25.162  26.450  1.00  0.00     0.029 A 
ATOM     48  C   UNL A   1      45.874  26.536  26.908  1.00  0.00     0.049 A 
ATOM     49  H   UNL A   1      44.242  27.335  27.930  1.00  0.00     0.167 HD
ATOM     50  C   UNL A   1      40.551  29.033  29.556  1.00  0.00     0.034 A 
ATOM     51  C   UNL A   1      46.774  27.526  26.748  1.00  0.00     0.034 A 
ATOM     52  C   UNL A   1      41.517  30.097  29.610  1.00  0.00     0.049 A 
ATOM     53  C   UNL A   1      46.454  28.899  27.273  1.00  0.00     0.074 A 
ATOM     54  C   UNL A   1      41.374  31.360  30.157  1.00  0.00     0.029 A 
ATOM     55  N   UNL A   1      42.799  30.030  29.088  1.00  0.00    -0.354 N 
ATOM     56  N   UNL A   1      45.383  29.311  27.906  1.00  0.00    -0.248 NA
ATOM     57  C   UNL A   1      47.476  29.940  27.083  1.00  0.00     0.031 C 
ATOM     58  C   UNL A   1      42.564  32.066  29.944  1.00  0.00     0.029 A 
ATOM     59  C   UNL A   1      43.451  31.237  29.278  1.00  0.00     0.049 A 
ATOM     60  H   UNL A   1      43.189  29.241  28.647  1.00  0.00     0.167 HD
ATOM     61  C   UNL A   1      45.608  30.649  28.208  1.00  0.00     0.074 A 
ATOM     62  C   UNL A   1      46.930  30.971  27.714  1.00  0.00     0.031 C 
ATOM     63  C   UNL A   1      44.785  31.535  28.820  1.00  0.00     0.034 A 
BRANCH  50  64
ATOM     64  C   UNL A   1      39.170  29.302  30.090  1.00  0.00     0.023 A 
ATOM     65  C   UNL A   1      38.830  28.853  31.382  1.00  0.00     0.012 A 
ATOM     66  C   UNL A   1      38.235  30.053  29.351  1.00  0.00     0.148 A 
ATOM     67  C   UNL A   1      37.571  29.120  31.919  1.00  0.00     0.002 A 
ATOM     68  C   UNL A   1      36.996  30.348  29.907  1.00  0.00     0.091 A 
ATOM     69  F   UNL A   1      38.570  30.453  28.115  1.00  0.00    -0.205 F 
ATOM     70  C   UNL A   1      36.659  29.874  31.186  1.00  0.00     0.022 A 
BRANCH  68  71
ATOM     71  S   UNL A   1      35.778  31.374  29.074  1.00  0.00     0.127 S 
ATOM     72  O   UNL A   1      35.172  30.418  28.148  1.00  0.00    -0.237 OA
ATOM     73  O   UNL A   1      34.912  31.785  30.180  1.00  0.00    -0.237 OA
ATOM     74  O   UNL A   1      36.526  32.458  28.453  1.00  0.00    -0.744 OA
ENDBRANCH  68  71
ENDBRANCH  50  64
BRANCH  51  75
ATOM     75  C   UNL A   1      48.085  27.241  26.100  1.00  0.00     0.023 A 
ATOM     76  C   UNL A   1      49.136  26.716  26.877  1.00  0.00     0.012 A 
ATOM     77  C   UNL A   1      48.288  27.452  24.723  1.00  0.00     0.148 A 
ATOM     78  C   UNL A   1      50.373  26.428  26.299  1.00  0.00     0.002 A 
ATOM     79  C   UNL A   1      49.505  27.112  24.143  1.00  0.00     0.091 A 
ATOM     80  F   UNL A   1      47.282  27.968  24.004  1.00  0.00    -0.205 F 
ATOM     81  C   UNL A   1      50.554  26.615  24.931  1.00  0.00     0.022 A 
BRANCH  79  82
ATOM     82  S   UNL A   1      49.779  27.195  22.369  1.00  0.00     0.127 S 
ATOM     83  O   UNL A   1      49.578  28.615  22.101  1.00  0.00    -0.237 OA
ATOM     84  O   UNL A   1      51.164  26.735  22.254  1.00  0.00    -0.237 OA
ATOM     85  O   UNL A   1      48.799  26.291  21.781  1.00  0.00    -0.744 OA
ENDBRANCH  79  82
ENDBRANCH  51  75
BRANCH  63  86
ATOM     86  C   UNL A   1      45.283  32.944  28.998  1.00  0.00     0.023 A 
ATOM     87  C   UNL A   1      46.016  33.277  30.155  1.00  0.00     0.012 A 
ATOM     88  C   UNL A   1      45.106  33.911  27.988  1.00  0.00     0.148 A 
ATOM     89  C   UNL A   1      46.546  34.556  30.314  1.00  0.00     0.002 A 
ATOM     90  C   UNL A   1      45.676  35.170  28.134  1.00  0.00     0.091 A 
ATOM     91  F   UNL A   1      44.392  33.577  26.903  1.00  0.00    -0.205 F 
ATOM     92  C   UNL A   1      46.387  35.498  29.300  1.00  0.00     0.022 A 
BRANCH  90  93
ATOM     93  S   UNL A   1      45.602  36.421  26.846  1.00  0.00     0.127 S 
ATOM     94  O   UNL A   1      44.170  36.711  26.794  1.00  0.00    -0.237 OA
ATOM     95  O   UNL A   1      46.423  37.493  27.409  1.00  0.00    -0.237 OA
ATOM     96  O   UNL A   1      46.154  35.800  25.650  1.00  0.00    -0.744 OA
ENDBRANCH  90  93
ENDBRANCH  63  86
ENDBRANCH  37  38
ENDBRANCH  29  32
ENDBRANCH  27  28
ENDBRANCH  26  27
ENDBRANCH   1  26
TORSDOF 17
ENDMDL
MODEL 3
REMARK VINA RESULT:     -12.0      5.773     10.627
REMARK SMILES CSc1ccccc1Sc1cc(C(=O)NCCCCNC(=O)c2ccc(-c3c4nc(c(-c5cccc(S(=O)(=O)[O-])c5F)c5ccc([nH]5)c(-c5cccc(S(=O)(=O)[O-])c5F)c5nc(c(-c6cccc(S(=O)(=O)[O-])c6F)c6ccc3[nH]6)C=C5)C=C4)cc2)c2ccccc2n1
REMARK SMILES IDX 17 1 16 2 15 3 13 4 14 5 12 7 10 8 11 9 92 10 91 11 86 12
REMARK SMILES IDX 90 13 87 14 89 15 88 16 9 17 8 18 3 19 4 20 5 21 7 22 6 23
REMARK SMILES IDX 2 24 1 25 18 26 19 27 20 28 21 29 22 31 23 32 24 33 85 34
REMARK SMILES IDX 25 35 84 36 26 37 27 38 28 39 78 40 29 41 83 42 77 43 79 44
REMARK SMILES IDX 30 45 82 46 76 47 75 48 31 50 63 51 43 52 62 53 44 54 47 55
REMARK SMILES IDX 61 56 80 57 45 58 46 59 60 61 81 62 48 63 32 64 33 65 41 66
REMARK SMILES IDX 34 67 36 68 42 69 35 70 37 71 38 72 39 73 40 74 64 75 65 76
REMARK SMILES IDX 73 77 66 78 68 79 74 80 67 81 69 82 70 83 71 84 72 85 49 86
REMARK SMILES IDX 50 87 58 88 51 89 53 90 59 91 52 92 54 93 55 94 56 95 57 96
REMARK H PARENT 15 6 20 30 79 49 47 60
REMARK Flexibility Score: inf
ROOT
ATOM      1  C   UNL A   1      36.802  22.067  24.756  1.00  0.00     0.023 C 
ENDROOT
BRANCH   1   2
ATOM      2  C   UNL A   1      36.656  23.211  25.766  1.00  0.00     0.116 C 
BRANCH   2   3
ATOM      3  N   UNL A   1      35.687  22.865  26.794  1.00  0.00    -0.352 N 
ATOM      4  C   UNL A   1      34.318  22.817  26.874  1.00  0.00     0.252 C 
ATOM      5  O   UNL A   1      33.868  22.487  27.969  1.00  0.00    -0.269 OA
ATOM      6  H   UNL A   1      36.118  22.602  27.639  1.00  0.00     0.163 HD
BRANCH   4   7
ATOM      7  C   UNL A   1      33.395  23.094  25.726  1.00  0.00     0.051 A 
ATOM      8  C   UNL A   1      31.909  24.548  24.550  1.00  0.00     0.102 A 
ATOM      9  C   UNL A   1      32.734  24.315  25.637  1.00  0.00     0.050 A 
ATOM     10  N   UNL A   1      31.847  23.721  23.496  1.00  0.00    -0.241 NA
ATOM     11  C   UNL A   1      32.351  22.496  23.632  1.00  0.00     0.072 A 
ATOM     12  C   UNL A   1      33.049  22.076  24.783  1.00  0.00     0.013 A 
ATOM     13  C   UNL A   1      32.046  21.592  22.624  1.00  0.00     0.029 A 
ATOM     14  C   UNL A   1      33.254  20.676  24.923  1.00  0.00     0.011 A 
ATOM     15  C   UNL A   1      32.249  20.225  22.788  1.00  0.00     0.002 A 
ATOM     16  C   UNL A   1      32.814  19.763  23.964  1.00  0.00     0.001 A 
BRANCH   8  17
ATOM     17  S   UNL A   1      30.624  25.769  24.738  1.00  0.00    -0.069 SA
BRANCH  17  18
ATOM     18  C   UNL A   1      31.386  27.211  25.477  1.00  0.00     0.027 A 
ATOM     19  C   UNL A   1      32.114  28.116  24.675  1.00  0.00     0.021 A 
ATOM     20  C   UNL A   1      32.762  29.209  25.275  1.00  0.00     0.016 A 
ATOM     21  C   UNL A   1      32.700  29.408  26.654  1.00  0.00     0.001 A 
ATOM     22  C   UNL A   1      31.366  27.409  26.870  1.00  0.00     0.016 A 
ATOM     23  C   UNL A   1      32.007  28.507  27.452  1.00  0.00     0.001 A 
BRANCH  19  24
ATOM     24  S   UNL A   1      32.333  27.875  22.903  1.00  0.00    -0.128 SA
ATOM     25  C   UNL A   1      33.975  28.598  22.691  1.00  0.00     0.091 C 
ENDBRANCH  19  24
ENDBRANCH  17  18
ENDBRANCH   8  17
ENDBRANCH   4   7
ENDBRANCH   2   3
ENDBRANCH   1   2
BRANCH   1  26
ATOM     26  C   UNL A   1      37.561  20.837  25.283  1.00  0.00     0.023 C 
BRANCH  26  27
ATOM     27  C   UNL A   1      38.994  21.089  25.749  1.00  0.00     0.116 C 
BRANCH  27  28
ATOM     28  N   UNL A   1      39.794  19.873  25.817  1.00  0.00    -0.352 N 
ATOM     29  C   UNL A   1      41.141  19.739  26.055  1.00  0.00     0.251 C 
ATOM     30  H   UNL A   1      39.302  19.033  25.675  1.00  0.00     0.163 HD
ATOM     31  O   UNL A   1      41.679  18.637  25.961  1.00  0.00    -0.269 OA
BRANCH  29  32
ATOM     32  C   UNL A   1      41.947  20.931  26.388  1.00  0.00     0.039 A 
ATOM     33  C   UNL A   1      42.373  21.772  25.355  1.00  0.00     0.014 A 
ATOM     34  C   UNL A   1      42.241  21.239  27.719  1.00  0.00     0.014 A 
ATOM     35  C   UNL A   1      43.018  22.973  25.664  1.00  0.00     0.010 A 
ATOM     36  C   UNL A   1      42.835  22.461  28.026  1.00  0.00     0.010 A 
ATOM     37  C   UNL A   1      43.210  23.349  27.004  1.00  0.00    -0.014 A 
BRANCH  37  38
ATOM     38  C   UNL A   1      43.728  24.691  27.370  1.00  0.00     0.031 A 
ATOM     39  C   UNL A   1      42.794  25.761  27.863  1.00  0.00     0.074 A 
ATOM     40  C   UNL A   1      45.022  24.983  27.130  1.00  0.00     0.049 A 
ATOM     41  N   UNL A   1      43.043  27.019  28.112  1.00  0.00    -0.248 NA
ATOM     42  C   UNL A   1      41.392  25.370  28.081  1.00  0.00     0.031 C 
ATOM     43  C   UNL A   1      46.010  24.052  26.581  1.00  0.00     0.029 A 
ATOM     44  N   UNL A   1      45.719  26.157  27.274  1.00  0.00    -0.354 N 
ATOM     45  C   UNL A   1      41.828  27.581  28.482  1.00  0.00     0.074 A 
ATOM     46  C   UNL A   1      40.836  26.530  28.402  1.00  0.00     0.031 C 
ATOM     47  C   UNL A   1      47.179  24.692  26.424  1.00  0.00     0.029 A 
ATOM     48  C   UNL A   1      47.018  26.085  26.824  1.00  0.00     0.049 A 
ATOM     49  H   UNL A   1      45.327  26.973  27.661  1.00  0.00     0.167 HD
ATOM     50  C   UNL A   1      41.566  28.850  28.875  1.00  0.00     0.034 A 
ATOM     51  C   UNL A   1      47.966  27.037  26.724  1.00  0.00     0.034 A 
ATOM     52  C   UNL A   1      42.563  29.881  28.992  1.00  0.00     0.049 A 
ATOM     53  C   UNL A   1      47.651  28.436  27.176  1.00  0.00     0.074 A 
ATOM     54  C   UNL A   1      42.416  31.165  29.486  1.00  0.00     0.029 A 
ATOM     55  N   UNL A   1      43.885  29.753  28.597  1.00  0.00    -0.354 N 
ATOM     56  N   UNL A   1      46.540  28.905  27.691  1.00  0.00    -0.248 NA
ATOM     57  C   UNL A   1      48.725  29.434  27.056  1.00  0.00     0.031 C 
ATOM     58  C   UNL A   1      43.647  31.822  29.369  1.00  0.00     0.029 A 
ATOM     59  C   UNL A   1      44.562  30.941  28.815  1.00  0.00     0.049 A 
ATOM     60  H   UNL A   1      44.285  28.937  28.219  1.00  0.00     0.167 HD
ATOM     61  C   UNL A   1      46.786  30.244  27.975  1.00  0.00     0.074 A 
ATOM     62  C   UNL A   1      48.161  30.503  27.602  1.00  0.00     0.031 C 
ATOM     63  C   UNL A   1      45.943  31.177  28.480  1.00  0.00     0.034 A 
BRANCH  50  64
ATOM     64  C   UNL A   1      40.151  29.185  29.266  1.00  0.00     0.023 A 
ATOM     65  C   UNL A   1      39.215  29.504  28.262  1.00  0.00     0.012 A 
ATOM     66  C   UNL A   1      39.731  29.120  30.608  1.00  0.00     0.148 A 
ATOM     67  C   UNL A   1      37.889  29.782  28.590  1.00  0.00     0.002 A 
ATOM     68  C   UNL A   1      38.399  29.360  30.924  1.00  0.00     0.091 A 
ATOM     69  F   UNL A   1      40.642  28.836  31.551  1.00  0.00    -0.205 F 
ATOM     70  C   UNL A   1      37.479  29.701  29.918  1.00  0.00     0.022 A 
BRANCH  68  71
ATOM     71  S   UNL A   1      37.756  29.211  32.595  1.00  0.00     0.127 S 
ATOM     72  O   UNL A   1      36.393  29.717  32.433  1.00  0.00    -0.237 OA
ATOM     73  O   UNL A   1      37.847  27.770  32.834  1.00  0.00    -0.237 OA
ATOM     74  O   UNL A   1      38.628  30.021  33.433  1.00  0.00    -0.744 OA
ENDBRANCH  68  71
ENDBRANCH  50  64
BRANCH  51  75
ATOM     75  C   UNL A   1      49.322  26.685  26.214  1.00  0.00     0.023 A 
ATOM     76  C   UNL A   1      50.150  25.847  26.985  1.00  0.00     0.012 A 
ATOM     77  C   UNL A   1      49.780  27.143  24.963  1.00  0.00     0.148 A 
ATOM     78  C   UNL A   1      51.421  25.490  26.531  1.00  0.00     0.002 A 
ATOM     79  C   UNL A   1      51.025  26.739  24.493  1.00  0.00     0.091 A 
ATOM     80  F   UNL A   1      48.985  27.953  24.252  1.00  0.00    -0.205 F 
ATOM     81  C   UNL A   1      51.854  25.926  25.282  1.00  0.00     0.022 A 
BRANCH  79  82
ATOM     82  S   UNL A   1      51.604  27.145  22.842  1.00  0.00     0.127 S 
ATOM     83  O   UNL A   1      52.811  26.330  22.739  1.00  0.00    -0.237 OA
ATOM     84  O   UNL A   1      50.486  26.699  22.009  1.00  0.00    -0.237 OA
ATOM     85  O   UNL A   1      51.808  28.588  22.844  1.00  0.00    -0.744 OA
ENDBRANCH  79  82
ENDBRANCH  51  75
BRANCH  63  86
ATOM     86  C   UNL A   1      46.476  32.573  28.666  1.00  0.00     0.023 A 
ATOM     87  C   UNL A   1      46.976  32.959  29.925  1.00  0.00     0.012 A 
ATOM     88  C   UNL A   1      46.563  33.467  27.580  1.00  0.00     0.148 A 
ATOM     89  C   UNL A   1      47.536  34.223  30.107  1.00  0.00     0.002 A 
ATOM     90  C   UNL A   1      47.163  34.708  27.758  1.00  0.00     0.091 A 
ATOM     91  F   UNL A   1      46.066  33.084  26.395  1.00  0.00    -0.205 F 
ATOM     92  C   UNL A   1      47.641  35.092  29.022  1.00  0.00     0.022 A 
BRANCH  90  93
ATOM     93  S   UNL A   1      47.425  35.860  26.405  1.00  0.00     0.127 S 
ATOM     94  O   UNL A   1      47.790  34.959  25.313  1.00  0.00    -0.237 OA
ATOM     95  O   UNL A   1      46.109  36.483  26.269  1.00  0.00    -0.237 OA
ATOM     96  O   UNL A   1      48.480  36.764  26.844  1.00  0.00    -0.744 OA
ENDBRANCH  90  93
ENDBRANCH  63  86
ENDBRANCH  37  38
ENDBRANCH  29  32
ENDBRANCH  27  28
ENDBRANCH  26  27
ENDBRANCH   1  26
TORSDOF 17
ENDMDL
