MODEL 1
REMARK VINA RESULT:     -11.5      0.000      0.000
REMARK SMILES CC1(C)CCSC[C@H]1[NH+]1CCC(OCCC(=O)NCCCCNC(=O)c2ccc(-c3c4nc(c(-c5cccc(S(=O)(=O)[O-])c5F)c5ccc([nH]5)c(-c5cccc(S(=O)(=O)[O-])c5F)c5nc(c(-c6cccc(S(=O)(=O)[O-])c6F)c6ccc3[nH]6)C=C5)C=C4)cc2)CC1
REMARK SMILES IDX 20 1 19 2 18 3 16 4 17 5 15 7 14 8 13 9 12 10 9 11 10 12
REMARK SMILES IDX 90 13 11 15 89 16 8 17 1 18 2 19 3 20 4 21 5 22 7 23 6 24
REMARK SMILES IDX 21 25 22 26 23 27 24 28 25 30 26 31 27 32 88 33 28 34 87 35
REMARK SMILES IDX 29 36 30 37 31 38 81 39 32 40 86 41 80 42 82 43 33 44 85 45
REMARK SMILES IDX 79 46 78 47 34 49 66 50 46 51 65 52 47 53 50 54 64 55 83 56
REMARK SMILES IDX 48 57 49 58 63 60 84 61 51 62 35 63 36 64 44 65 37 66 39 67
REMARK SMILES IDX 45 68 38 69 40 70 41 71 42 72 43 73 67 74 68 75 76 76 69 77
REMARK SMILES IDX 71 78 77 79 70 80 72 81 73 82 74 83 75 84 52 85 53 86 61 87
REMARK SMILES IDX 54 88 56 89 62 90 55 91 57 92 58 93 59 94 60 95
REMARK H PARENT 18 6 9 14 23 29 82 48 50 59
REMARK Flexibility Score: inf
ROOT
ATOM      1  C   UNL A   1      33.078  29.112  24.241  1.00  0.00     0.023 C 
ENDROOT
BRANCH   1   2
ATOM      2  C   UNL A   1      32.932  28.832  22.735  1.00  0.00     0.116 C 
BRANCH   2   3
ATOM      3  N   UNL A   1      31.837  29.471  22.025  1.00  0.00    -0.356 N 
ATOM      4  C   UNL A   1      30.489  29.449  22.290  1.00  0.00     0.222 C 
ATOM      5  O   UNL A   1      29.745  30.170  21.622  1.00  0.00    -0.275 OA
ATOM      6  H   UNL A   1      32.100  29.997  21.235  1.00  0.00     0.163 HD
BRANCH   4   7
ATOM      7  C   UNL A   1      29.940  28.506  23.350  1.00  0.00     0.128 C 
BRANCH   7   8
ATOM      8  C   UNL A   1      30.271  27.004  23.196  1.00  0.00     0.170 C 
BRANCH   8   9
ATOM      9  O   UNL A   1      30.681  26.234  24.345  1.00  0.00    -0.377 OA
BRANCH   9  10
ATOM     10  C   UNL A   1      30.617  24.790  24.369  1.00  0.00     0.129 C 
ATOM     11  N   UNL A   1      32.345  22.422  24.531  1.00  0.00    -0.331 N 
ATOM     12  C   UNL A   1      31.444  22.696  25.615  1.00  0.00     0.265 C 
ATOM     13  C   UNL A   1      31.694  22.689  23.258  1.00  0.00     0.265 C 
ATOM     14  H   UNL A   1      32.566  21.430  24.451  1.00  0.00     0.348 HD
ATOM     15  C   UNL A   1      31.171  24.163  25.620  1.00  0.00     0.093 C 
ATOM     16  C   UNL A   1      31.116  24.119  23.076  1.00  0.00     0.093 C 
BRANCH  11  17
ATOM     17  C   UNL A   1      33.806  22.440  24.754  1.00  0.00     0.199 C 
ATOM     18  C   UNL A   1      34.365  19.885  24.976  1.00  0.00     0.017 C 
ATOM     19  C   UNL A   1      34.508  21.286  25.589  1.00  0.00     0.018 C 
ATOM     20  C   UNL A   1      33.961  21.222  27.031  1.00  0.00     0.017 C 
ATOM     21  C   UNL A   1      36.031  21.572  25.743  1.00  0.00     0.023 C 
ATOM     22  C   UNL A   1      36.816  21.629  24.442  1.00  0.00     0.070 C 
ATOM     23  C   UNL A   1      34.562  22.729  23.406  1.00  0.00     0.135 C 
ATOM     24  S   UNL A   1      36.333  23.101  23.532  1.00  0.00    -0.156 SA
ENDBRANCH  11  17
ENDBRANCH   9  10
ENDBRANCH   8   9
ENDBRANCH   7   8
ENDBRANCH   4   7
ENDBRANCH   2   3
ENDBRANCH   1   2
BRANCH   1  25
ATOM     25  C   UNL A   1      33.797  28.078  25.120  1.00  0.00     0.023 C 
BRANCH  25  26
ATOM     26  C   UNL A   1      33.951  28.464  26.576  1.00  0.00     0.116 C 
BRANCH  26  27
ATOM     27  N   UNL A   1      33.847  29.906  26.720  1.00  0.00    -0.352 N 
ATOM     28  C   UNL A   1      34.560  30.712  27.562  1.00  0.00     0.251 C 
ATOM     29  H   UNL A   1      33.185  30.354  26.144  1.00  0.00     0.163 HD
ATOM     30  O   UNL A   1      34.108  31.815  27.887  1.00  0.00    -0.269 OA
BRANCH  28  31
ATOM     31  C   UNL A   1      35.874  30.256  28.047  1.00  0.00     0.039 A 
ATOM     32  C   UNL A   1      37.012  30.448  27.263  1.00  0.00     0.014 A 
ATOM     33  C   UNL A   1      35.965  29.615  29.287  1.00  0.00     0.014 A 
ATOM     34  C   UNL A   1      38.242  29.993  27.731  1.00  0.00     0.010 A 
ATOM     35  C   UNL A   1      37.205  29.284  29.804  1.00  0.00     0.010 A 
ATOM     36  C   UNL A   1      38.346  29.411  29.007  1.00  0.00    -0.014 A 
BRANCH  36  37
ATOM     37  C   UNL A   1      39.626  28.855  29.499  1.00  0.00     0.031 A 
ATOM     38  C   UNL A   1      40.333  29.527  30.649  1.00  0.00     0.074 A 
ATOM     39  C   UNL A   1      40.173  27.795  28.876  1.00  0.00     0.049 A 
ATOM     40  N   UNL A   1      41.468  29.212  31.215  1.00  0.00    -0.248 NA
ATOM     41  C   UNL A   1      39.709  30.741  31.211  1.00  0.00     0.031 C 
ATOM     42  C   UNL A   1      39.623  27.134  27.690  1.00  0.00     0.029 A 
ATOM     43  N   UNL A   1      41.318  27.094  29.144  1.00  0.00    -0.354 N 
ATOM     44  C   UNL A   1      41.709  30.205  32.158  1.00  0.00     0.074 A 
ATOM     45  C   UNL A   1      40.641  31.169  32.048  1.00  0.00     0.031 C 
ATOM     46  C   UNL A   1      40.415  26.104  27.353  1.00  0.00     0.029 A 
ATOM     47  C   UNL A   1      41.541  26.051  28.278  1.00  0.00     0.049 A 
ATOM     48  H   UNL A   1      41.925  27.317  29.888  1.00  0.00     0.167 HD
ATOM     49  C   UNL A   1      42.706  30.285  33.069  1.00  0.00     0.034 A 
ATOM     50  C   UNL A   1      42.542  25.152  28.244  1.00  0.00     0.034 A 
ATOM     51  C   UNL A   1      43.726  29.285  33.207  1.00  0.00     0.049 A 
ATOM     52  C   UNL A   1      43.601  25.220  29.310  1.00  0.00     0.074 A 
ATOM     53  C   UNL A   1      44.729  29.202  34.154  1.00  0.00     0.029 A 
ATOM     54  N   UNL A   1      43.869  28.190  32.369  1.00  0.00    -0.354 N 
ATOM     55  N   UNL A   1      43.724  26.075  30.297  1.00  0.00    -0.248 NA
ATOM     56  C   UNL A   1      44.633  24.175  29.287  1.00  0.00     0.031 C 
ATOM     57  C   UNL A   1      45.500  28.071  33.867  1.00  0.00     0.029 A 
ATOM     58  C   UNL A   1      44.950  27.428  32.768  1.00  0.00     0.049 A 
ATOM     59  H   UNL A   1      43.285  27.985  31.602  1.00  0.00     0.167 HD
ATOM     60  C   UNL A   1      44.824  25.653  31.033  1.00  0.00     0.074 A 
ATOM     61  C   UNL A   1      45.317  24.452  30.390  1.00  0.00     0.031 C 
ATOM     62  C   UNL A   1      45.386  26.211  32.134  1.00  0.00     0.034 A 
BRANCH  49  63
ATOM     63  C   UNL A   1      42.705  31.461  34.013  1.00  0.00     0.023 A 
ATOM     64  C   UNL A   1      43.324  32.670  33.628  1.00  0.00     0.012 A 
ATOM     65  C   UNL A   1      42.063  31.384  35.263  1.00  0.00     0.148 A 
ATOM     66  C   UNL A   1      43.343  33.766  34.489  1.00  0.00     0.002 A 
ATOM     67  C   UNL A   1      42.040  32.498  36.095  1.00  0.00     0.091 A 
ATOM     68  F   UNL A   1      41.501  30.221  35.623  1.00  0.00    -0.205 F 
ATOM     69  C   UNL A   1      42.692  33.684  35.716  1.00  0.00     0.022 A 
BRANCH  67  70
ATOM     70  S   UNL A   1      41.158  32.524  37.658  1.00  0.00     0.127 S 
ATOM     71  O   UNL A   1      39.845  32.012  37.264  1.00  0.00    -0.237 OA
ATOM     72  O   UNL A   1      41.951  31.603  38.472  1.00  0.00    -0.237 OA
ATOM     73  O   UNL A   1      41.176  33.908  38.108  1.00  0.00    -0.744 OA
ENDBRANCH  67  70
ENDBRANCH  49  63
BRANCH  50  74
ATOM     74  C   UNL A   1      42.542  24.072  27.216  1.00  0.00     0.023 A 
ATOM     75  C   UNL A   1      43.389  24.180  26.095  1.00  0.00     0.012 A 
ATOM     76  C   UNL A   1      41.738  22.926  27.361  1.00  0.00     0.148 A 
ATOM     77  C   UNL A   1      43.406  23.183  25.119  1.00  0.00     0.002 A 
ATOM     78  C   UNL A   1      41.803  21.911  26.413  1.00  0.00     0.091 A 
ATOM     79  F   UNL A   1      40.937  22.845  28.432  1.00  0.00    -0.205 F 
ATOM     80  C   UNL A   1      42.621  22.045  25.282  1.00  0.00     0.022 A 
BRANCH  78  81
ATOM     81  S   UNL A   1      40.929  20.354  26.611  1.00  0.00     0.127 S 
ATOM     82  O   UNL A   1      39.628  20.666  26.025  1.00  0.00    -0.237 OA
ATOM     83  O   UNL A   1      41.759  19.441  25.821  1.00  0.00    -0.237 OA
ATOM     84  O   UNL A   1      40.931  20.081  28.040  1.00  0.00    -0.744 OA
ENDBRANCH  78  81
ENDBRANCH  50  74
BRANCH  62  85
ATOM     85  C   UNL A   1      46.568  25.507  32.741  1.00  0.00     0.023 A 
ATOM     86  C   UNL A   1      47.875  25.859  32.352  1.00  0.00     0.012 A 
ATOM     87  C   UNL A   1      46.379  24.549  33.757  1.00  0.00     0.148 A 
ATOM     88  C   UNL A   1      48.977  25.240  32.939  1.00  0.00     0.002 A 
ATOM     89  C   UNL A   1      47.482  23.980  34.378  1.00  0.00     0.091 A 
ATOM     90  F   UNL A   1      45.126  24.219  34.100  1.00  0.00    -0.205 F 
ATOM     91  C   UNL A   1      48.782  24.312  33.960  1.00  0.00     0.022 A 
BRANCH  89  92
ATOM     92  S   UNL A   1      47.327  22.858  35.770  1.00  0.00     0.127 S 
ATOM     93  O   UNL A   1      46.658  21.713  35.156  1.00  0.00    -0.237 OA
ATOM     94  O   UNL A   1      48.725  22.625  36.136  1.00  0.00    -0.237 OA
ATOM     95  O   UNL A   1      46.551  23.570  36.776  1.00  0.00    -0.744 OA
ENDBRANCH  89  92
ENDBRANCH  62  85
ENDBRANCH  36  37
ENDBRANCH  28  31
ENDBRANCH  26  27
ENDBRANCH  25  26
ENDBRANCH   1  25
TORSDOF 18
ENDMDL
MODEL 2
REMARK VINA RESULT:     -11.4      4.816      9.825
REMARK SMILES CC1(C)CCSC[C@H]1[NH+]1CCC(OCCC(=O)NCCCCNC(=O)c2ccc(-c3c4nc(c(-c5cccc(S(=O)(=O)[O-])c5F)c5ccc([nH]5)c(-c5cccc(S(=O)(=O)[O-])c5F)c5nc(c(-c6cccc(S(=O)(=O)[O-])c6F)c6ccc3[nH]6)C=C5)C=C4)cc2)CC1
REMARK SMILES IDX 20 1 19 2 18 3 16 4 17 5 15 7 14 8 13 9 12 10 9 11 10 12
REMARK SMILES IDX 90 13 11 15 89 16 8 17 1 18 2 19 3 20 4 21 5 22 7 23 6 24
REMARK SMILES IDX 21 25 22 26 23 27 24 28 25 30 26 31 27 32 88 33 28 34 87 35
REMARK SMILES IDX 29 36 30 37 31 38 81 39 32 40 86 41 80 42 82 43 33 44 85 45
REMARK SMILES IDX 79 46 78 47 34 49 66 50 46 51 65 52 47 53 50 54 64 55 83 56
REMARK SMILES IDX 48 57 49 58 63 60 84 61 51 62 35 63 36 64 44 65 37 66 39 67
REMARK SMILES IDX 45 68 38 69 40 70 41 71 42 72 43 73 67 74 68 75 76 76 69 77
REMARK SMILES IDX 71 78 77 79 70 80 72 81 73 82 74 83 75 84 52 85 53 86 61 87
REMARK SMILES IDX 54 88 56 89 62 90 55 91 57 92 58 93 59 94 60 95
REMARK H PARENT 18 6 9 14 23 29 82 48 50 59
REMARK Flexibility Score: inf
ROOT
ATOM      1  C   UNL A   1      36.361  21.673  24.325  1.00  0.00     0.023 C 
ENDROOT
BRANCH   1   2
ATOM      2  C   UNL A   1      35.396  20.953  25.283  1.00  0.00     0.116 C 
BRANCH   2   3
ATOM      3  N   UNL A   1      35.041  19.575  24.986  1.00  0.00    -0.356 N 
ATOM      4  C   UNL A   1      33.840  19.047  24.577  1.00  0.00     0.222 C 
ATOM      5  O   UNL A   1      33.797  17.857  24.262  1.00  0.00    -0.275 OA
ATOM      6  H   UNL A   1      35.771  18.923  25.093  1.00  0.00     0.163 HD
BRANCH   4   7
ATOM      7  C   UNL A   1      32.591  19.916  24.578  1.00  0.00     0.128 C 
BRANCH   7   8
ATOM      8  C   UNL A   1      32.225  20.625  23.255  1.00  0.00     0.170 C 
BRANCH   8   9
ATOM      9  O   UNL A   1      31.993  22.049  23.240  1.00  0.00    -0.377 OA
BRANCH   9  10
ATOM     10  C   UNL A   1      33.029  23.004  23.567  1.00  0.00     0.129 C 
ATOM     11  N   UNL A   1      33.415  25.856  24.146  1.00  0.00    -0.331 N 
ATOM     12  C   UNL A   1      33.669  24.899  25.186  1.00  0.00     0.265 C 
ATOM     13  C   UNL A   1      33.913  25.358  22.873  1.00  0.00     0.265 C 
ATOM     14  H   UNL A   1      33.957  26.712  24.265  1.00  0.00     0.348 HD
ATOM     15  C   UNL A   1      32.849  23.686  24.897  1.00  0.00     0.093 C 
ATOM     16  C   UNL A   1      33.367  23.977  22.422  1.00  0.00     0.093 C 
BRANCH  11  17
ATOM     17  C   UNL A   1      32.336  26.855  24.299  1.00  0.00     0.199 C 
ATOM     18  C   UNL A   1      33.435  29.019  23.300  1.00  0.00     0.017 C 
ATOM     19  C   UNL A   1      32.682  28.393  24.484  1.00  0.00     0.018 C 
ATOM     20  C   UNL A   1      33.528  28.633  25.752  1.00  0.00     0.017 C 
ATOM     21  C   UNL A   1      31.382  29.224  24.697  1.00  0.00     0.023 C 
ATOM     22  C   UNL A   1      30.394  29.194  23.543  1.00  0.00     0.070 C 
ATOM     23  C   UNL A   1      31.224  26.632  23.211  1.00  0.00     0.135 C 
ATOM     24  S   UNL A   1      29.676  27.551  23.430  1.00  0.00    -0.156 SA
ENDBRANCH  11  17
ENDBRANCH   9  10
ENDBRANCH   8   9
ENDBRANCH   7   8
ENDBRANCH   4   7
ENDBRANCH   2   3
ENDBRANCH   1   2
BRANCH   1  25
ATOM     25  C   UNL A   1      36.814  23.102  24.665  1.00  0.00     0.023 C 
BRANCH  25  26
ATOM     26  C   UNL A   1      37.426  23.275  26.038  1.00  0.00     0.116 C 
BRANCH  26  27
ATOM     27  N   UNL A   1      38.496  22.310  26.230  1.00  0.00    -0.352 N 
ATOM     28  C   UNL A   1      39.829  22.565  26.382  1.00  0.00     0.251 C 
ATOM     29  H   UNL A   1      38.228  21.362  26.253  1.00  0.00     0.163 HD
ATOM     30  O   UNL A   1      40.657  21.684  26.123  1.00  0.00    -0.269 OA
BRANCH  28  31
ATOM     31  C   UNL A   1      40.254  23.884  26.879  1.00  0.00     0.039 A 
ATOM     32  C   UNL A   1      40.676  24.029  28.201  1.00  0.00     0.014 A 
ATOM     33  C   UNL A   1      40.212  24.989  26.022  1.00  0.00     0.014 A 
ATOM     34  C   UNL A   1      41.055  25.289  28.658  1.00  0.00     0.010 A 
ATOM     35  C   UNL A   1      40.713  26.208  26.441  1.00  0.00     0.010 A 
ATOM     36  C   UNL A   1      41.080  26.386  27.778  1.00  0.00    -0.014 A 
BRANCH  36  37
ATOM     37  C   UNL A   1      41.409  27.748  28.253  1.00  0.00     0.031 A 
ATOM     38  C   UNL A   1      42.846  28.205  28.256  1.00  0.00     0.074 A 
ATOM     39  C   UNL A   1      40.433  28.539  28.734  1.00  0.00     0.049 A 
ATOM     40  N   UNL A   1      43.347  29.346  28.648  1.00  0.00    -0.248 NA
ATOM     41  C   UNL A   1      43.865  27.238  27.801  1.00  0.00     0.031 C 
ATOM     42  C   UNL A   1      39.024  28.156  28.872  1.00  0.00     0.029 A 
ATOM     43  N   UNL A   1      40.474  29.823  29.207  1.00  0.00    -0.354 N 
ATOM     44  C   UNL A   1      44.726  29.216  28.529  1.00  0.00     0.074 A 
ATOM     45  C   UNL A   1      44.993  27.867  28.092  1.00  0.00     0.031 C 
ATOM     46  C   UNL A   1      38.332  29.195  29.364  1.00  0.00     0.029 A 
ATOM     47  C   UNL A   1      39.249  30.303  29.605  1.00  0.00     0.049 A 
ATOM     48  H   UNL A   1      41.303  30.352  29.257  1.00  0.00     0.167 HD
ATOM     49  C   UNL A   1      45.686  30.149  28.721  1.00  0.00     0.034 A 
ATOM     50  C   UNL A   1      38.910  31.508  30.101  1.00  0.00     0.034 A 
ATOM     51  C   UNL A   1      45.399  31.504  29.096  1.00  0.00     0.049 A 
ATOM     52  C   UNL A   1      39.984  32.552  30.239  1.00  0.00     0.074 A 
ATOM     53  C   UNL A   1      46.274  32.566  29.225  1.00  0.00     0.029 A 
ATOM     54  N   UNL A   1      44.135  31.982  29.403  1.00  0.00    -0.354 N 
ATOM     55  N   UNL A   1      41.263  32.459  29.966  1.00  0.00    -0.248 NA
ATOM     56  C   UNL A   1      39.563  33.878  30.710  1.00  0.00     0.031 C 
ATOM     57  C   UNL A   1      45.540  33.682  29.641  1.00  0.00     0.029 A 
ATOM     58  C   UNL A   1      44.203  33.323  29.731  1.00  0.00     0.049 A 
ATOM     59  H   UNL A   1      43.309  31.445  29.390  1.00  0.00     0.167 HD
ATOM     60  C   UNL A   1      41.795  33.722  30.198  1.00  0.00     0.074 A 
ATOM     61  C   UNL A   1      40.692  34.567  30.611  1.00  0.00     0.031 C 
ATOM     62  C   UNL A   1      43.079  34.147  30.092  1.00  0.00     0.034 A 
BRANCH  49  63
ATOM     63  C   UNL A   1      47.119  29.747  28.477  1.00  0.00     0.023 A 
ATOM     64  C   UNL A   1      47.697  29.947  27.205  1.00  0.00     0.012 A 
ATOM     65  C   UNL A   1      47.904  29.206  29.513  1.00  0.00     0.148 A 
ATOM     66  C   UNL A   1      49.017  29.574  26.956  1.00  0.00     0.002 A 
ATOM     67  C   UNL A   1      49.235  28.886  29.272  1.00  0.00     0.091 A 
ATOM     68  F   UNL A   1      47.332  29.001  30.708  1.00  0.00    -0.205 F 
ATOM     69  C   UNL A   1      49.788  29.055  27.992  1.00  0.00     0.022 A 
BRANCH  67  70
ATOM     70  S   UNL A   1      50.338  28.290  30.557  1.00  0.00     0.127 S 
ATOM     71  O   UNL A   1      49.623  27.106  31.034  1.00  0.00    -0.237 OA
ATOM     72  O   UNL A   1      51.558  28.002  29.803  1.00  0.00    -0.237 OA
ATOM     73  O   UNL A   1      50.458  29.375  31.521  1.00  0.00    -0.744 OA
ENDBRANCH  67  70
ENDBRANCH  49  63
BRANCH  50  74
ATOM     74  C   UNL A   1      37.487  31.809  30.424  1.00  0.00     0.023 A 
ATOM     75  C   UNL A   1      37.013  31.604  31.735  1.00  0.00     0.012 A 
ATOM     76  C   UNL A   1      36.612  32.331  29.452  1.00  0.00     0.148 A 
ATOM     77  C   UNL A   1      35.685  31.877  32.062  1.00  0.00     0.002 A 
ATOM     78  C   UNL A   1      35.305  32.654  29.800  1.00  0.00     0.091 A 
ATOM     79  F   UNL A   1      37.081  32.515  28.211  1.00  0.00    -0.205 F 
ATOM     80  C   UNL A   1      34.833  32.410  31.098  1.00  0.00     0.022 A 
BRANCH  78  81
ATOM     81  S   UNL A   1      34.181  33.469  28.661  1.00  0.00     0.127 S 
ATOM     82  O   UNL A   1      33.278  34.161  29.577  1.00  0.00    -0.237 OA
ATOM     83  O   UNL A   1      35.089  34.341  27.913  1.00  0.00    -0.237 OA
ATOM     84  O   UNL A   1      33.584  32.404  27.868  1.00  0.00    -0.744 OA
ENDBRANCH  78  81
ENDBRANCH  50  74
BRANCH  62  85
ATOM     85  C   UNL A   1      43.356  35.596  30.382  1.00  0.00     0.023 A 
ATOM     86  C   UNL A   1      43.844  35.982  31.646  1.00  0.00     0.012 A 
ATOM     87  C   UNL A   1      43.205  36.564  29.370  1.00  0.00     0.148 A 
ATOM     88  C   UNL A   1      44.142  37.318  31.909  1.00  0.00     0.002 A 
ATOM     89  C   UNL A   1      43.558  37.882  29.621  1.00  0.00     0.091 A 
ATOM     90  F   UNL A   1      42.724  36.176  28.179  1.00  0.00    -0.205 F 
ATOM     91  C   UNL A   1      44.012  38.264  30.895  1.00  0.00     0.022 A 
BRANCH  89  92
ATOM     92  S   UNL A   1      43.526  39.145  28.347  1.00  0.00     0.127 S 
ATOM     93  O   UNL A   1      42.104  39.195  28.014  1.00  0.00    -0.237 OA
ATOM     94  O   UNL A   1      44.028  40.319  29.062  1.00  0.00    -0.237 OA
ATOM     95  O   UNL A   1      44.400  38.667  27.283  1.00  0.00    -0.744 OA
ENDBRANCH  89  92
ENDBRANCH  62  85
ENDBRANCH  36  37
ENDBRANCH  28  31
ENDBRANCH  26  27
ENDBRANCH  25  26
ENDBRANCH   1  25
TORSDOF 18
ENDMDL
MODEL 3
REMARK VINA RESULT:     -11.3      5.787      8.858
REMARK SMILES CC1(C)CCSC[C@H]1[NH+]1CCC(OCCC(=O)NCCCCNC(=O)c2ccc(-c3c4nc(c(-c5cccc(S(=O)(=O)[O-])c5F)c5ccc([nH]5)c(-c5cccc(S(=O)(=O)[O-])c5F)c5nc(c(-c6cccc(S(=O)(=O)[O-])c6F)c6ccc3[nH]6)C=C5)C=C4)cc2)CC1
REMARK SMILES IDX 20 1 19 2 18 3 16 4 17 5 15 7 14 8 13 9 12 10 9 11 10 12
REMARK SMILES IDX 90 13 11 15 89 16 8 17 1 18 2 19 3 20 4 21 5 22 7 23 6 24
REMARK SMILES IDX 21 25 22 26 23 27 24 28 25 30 26 31 27 32 88 33 28 34 87 35
REMARK SMILES IDX 29 36 30 37 31 38 81 39 32 40 86 41 80 42 82 43 33 44 85 45
REMARK SMILES IDX 79 46 78 47 34 49 66 50 46 51 65 52 47 53 50 54 64 55 83 56
REMARK SMILES IDX 48 57 49 58 63 60 84 61 51 62 35 63 36 64 44 65 37 66 39 67
REMARK SMILES IDX 45 68 38 69 40 70 41 71 42 72 43 73 67 74 68 75 76 76 69 77
REMARK SMILES IDX 71 78 77 79 70 80 72 81 73 82 74 83 75 84 52 85 53 86 61 87
REMARK SMILES IDX 54 88 56 89 62 90 55 91 57 92 58 93 59 94 60 95
REMARK H PARENT 18 6 9 14 23 29 82 48 50 59
REMARK Flexibility Score: inf
ROOT
ATOM      1  C   UNL A   1      37.067  20.807  24.765  1.00  0.00     0.023 C 
ENDROOT
BRANCH   1   2
ATOM      2  C   UNL A   1      35.649  20.581  25.317  1.00  0.00     0.116 C 
BRANCH   2   3
ATOM      3  N   UNL A   1      34.981  19.332  24.992  1.00  0.00    -0.356 N 
ATOM      4  C   UNL A   1      33.665  19.098  24.674  1.00  0.00     0.222 C 
ATOM      5  O   UNL A   1      33.338  17.967  24.309  1.00  0.00    -0.275 OA
ATOM      6  H   UNL A   1      35.558  18.534  25.000  1.00  0.00     0.163 HD
BRANCH   4   7
ATOM      7  C   UNL A   1      32.638  20.210  24.833  1.00  0.00     0.128 C 
BRANCH   7   8
ATOM      8  C   UNL A   1      32.526  21.234  23.681  1.00  0.00     0.170 C 
BRANCH   8   9
ATOM      9  O   UNL A   1      33.186  22.513  23.786  1.00  0.00    -0.377 OA
BRANCH   9  10
ATOM     10  C   UNL A   1      32.819  23.642  22.960  1.00  0.00     0.129 C 
ATOM     11  N   UNL A   1      32.029  26.462  23.155  1.00  0.00    -0.331 N 
ATOM     12  C   UNL A   1      33.280  26.136  22.530  1.00  0.00     0.265 C 
ATOM     13  C   UNL A   1      31.006  25.507  22.759  1.00  0.00     0.265 C 
ATOM     14  H   UNL A   1      31.642  27.341  22.813  1.00  0.00     0.348 HD
ATOM     15  C   UNL A   1      33.737  24.827  23.083  1.00  0.00     0.093 C 
ATOM     16  C   UNL A   1      31.327  24.014  23.036  1.00  0.00     0.093 C 
BRANCH  11  17
ATOM     17  C   UNL A   1      32.003  27.262  24.399  1.00  0.00     0.199 C 
ATOM     18  C   UNL A   1      32.654  25.485  26.217  1.00  0.00     0.017 C 
ATOM     19  C   UNL A   1      31.662  26.578  25.790  1.00  0.00     0.018 C 
ATOM     20  C   UNL A   1      30.253  25.950  25.779  1.00  0.00     0.017 C 
ATOM     21  C   UNL A   1      31.627  27.641  26.927  1.00  0.00     0.023 C 
ATOM     22  C   UNL A   1      32.936  28.373  27.175  1.00  0.00     0.070 C 
ATOM     23  C   UNL A   1      33.281  28.173  24.491  1.00  0.00     0.135 C 
ATOM     24  S   UNL A   1      33.277  29.450  25.778  1.00  0.00    -0.156 SA
ENDBRANCH  11  17
ENDBRANCH   9  10
ENDBRANCH   8   9
ENDBRANCH   7   8
ENDBRANCH   4   7
ENDBRANCH   2   3
ENDBRANCH   1   2
BRANCH   1  25
ATOM     25  C   UNL A   1      38.170  19.797  25.119  1.00  0.00     0.023 C 
BRANCH  25  26
ATOM     26  C   UNL A   1      39.307  20.348  25.953  1.00  0.00     0.116 C 
BRANCH  26  27
ATOM     27  N   UNL A   1      40.332  19.334  26.126  1.00  0.00    -0.352 N 
ATOM     28  C   UNL A   1      41.687  19.502  26.070  1.00  0.00     0.251 C 
ATOM     29  H   UNL A   1      40.013  18.419  26.304  1.00  0.00     0.163 HD
ATOM     30  O   UNL A   1      42.417  18.536  25.821  1.00  0.00    -0.269 OA
BRANCH  28  31
ATOM     31  C   UNL A   1      42.255  20.834  26.336  1.00  0.00     0.039 A 
ATOM     32  C   UNL A   1      42.494  21.241  27.650  1.00  0.00     0.014 A 
ATOM     33  C   UNL A   1      42.531  21.691  25.266  1.00  0.00     0.014 A 
ATOM     34  C   UNL A   1      43.014  22.513  27.881  1.00  0.00     0.010 A 
ATOM     35  C   UNL A   1      43.168  22.898  25.494  1.00  0.00     0.010 A 
ATOM     36  C   UNL A   1      43.357  23.347  26.804  1.00  0.00    -0.014 A 
BRANCH  36  37
ATOM     37  C   UNL A   1      43.843  24.728  27.022  1.00  0.00     0.031 A 
ATOM     38  C   UNL A   1      42.900  25.767  27.573  1.00  0.00     0.074 A 
ATOM     39  C   UNL A   1      45.099  25.054  26.668  1.00  0.00     0.049 A 
ATOM     40  N   UNL A   1      43.120  27.032  27.818  1.00  0.00    -0.248 NA
ATOM     41  C   UNL A   1      41.511  25.346  27.844  1.00  0.00     0.031 C 
ATOM     42  C   UNL A   1      46.061  24.150  26.031  1.00  0.00     0.029 A 
ATOM     43  N   UNL A   1      45.782  26.235  26.783  1.00  0.00    -0.354 N 
ATOM     44  C   UNL A   1      41.898  27.557  28.225  1.00  0.00     0.074 A 
ATOM     45  C   UNL A   1      40.924  26.496  28.132  1.00  0.00     0.031 C 
ATOM     46  C   UNL A   1      47.219  24.802  25.841  1.00  0.00     0.029 A 
ATOM     47  C   UNL A   1      47.072  26.174  26.313  1.00  0.00     0.049 A 
ATOM     48  H   UNL A   1      45.386  27.051  27.165  1.00  0.00     0.167 HD
ATOM     49  C   UNL A   1      41.618  28.799  28.680  1.00  0.00     0.034 A 
ATOM     50  C   UNL A   1      48.027  27.122  26.277  1.00  0.00     0.034 A 
ATOM     51  C   UNL A   1      42.612  29.824  28.825  1.00  0.00     0.049 A 
ATOM     52  C   UNL A   1      47.713  28.475  26.853  1.00  0.00     0.074 A 
ATOM     53  C   UNL A   1      42.474  31.088  29.365  1.00  0.00     0.029 A 
ATOM     54  N   UNL A   1      43.933  29.698  28.424  1.00  0.00    -0.354 N 
ATOM     55  N   UNL A   1      46.594  28.905  27.384  1.00  0.00    -0.248 NA
ATOM     56  C   UNL A   1      48.804  29.459  26.867  1.00  0.00     0.031 C 
ATOM     57  C   UNL A   1      43.707  31.739  29.262  1.00  0.00     0.029 A 
ATOM     58  C   UNL A   1      44.623  30.865  28.695  1.00  0.00     0.049 A 
ATOM     59  H   UNL A   1      44.323  28.896  28.006  1.00  0.00     0.167 HD
ATOM     60  C   UNL A   1      46.854  30.196  27.827  1.00  0.00     0.074 A 
ATOM     61  C   UNL A   1      48.245  30.467  27.523  1.00  0.00     0.031 C 
ATOM     62  C   UNL A   1      46.019  31.085  28.422  1.00  0.00     0.034 A 
BRANCH  49  63
ATOM     63  C   UNL A   1      40.201  29.093  29.100  1.00  0.00     0.023 A 
ATOM     64  C   UNL A   1      39.221  29.371  28.121  1.00  0.00     0.012 A 
ATOM     65  C   UNL A   1      39.827  29.061  30.457  1.00  0.00     0.148 A 
ATOM     66  C   UNL A   1      37.907  29.655  28.489  1.00  0.00     0.002 A 
ATOM     67  C   UNL A   1      38.504  29.293  30.812  1.00  0.00     0.091 A 
ATOM     68  F   UNL A   1      40.774  28.820  31.375  1.00  0.00    -0.205 F 
ATOM     69  C   UNL A   1      37.546  29.604  29.832  1.00  0.00     0.022 A 
BRANCH  67  70
ATOM     70  S   UNL A   1      37.917  29.169  32.504  1.00  0.00     0.127 S 
ATOM     71  O   UNL A   1      38.036  27.733  32.754  1.00  0.00    -0.237 OA
ATOM     72  O   UNL A   1      38.887  29.995  33.224  1.00  0.00    -0.237 OA
ATOM     73  O   UNL A   1      36.557  29.690  32.499  1.00  0.00    -0.744 OA
ENDBRANCH  67  70
ENDBRANCH  49  63
BRANCH  50  74
ATOM     74  C   UNL A   1      49.383  26.797  25.749  1.00  0.00     0.023 A 
ATOM     75  C   UNL A   1      50.284  26.069  26.549  1.00  0.00     0.012 A 
ATOM     76  C   UNL A   1      49.768  27.172  24.448  1.00  0.00     0.148 A 
ATOM     77  C   UNL A   1      51.559  25.753  26.078  1.00  0.00     0.002 A 
ATOM     78  C   UNL A   1      51.019  26.805  23.964  1.00  0.00     0.091 A 
ATOM     79  F   UNL A   1      48.898  27.867  23.704  1.00  0.00    -0.205 F 
ATOM     80  C   UNL A   1      51.924  26.113  24.783  1.00  0.00     0.022 A 
BRANCH  78  81
ATOM     81  S   UNL A   1      51.521  27.109  22.266  1.00  0.00     0.127 S 
ATOM     82  O   UNL A   1      51.703  28.558  22.263  1.00  0.00    -0.237 OA
ATOM     83  O   UNL A   1      52.758  26.331  22.174  1.00  0.00    -0.237 OA
ATOM     84  O   UNL A   1      50.434  26.606  21.439  1.00  0.00    -0.744 OA
ENDBRANCH  78  81
ENDBRANCH  50  74
BRANCH  62  85
ATOM     85  C   UNL A   1      46.595  32.415  28.824  1.00  0.00     0.023 A 
ATOM     86  C   UNL A   1      47.199  32.569  30.087  1.00  0.00     0.012 A 
ATOM     87  C   UNL A   1      46.604  33.489  27.913  1.00  0.00     0.148 A 
ATOM     88  C   UNL A   1      47.771  33.786  30.452  1.00  0.00     0.002 A 
ATOM     89  C   UNL A   1      47.227  34.679  28.261  1.00  0.00     0.091 A 
ATOM     90  F   UNL A   1      46.010  33.324  26.722  1.00  0.00    -0.205 F 
ATOM     91  C   UNL A   1      47.797  34.836  29.536  1.00  0.00     0.022 A 
BRANCH  89  92
ATOM     92  S   UNL A   1      47.402  36.044  27.109  1.00  0.00     0.127 S 
ATOM     93  O   UNL A   1      46.138  36.754  27.295  1.00  0.00    -0.237 OA
ATOM     94  O   UNL A   1      48.577  36.741  27.632  1.00  0.00    -0.237 OA
ATOM     95  O   UNL A   1      47.592  35.441  25.796  1.00  0.00    -0.744 OA
ENDBRANCH  89  92
ENDBRANCH  62  85
ENDBRANCH  36  37
ENDBRANCH  28  31
ENDBRANCH  26  27
ENDBRANCH  25  26
ENDBRANCH   1  25
TORSDOF 18
ENDMDL
