MODEL 1
REMARK VINA RESULT:     -12.2      0.000      0.000
REMARK SMILES COc1ccc(CCNc2ncnc3sc(C(=O)NCCCCNC(=O)c4ccc(-c5c6nc(c(-c7cccc(S(=O)(=O)[O-])c7F)c7ccc([nH]7)c(-c7cccc(S(=O)(=O)[O-])c7F)c7nc(c(-c8cccc(S(=O)(=O)[O-])c8F)c8ccc5[nH]8)C=C7)C=C6)cc4)c(C)c23)cc1OC
REMARK SMILES IDX 20 1 19 2 17 3 18 4 16 6 10 7 11 8 92 9 12 10 14 11 90 12
REMARK SMILES IDX 13 13 15 14 91 15 9 16 8 18 7 19 6 20 3 21 4 22 94 23 5 24
REMARK SMILES IDX 93 25 2 26 1 27 95 28 96 29 21 30 22 31 23 32 24 33 25 34
REMARK SMILES IDX 26 36 27 37 28 38 89 39 29 40 88 41 30 42 31 43 32 44 82 45
REMARK SMILES IDX 33 46 87 47 81 48 83 49 34 50 86 51 80 52 79 53 35 55 67 56
REMARK SMILES IDX 47 57 66 58 48 59 51 60 65 61 84 62 49 63 50 64 64 66 85 67
REMARK SMILES IDX 52 68 36 69 37 70 45 71 38 72 40 73 46 74 39 75 41 76 42 77
REMARK SMILES IDX 43 78 44 79 68 80 69 81 77 82 70 83 72 84 78 85 71 86 73 87
REMARK SMILES IDX 74 88 75 89 76 90 53 91 54 92 62 93 55 94 57 95 63 96 56 97
REMARK SMILES IDX 58 98 59 99 60 100 61 101
REMARK H PARENT 19 5 9 17 24 35 83 54 51 65
REMARK Flexibility Score: inf
ROOT
ATOM      1  C   UNL A   1      31.223  30.025  25.000  1.00  0.00     0.116 C 
ENDROOT
BRANCH   1   2
ATOM      2  N   UNL A   1      32.366  29.610  24.225  1.00  0.00    -0.351 N 
ATOM      3  C   UNL A   1      33.086  28.444  24.173  1.00  0.00     0.261 C 
ATOM      4  O   UNL A   1      34.174  28.559  23.602  1.00  0.00    -0.268 OA
ATOM      5  H   UNL A   1      32.696  30.303  23.609  1.00  0.00     0.163 HD
BRANCH   3   6
ATOM      6  C   UNL A   1      32.618  27.159  24.705  1.00  0.00     0.098 A 
ATOM      7  C   UNL A   1      31.115  23.700  24.474  1.00  0.00     0.138 A 
ATOM      8  N   UNL A   1      30.616  22.971  25.497  1.00  0.00    -0.219 NA
ATOM      9  C   UNL A   1      31.700  24.961  24.762  1.00  0.00     0.057 A 
ATOM     10  C   UNL A   1      30.772  23.426  26.749  1.00  0.00     0.225 A 
ATOM     11  C   UNL A   1      31.810  25.279  26.103  1.00  0.00     0.129 A 
ATOM     12  C   UNL A   1      32.180  26.071  23.943  1.00  0.00    -0.014 A 
ATOM     13  N   UNL A   1      31.387  24.543  27.143  1.00  0.00    -0.225 NA
ATOM     14  S   UNL A   1      32.603  26.751  26.363  1.00  0.00    -0.110 S 
ATOM     15  C   UNL A   1      32.111  26.066  22.452  1.00  0.00     0.047 C 
BRANCH   7  16
ATOM     16  N   UNL A   1      31.071  23.175  23.204  1.00  0.00    -0.369 N 
ATOM     17  H   UNL A   1      30.388  23.515  22.581  1.00  0.00     0.162 HD
BRANCH  16  18
ATOM     18  C   UNL A   1      31.982  22.147  22.734  1.00  0.00     0.119 C 
BRANCH  18  19
ATOM     19  C   UNL A   1      33.318  22.761  22.251  1.00  0.00     0.057 C 
BRANCH  19  20
ATOM     20  C   UNL A   1      34.460  22.724  23.251  1.00  0.00    -0.042 A 
ATOM     21  C   UNL A   1      36.624  22.616  25.068  1.00  0.00     0.160 A 
ATOM     22  C   UNL A   1      36.766  23.259  23.843  1.00  0.00     0.051 A 
ATOM     23  C   UNL A   1      35.399  22.025  25.405  1.00  0.00     0.160 A 
ATOM     24  C   UNL A   1      35.701  23.282  22.948  1.00  0.00     0.008 A 
ATOM     25  C   UNL A   1      34.327  22.089  24.492  1.00  0.00     0.054 A 
BRANCH  21  26
ATOM     26  O   UNL A   1      37.679  22.651  25.939  1.00  0.00    -0.493 OA
ATOM     27  C   UNL A   1      38.530  21.511  25.789  1.00  0.00     0.278 C 
ENDBRANCH  21  26
BRANCH  23  28
ATOM     28  O   UNL A   1      35.080  21.367  26.565  1.00  0.00    -0.493 OA
ATOM     29  C   UNL A   1      33.701  21.208  26.863  1.00  0.00     0.278 C 
ENDBRANCH  23  28
ENDBRANCH  19  20
ENDBRANCH  18  19
ENDBRANCH  16  18
ENDBRANCH   7  16
ENDBRANCH   3   6
ENDBRANCH   1   2
BRANCH   1  30
ATOM     30  C   UNL A   1      31.659  30.453  26.405  1.00  0.00     0.023 C 
BRANCH  30  31
ATOM     31  C   UNL A   1      31.451  31.944  26.716  1.00  0.00     0.023 C 
BRANCH  31  32
ATOM     32  C   UNL A   1      32.732  32.714  27.017  1.00  0.00     0.116 C 
BRANCH  32  33
ATOM     33  N   UNL A   1      32.471  34.023  27.621  1.00  0.00    -0.352 N 
ATOM     34  C   UNL A   1      33.057  34.584  28.743  1.00  0.00     0.251 C 
ATOM     35  H   UNL A   1      31.791  34.575  27.171  1.00  0.00     0.163 HD
ATOM     36  O   UNL A   1      32.518  35.490  29.352  1.00  0.00    -0.269 OA
BRANCH  34  37
ATOM     37  C   UNL A   1      34.369  34.068  29.167  1.00  0.00     0.039 A 
ATOM     38  C   UNL A   1      34.507  33.207  30.258  1.00  0.00     0.014 A 
ATOM     39  C   UNL A   1      35.468  34.433  28.398  1.00  0.00     0.014 A 
ATOM     40  C   UNL A   1      35.757  32.647  30.511  1.00  0.00     0.010 A 
ATOM     41  C   UNL A   1      36.649  33.758  28.542  1.00  0.00     0.010 A 
ATOM     42  C   UNL A   1      36.819  32.912  29.633  1.00  0.00    -0.014 A 
BRANCH  42  43
ATOM     43  C   UNL A   1      38.098  32.226  29.763  1.00  0.00     0.031 A 
ATOM     44  C   UNL A   1      38.119  30.841  29.218  1.00  0.00     0.074 A 
ATOM     45  C   UNL A   1      39.227  32.883  30.115  1.00  0.00     0.049 A 
ATOM     46  N   UNL A   1      38.234  29.736  29.877  1.00  0.00    -0.248 NA
ATOM     47  C   UNL A   1      37.824  30.650  27.788  1.00  0.00     0.031 C 
ATOM     48  C   UNL A   1      39.393  34.324  30.353  1.00  0.00     0.029 A 
ATOM     49  N   UNL A   1      40.506  32.424  30.175  1.00  0.00    -0.354 N 
ATOM     50  C   UNL A   1      38.286  28.728  28.915  1.00  0.00     0.074 A 
ATOM     51  C   UNL A   1      37.801  29.319  27.696  1.00  0.00     0.031 C 
ATOM     52  C   UNL A   1      40.699  34.650  30.257  1.00  0.00     0.029 A 
ATOM     53  C   UNL A   1      41.469  33.428  30.143  1.00  0.00     0.049 A 
ATOM     54  H   UNL A   1      40.730  31.468  30.235  1.00  0.00     0.167 HD
ATOM     55  C   UNL A   1      38.984  27.579  29.137  1.00  0.00     0.034 A 
ATOM     56  C   UNL A   1      42.805  33.269  29.987  1.00  0.00     0.034 A 
ATOM     57  C   UNL A   1      39.342  27.456  30.530  1.00  0.00     0.049 A 
ATOM     58  C   UNL A   1      43.118  31.871  30.355  1.00  0.00     0.074 A 
ATOM     59  C   UNL A   1      38.656  27.391  31.724  1.00  0.00     0.029 A 
ATOM     60  N   UNL A   1      40.638  27.784  30.851  1.00  0.00    -0.354 N 
ATOM     61  N   UNL A   1      42.972  31.399  31.561  1.00  0.00    -0.248 NA
ATOM     62  C   UNL A   1      43.173  30.880  29.294  1.00  0.00     0.031 C 
ATOM     63  C   UNL A   1      39.456  28.129  32.647  1.00  0.00     0.029 A 
ATOM     64  C   UNL A   1      40.615  28.543  31.988  1.00  0.00     0.049 A 
ATOM     65  H   UNL A   1      41.442  27.518  30.350  1.00  0.00     0.167 HD
ATOM     66  C   UNL A   1      42.442  30.130  31.367  1.00  0.00     0.074 A 
ATOM     67  C   UNL A   1      42.714  29.819  29.965  1.00  0.00     0.031 C 
ATOM     68  C   UNL A   1      41.577  29.587  32.275  1.00  0.00     0.034 A 
BRANCH  55  69
ATOM     69  C   UNL A   1      39.715  26.762  28.087  1.00  0.00     0.023 A 
ATOM     70  C   UNL A   1      39.500  25.362  28.106  1.00  0.00     0.012 A 
ATOM     71  C   UNL A   1      40.796  27.225  27.302  1.00  0.00     0.148 A 
ATOM     72  C   UNL A   1      40.363  24.471  27.459  1.00  0.00     0.002 A 
ATOM     73  C   UNL A   1      41.609  26.338  26.600  1.00  0.00     0.091 A 
ATOM     74  F   UNL A   1      41.139  28.513  27.319  1.00  0.00    -0.205 F 
ATOM     75  C   UNL A   1      41.420  24.960  26.706  1.00  0.00     0.022 A 
BRANCH  73  76
ATOM     76  S   UNL A   1      42.970  26.916  25.575  1.00  0.00     0.127 S 
ATOM     77  O   UNL A   1      43.868  27.482  26.577  1.00  0.00    -0.237 OA
ATOM     78  O   UNL A   1      43.429  25.669  24.962  1.00  0.00    -0.237 OA
ATOM     79  O   UNL A   1      42.380  27.862  24.636  1.00  0.00    -0.744 OA
ENDBRANCH  73  76
ENDBRANCH  55  69
BRANCH  56  80
ATOM     80  C   UNL A   1      43.787  34.150  29.317  1.00  0.00     0.023 A 
ATOM     81  C   UNL A   1      44.435  35.165  30.049  1.00  0.00     0.012 A 
ATOM     82  C   UNL A   1      44.295  33.818  28.041  1.00  0.00     0.148 A 
ATOM     83  C   UNL A   1      45.571  35.806  29.540  1.00  0.00     0.002 A 
ATOM     84  C   UNL A   1      45.422  34.461  27.536  1.00  0.00     0.091 A 
ATOM     85  F   UNL A   1      43.727  32.811  27.364  1.00  0.00    -0.205 F 
ATOM     86  C   UNL A   1      46.070  35.449  28.289  1.00  0.00     0.022 A 
BRANCH  84  87
ATOM     87  S   UNL A   1      46.142  34.033  25.945  1.00  0.00     0.127 S 
ATOM     88  O   UNL A   1      47.354  34.852  25.933  1.00  0.00    -0.237 OA
ATOM     89  O   UNL A   1      46.373  32.599  26.093  1.00  0.00    -0.237 OA
ATOM     90  O   UNL A   1      45.152  34.411  24.944  1.00  0.00    -0.744 OA
ENDBRANCH  84  87
ENDBRANCH  56  80
BRANCH  68  91
ATOM     91  C   UNL A   1      41.425  30.277  33.609  1.00  0.00     0.023 A 
ATOM     92  C   UNL A   1      42.387  30.168  34.635  1.00  0.00     0.012 A 
ATOM     93  C   UNL A   1      40.376  31.197  33.759  1.00  0.00     0.148 A 
ATOM     94  C   UNL A   1      42.294  30.947  35.792  1.00  0.00     0.002 A 
ATOM     95  C   UNL A   1      40.311  32.004  34.888  1.00  0.00     0.091 A 
ATOM     96  F   UNL A   1      39.474  31.294  32.771  1.00  0.00    -0.205 F 
ATOM     97  C   UNL A   1      41.263  31.875  35.913  1.00  0.00     0.022 A 
BRANCH  95  98
ATOM     98  S   UNL A   1      39.086  33.304  35.043  1.00  0.00     0.127 S 
ATOM     99  O   UNL A   1      37.913  32.564  35.504  1.00  0.00    -0.237 OA
ATOM    100  O   UNL A   1      39.688  34.184  36.046  1.00  0.00    -0.237 OA
ATOM    101  O   UNL A   1      38.968  33.904  33.721  1.00  0.00    -0.744 OA
ENDBRANCH  95  98
ENDBRANCH  68  91
ENDBRANCH  42  43
ENDBRANCH  34  37
ENDBRANCH  32  33
ENDBRANCH  31  32
ENDBRANCH  30  31
ENDBRANCH   1  30
TORSDOF 20
ENDMDL
MODEL 2
REMARK VINA RESULT:     -11.0      3.421      7.365
REMARK SMILES COc1ccc(CCNc2ncnc3sc(C(=O)NCCCCNC(=O)c4ccc(-c5c6nc(c(-c7cccc(S(=O)(=O)[O-])c7F)c7ccc([nH]7)c(-c7cccc(S(=O)(=O)[O-])c7F)c7nc(c(-c8cccc(S(=O)(=O)[O-])c8F)c8ccc5[nH]8)C=C7)C=C6)cc4)c(C)c23)cc1OC
REMARK SMILES IDX 20 1 19 2 17 3 18 4 16 6 10 7 11 8 92 9 12 10 14 11 90 12
REMARK SMILES IDX 13 13 15 14 91 15 9 16 8 18 7 19 6 20 3 21 4 22 94 23 5 24
REMARK SMILES IDX 93 25 2 26 1 27 95 28 96 29 21 30 22 31 23 32 24 33 25 34
REMARK SMILES IDX 26 36 27 37 28 38 89 39 29 40 88 41 30 42 31 43 32 44 82 45
REMARK SMILES IDX 33 46 87 47 81 48 83 49 34 50 86 51 80 52 79 53 35 55 67 56
REMARK SMILES IDX 47 57 66 58 48 59 51 60 65 61 84 62 49 63 50 64 64 66 85 67
REMARK SMILES IDX 52 68 36 69 37 70 45 71 38 72 40 73 46 74 39 75 41 76 42 77
REMARK SMILES IDX 43 78 44 79 68 80 69 81 77 82 70 83 72 84 78 85 71 86 73 87
REMARK SMILES IDX 74 88 75 89 76 90 53 91 54 92 62 93 55 94 57 95 63 96 56 97
REMARK SMILES IDX 58 98 59 99 60 100 61 101
REMARK H PARENT 19 5 9 17 24 35 83 54 51 65
REMARK Flexibility Score: inf
ROOT
ATOM      1  C   UNL A   1      34.218  28.714  26.440  1.00  0.00     0.116 C 
ENDROOT
BRANCH   1   2
ATOM      2  N   UNL A   1      32.952  29.222  25.969  1.00  0.00    -0.351 N 
ATOM      3  C   UNL A   1      32.119  28.849  24.946  1.00  0.00     0.261 C 
ATOM      4  O   UNL A   1      31.269  29.699  24.664  1.00  0.00    -0.268 OA
ATOM      5  H   UNL A   1      32.621  29.991  26.485  1.00  0.00     0.163 HD
BRANCH   3   6
ATOM      6  C   UNL A   1      32.183  27.555  24.256  1.00  0.00     0.098 A 
ATOM      7  C   UNL A   1      31.583  23.844  23.874  1.00  0.00     0.138 A 
ATOM      8  N   UNL A   1      32.191  23.019  22.994  1.00  0.00    -0.219 NA
ATOM      9  C   UNL A   1      31.891  25.230  23.829  1.00  0.00     0.057 A 
ATOM     10  C   UNL A   1      32.993  23.551  22.060  1.00  0.00     0.225 A 
ATOM     11  C   UNL A   1      32.715  25.628  22.793  1.00  0.00     0.129 A 
ATOM     12  C   UNL A   1      31.579  26.370  24.687  1.00  0.00    -0.014 A 
ATOM     13  N   UNL A   1      33.278  24.839  21.863  1.00  0.00    -0.225 NA
ATOM     14  S   UNL A   1      32.956  27.302  22.755  1.00  0.00    -0.110 S 
ATOM     15  C   UNL A   1      30.779  26.244  25.940  1.00  0.00     0.047 C 
BRANCH   7  16
ATOM     16  N   UNL A   1      30.663  23.318  24.749  1.00  0.00    -0.369 N 
ATOM     17  H   UNL A   1      29.732  23.637  24.699  1.00  0.00     0.162 HD
BRANCH  16  18
ATOM     18  C   UNL A   1      30.993  22.312  25.743  1.00  0.00     0.119 C 
BRANCH  18  19
ATOM     19  C   UNL A   1      32.175  22.770  26.630  1.00  0.00     0.057 C 
BRANCH  19  20
ATOM     20  C   UNL A   1      33.559  22.401  26.126  1.00  0.00    -0.042 A 
ATOM     21  C   UNL A   1      36.144  21.672  25.242  1.00  0.00     0.160 A 
ATOM     22  C   UNL A   1      35.138  20.716  25.335  1.00  0.00     0.051 A 
ATOM     23  C   UNL A   1      35.872  23.004  25.583  1.00  0.00     0.160 A 
ATOM     24  C   UNL A   1      33.877  21.084  25.796  1.00  0.00     0.008 A 
ATOM     25  C   UNL A   1      34.578  23.354  26.018  1.00  0.00     0.054 A 
BRANCH  21  26
ATOM     26  O   UNL A   1      37.359  21.282  24.745  1.00  0.00    -0.493 OA
ATOM     27  C   UNL A   1      37.616  19.898  24.996  1.00  0.00     0.278 C 
ENDBRANCH  21  26
BRANCH  23  28
ATOM     28  O   UNL A   1      36.733  24.070  25.540  1.00  0.00    -0.493 OA
ATOM     29  C   UNL A   1      38.005  23.902  26.146  1.00  0.00     0.278 C 
ENDBRANCH  23  28
ENDBRANCH  19  20
ENDBRANCH  18  19
ENDBRANCH  16  18
ENDBRANCH   7  16
ENDBRANCH   3   6
ENDBRANCH   1   2
BRANCH   1  30
ATOM     30  C   UNL A   1      34.891  29.734  27.362  1.00  0.00     0.023 C 
BRANCH  30  31
ATOM     31  C   UNL A   1      34.080  31.018  27.603  1.00  0.00     0.023 C 
BRANCH  31  32
ATOM     32  C   UNL A   1      34.906  32.213  28.066  1.00  0.00     0.116 C 
BRANCH  32  33
ATOM     33  N   UNL A   1      34.699  32.523  29.482  1.00  0.00    -0.352 N 
ATOM     34  C   UNL A   1      35.311  31.953  30.586  1.00  0.00     0.251 C 
ATOM     35  H   UNL A   1      34.039  33.228  29.675  1.00  0.00     0.163 HD
ATOM     36  O   UNL A   1      34.810  32.023  31.694  1.00  0.00    -0.269 OA
BRANCH  34  37
ATOM     37  C   UNL A   1      36.604  31.278  30.385  1.00  0.00     0.039 A 
ATOM     38  C   UNL A   1      37.751  31.977  30.005  1.00  0.00     0.014 A 
ATOM     39  C   UNL A   1      36.649  29.913  30.644  1.00  0.00     0.014 A 
ATOM     40  C   UNL A   1      38.967  31.298  29.975  1.00  0.00     0.010 A 
ATOM     41  C   UNL A   1      37.859  29.289  30.777  1.00  0.00     0.010 A 
ATOM     42  C   UNL A   1      39.014  29.956  30.383  1.00  0.00    -0.014 A 
BRANCH  42  43
ATOM     43  C   UNL A   1      40.282  29.251  30.522  1.00  0.00     0.031 A 
ATOM     44  C   UNL A   1      40.842  29.245  31.901  1.00  0.00     0.074 A 
ATOM     45  C   UNL A   1      40.769  28.460  29.540  1.00  0.00     0.049 A 
ATOM     46  N   UNL A   1      41.909  29.841  32.321  1.00  0.00    -0.248 NA
ATOM     47  C   UNL A   1      40.044  28.633  32.976  1.00  0.00     0.031 C 
ATOM     48  C   UNL A   1      40.133  28.124  28.257  1.00  0.00     0.029 A 
ATOM     49  N   UNL A   1      41.865  27.655  29.546  1.00  0.00    -0.354 N 
ATOM     50  C   UNL A   1      42.051  29.461  33.655  1.00  0.00     0.074 A 
ATOM     51  C   UNL A   1      40.777  28.926  34.053  1.00  0.00     0.031 C 
ATOM     52  C   UNL A   1      40.699  27.007  27.752  1.00  0.00     0.029 A 
ATOM     53  C   UNL A   1      41.847  26.665  28.569  1.00  0.00     0.049 A 
ATOM     54  H   UNL A   1      42.605  27.764  30.186  1.00  0.00     0.167 HD
ATOM     55  C   UNL A   1      43.283  29.364  34.231  1.00  0.00     0.034 A 
ATOM     56  C   UNL A   1      42.690  25.610  28.464  1.00  0.00     0.034 A 
ATOM     57  C   UNL A   1      44.289  29.983  33.402  1.00  0.00     0.049 A 
ATOM     58  C   UNL A   1      43.905  25.952  29.234  1.00  0.00     0.074 A 
ATOM     59  C   UNL A   1      44.512  31.248  32.900  1.00  0.00     0.029 A 
ATOM     60  N   UNL A   1      45.060  29.130  32.648  1.00  0.00    -0.354 N 
ATOM     61  N   UNL A   1      44.711  26.921  28.905  1.00  0.00    -0.248 NA
ATOM     62  C   UNL A   1      43.989  25.505  30.614  1.00  0.00     0.031 C 
ATOM     63  C   UNL A   1      45.039  31.034  31.591  1.00  0.00     0.029 A 
ATOM     64  C   UNL A   1      45.173  29.658  31.392  1.00  0.00     0.049 A 
ATOM     65  H   UNL A   1      45.461  28.288  32.959  1.00  0.00     0.167 HD
ATOM     66  C   UNL A   1      45.042  27.515  30.117  1.00  0.00     0.074 A 
ATOM     67  C   UNL A   1      44.680  26.526  31.130  1.00  0.00     0.031 C 
ATOM     68  C   UNL A   1      45.293  28.856  30.193  1.00  0.00     0.034 A 
BRANCH  55  69
ATOM     69  C   UNL A   1      43.687  28.374  35.310  1.00  0.00     0.023 A 
ATOM     70  C   UNL A   1      44.398  28.895  36.417  1.00  0.00     0.012 A 
ATOM     71  C   UNL A   1      43.679  26.967  35.169  1.00  0.00     0.148 A 
ATOM     72  C   UNL A   1      45.135  28.074  37.279  1.00  0.00     0.002 A 
ATOM     73  C   UNL A   1      44.353  26.149  36.071  1.00  0.00     0.091 A 
ATOM     74  F   UNL A   1      43.131  26.400  34.094  1.00  0.00    -0.205 F 
ATOM     75  C   UNL A   1      45.112  26.698  37.105  1.00  0.00     0.022 A 
BRANCH  73  76
ATOM     76  S   UNL A   1      44.327  24.356  35.919  1.00  0.00     0.127 S 
ATOM     77  O   UNL A   1      42.893  24.086  35.907  1.00  0.00    -0.237 OA
ATOM     78  O   UNL A   1      45.008  24.158  34.639  1.00  0.00    -0.237 OA
ATOM     79  O   UNL A   1      45.065  23.854  37.072  1.00  0.00    -0.744 OA
ENDBRANCH  73  76
ENDBRANCH  55  69
BRANCH  56  80
ATOM     80  C   UNL A   1      42.431  24.244  27.958  1.00  0.00     0.023 A 
ATOM     81  C   UNL A   1      41.178  23.637  28.181  1.00  0.00     0.012 A 
ATOM     82  C   UNL A   1      43.304  23.649  27.020  1.00  0.00     0.148 A 
ATOM     83  C   UNL A   1      40.796  22.494  27.469  1.00  0.00     0.002 A 
ATOM     84  C   UNL A   1      42.922  22.509  26.318  1.00  0.00     0.091 A 
ATOM     85  F   UNL A   1      44.469  24.253  26.753  1.00  0.00    -0.205 F 
ATOM     86  C   UNL A   1      41.662  21.935  26.532  1.00  0.00     0.022 A 
BRANCH  84  87
ATOM     87  S   UNL A   1      43.972  21.750  25.072  1.00  0.00     0.127 S 
ATOM     88  O   UNL A   1      45.291  21.827  25.701  1.00  0.00    -0.237 OA
ATOM     89  O   UNL A   1      43.413  20.404  24.983  1.00  0.00    -0.237 OA
ATOM     90  O   UNL A   1      43.830  22.571  23.876  1.00  0.00    -0.744 OA
ENDBRANCH  84  87
ENDBRANCH  56  80
BRANCH  68  91
ATOM     91  C   UNL A   1      45.468  29.618  28.902  1.00  0.00     0.023 A 
ATOM     92  C   UNL A   1      44.376  30.038  28.113  1.00  0.00     0.012 A 
ATOM     93  C   UNL A   1      46.754  30.073  28.575  1.00  0.00     0.148 A 
ATOM     94  C   UNL A   1      44.567  30.878  27.012  1.00  0.00     0.002 A 
ATOM     95  C   UNL A   1      46.936  30.946  27.509  1.00  0.00     0.091 A 
ATOM     96  F   UNL A   1      47.780  29.671  29.340  1.00  0.00    -0.205 F 
ATOM     97  C   UNL A   1      45.846  31.343  26.719  1.00  0.00     0.022 A 
BRANCH  95  98
ATOM     98  S   UNL A   1      48.535  31.679  27.160  1.00  0.00     0.127 S 
ATOM     99  O   UNL A   1      48.204  32.655  26.125  1.00  0.00    -0.237 OA
ATOM    100  O   UNL A   1      48.903  32.258  28.454  1.00  0.00    -0.237 OA
ATOM    101  O   UNL A   1      49.395  30.583  26.735  1.00  0.00    -0.744 OA
ENDBRANCH  95  98
ENDBRANCH  68  91
ENDBRANCH  42  43
ENDBRANCH  34  37
ENDBRANCH  32  33
ENDBRANCH  31  32
ENDBRANCH  30  31
ENDBRANCH   1  30
TORSDOF 20
ENDMDL
MODEL 3
REMARK VINA RESULT:     -10.9      1.726      2.019
REMARK SMILES COc1ccc(CCNc2ncnc3sc(C(=O)NCCCCNC(=O)c4ccc(-c5c6nc(c(-c7cccc(S(=O)(=O)[O-])c7F)c7ccc([nH]7)c(-c7cccc(S(=O)(=O)[O-])c7F)c7nc(c(-c8cccc(S(=O)(=O)[O-])c8F)c8ccc5[nH]8)C=C7)C=C6)cc4)c(C)c23)cc1OC
REMARK SMILES IDX 20 1 19 2 17 3 18 4 16 6 10 7 11 8 92 9 12 10 14 11 90 12
REMARK SMILES IDX 13 13 15 14 91 15 9 16 8 18 7 19 6 20 3 21 4 22 94 23 5 24
REMARK SMILES IDX 93 25 2 26 1 27 95 28 96 29 21 30 22 31 23 32 24 33 25 34
REMARK SMILES IDX 26 36 27 37 28 38 89 39 29 40 88 41 30 42 31 43 32 44 82 45
REMARK SMILES IDX 33 46 87 47 81 48 83 49 34 50 86 51 80 52 79 53 35 55 67 56
REMARK SMILES IDX 47 57 66 58 48 59 51 60 65 61 84 62 49 63 50 64 64 66 85 67
REMARK SMILES IDX 52 68 36 69 37 70 45 71 38 72 40 73 46 74 39 75 41 76 42 77
REMARK SMILES IDX 43 78 44 79 68 80 69 81 77 82 70 83 72 84 78 85 71 86 73 87
REMARK SMILES IDX 74 88 75 89 76 90 53 91 54 92 62 93 55 94 57 95 63 96 56 97
REMARK SMILES IDX 58 98 59 99 60 100 61 101
REMARK H PARENT 19 5 9 17 24 35 83 54 51 65
REMARK Flexibility Score: inf
ROOT
ATOM      1  C   UNL A   1      31.429  30.114  25.173  1.00  0.00     0.116 C 
ENDROOT
BRANCH   1   2
ATOM      2  N   UNL A   1      32.562  29.682  24.391  1.00  0.00    -0.351 N 
ATOM      3  C   UNL A   1      33.228  28.488  24.293  1.00  0.00     0.261 C 
ATOM      4  O   UNL A   1      34.327  28.577  23.739  1.00  0.00    -0.268 OA
ATOM      5  H   UNL A   1      32.932  30.386  23.812  1.00  0.00     0.163 HD
BRANCH   3   6
ATOM      6  C   UNL A   1      32.694  27.202  24.760  1.00  0.00     0.098 A 
ATOM      7  C   UNL A   1      30.964  23.867  24.367  1.00  0.00     0.138 A 
ATOM      8  N   UNL A   1      30.451  23.107  25.359  1.00  0.00    -0.219 NA
ATOM      9  C   UNL A   1      31.638  25.068  24.712  1.00  0.00     0.057 A 
ATOM     10  C   UNL A   1      30.674  23.469  26.630  1.00  0.00     0.225 A 
ATOM     11  C   UNL A   1      31.810  25.291  26.065  1.00  0.00     0.129 A 
ATOM     12  C   UNL A   1      32.163  26.196  23.947  1.00  0.00    -0.014 A 
ATOM     13  N   UNL A   1      31.372  24.517  27.072  1.00  0.00    -0.225 NA
ATOM     14  S   UNL A   1      32.704  26.690  26.388  1.00  0.00    -0.110 S 
ATOM     15  C   UNL A   1      32.047  26.291  22.463  1.00  0.00     0.047 C 
BRANCH   7  16
ATOM     16  N   UNL A   1      30.846  23.429  23.069  1.00  0.00    -0.369 N 
ATOM     17  H   UNL A   1      30.176  23.859  22.488  1.00  0.00     0.162 HD
BRANCH  16  18
ATOM     18  C   UNL A   1      31.661  22.366  22.509  1.00  0.00     0.119 C 
BRANCH  18  19
ATOM     19  C   UNL A   1      33.063  22.886  22.112  1.00  0.00     0.057 C 
BRANCH  19  20
ATOM     20  C   UNL A   1      34.158  22.682  23.144  1.00  0.00    -0.042 A 
ATOM     21  C   UNL A   1      36.245  22.299  25.013  1.00  0.00     0.160 A 
ATOM     22  C   UNL A   1      36.220  23.434  24.209  1.00  0.00     0.051 A 
ATOM     23  C   UNL A   1      35.225  21.344  24.899  1.00  0.00     0.160 A 
ATOM     24  C   UNL A   1      35.202  23.597  23.276  1.00  0.00     0.008 A 
ATOM     25  C   UNL A   1      34.189  21.549  23.966  1.00  0.00     0.054 A 
BRANCH  21  26
ATOM     26  O   UNL A   1      37.238  22.193  25.949  1.00  0.00    -0.493 OA
ATOM     27  C   UNL A   1      38.426  21.615  25.400  1.00  0.00     0.278 C 
ENDBRANCH  21  26
BRANCH  23  28
ATOM     28  O   UNL A   1      35.084  20.183  25.614  1.00  0.00    -0.493 OA
ATOM     29  C   UNL A   1      34.189  19.208  25.099  1.00  0.00     0.278 C 
ENDBRANCH  23  28
ENDBRANCH  19  20
ENDBRANCH  18  19
ENDBRANCH  16  18
ENDBRANCH   7  16
ENDBRANCH   3   6
ENDBRANCH   1   2
BRANCH   1  30
ATOM     30  C   UNL A   1      31.843  30.340  26.630  1.00  0.00     0.023 C 
BRANCH  30  31
ATOM     31  C   UNL A   1      31.543  31.746  27.174  1.00  0.00     0.023 C 
BRANCH  31  32
ATOM     32  C   UNL A   1      32.653  32.766  26.943  1.00  0.00     0.116 C 
BRANCH  32  33
ATOM     33  N   UNL A   1      32.364  34.060  27.564  1.00  0.00    -0.352 N 
ATOM     34  C   UNL A   1      32.936  34.617  28.695  1.00  0.00     0.251 C 
ATOM     35  H   UNL A   1      31.673  34.604  27.121  1.00  0.00     0.163 HD
ATOM     36  O   UNL A   1      32.377  35.504  29.315  1.00  0.00    -0.269 OA
BRANCH  34  37
ATOM     37  C   UNL A   1      34.258  34.123  29.114  1.00  0.00     0.039 A 
ATOM     38  C   UNL A   1      34.408  33.208  30.157  1.00  0.00     0.014 A 
ATOM     39  C   UNL A   1      35.357  34.569  28.387  1.00  0.00     0.014 A 
ATOM     40  C   UNL A   1      35.673  32.676  30.402  1.00  0.00     0.010 A 
ATOM     41  C   UNL A   1      36.558  33.928  28.516  1.00  0.00     0.010 A 
ATOM     42  C   UNL A   1      36.739  33.028  29.561  1.00  0.00    -0.014 A 
BRANCH  42  43
ATOM     43  C   UNL A   1      38.039  32.380  29.676  1.00  0.00     0.031 A 
ATOM     44  C   UNL A   1      38.076  30.970  29.199  1.00  0.00     0.074 A 
ATOM     45  C   UNL A   1      39.163  33.079  29.952  1.00  0.00     0.049 A 
ATOM     46  N   UNL A   1      38.243  29.902  29.907  1.00  0.00    -0.248 NA
ATOM     47  C   UNL A   1      37.734  30.701  27.792  1.00  0.00     0.031 C 
ATOM     48  C   UNL A   1      39.300  34.535  30.114  1.00  0.00     0.029 A 
ATOM     49  N   UNL A   1      40.455  32.655  29.987  1.00  0.00    -0.354 N 
ATOM     50  C   UNL A   1      38.286  28.849  28.994  1.00  0.00     0.074 A 
ATOM     51  C   UNL A   1      37.742  29.366  27.767  1.00  0.00     0.031 C 
ATOM     52  C   UNL A   1      40.593  34.886  29.953  1.00  0.00     0.029 A 
ATOM     53  C   UNL A   1      41.390  33.679  29.869  1.00  0.00     0.049 A 
ATOM     54  H   UNL A   1      40.705  31.709  30.086  1.00  0.00     0.167 HD
ATOM     55  C   UNL A   1      39.020  27.729  29.246  1.00  0.00     0.034 A 
ATOM     56  C   UNL A   1      42.723  33.543  29.671  1.00  0.00     0.034 A 
ATOM     57  C   UNL A   1      39.432  27.685  30.629  1.00  0.00     0.049 A 
ATOM     58  C   UNL A   1      43.085  32.174  30.095  1.00  0.00     0.074 A 
ATOM     59  C   UNL A   1      38.791  27.663  31.850  1.00  0.00     0.029 A 
ATOM     60  N   UNL A   1      40.730  28.059  30.885  1.00  0.00    -0.354 N 
ATOM     61  N   UNL A   1      42.994  31.759  31.328  1.00  0.00    -0.248 NA
ATOM     62  C   UNL A   1      43.126  31.132  29.084  1.00  0.00     0.031 C 
ATOM     63  C   UNL A   1      39.605  28.465  32.705  1.00  0.00     0.029 A 
ATOM     64  C   UNL A   1      40.729  28.873  31.983  1.00  0.00     0.049 A 
ATOM     65  H   UNL A   1      41.521  27.788  30.367  1.00  0.00     0.167 HD
ATOM     66  C   UNL A   1      42.491  30.470  31.217  1.00  0.00     0.074 A 
ATOM     67  C   UNL A   1      42.720  30.096  29.822  1.00  0.00     0.031 C 
ATOM     68  C   UNL A   1      41.673  29.953  32.182  1.00  0.00     0.034 A 
BRANCH  55  69
ATOM     69  C   UNL A   1      39.733  26.878  28.210  1.00  0.00     0.023 A 
ATOM     70  C   UNL A   1      39.526  25.479  28.284  1.00  0.00     0.012 A 
ATOM     71  C   UNL A   1      40.795  27.318  27.386  1.00  0.00     0.148 A 
ATOM     72  C   UNL A   1      40.381  24.569  27.652  1.00  0.00     0.002 A 
ATOM     73  C   UNL A   1      41.597  26.410  26.699  1.00  0.00     0.091 A 
ATOM     74  F   UNL A   1      41.131  28.607  27.350  1.00  0.00    -0.205 F 
ATOM     75  C   UNL A   1      41.419  25.036  26.858  1.00  0.00     0.022 A 
BRANCH  73  76
ATOM     76  S   UNL A   1      42.933  26.958  25.625  1.00  0.00     0.127 S 
ATOM     77  O   UNL A   1      42.207  27.752  24.640  1.00  0.00    -0.237 OA
ATOM     78  O   UNL A   1      43.763  27.726  26.554  1.00  0.00    -0.237 OA
ATOM     79  O   UNL A   1      43.562  25.740  25.130  1.00  0.00    -0.744 OA
ENDBRANCH  73  76
ENDBRANCH  55  69
BRANCH  56  80
ATOM     80  C   UNL A   1      43.657  34.413  28.923  1.00  0.00     0.023 A 
ATOM     81  C   UNL A   1      43.276  34.944  27.674  1.00  0.00     0.012 A 
ATOM     82  C   UNL A   1      44.802  34.949  29.555  1.00  0.00     0.148 A 
ATOM     83  C   UNL A   1      43.994  35.995  27.090  1.00  0.00     0.002 A 
ATOM     84  C   UNL A   1      45.514  35.990  28.970  1.00  0.00     0.091 A 
ATOM     85  F   UNL A   1      45.135  34.496  30.772  1.00  0.00    -0.205 F 
ATOM     86  C   UNL A   1      45.106  36.525  27.741  1.00  0.00     0.022 A 
BRANCH  84  87
ATOM     87  S   UNL A   1      46.941  36.746  29.763  1.00  0.00     0.127 S 
ATOM     88  O   UNL A   1      46.522  36.782  31.165  1.00  0.00    -0.237 OA
ATOM     89  O   UNL A   1      47.998  35.783  29.466  1.00  0.00    -0.237 OA
ATOM     90  O   UNL A   1      47.092  38.058  29.147  1.00  0.00    -0.744 OA
ENDBRANCH  84  87
ENDBRANCH  56  80
BRANCH  68  91
ATOM     91  C   UNL A   1      41.552  30.705  33.485  1.00  0.00     0.023 A 
ATOM     92  C   UNL A   1      40.453  31.538  33.783  1.00  0.00     0.012 A 
ATOM     93  C   UNL A   1      42.481  30.422  34.498  1.00  0.00     0.148 A 
ATOM     94  C   UNL A   1      40.295  32.089  35.058  1.00  0.00     0.002 A 
ATOM     95  C   UNL A   1      42.297  30.932  35.777  1.00  0.00     0.091 A 
ATOM     96  F   UNL A   1      43.516  29.622  34.200  1.00  0.00    -0.205 F 
ATOM     97  C   UNL A   1      41.210  31.775  36.058  1.00  0.00     0.022 A 
BRANCH  95  98
ATOM     98  S   UNL A   1      43.366  30.462  37.137  1.00  0.00     0.127 S 
ATOM     99  O   UNL A   1      43.279  29.005  37.105  1.00  0.00    -0.237 OA
ATOM    100  O   UNL A   1      44.660  31.008  36.722  1.00  0.00    -0.237 OA
ATOM    101  O   UNL A   1      42.809  31.097  38.325  1.00  0.00    -0.744 OA
ENDBRANCH  95  98
ENDBRANCH  68  91
ENDBRANCH  42  43
ENDBRANCH  34  37
ENDBRANCH  32  33
ENDBRANCH  31  32
ENDBRANCH  30  31
ENDBRANCH   1  30
TORSDOF 20
ENDMDL
