MODEL 1
REMARK VINA RESULT:     -12.8      0.000      0.000
REMARK SMILES C[C@H](C(=O)NCCCCNC(=O)c1ccc(-c2c3nc(c(-c4cccc(S(=O)(=O)[O-])c4F)c4ccc([nH]4)c(-c4cccc(S(=O)(=O)[O-])c4F)c4nc(c(-c5cccc(S(=O)(=O)[O-])c5F)c5ccc2[nH]5)C=C4)C=C3)cc1)N1C(=O)C[C@@H](N2C(=O)/C(=C/c3ccccc3)SC2=S)C1=O
REMARK SMILES IDX 7 1 6 2 5 3 3 4 4 5 2 7 1 8 76 9 77 10 95 11 78 12 79 13
REMARK SMILES IDX 80 14 96 15 81 16 82 17 93 18 83 19 84 20 92 21 94 22 85 23
REMARK SMILES IDX 86 24 87 25 91 26 88 27 90 28 89 29 8 30 9 31 10 32 11 33
REMARK SMILES IDX 12 35 13 36 14 37 75 38 15 39 74 40 16 41 17 42 18 43 68 44
REMARK SMILES IDX 19 45 73 46 67 47 69 48 20 49 72 50 66 51 65 52 21 54 53 55
REMARK SMILES IDX 33 56 52 57 34 58 37 59 51 60 70 61 35 62 36 63 50 65 71 66
REMARK SMILES IDX 38 67 22 68 23 69 31 70 24 71 26 72 32 73 25 74 27 75 28 76
REMARK SMILES IDX 29 77 30 78 54 79 55 80 63 81 56 82 58 83 64 84 57 85 59 86
REMARK SMILES IDX 60 87 61 88 62 89 39 90 40 91 48 92 41 93 43 94 49 95 42 96
REMARK SMILES IDX 44 97 45 98 46 99 47 100
REMARK H PARENT 5 6 10 34 69 53 37 64
REMARK Flexibility Score: inf
ROOT
ATOM      1  C   UNL A   1      31.465  30.740  26.051  1.00  0.00     0.023 C 
ENDROOT
BRANCH   1   2
ATOM      2  C   UNL A   1      32.849  30.103  26.006  1.00  0.00     0.116 C 
BRANCH   2   3
ATOM      3  N   UNL A   1      33.260  29.635  24.699  1.00  0.00    -0.354 N 
ATOM      4  C   UNL A   1      32.524  29.294  23.602  1.00  0.00     0.243 C 
ATOM      5  O   UNL A   1      33.164  29.144  22.552  1.00  0.00    -0.273 OA
ATOM      6  H   UNL A   1      34.234  29.546  24.584  1.00  0.00     0.163 HD
BRANCH   4   7
ATOM      7  C   UNL A   1      31.043  28.830  23.651  1.00  0.00     0.179 C 
ATOM      8  C   UNL A   1      30.427  29.374  22.350  1.00  0.00     0.042 C 
BRANCH   7   9
ATOM      9  N   UNL A   1      30.771  27.404  23.861  1.00  0.00    -0.268 N 
ATOM     10  C   UNL A   1      31.025  26.477  22.886  1.00  0.00     0.232 C 
ATOM     11  C   UNL A   1      30.801  26.785  25.088  1.00  0.00     0.253 C 
ATOM     12  O   UNL A   1      31.471  26.674  21.767  1.00  0.00    -0.274 OA
ATOM     13  C   UNL A   1      30.574  25.137  23.378  1.00  0.00     0.136 C 
ATOM     14  C   UNL A   1      30.722  25.280  24.881  1.00  0.00     0.191 C 
ATOM     15  O   UNL A   1      30.977  27.295  26.185  1.00  0.00    -0.272 OA
BRANCH  14  16
ATOM     16  N   UNL A   1      31.893  24.568  25.422  1.00  0.00    -0.280 N 
ATOM     17  C   UNL A   1      33.157  25.040  25.123  1.00  0.00     0.266 C 
ATOM     18  C   UNL A   1      31.845  23.399  26.151  1.00  0.00     0.149 C 
ATOM     19  O   UNL A   1      33.411  26.114  24.600  1.00  0.00    -0.268 OA
ATOM     20  C   UNL A   1      34.186  24.042  25.483  1.00  0.00     0.081 C 
ATOM     21  S   UNL A   1      33.480  22.776  26.391  1.00  0.00    -0.054 SA
ATOM     22  S   UNL A   1      30.503  22.581  26.708  1.00  0.00    -0.052 S 
ATOM     23  C   UNL A   1      35.442  24.183  25.042  1.00  0.00     0.029 C 
BRANCH  23  24
ATOM     24  C   UNL A   1      36.547  23.241  25.220  1.00  0.00    -0.024 A 
ATOM     25  C   UNL A   1      36.430  21.950  24.697  1.00  0.00     0.008 A 
ATOM     26  C   UNL A   1      37.681  23.582  25.967  1.00  0.00     0.008 A 
ATOM     27  C   UNL A   1      37.448  21.018  24.894  1.00  0.00     0.001 A 
ATOM     28  C   UNL A   1      38.699  22.647  26.163  1.00  0.00     0.001 A 
ATOM     29  C   UNL A   1      38.584  21.367  25.623  1.00  0.00     0.000 A 
ENDBRANCH  23  24
ENDBRANCH  14  16
ENDBRANCH   7   9
ENDBRANCH   4   7
ENDBRANCH   2   3
ENDBRANCH   1   2
BRANCH   1  30
ATOM     30  C   UNL A   1      31.397  32.192  26.527  1.00  0.00     0.023 C 
BRANCH  30  31
ATOM     31  C   UNL A   1      32.574  32.699  27.356  1.00  0.00     0.116 C 
BRANCH  31  32
ATOM     32  N   UNL A   1      32.524  34.128  27.621  1.00  0.00    -0.352 N 
ATOM     33  C   UNL A   1      33.247  34.910  28.492  1.00  0.00     0.251 C 
ATOM     34  H   UNL A   1      31.860  34.620  27.085  1.00  0.00     0.163 HD
ATOM     35  O   UNL A   1      32.937  36.094  28.617  1.00  0.00    -0.269 OA
BRANCH  33  36
ATOM     36  C   UNL A   1      34.360  34.354  29.302  1.00  0.00     0.039 A 
ATOM     37  C   UNL A   1      34.054  33.443  30.318  1.00  0.00     0.014 A 
ATOM     38  C   UNL A   1      35.690  34.734  29.102  1.00  0.00     0.014 A 
ATOM     39  C   UNL A   1      35.077  32.861  31.073  1.00  0.00     0.010 A 
ATOM     40  C   UNL A   1      36.717  34.090  29.799  1.00  0.00     0.010 A 
ATOM     41  C   UNL A   1      36.425  33.146  30.794  1.00  0.00    -0.014 A 
BRANCH  41  42
ATOM     42  C   UNL A   1      37.519  32.431  31.510  1.00  0.00     0.031 A 
ATOM     43  C   UNL A   1      38.242  31.270  30.878  1.00  0.00     0.074 A 
ATOM     44  C   UNL A   1      37.830  32.798  32.771  1.00  0.00     0.049 A 
ATOM     45  N   UNL A   1      39.234  30.560  31.355  1.00  0.00    -0.248 NA
ATOM     46  C   UNL A   1      37.779  30.830  29.552  1.00  0.00     0.031 C 
ATOM     47  C   UNL A   1      37.137  33.831  33.545  1.00  0.00     0.029 A 
ATOM     48  N   UNL A   1      38.794  32.332  33.631  1.00  0.00    -0.354 N 
ATOM     49  C   UNL A   1      39.501  29.583  30.401  1.00  0.00     0.074 A 
ATOM     50  C   UNL A   1      38.535  29.762  29.338  1.00  0.00     0.031 C 
ATOM     51  C   UNL A   1      37.705  33.928  34.757  1.00  0.00     0.029 A 
ATOM     52  C   UNL A   1      38.789  32.956  34.858  1.00  0.00     0.049 A 
ATOM     53  H   UNL A   1      39.429  31.618  33.393  1.00  0.00     0.167 HD
ATOM     54  C   UNL A   1      40.482  28.647  30.388  1.00  0.00     0.034 A 
ATOM     55  C   UNL A   1      39.571  32.775  35.941  1.00  0.00     0.034 A 
ATOM     56  C   UNL A   1      41.465  28.488  31.428  1.00  0.00     0.049 A 
ATOM     57  C   UNL A   1      40.698  31.780  35.872  1.00  0.00     0.074 A 
ATOM     58  C   UNL A   1      42.541  27.618  31.471  1.00  0.00     0.029 A 
ATOM     59  N   UNL A   1      41.493  29.212  32.610  1.00  0.00    -0.354 N 
ATOM     60  N   UNL A   1      41.040  30.987  34.886  1.00  0.00    -0.248 NA
ATOM     61  C   UNL A   1      41.576  31.689  37.048  1.00  0.00     0.031 C 
ATOM     62  C   UNL A   1      43.213  27.809  32.684  1.00  0.00     0.029 A 
ATOM     63  C   UNL A   1      42.567  28.811  33.387  1.00  0.00     0.049 A 
ATOM     64  H   UNL A   1      40.844  29.910  32.860  1.00  0.00     0.167 HD
ATOM     65  C   UNL A   1      42.185  30.323  35.311  1.00  0.00     0.074 A 
ATOM     66  C   UNL A   1      42.499  30.835  36.629  1.00  0.00     0.031 C 
ATOM     67  C   UNL A   1      42.898  29.359  34.678  1.00  0.00     0.034 A 
BRANCH  54  68
ATOM     68  C   UNL A   1      40.592  27.768  29.168  1.00  0.00     0.023 A 
ATOM     69  C   UNL A   1      39.741  26.650  29.050  1.00  0.00     0.012 A 
ATOM     70  C   UNL A   1      41.477  28.075  28.115  1.00  0.00     0.148 A 
ATOM     71  C   UNL A   1      39.790  25.833  27.921  1.00  0.00     0.002 A 
ATOM     72  C   UNL A   1      41.489  27.280  26.974  1.00  0.00     0.091 A 
ATOM     73  F   UNL A   1      42.290  29.132  28.250  1.00  0.00    -0.205 F 
ATOM     74  C   UNL A   1      40.655  26.153  26.880  1.00  0.00     0.022 A 
BRANCH  72  75
ATOM     75  S   UNL A   1      42.509  27.649  25.540  1.00  0.00     0.127 S 
ATOM     76  O   UNL A   1      43.839  27.741  26.141  1.00  0.00    -0.237 OA
ATOM     77  O   UNL A   1      42.300  26.468  24.702  1.00  0.00    -0.237 OA
ATOM     78  O   UNL A   1      41.989  28.890  24.985  1.00  0.00    -0.744 OA
ENDBRANCH  72  75
ENDBRANCH  54  68
BRANCH  55  79
ATOM     79  C   UNL A   1      39.363  33.611  37.157  1.00  0.00     0.023 A 
ATOM     80  C   UNL A   1      39.855  34.931  37.185  1.00  0.00     0.012 A 
ATOM     81  C   UNL A   1      38.656  33.118  38.271  1.00  0.00     0.148 A 
ATOM     82  C   UNL A   1      39.680  35.731  38.315  1.00  0.00     0.002 A 
ATOM     83  C   UNL A   1      38.434  33.940  39.369  1.00  0.00     0.091 A 
ATOM     84  F   UNL A   1      38.208  31.855  38.231  1.00  0.00    -0.205 F 
ATOM     85  C   UNL A   1      38.961  35.241  39.402  1.00  0.00     0.022 A 
BRANCH  83  86
ATOM     86  S   UNL A   1      37.396  33.435  40.746  1.00  0.00     0.127 S 
ATOM     87  O   UNL A   1      37.267  34.680  41.496  1.00  0.00    -0.237 OA
ATOM     88  O   UNL A   1      36.178  32.996  40.064  1.00  0.00    -0.237 OA
ATOM     89  O   UNL A   1      38.127  32.362  41.408  1.00  0.00    -0.744 OA
ENDBRANCH  83  86
ENDBRANCH  55  79
BRANCH  67  90
ATOM     90  C   UNL A   1      44.101  28.803  35.397  1.00  0.00     0.023 A 
ATOM     91  C   UNL A   1      45.381  29.329  35.122  1.00  0.00     0.012 A 
ATOM     92  C   UNL A   1      43.965  27.793  36.368  1.00  0.00     0.148 A 
ATOM     93  C   UNL A   1      46.509  28.825  35.770  1.00  0.00     0.002 A 
ATOM     94  C   UNL A   1      45.089  27.331  37.046  1.00  0.00     0.091 A 
ATOM     95  F   UNL A   1      42.744  27.289  36.604  1.00  0.00    -0.205 F 
ATOM     96  C   UNL A   1      46.362  27.835  36.738  1.00  0.00     0.022 A 
BRANCH  94  97
ATOM     97  S   UNL A   1      44.976  26.120  38.369  1.00  0.00     0.127 S 
ATOM     98  O   UNL A   1      44.758  24.882  37.624  1.00  0.00    -0.237 OA
ATOM     99  O   UNL A   1      46.291  26.226  39.003  1.00  0.00    -0.237 OA
ATOM    100  O   UNL A   1      43.868  26.555  39.209  1.00  0.00    -0.744 OA
ENDBRANCH  94  97
ENDBRANCH  67  90
ENDBRANCH  41  42
ENDBRANCH  33  36
ENDBRANCH  31  32
ENDBRANCH  30  31
ENDBRANCH   1  30
TORSDOF 17
ENDMDL
MODEL 2
REMARK VINA RESULT:     -12.4      0.823      7.497
REMARK SMILES C[C@H](C(=O)NCCCCNC(=O)c1ccc(-c2c3nc(c(-c4cccc(S(=O)(=O)[O-])c4F)c4ccc([nH]4)c(-c4cccc(S(=O)(=O)[O-])c4F)c4nc(c(-c5cccc(S(=O)(=O)[O-])c5F)c5ccc2[nH]5)C=C4)C=C3)cc1)N1C(=O)C[C@@H](N2C(=O)/C(=C/c3ccccc3)SC2=S)C1=O
REMARK SMILES IDX 7 1 6 2 5 3 3 4 4 5 2 7 1 8 76 9 77 10 95 11 78 12 79 13
REMARK SMILES IDX 80 14 96 15 81 16 82 17 93 18 83 19 84 20 92 21 94 22 85 23
REMARK SMILES IDX 86 24 87 25 91 26 88 27 90 28 89 29 8 30 9 31 10 32 11 33
REMARK SMILES IDX 12 35 13 36 14 37 75 38 15 39 74 40 16 41 17 42 18 43 68 44
REMARK SMILES IDX 19 45 73 46 67 47 69 48 20 49 72 50 66 51 65 52 21 54 53 55
REMARK SMILES IDX 33 56 52 57 34 58 37 59 51 60 70 61 35 62 36 63 50 65 71 66
REMARK SMILES IDX 38 67 22 68 23 69 31 70 24 71 26 72 32 73 25 74 27 75 28 76
REMARK SMILES IDX 29 77 30 78 54 79 55 80 63 81 56 82 58 83 64 84 57 85 59 86
REMARK SMILES IDX 60 87 61 88 62 89 39 90 40 91 48 92 41 93 43 94 49 95 42 96
REMARK SMILES IDX 44 97 45 98 46 99 47 100
REMARK H PARENT 5 6 10 34 69 53 37 64
REMARK Flexibility Score: inf
ROOT
ATOM      1  C   UNL A   1      31.586  30.523  26.465  1.00  0.00     0.023 C 
ENDROOT
BRANCH   1   2
ATOM      2  C   UNL A   1      32.955  29.869  26.319  1.00  0.00     0.116 C 
BRANCH   2   3
ATOM      3  N   UNL A   1      33.323  29.528  24.962  1.00  0.00    -0.354 N 
ATOM      4  C   UNL A   1      32.553  29.313  23.855  1.00  0.00     0.243 C 
ATOM      5  O   UNL A   1      33.163  29.259  22.779  1.00  0.00    -0.273 OA
ATOM      6  H   UNL A   1      34.292  29.435  24.811  1.00  0.00     0.163 HD
BRANCH   4   7
ATOM      7  C   UNL A   1      31.064  28.871  23.898  1.00  0.00     0.179 C 
ATOM      8  C   UNL A   1      30.457  29.443  22.605  1.00  0.00     0.042 C 
BRANCH   7   9
ATOM      9  N   UNL A   1      30.770  27.447  24.088  1.00  0.00    -0.268 N 
ATOM     10  C   UNL A   1      31.000  26.532  23.096  1.00  0.00     0.232 C 
ATOM     11  C   UNL A   1      30.801  26.808  25.305  1.00  0.00     0.253 C 
ATOM     12  O   UNL A   1      31.439  26.739  21.976  1.00  0.00    -0.274 OA
ATOM     13  C   UNL A   1      30.531  25.191  23.571  1.00  0.00     0.136 C 
ATOM     14  C   UNL A   1      30.694  25.308  25.074  1.00  0.00     0.191 C 
ATOM     15  O   UNL A   1      30.994  27.296  26.408  1.00  0.00    -0.272 OA
BRANCH  14  16
ATOM     16  N   UNL A   1      31.857  24.567  25.593  1.00  0.00    -0.280 N 
ATOM     17  C   UNL A   1      33.127  25.029  25.299  1.00  0.00     0.266 C 
ATOM     18  C   UNL A   1      31.797  23.382  26.295  1.00  0.00     0.149 C 
ATOM     19  O   UNL A   1      33.394  26.112  24.800  1.00  0.00    -0.268 OA
ATOM     20  C   UNL A   1      34.144  24.009  25.631  1.00  0.00     0.081 C 
ATOM     21  S   UNL A   1      33.424  22.732  26.513  1.00  0.00    -0.054 SA
ATOM     22  S   UNL A   1      30.446  22.571  26.840  1.00  0.00    -0.052 S 
ATOM     23  C   UNL A   1      35.400  24.143  25.188  1.00  0.00     0.029 C 
BRANCH  23  24
ATOM     24  C   UNL A   1      36.492  23.182  25.339  1.00  0.00    -0.024 A 
ATOM     25  C   UNL A   1      37.598  23.529  26.121  1.00  0.00     0.008 A 
ATOM     26  C   UNL A   1      36.486  21.959  24.657  1.00  0.00     0.008 A 
ATOM     27  C   UNL A   1      38.674  22.649  26.243  1.00  0.00     0.001 A 
ATOM     28  C   UNL A   1      37.564  21.082  24.781  1.00  0.00     0.001 A 
ATOM     29  C   UNL A   1      38.656  21.426  25.577  1.00  0.00     0.000 A 
ENDBRANCH  23  24
ENDBRANCH  14  16
ENDBRANCH   7   9
ENDBRANCH   4   7
ENDBRANCH   2   3
ENDBRANCH   1   2
BRANCH   1  30
ATOM     30  C   UNL A   1      31.568  32.045  26.610  1.00  0.00     0.023 C 
BRANCH  30  31
ATOM     31  C   UNL A   1      32.790  32.688  27.261  1.00  0.00     0.116 C 
BRANCH  31  32
ATOM     32  N   UNL A   1      32.545  34.035  27.750  1.00  0.00    -0.352 N 
ATOM     33  C   UNL A   1      33.199  34.781  28.705  1.00  0.00     0.251 C 
ATOM     34  H   UNL A   1      31.783  34.492  27.327  1.00  0.00     0.163 HD
ATOM     35  O   UNL A   1      32.725  35.870  29.028  1.00  0.00    -0.269 OA
BRANCH  33  36
ATOM     36  C   UNL A   1      34.432  34.291  29.370  1.00  0.00     0.039 A 
ATOM     37  C   UNL A   1      34.307  33.603  30.582  1.00  0.00     0.014 A 
ATOM     38  C   UNL A   1      35.706  34.521  28.844  1.00  0.00     0.014 A 
ATOM     39  C   UNL A   1      35.440  33.085  31.217  1.00  0.00     0.010 A 
ATOM     40  C   UNL A   1      36.828  33.932  29.434  1.00  0.00     0.010 A 
ATOM     41  C   UNL A   1      36.711  33.207  30.628  1.00  0.00    -0.014 A 
BRANCH  41  42
ATOM     42  C   UNL A   1      37.899  32.546  31.238  1.00  0.00     0.031 A 
ATOM     43  C   UNL A   1      38.529  33.076  32.500  1.00  0.00     0.074 A 
ATOM     44  C   UNL A   1      38.453  31.484  30.617  1.00  0.00     0.049 A 
ATOM     45  N   UNL A   1      39.547  32.603  33.174  1.00  0.00    -0.248 NA
ATOM     46  C   UNL A   1      37.962  34.311  33.068  1.00  0.00     0.031 C 
ATOM     47  C   UNL A   1      38.015  30.934  29.332  1.00  0.00     0.029 A 
ATOM     48  N   UNL A   1      39.517  30.690  30.971  1.00  0.00    -0.354 N 
ATOM     49  C   UNL A   1      39.754  33.485  34.229  1.00  0.00     0.074 A 
ATOM     50  C   UNL A   1      38.785  34.549  34.080  1.00  0.00     0.031 C 
ATOM     51  C   UNL A   1      38.793  29.887  29.013  1.00  0.00     0.029 A 
ATOM     52  C   UNL A   1      39.796  29.700  30.056  1.00  0.00     0.049 A 
ATOM     53  H   UNL A   1      40.032  30.816  31.800  1.00  0.00     0.167 HD
ATOM     54  C   UNL A   1      40.640  33.402  35.251  1.00  0.00     0.034 A 
ATOM     55  C   UNL A   1      40.746  28.744  30.057  1.00  0.00     0.034 A 
ATOM     56  C   UNL A   1      41.584  32.327  35.421  1.00  0.00     0.049 A 
ATOM     57  C   UNL A   1      41.670  28.630  31.238  1.00  0.00     0.074 A 
ATOM     58  C   UNL A   1      42.472  32.117  36.462  1.00  0.00     0.029 A 
ATOM     59  N   UNL A   1      41.765  31.283  34.528  1.00  0.00    -0.354 N 
ATOM     60  N   UNL A   1      41.730  29.376  32.314  1.00  0.00    -0.248 NA
ATOM     61  C   UNL A   1      42.626  27.512  31.229  1.00  0.00     0.031 C 
ATOM     62  C   UNL A   1      43.198  30.950  36.192  1.00  0.00     0.029 A 
ATOM     63  C   UNL A   1      42.747  30.424  34.994  1.00  0.00     0.049 A 
ATOM     64  H   UNL A   1      41.267  31.167  33.686  1.00  0.00     0.167 HD
ATOM     65  C   UNL A   1      42.709  28.806  33.119  1.00  0.00     0.074 A 
ATOM     66  C   UNL A   1      43.188  27.629  32.423  1.00  0.00     0.031 C 
ATOM     67  C   UNL A   1      43.186  29.231  34.316  1.00  0.00     0.034 A 
BRANCH  54  68
ATOM     68  C   UNL A   1      40.580  34.466  36.317  1.00  0.00     0.023 A 
ATOM     69  C   UNL A   1      41.047  35.763  36.018  1.00  0.00     0.012 A 
ATOM     70  C   UNL A   1      40.007  34.215  37.580  1.00  0.00     0.148 A 
ATOM     71  C   UNL A   1      40.976  36.783  36.966  1.00  0.00     0.002 A 
ATOM     72  C   UNL A   1      39.901  35.248  38.505  1.00  0.00     0.091 A 
ATOM     73  F   UNL A   1      39.583  32.973  37.854  1.00  0.00    -0.205 F 
ATOM     74  C   UNL A   1      40.395  36.529  38.204  1.00  0.00     0.022 A 
BRANCH  72  75
ATOM     75  S   UNL A   1      39.098  35.048  40.100  1.00  0.00     0.127 S 
ATOM     76  O   UNL A   1      38.694  36.421  40.401  1.00  0.00    -0.237 OA
ATOM     77  O   UNL A   1      37.993  34.146  39.777  1.00  0.00    -0.237 OA
ATOM     78  O   UNL A   1      40.104  34.485  40.989  1.00  0.00    -0.744 OA
ENDBRANCH  72  75
ENDBRANCH  54  68
BRANCH  55  79
ATOM     79  C   UNL A   1      40.819  27.768  28.932  1.00  0.00     0.023 A 
ATOM     80  C   UNL A   1      39.921  26.683  28.894  1.00  0.00     0.012 A 
ATOM     81  C   UNL A   1      41.750  27.924  27.888  1.00  0.00     0.148 A 
ATOM     82  C   UNL A   1      39.975  25.751  27.857  1.00  0.00     0.002 A 
ATOM     83  C   UNL A   1      41.759  27.026  26.827  1.00  0.00     0.091 A 
ATOM     84  F   UNL A   1      42.606  28.954  27.948  1.00  0.00    -0.205 F 
ATOM     85  C   UNL A   1      40.885  25.928  26.818  1.00  0.00     0.022 A 
BRANCH  83  86
ATOM     86  S   UNL A   1      42.800  27.264  25.382  1.00  0.00     0.127 S 
ATOM     87  O   UNL A   1      42.189  28.436  24.762  1.00  0.00    -0.237 OA
ATOM     88  O   UNL A   1      44.113  27.499  25.987  1.00  0.00    -0.237 OA
ATOM     89  O   UNL A   1      42.707  26.020  24.629  1.00  0.00    -0.744 OA
ENDBRANCH  83  86
ENDBRANCH  55  79
BRANCH  67  90
ATOM     90  C   UNL A   1      44.274  28.409  34.959  1.00  0.00     0.023 A 
ATOM     91  C   UNL A   1      45.612  28.579  34.546  1.00  0.00     0.012 A 
ATOM     92  C   UNL A   1      43.982  27.501  35.994  1.00  0.00     0.148 A 
ATOM     93  C   UNL A   1      46.634  27.825  35.121  1.00  0.00     0.002 A 
ATOM     94  C   UNL A   1      45.014  26.788  36.597  1.00  0.00     0.091 A 
ATOM     95  F   UNL A   1      42.703  27.336  36.363  1.00  0.00    -0.205 F 
ATOM     96  C   UNL A   1      46.336  26.938  36.153  1.00  0.00     0.022 A 
BRANCH  94  97
ATOM     97  S   UNL A   1      44.729  25.691  37.992  1.00  0.00     0.127 S 
ATOM     98  O   UNL A   1      46.048  25.658  38.621  1.00  0.00    -0.237 OA
ATOM     99  O   UNL A   1      43.708  26.412  38.754  1.00  0.00    -0.237 OA
ATOM    100  O   UNL A   1      44.272  24.433  37.417  1.00  0.00    -0.744 OA
ENDBRANCH  94  97
ENDBRANCH  67  90
ENDBRANCH  41  42
ENDBRANCH  33  36
ENDBRANCH  31  32
ENDBRANCH  30  31
ENDBRANCH   1  30
TORSDOF 17
ENDMDL
MODEL 3
REMARK VINA RESULT:     -12.3      5.418      8.250
REMARK SMILES C[C@H](C(=O)NCCCCNC(=O)c1ccc(-c2c3nc(c(-c4cccc(S(=O)(=O)[O-])c4F)c4ccc([nH]4)c(-c4cccc(S(=O)(=O)[O-])c4F)c4nc(c(-c5cccc(S(=O)(=O)[O-])c5F)c5ccc2[nH]5)C=C4)C=C3)cc1)N1C(=O)C[C@@H](N2C(=O)/C(=C/c3ccccc3)SC2=S)C1=O
REMARK SMILES IDX 7 1 6 2 5 3 3 4 4 5 2 7 1 8 76 9 77 10 95 11 78 12 79 13
REMARK SMILES IDX 80 14 96 15 81 16 82 17 93 18 83 19 84 20 92 21 94 22 85 23
REMARK SMILES IDX 86 24 87 25 91 26 88 27 90 28 89 29 8 30 9 31 10 32 11 33
REMARK SMILES IDX 12 35 13 36 14 37 75 38 15 39 74 40 16 41 17 42 18 43 68 44
REMARK SMILES IDX 19 45 73 46 67 47 69 48 20 49 72 50 66 51 65 52 21 54 53 55
REMARK SMILES IDX 33 56 52 57 34 58 37 59 51 60 70 61 35 62 36 63 50 65 71 66
REMARK SMILES IDX 38 67 22 68 23 69 31 70 24 71 26 72 32 73 25 74 27 75 28 76
REMARK SMILES IDX 29 77 30 78 54 79 55 80 63 81 56 82 58 83 64 84 57 85 59 86
REMARK SMILES IDX 60 87 61 88 62 89 39 90 40 91 48 92 41 93 43 94 49 95 42 96
REMARK SMILES IDX 44 97 45 98 46 99 47 100
REMARK H PARENT 5 6 10 34 69 53 37 64
REMARK Flexibility Score: inf
ROOT
ATOM      1  C   UNL A   1      35.162  24.450  24.584  1.00  0.00     0.023 C 
ENDROOT
BRANCH   1   2
ATOM      2  C   UNL A   1      34.343  25.171  25.649  1.00  0.00     0.116 C 
BRANCH   2   3
ATOM      3  N   UNL A   1      34.509  26.609  25.672  1.00  0.00    -0.354 N 
ATOM      4  C   UNL A   1      33.841  27.572  26.372  1.00  0.00     0.243 C 
ATOM      5  O   UNL A   1      34.355  28.699  26.358  1.00  0.00    -0.273 OA
ATOM      6  H   UNL A   1      35.222  26.949  25.085  1.00  0.00     0.163 HD
BRANCH   4   7
ATOM      7  C   UNL A   1      32.397  27.412  26.922  1.00  0.00     0.179 C 
ATOM      8  C   UNL A   1      31.931  28.852  27.201  1.00  0.00     0.042 C 
BRANCH   7   9
ATOM      9  N   UNL A   1      31.435  26.643  26.127  1.00  0.00    -0.268 N 
ATOM     10  C   UNL A   1      31.216  26.921  24.804  1.00  0.00     0.232 C 
ATOM     11  C   UNL A   1      31.108  25.329  26.369  1.00  0.00     0.253 C 
ATOM     12  O   UNL A   1      31.736  27.796  24.130  1.00  0.00    -0.274 OA
ATOM     13  C   UNL A   1      30.134  26.017  24.302  1.00  0.00     0.136 C 
ATOM     14  C   UNL A   1      30.285  24.805  25.202  1.00  0.00     0.191 C 
ATOM     15  O   UNL A   1      31.482  24.617  27.289  1.00  0.00    -0.272 OA
BRANCH  14  16
ATOM     16  N   UNL A   1      30.917  23.656  24.529  1.00  0.00    -0.280 N 
ATOM     17  C   UNL A   1      30.862  22.415  25.136  1.00  0.00     0.266 C 
ATOM     18  C   UNL A   1      31.646  23.721  23.361  1.00  0.00     0.149 C 
ATOM     19  O   UNL A   1      30.171  22.124  26.101  1.00  0.00    -0.268 OA
ATOM     20  C   UNL A   1      31.796  21.472  24.485  1.00  0.00     0.081 C 
ATOM     21  S   UNL A   1      32.411  22.161  23.045  1.00  0.00    -0.054 SA
ATOM     22  S   UNL A   1      31.887  25.036  22.364  1.00  0.00    -0.052 S 
ATOM     23  C   UNL A   1      32.092  20.306  25.072  1.00  0.00     0.029 C 
BRANCH  23  24
ATOM     24  C   UNL A   1      33.066  19.315  24.615  1.00  0.00    -0.024 A 
ATOM     25  C   UNL A   1      32.616  18.198  23.906  1.00  0.00     0.008 A 
ATOM     26  C   UNL A   1      34.424  19.426  24.939  1.00  0.00     0.008 A 
ATOM     27  C   UNL A   1      33.519  17.214  23.500  1.00  0.00     0.001 A 
ATOM     28  C   UNL A   1      35.325  18.441  24.532  1.00  0.00     0.001 A 
ATOM     29  C   UNL A   1      34.872  17.337  23.809  1.00  0.00     0.000 A 
ENDBRANCH  23  24
ENDBRANCH  14  16
ENDBRANCH   7   9
ENDBRANCH   4   7
ENDBRANCH   2   3
ENDBRANCH   1   2
BRANCH   1  30
ATOM     30  C   UNL A   1      35.662  23.049  24.939  1.00  0.00     0.023 C 
BRANCH  30  31
ATOM     31  C   UNL A   1      36.881  22.540  24.173  1.00  0.00     0.116 C 
BRANCH  31  32
ATOM     32  N   UNL A   1      37.556  21.431  24.828  1.00  0.00    -0.352 N 
ATOM     33  C   UNL A   1      38.598  21.413  25.727  1.00  0.00     0.251 C 
ATOM     34  H   UNL A   1      37.208  20.542  24.588  1.00  0.00     0.163 HD
ATOM     35  O   UNL A   1      39.074  20.327  26.055  1.00  0.00    -0.269 OA
BRANCH  33  36
ATOM     36  C   UNL A   1      39.176  22.665  26.279  1.00  0.00     0.039 A 
ATOM     37  C   UNL A   1      40.397  22.592  26.957  1.00  0.00     0.014 A 
ATOM     38  C   UNL A   1      38.526  23.897  26.171  1.00  0.00     0.014 A 
ATOM     39  C   UNL A   1      40.997  23.754  27.451  1.00  0.00     0.010 A 
ATOM     40  C   UNL A   1      39.165  25.068  26.590  1.00  0.00     0.010 A 
ATOM     41  C   UNL A   1      40.409  25.012  27.236  1.00  0.00    -0.014 A 
BRANCH  41  42
ATOM     42  C   UNL A   1      41.109  26.261  27.649  1.00  0.00     0.031 A 
ATOM     43  C   UNL A   1      42.549  26.510  27.284  1.00  0.00     0.074 A 
ATOM     44  C   UNL A   1      40.455  27.161  28.413  1.00  0.00     0.049 A 
ATOM     45  N   UNL A   1      43.295  27.556  27.541  1.00  0.00    -0.248 NA
ATOM     46  C   UNL A   1      43.254  25.440  26.558  1.00  0.00     0.031 C 
ATOM     47  C   UNL A   1      39.095  26.998  28.933  1.00  0.00     0.029 A 
ATOM     48  N   UNL A   1      40.850  28.383  28.901  1.00  0.00    -0.354 N 
ATOM     49  C   UNL A   1      44.555  27.265  27.028  1.00  0.00     0.074 A 
ATOM     50  C   UNL A   1      44.486  25.925  26.486  1.00  0.00     0.031 C 
ATOM     51  C   UNL A   1      38.766  28.081  29.655  1.00  0.00     0.029 A 
ATOM     52  C   UNL A   1      39.892  29.008  29.667  1.00  0.00     0.049 A 
ATOM     53  H   UNL A   1      41.735  28.775  28.721  1.00  0.00     0.167 HD
ATOM     54  C   UNL A   1      45.658  28.051  26.976  1.00  0.00     0.034 A 
ATOM     55  C   UNL A   1      39.912  30.197  30.302  1.00  0.00     0.034 A 
ATOM     56  C   UNL A   1      45.720  29.397  27.484  1.00  0.00     0.049 A 
ATOM     57  C   UNL A   1      41.122  31.080  30.167  1.00  0.00     0.074 A 
ATOM     58  C   UNL A   1      46.770  30.297  27.412  1.00  0.00     0.029 A 
ATOM     59  N   UNL A   1      44.694  30.036  28.160  1.00  0.00    -0.354 N 
ATOM     60  N   UNL A   1      42.242  30.853  29.524  1.00  0.00    -0.248 NA
ATOM     61  C   UNL A   1      41.054  32.404  30.804  1.00  0.00     0.031 C 
ATOM     62  C   UNL A   1      46.380  31.478  28.055  1.00  0.00     0.029 A 
ATOM     63  C   UNL A   1      45.082  31.320  28.509  1.00  0.00     0.049 A 
ATOM     64  H   UNL A   1      43.816  29.638  28.362  1.00  0.00     0.167 HD
ATOM     65  C   UNL A   1      43.000  32.010  29.657  1.00  0.00     0.074 A 
ATOM     66  C   UNL A   1      42.194  32.952  30.409  1.00  0.00     0.031 C 
ATOM     67  C   UNL A   1      44.257  32.264  29.218  1.00  0.00     0.034 A 
BRANCH  54  68
ATOM     68  C   UNL A   1      46.874  27.503  26.271  1.00  0.00     0.023 A 
ATOM     69  C   UNL A   1      47.715  26.601  26.956  1.00  0.00     0.012 A 
ATOM     70  C   UNL A   1      47.151  27.817  24.925  1.00  0.00     0.148 A 
ATOM     71  C   UNL A   1      48.829  26.047  26.327  1.00  0.00     0.002 A 
ATOM     72  C   UNL A   1      48.239  27.226  24.292  1.00  0.00     0.091 A 
ATOM     73  F   UNL A   1      46.351  28.688  24.294  1.00  0.00    -0.205 F 
ATOM     74  C   UNL A   1      49.085  26.351  24.994  1.00  0.00     0.022 A 
BRANCH  72  75
ATOM     75  S   UNL A   1      48.614  27.488  22.554  1.00  0.00     0.127 S 
ATOM     76  O   UNL A   1      49.901  28.179  22.631  1.00  0.00    -0.237 OA
ATOM     77  O   UNL A   1      48.688  26.119  22.045  1.00  0.00    -0.237 OA
ATOM     78  O   UNL A   1      47.513  28.277  22.020  1.00  0.00    -0.744 OA
ENDBRANCH  72  75
ENDBRANCH  54  68
BRANCH  55  79
ATOM     79  C   UNL A   1      38.713  30.654  31.061  1.00  0.00     0.023 A 
ATOM     80  C   UNL A   1      38.671  30.488  32.459  1.00  0.00     0.012 A 
ATOM     81  C   UNL A   1      37.630  31.276  30.411  1.00  0.00     0.148 A 
ATOM     82  C   UNL A   1      37.556  30.900  33.191  1.00  0.00     0.002 A 
ATOM     83  C   UNL A   1      36.549  31.738  31.153  1.00  0.00     0.091 A 
ATOM     84  F   UNL A   1      37.682  31.412  29.078  1.00  0.00    -0.205 F 
ATOM     85  C   UNL A   1      36.501  31.534  32.541  1.00  0.00     0.022 A 
BRANCH  83  86
ATOM     86  S   UNL A   1      35.219  32.691  30.412  1.00  0.00     0.127 S 
ATOM     87  O   UNL A   1      34.713  31.766  29.404  1.00  0.00    -0.237 OA
ATOM     88  O   UNL A   1      34.328  32.910  31.553  1.00  0.00    -0.237 OA
ATOM     89  O   UNL A   1      35.848  33.905  29.908  1.00  0.00    -0.744 OA
ENDBRANCH  83  86
ENDBRANCH  55  79
BRANCH  67  90
ATOM     90  C   UNL A   1      44.837  33.622  29.526  1.00  0.00     0.023 A 
ATOM     91  C   UNL A   1      45.519  33.828  30.743  1.00  0.00     0.012 A 
ATOM     92  C   UNL A   1      44.744  34.679  28.601  1.00  0.00     0.148 A 
ATOM     93  C   UNL A   1      46.058  35.077  31.052  1.00  0.00     0.002 A 
ATOM     94  C   UNL A   1      45.327  35.907  28.895  1.00  0.00     0.091 A 
ATOM     95  F   UNL A   1      44.075  34.473  27.456  1.00  0.00    -0.205 F 
ATOM     96  C   UNL A   1      45.971  36.112  30.125  1.00  0.00     0.022 A 
BRANCH  94  97
ATOM     97  S   UNL A   1      45.337  37.266  27.720  1.00  0.00     0.127 S 
ATOM     98  O   UNL A   1      46.065  38.295  28.459  1.00  0.00    -0.237 OA
ATOM     99  O   UNL A   1      46.069  36.695  26.588  1.00  0.00    -0.237 OA
ATOM    100  O   UNL A   1      43.937  37.559  27.442  1.00  0.00    -0.744 OA
ENDBRANCH  94  97
ENDBRANCH  67  90
ENDBRANCH  41  42
ENDBRANCH  33  36
ENDBRANCH  31  32
ENDBRANCH  30  31
ENDBRANCH   1  30
TORSDOF 17
ENDMDL
