MODEL 1
REMARK VINA RESULT:     -11.2      0.000      0.000
REMARK SMILES CN(C)S(=O)(=O)c1ccc(-n2c(CCC(=O)NCCCCNC(=O)c3ccc(-c4c5nc(c(-c6cccc(S(=O)(=O)[O-])c6F)c6ccc([nH]6)c(-c6cccc(S(=O)(=O)[O-])c6F)c6nc(c(-c7cccc(S(=O)(=O)[O-])c7F)c7ccc4[nH]7)C=C6)C=C5)cc3)ccc2-c2ccc(F)cc2)cc1
REMARK SMILES IDX 18 1 17 2 15 3 16 4 14 6 13 7 12 8 11 9 90 10 88 11 89 12
REMARK SMILES IDX 10 13 7 14 8 15 99 16 9 17 98 18 4 19 5 20 6 21 2 22 1 23
REMARK SMILES IDX 3 24 91 25 92 26 97 27 93 28 96 29 94 30 95 31 19 32 20 33
REMARK SMILES IDX 21 34 22 35 23 36 24 38 25 39 26 40 87 41 27 42 86 43 28 44
REMARK SMILES IDX 29 45 30 46 80 47 31 48 85 49 79 50 81 51 32 52 84 53 78 54
REMARK SMILES IDX 77 55 33 57 65 58 45 59 64 60 46 61 49 62 63 63 82 64 47 65
REMARK SMILES IDX 48 66 62 68 83 69 50 70 34 71 35 72 43 73 36 74 38 75 44 76
REMARK SMILES IDX 37 77 39 78 40 79 41 80 42 81 66 82 67 83 75 84 68 85 70 86
REMARK SMILES IDX 76 87 69 88 71 89 72 90 73 91 74 92 51 93 52 94 60 95 53 96
REMARK SMILES IDX 55 97 61 98 54 99 56 100 57 101 58 102 59 103
REMARK H PARENT 17 5 22 37 81 56 49 67
REMARK Flexibility Score: inf
ROOT
ATOM      1  C   UNL A   1      35.402  33.198  27.969  1.00  0.00     0.116 C 
ENDROOT
BRANCH   1   2
ATOM      2  N   UNL A   1      36.611  32.430  28.205  1.00  0.00    -0.356 N 
ATOM      3  C   UNL A   1      36.745  31.104  28.500  1.00  0.00     0.220 C 
ATOM      4  O   UNL A   1      37.870  30.650  28.719  1.00  0.00    -0.275 OA
ATOM      5  H   UNL A   1      37.453  32.937  28.144  1.00  0.00     0.163 HD
BRANCH   3   6
ATOM      6  C   UNL A   1      35.520  30.203  28.579  1.00  0.00     0.106 C 
BRANCH   6   7
ATOM      7  C   UNL A   1      35.188  29.437  27.272  1.00  0.00     0.064 C 
BRANCH   7   8
ATOM      8  C   UNL A   1      33.849  29.812  26.649  1.00  0.00     0.024 A 
ATOM      9  N   UNL A   1      33.135  29.169  25.595  1.00  0.00    -0.314 N 
ATOM     10  C   UNL A   1      31.927  29.897  25.413  1.00  0.00     0.053 A 
ATOM     11  C   UNL A   1      33.108  30.906  27.064  1.00  0.00     0.024 A 
ATOM     12  C   UNL A   1      31.934  30.955  26.313  1.00  0.00     0.029 A 
BRANCH   9  13
ATOM     13  C   UNL A   1      33.498  27.939  24.922  1.00  0.00     0.046 A 
ATOM     14  C   UNL A   1      33.852  25.413  23.656  1.00  0.00     0.082 A 
ATOM     15  C   UNL A   1      33.826  26.598  22.905  1.00  0.00     0.024 A 
ATOM     16  C   UNL A   1      33.738  25.498  25.027  1.00  0.00     0.024 A 
ATOM     17  C   UNL A   1      33.674  27.853  23.536  1.00  0.00     0.028 A 
ATOM     18  C   UNL A   1      33.557  26.741  25.636  1.00  0.00     0.028 A 
BRANCH  14  19
ATOM     19  S   UNL A   1      34.017  23.839  22.820  1.00  0.00     0.242 S 
ATOM     20  O   UNL A   1      35.440  23.514  22.880  1.00  0.00    -0.207 OA
ATOM     21  O   UNL A   1      33.359  24.016  21.556  1.00  0.00    -0.207 OA
BRANCH  19  22
ATOM     22  N   UNL A   1      33.156  22.675  23.744  1.00  0.00    -0.204 NA
ATOM     23  C   UNL A   1      31.955  22.134  23.027  1.00  0.00     0.124 C 
ATOM     24  C   UNL A   1      33.917  21.559  24.357  1.00  0.00     0.124 C 
ENDBRANCH  19  22
ENDBRANCH  14  19
ENDBRANCH   9  13
BRANCH  10  25
ATOM     25  C   UNL A   1      30.723  29.540  24.626  1.00  0.00    -0.001 A 
ATOM     26  C   UNL A   1      30.445  28.200  24.314  1.00  0.00     0.013 A 
ATOM     27  C   UNL A   1      29.928  30.520  24.021  1.00  0.00     0.013 A 
ATOM     28  C   UNL A   1      29.415  27.869  23.423  1.00  0.00     0.040 A 
ATOM     29  C   UNL A   1      28.911  30.202  23.119  1.00  0.00     0.040 A 
ATOM     30  C   UNL A   1      28.665  28.874  22.824  1.00  0.00     0.123 A 
ATOM     31  F   UNL A   1      27.702  28.554  21.950  1.00  0.00    -0.207 F 
ENDBRANCH  10  25
ENDBRANCH   7   8
ENDBRANCH   6   7
ENDBRANCH   3   6
ENDBRANCH   1   2
BRANCH   1  32
ATOM     32  C   UNL A   1      34.535  33.261  29.213  1.00  0.00     0.023 C 
BRANCH  32  33
ATOM     33  C   UNL A   1      33.943  34.642  29.484  1.00  0.00     0.023 C 
BRANCH  33  34
ATOM     34  C   UNL A   1      34.245  35.081  30.897  1.00  0.00     0.116 C 
BRANCH  34  35
ATOM     35  N   UNL A   1      33.508  34.353  31.934  1.00  0.00    -0.352 N 
ATOM     36  C   UNL A   1      33.949  33.411  32.836  1.00  0.00     0.251 C 
ATOM     37  H   UNL A   1      32.550  34.570  31.995  1.00  0.00     0.163 HD
ATOM     38  O   UNL A   1      33.134  32.838  33.557  1.00  0.00    -0.269 OA
BRANCH  36  39
ATOM     39  C   UNL A   1      35.384  33.058  32.931  1.00  0.00     0.039 A 
ATOM     40  C   UNL A   1      35.913  32.051  32.104  1.00  0.00     0.014 A 
ATOM     41  C   UNL A   1      36.217  33.713  33.828  1.00  0.00     0.014 A 
ATOM     42  C   UNL A   1      37.289  31.803  32.096  1.00  0.00     0.010 A 
ATOM     43  C   UNL A   1      37.568  33.526  33.784  1.00  0.00     0.010 A 
ATOM     44  C   UNL A   1      38.105  32.594  32.904  1.00  0.00    -0.014 A 
BRANCH  44  45
ATOM     45  C   UNL A   1      39.570  32.647  32.869  1.00  0.00     0.031 A 
ATOM     46  C   UNL A   1      40.206  31.518  33.712  1.00  0.00     0.074 A 
ATOM     47  C   UNL A   1      40.035  33.462  31.873  1.00  0.00     0.049 A 
ATOM     48  N   UNL A   1      41.443  31.328  34.056  1.00  0.00    -0.248 NA
ATOM     49  C   UNL A   1      39.330  30.467  34.312  1.00  0.00     0.031 C 
ATOM     50  C   UNL A   1      39.183  34.413  31.109  1.00  0.00     0.029 A 
ATOM     51  N   UNL A   1      41.242  33.604  31.228  1.00  0.00    -0.354 N 
ATOM     52  C   UNL A   1      41.517  30.062  34.696  1.00  0.00     0.074 A 
ATOM     53  C   UNL A   1      40.175  29.636  34.927  1.00  0.00     0.031 C 
ATOM     54  C   UNL A   1      39.892  35.039  30.153  1.00  0.00     0.029 A 
ATOM     55  C   UNL A   1      41.257  34.558  30.181  1.00  0.00     0.049 A 
ATOM     56  H   UNL A   1      42.038  33.081  31.476  1.00  0.00     0.167 HD
ATOM     57  C   UNL A   1      42.688  29.380  34.868  1.00  0.00     0.034 A 
ATOM     58  C   UNL A   1      42.301  34.970  29.403  1.00  0.00     0.034 A 
ATOM     59  C   UNL A   1      43.742  30.106  34.239  1.00  0.00     0.049 A 
ATOM     60  C   UNL A   1      43.422  34.076  29.721  1.00  0.00     0.074 A 
ATOM     61  C   UNL A   1      44.403  31.259  34.565  1.00  0.00     0.029 A 
ATOM     62  N   UNL A   1      43.941  29.818  32.909  1.00  0.00    -0.354 N 
ATOM     63  N   UNL A   1      43.507  32.839  29.326  1.00  0.00    -0.248 NA
ATOM     64  C   UNL A   1      44.423  34.518  30.698  1.00  0.00     0.031 C 
ATOM     65  C   UNL A   1      44.624  31.873  33.315  1.00  0.00     0.029 A 
ATOM     66  C   UNL A   1      44.266  30.994  32.285  1.00  0.00     0.049 A 
ATOM     67  H   UNL A   1      43.864  28.933  32.485  1.00  0.00     0.167 HD
ATOM     68  C   UNL A   1      44.325  32.287  30.283  1.00  0.00     0.074 A 
ATOM     69  C   UNL A   1      45.078  33.374  30.864  1.00  0.00     0.031 C 
ATOM     70  C   UNL A   1      43.986  31.114  30.876  1.00  0.00     0.034 A 
BRANCH  57  71
ATOM     71  C   UNL A   1      43.053  27.996  35.351  1.00  0.00     0.023 A 
ATOM     72  C   UNL A   1      42.195  26.961  34.877  1.00  0.00     0.012 A 
ATOM     73  C   UNL A   1      43.914  27.684  36.417  1.00  0.00     0.148 A 
ATOM     74  C   UNL A   1      42.093  25.724  35.507  1.00  0.00     0.002 A 
ATOM     75  C   UNL A   1      43.841  26.420  37.020  1.00  0.00     0.091 A 
ATOM     76  F   UNL A   1      44.730  28.628  36.900  1.00  0.00    -0.205 F 
ATOM     77  C   UNL A   1      42.907  25.460  36.592  1.00  0.00     0.022 A 
BRANCH  75  78
ATOM     78  S   UNL A   1      44.889  25.915  38.392  1.00  0.00     0.127 S 
ATOM     79  O   UNL A   1      46.218  26.289  37.917  1.00  0.00    -0.237 OA
ATOM     80  O   UNL A   1      44.383  26.749  39.486  1.00  0.00    -0.237 OA
ATOM     81  O   UNL A   1      44.648  24.491  38.573  1.00  0.00    -0.744 OA
ENDBRANCH  75  78
ENDBRANCH  57  71
BRANCH  58  82
ATOM     82  C   UNL A   1      42.540  36.175  28.533  1.00  0.00     0.023 A 
ATOM     83  C   UNL A   1      42.290  36.220  27.153  1.00  0.00     0.012 A 
ATOM     84  C   UNL A   1      42.926  37.402  29.135  1.00  0.00     0.148 A 
ATOM     85  C   UNL A   1      42.272  37.441  26.453  1.00  0.00     0.002 A 
ATOM     86  C   UNL A   1      42.789  38.617  28.479  1.00  0.00     0.091 A 
ATOM     87  F   UNL A   1      43.468  37.399  30.357  1.00  0.00    -0.205 F 
ATOM     88  C   UNL A   1      42.462  38.644  27.127  1.00  0.00     0.022 A 
BRANCH  86  89
ATOM     89  S   UNL A   1      42.835  40.176  29.381  1.00  0.00     0.127 S 
ATOM     90  O   UNL A   1      43.735  40.982  28.561  1.00  0.00    -0.237 OA
ATOM     91  O   UNL A   1      41.430  40.580  29.336  1.00  0.00    -0.237 OA
ATOM     92  O   UNL A   1      43.324  39.858  30.717  1.00  0.00    -0.744 OA
ENDBRANCH  86  89
ENDBRANCH  58  82
BRANCH  70  93
ATOM     93  C   UNL A   1      43.109  30.194  30.031  1.00  0.00     0.023 A 
ATOM     94  C   UNL A   1      41.777  30.040  30.468  1.00  0.00     0.012 A 
ATOM     95  C   UNL A   1      43.524  29.421  28.916  1.00  0.00     0.148 A 
ATOM     96  C   UNL A   1      40.895  29.152  29.850  1.00  0.00     0.002 A 
ATOM     97  C   UNL A   1      42.635  28.534  28.291  1.00  0.00     0.091 A 
ATOM     98  F   UNL A   1      44.785  29.528  28.490  1.00  0.00    -0.205 F 
ATOM     99  C   UNL A   1      41.322  28.403  28.762  1.00  0.00     0.022 A 
BRANCH  97 100
ATOM    100  S   UNL A   1      43.062  27.480  26.885  1.00  0.00     0.127 S 
ATOM    101  O   UNL A   1      44.269  26.796  27.354  1.00  0.00    -0.237 OA
ATOM    102  O   UNL A   1      41.892  26.610  26.774  1.00  0.00    -0.237 OA
ATOM    103  O   UNL A   1      43.279  28.365  25.750  1.00  0.00    -0.744 OA
ENDBRANCH  97 100
ENDBRANCH  70  93
ENDBRANCH  44  45
ENDBRANCH  36  39
ENDBRANCH  34  35
ENDBRANCH  33  34
ENDBRANCH  32  33
ENDBRANCH   1  32
TORSDOF 20
ENDMDL
MODEL 2
REMARK VINA RESULT:     -10.9      6.537     13.682
REMARK SMILES CN(C)S(=O)(=O)c1ccc(-n2c(CCC(=O)NCCCCNC(=O)c3ccc(-c4c5nc(c(-c6cccc(S(=O)(=O)[O-])c6F)c6ccc([nH]6)c(-c6cccc(S(=O)(=O)[O-])c6F)c6nc(c(-c7cccc(S(=O)(=O)[O-])c7F)c7ccc4[nH]7)C=C6)C=C5)cc3)ccc2-c2ccc(F)cc2)cc1
REMARK SMILES IDX 18 1 17 2 15 3 16 4 14 6 13 7 12 8 11 9 90 10 88 11 89 12
REMARK SMILES IDX 10 13 7 14 8 15 99 16 9 17 98 18 4 19 5 20 6 21 2 22 1 23
REMARK SMILES IDX 3 24 91 25 92 26 97 27 93 28 96 29 94 30 95 31 19 32 20 33
REMARK SMILES IDX 21 34 22 35 23 36 24 38 25 39 26 40 87 41 27 42 86 43 28 44
REMARK SMILES IDX 29 45 30 46 80 47 31 48 85 49 79 50 81 51 32 52 84 53 78 54
REMARK SMILES IDX 77 55 33 57 65 58 45 59 64 60 46 61 49 62 63 63 82 64 47 65
REMARK SMILES IDX 48 66 62 68 83 69 50 70 34 71 35 72 43 73 36 74 38 75 44 76
REMARK SMILES IDX 37 77 39 78 40 79 41 80 42 81 66 82 67 83 75 84 68 85 70 86
REMARK SMILES IDX 76 87 69 88 71 89 72 90 73 91 74 92 51 93 52 94 60 95 53 96
REMARK SMILES IDX 55 97 61 98 54 99 56 100 57 101 58 102 59 103
REMARK H PARENT 17 5 22 37 81 56 49 67
REMARK Flexibility Score: inf
ROOT
ATOM      1  C   UNL A   1      42.261  41.131  24.950  1.00  0.00     0.116 C 
ENDROOT
BRANCH   1   2
ATOM      2  N   UNL A   1      42.713  42.470  24.621  1.00  0.00    -0.356 N 
ATOM      3  C   UNL A   1      42.458  43.214  23.505  1.00  0.00     0.220 C 
ATOM      4  O   UNL A   1      42.985  44.323  23.391  1.00  0.00    -0.275 OA
ATOM      5  H   UNL A   1      43.283  42.903  25.297  1.00  0.00     0.163 HD
BRANCH   3   6
ATOM      6  C   UNL A   1      41.554  42.673  22.406  1.00  0.00     0.106 C 
BRANCH   6   7
ATOM      7  C   UNL A   1      42.284  42.274  21.097  1.00  0.00     0.064 C 
BRANCH   7   8
ATOM      8  C   UNL A   1      42.309  43.367  20.036  1.00  0.00     0.024 A 
ATOM      9  N   UNL A   1      43.311  44.350  19.781  1.00  0.00    -0.314 N 
ATOM     10  C   UNL A   1      42.866  45.109  18.663  1.00  0.00     0.053 A 
ATOM     11  C   UNL A   1      41.285  43.550  19.122  1.00  0.00     0.024 A 
ATOM     12  C   UNL A   1      41.627  44.611  18.283  1.00  0.00     0.029 A 
BRANCH   9  13
ATOM     13  C   UNL A   1      44.594  44.478  20.440  1.00  0.00     0.046 A 
ATOM     14  C   UNL A   1      46.922  44.726  22.062  1.00  0.00     0.082 A 
ATOM     15  C   UNL A   1      46.640  43.530  21.383  1.00  0.00     0.024 A 
ATOM     16  C   UNL A   1      46.065  45.794  21.899  1.00  0.00     0.024 A 
ATOM     17  C   UNL A   1      45.498  43.416  20.560  1.00  0.00     0.028 A 
ATOM     18  C   UNL A   1      44.924  45.658  21.108  1.00  0.00     0.028 A 
BRANCH  14  19
ATOM     19  S   UNL A   1      48.362  44.826  23.118  1.00  0.00     0.242 S 
ATOM     20  O   UNL A   1      48.628  46.253  23.282  1.00  0.00    -0.207 OA
ATOM     21  O   UNL A   1      49.335  43.965  22.505  1.00  0.00    -0.207 OA
BRANCH  19  22
ATOM     22  N   UNL A   1      47.923  44.177  24.647  1.00  0.00    -0.204 NA
ATOM     23  C   UNL A   1      48.682  44.794  25.783  1.00  0.00     0.124 C 
ATOM     24  C   UNL A   1      46.482  44.100  24.992  1.00  0.00     0.124 C 
ENDBRANCH  19  22
ENDBRANCH  14  19
ENDBRANCH   9  13
BRANCH  10  25
ATOM     25  C   UNL A   1      43.608  46.091  17.837  1.00  0.00    -0.001 A 
ATOM     26  C   UNL A   1      44.918  45.821  17.413  1.00  0.00     0.013 A 
ATOM     27  C   UNL A   1      43.106  47.376  17.603  1.00  0.00     0.013 A 
ATOM     28  C   UNL A   1      45.689  46.811  16.788  1.00  0.00     0.040 A 
ATOM     29  C   UNL A   1      43.871  48.374  16.997  1.00  0.00     0.040 A 
ATOM     30  C   UNL A   1      45.162  48.084  16.597  1.00  0.00     0.123 A 
ATOM     31  F   UNL A   1      45.913  49.035  16.027  1.00  0.00    -0.207 F 
ENDBRANCH  10  25
ENDBRANCH   7   8
ENDBRANCH   6   7
ENDBRANCH   3   6
ENDBRANCH   1   2
BRANCH   1  32
ATOM     32  C   UNL A   1      42.345  40.870  26.443  1.00  0.00     0.023 C 
BRANCH  32  33
ATOM     33  C   UNL A   1      41.251  39.943  26.970  1.00  0.00     0.023 C 
BRANCH  33  34
ATOM     34  C   UNL A   1      41.857  38.717  27.610  1.00  0.00     0.116 C 
BRANCH  34  35
ATOM     35  N   UNL A   1      43.285  38.527  27.336  1.00  0.00    -0.352 N 
ATOM     36  C   UNL A   1      44.126  37.501  27.701  1.00  0.00     0.251 C 
ATOM     37  H   UNL A   1      43.707  39.245  26.810  1.00  0.00     0.163 HD
ATOM     38  O   UNL A   1      45.329  37.591  27.456  1.00  0.00    -0.269 OA
BRANCH  36  39
ATOM     39  C   UNL A   1      43.611  36.305  28.405  1.00  0.00     0.039 A 
ATOM     40  C   UNL A   1      43.470  36.323  29.804  1.00  0.00     0.014 A 
ATOM     41  C   UNL A   1      43.262  35.162  27.698  1.00  0.00     0.014 A 
ATOM     42  C   UNL A   1      42.865  35.248  30.460  1.00  0.00     0.010 A 
ATOM     43  C   UNL A   1      42.612  34.135  28.318  1.00  0.00     0.010 A 
ATOM     44  C   UNL A   1      42.390  34.188  29.689  1.00  0.00    -0.014 A 
BRANCH  44  45
ATOM     45  C   UNL A   1      41.535  33.091  30.153  1.00  0.00     0.031 A 
ATOM     46  C   UNL A   1      42.359  31.833  30.513  1.00  0.00     0.074 A 
ATOM     47  C   UNL A   1      40.270  33.514  30.461  1.00  0.00     0.049 A 
ATOM     48  N   UNL A   1      41.965  30.631  30.802  1.00  0.00    -0.248 NA
ATOM     49  C   UNL A   1      43.852  31.905  30.499  1.00  0.00     0.031 C 
ATOM     50  C   UNL A   1      39.727  34.849  30.092  1.00  0.00     0.029 A 
ATOM     51  N   UNL A   1      39.235  32.998  31.203  1.00  0.00    -0.354 N 
ATOM     52  C   UNL A   1      43.110  29.894  31.208  1.00  0.00     0.074 A 
ATOM     53  C   UNL A   1      44.250  30.691  30.890  1.00  0.00     0.031 C 
ATOM     54  C   UNL A   1      38.482  35.015  30.573  1.00  0.00     0.029 A 
ATOM     55  C   UNL A   1      38.094  33.831  31.308  1.00  0.00     0.049 A 
ATOM     56  H   UNL A   1      39.282  32.112  31.631  1.00  0.00     0.167 HD
ATOM     57  C   UNL A   1      43.035  28.727  31.913  1.00  0.00     0.034 A 
ATOM     58  C   UNL A   1      36.896  33.582  31.915  1.00  0.00     0.034 A 
ATOM     59  C   UNL A   1      41.667  28.457  32.216  1.00  0.00     0.049 A 
ATOM     60  C   UNL A   1      37.063  32.317  32.641  1.00  0.00     0.074 A 
ATOM     61  C   UNL A   1      40.611  28.030  31.457  1.00  0.00     0.029 A 
ATOM     62  N   UNL A   1      41.203  29.019  33.382  1.00  0.00    -0.354 N 
ATOM     63  N   UNL A   1      37.742  32.188  33.743  1.00  0.00    -0.248 NA
ATOM     64  C   UNL A   1      36.610  31.074  32.007  1.00  0.00     0.031 C 
ATOM     65  C   UNL A   1      39.517  28.743  31.989  1.00  0.00     0.029 A 
ATOM     66  C   UNL A   1      39.912  29.418  33.152  1.00  0.00     0.049 A 
ATOM     67  H   UNL A   1      41.704  29.117  34.224  1.00  0.00     0.167 HD
ATOM     68  C   UNL A   1      38.098  30.862  33.709  1.00  0.00     0.074 A 
ATOM     69  C   UNL A   1      37.147  30.197  32.848  1.00  0.00     0.031 C 
ATOM     70  C   UNL A   1      39.382  30.493  33.953  1.00  0.00     0.034 A 
BRANCH  57  71
ATOM     71  C   UNL A   1      44.039  27.830  32.598  1.00  0.00     0.023 A 
ATOM     72  C   UNL A   1      43.779  26.436  32.453  1.00  0.00     0.012 A 
ATOM     73  C   UNL A   1      44.972  28.215  33.576  1.00  0.00     0.148 A 
ATOM     74  C   UNL A   1      44.307  25.480  33.316  1.00  0.00     0.002 A 
ATOM     75  C   UNL A   1      45.538  27.243  34.414  1.00  0.00     0.091 A 
ATOM     76  F   UNL A   1      45.240  29.514  33.752  1.00  0.00    -0.205 F 
ATOM     77  C   UNL A   1      45.177  25.888  34.310  1.00  0.00     0.022 A 
BRANCH  75  78
ATOM     78  S   UNL A   1      46.737  27.623  35.700  1.00  0.00     0.127 S 
ATOM     79  O   UNL A   1      46.446  26.602  36.703  1.00  0.00    -0.237 OA
ATOM     80  O   UNL A   1      48.009  27.432  34.997  1.00  0.00    -0.237 OA
ATOM     81  O   UNL A   1      46.478  29.001  36.091  1.00  0.00    -0.744 OA
ENDBRANCH  75  78
ENDBRANCH  57  71
BRANCH  58  82
ATOM     82  C   UNL A   1      35.527  34.199  31.809  1.00  0.00     0.023 A 
ATOM     83  C   UNL A   1      34.902  34.927  32.832  1.00  0.00     0.012 A 
ATOM     84  C   UNL A   1      34.845  34.168  30.563  1.00  0.00     0.148 A 
ATOM     85  C   UNL A   1      33.755  35.704  32.582  1.00  0.00     0.002 A 
ATOM     86  C   UNL A   1      33.791  35.024  30.281  1.00  0.00     0.091 A 
ATOM     87  F   UNL A   1      35.198  33.270  29.636  1.00  0.00    -0.205 F 
ATOM     88  C   UNL A   1      33.235  35.799  31.294  1.00  0.00     0.022 A 
BRANCH  86  89
ATOM     89  S   UNL A   1      33.242  35.305  28.588  1.00  0.00     0.127 S 
ATOM     90  O   UNL A   1      32.529  34.068  28.284  1.00  0.00    -0.237 OA
ATOM     91  O   UNL A   1      32.391  36.485  28.750  1.00  0.00    -0.237 OA
ATOM     92  O   UNL A   1      34.448  35.540  27.804  1.00  0.00    -0.744 OA
ENDBRANCH  86  89
ENDBRANCH  58  82
BRANCH  70  93
ATOM     93  C   UNL A   1      40.167  31.448  34.847  1.00  0.00     0.023 A 
ATOM     94  C   UNL A   1      41.295  32.057  34.257  1.00  0.00     0.012 A 
ATOM     95  C   UNL A   1      39.928  31.709  36.221  1.00  0.00     0.148 A 
ATOM     96  C   UNL A   1      42.161  32.871  34.989  1.00  0.00     0.002 A 
ATOM     97  C   UNL A   1      40.794  32.534  36.953  1.00  0.00     0.091 A 
ATOM     98  F   UNL A   1      38.880  31.132  36.814  1.00  0.00    -0.205 F 
ATOM     99  C   UNL A   1      41.910  33.113  36.332  1.00  0.00     0.022 A 
BRANCH  97 100
ATOM    100  S   UNL A   1      40.604  32.913  38.711  1.00  0.00     0.127 S 
ATOM    101  O   UNL A   1      41.641  32.084  39.329  1.00  0.00    -0.237 OA
ATOM    102  O   UNL A   1      40.884  34.347  38.759  1.00  0.00    -0.237 OA
ATOM    103  O   UNL A   1      39.245  32.539  39.074  1.00  0.00    -0.744 OA
ENDBRANCH  97 100
ENDBRANCH  70  93
ENDBRANCH  44  45
ENDBRANCH  36  39
ENDBRANCH  34  35
ENDBRANCH  33  34
ENDBRANCH  32  33
ENDBRANCH   1  32
TORSDOF 20
ENDMDL
MODEL 3
REMARK VINA RESULT:     -10.7      3.799      7.857
REMARK SMILES CN(C)S(=O)(=O)c1ccc(-n2c(CCC(=O)NCCCCNC(=O)c3ccc(-c4c5nc(c(-c6cccc(S(=O)(=O)[O-])c6F)c6ccc([nH]6)c(-c6cccc(S(=O)(=O)[O-])c6F)c6nc(c(-c7cccc(S(=O)(=O)[O-])c7F)c7ccc4[nH]7)C=C6)C=C5)cc3)ccc2-c2ccc(F)cc2)cc1
REMARK SMILES IDX 18 1 17 2 15 3 16 4 14 6 13 7 12 8 11 9 90 10 88 11 89 12
REMARK SMILES IDX 10 13 7 14 8 15 99 16 9 17 98 18 4 19 5 20 6 21 2 22 1 23
REMARK SMILES IDX 3 24 91 25 92 26 97 27 93 28 96 29 94 30 95 31 19 32 20 33
REMARK SMILES IDX 21 34 22 35 23 36 24 38 25 39 26 40 87 41 27 42 86 43 28 44
REMARK SMILES IDX 29 45 30 46 80 47 31 48 85 49 79 50 81 51 32 52 84 53 78 54
REMARK SMILES IDX 77 55 33 57 65 58 45 59 64 60 46 61 49 62 63 63 82 64 47 65
REMARK SMILES IDX 48 66 62 68 83 69 50 70 34 71 35 72 43 73 36 74 38 75 44 76
REMARK SMILES IDX 37 77 39 78 40 79 41 80 42 81 66 82 67 83 75 84 68 85 70 86
REMARK SMILES IDX 76 87 69 88 71 89 72 90 73 91 74 92 51 93 52 94 60 95 53 96
REMARK SMILES IDX 55 97 61 98 54 99 56 100 57 101 58 102 59 103
REMARK H PARENT 17 5 22 37 81 56 49 67
REMARK Flexibility Score: inf
ROOT
ATOM      1  C   UNL A   1      34.408  33.533  27.998  1.00  0.00     0.116 C 
ENDROOT
BRANCH   1   2
ATOM      2  N   UNL A   1      35.599  32.763  27.687  1.00  0.00    -0.356 N 
ATOM      3  C   UNL A   1      35.849  31.439  27.908  1.00  0.00     0.220 C 
ATOM      4  O   UNL A   1      36.956  30.982  27.616  1.00  0.00    -0.275 OA
ATOM      5  H   UNL A   1      36.329  33.265  27.258  1.00  0.00     0.163 HD
BRANCH   3   6
ATOM      6  C   UNL A   1      34.783  30.544  28.526  1.00  0.00     0.106 C 
BRANCH   6   7
ATOM      7  C   UNL A   1      34.224  29.448  27.582  1.00  0.00     0.064 C 
BRANCH   7   8
ATOM      8  C   UNL A   1      33.054  29.904  26.718  1.00  0.00     0.024 A 
ATOM      9  N   UNL A   1      32.419  29.227  25.634  1.00  0.00    -0.314 N 
ATOM     10  C   UNL A   1      31.362  30.068  25.189  1.00  0.00     0.053 A 
ATOM     11  C   UNL A   1      32.418  31.121  26.896  1.00  0.00     0.024 A 
ATOM     12  C   UNL A   1      31.384  31.219  25.965  1.00  0.00     0.029 A 
BRANCH   9  13
ATOM     13  C   UNL A   1      32.703  27.890  25.156  1.00  0.00     0.046 A 
ATOM     14  C   UNL A   1      33.619  25.326  24.322  1.00  0.00     0.082 A 
ATOM     15  C   UNL A   1      32.805  25.467  25.456  1.00  0.00     0.024 A 
ATOM     16  C   UNL A   1      33.939  26.453  23.595  1.00  0.00     0.024 A 
ATOM     17  C   UNL A   1      32.332  26.736  25.856  1.00  0.00     0.028 A 
ATOM     18  C   UNL A   1      33.490  27.705  24.018  1.00  0.00     0.028 A 
BRANCH  14  19
ATOM     19  S   UNL A   1      34.224  23.706  23.862  1.00  0.00     0.242 S 
ATOM     20  O   UNL A   1      35.681  23.809  23.898  1.00  0.00    -0.207 OA
ATOM     21  O   UNL A   1      33.542  23.386  22.639  1.00  0.00    -0.207 OA
BRANCH  19  22
ATOM     22  N   UNL A   1      33.728  22.607  25.085  1.00  0.00    -0.204 NA
ATOM     23  C   UNL A   1      32.674  21.649  24.617  1.00  0.00     0.124 C 
ATOM     24  C   UNL A   1      34.774  21.871  25.837  1.00  0.00     0.124 C 
ENDBRANCH  19  22
ENDBRANCH  14  19
ENDBRANCH   9  13
BRANCH  10  25
ATOM     25  C   UNL A   1      30.248  29.766  24.259  1.00  0.00    -0.001 A 
ATOM     26  C   UNL A   1      29.368  30.778  23.845  1.00  0.00     0.013 A 
ATOM     27  C   UNL A   1      29.927  28.450  23.906  1.00  0.00     0.013 A 
ATOM     28  C   UNL A   1      28.212  30.471  23.115  1.00  0.00     0.040 A 
ATOM     29  C   UNL A   1      28.770  28.132  23.193  1.00  0.00     0.040 A 
ATOM     30  C   UNL A   1      27.917  29.148  22.806  1.00  0.00     0.123 A 
ATOM     31  F   UNL A   1      26.796  28.856  22.134  1.00  0.00    -0.207 F 
ENDBRANCH  10  25
ENDBRANCH   7   8
ENDBRANCH   6   7
ENDBRANCH   3   6
ENDBRANCH   1   2
BRANCH   1  32
ATOM     32  C   UNL A   1      34.679  34.555  29.087  1.00  0.00     0.023 C 
BRANCH  32  33
ATOM     33  C   UNL A   1      34.593  33.986  30.502  1.00  0.00     0.023 C 
BRANCH  33  34
ATOM     34  C   UNL A   1      35.950  33.512  30.966  1.00  0.00     0.116 C 
BRANCH  34  35
ATOM     35  N   UNL A   1      35.976  32.980  32.333  1.00  0.00    -0.352 N 
ATOM     36  C   UNL A   1      36.871  32.121  32.930  1.00  0.00     0.251 C 
ATOM     37  H   UNL A   1      35.242  33.285  32.913  1.00  0.00     0.163 HD
ATOM     38  O   UNL A   1      36.647  31.712  34.068  1.00  0.00    -0.269 OA
BRANCH  36  39
ATOM     39  C   UNL A   1      38.082  31.662  32.214  1.00  0.00     0.039 A 
ATOM     40  C   UNL A   1      38.947  30.735  32.824  1.00  0.00     0.014 A 
ATOM     41  C   UNL A   1      38.376  32.134  30.941  1.00  0.00     0.014 A 
ATOM     42  C   UNL A   1      40.020  30.201  32.105  1.00  0.00     0.010 A 
ATOM     43  C   UNL A   1      39.380  31.573  30.208  1.00  0.00     0.010 A 
ATOM     44  C   UNL A   1      40.183  30.591  30.777  1.00  0.00    -0.014 A 
BRANCH  44  45
ATOM     45  C   UNL A   1      41.091  29.984  29.799  1.00  0.00     0.031 A 
ATOM     46  C   UNL A   1      42.439  30.739  29.720  1.00  0.00     0.074 A 
ATOM     47  C   UNL A   1      40.681  28.736  29.417  1.00  0.00     0.049 A 
ATOM     48  N   UNL A   1      43.419  30.611  28.880  1.00  0.00    -0.248 NA
ATOM     49  C   UNL A   1      42.720  31.841  30.690  1.00  0.00     0.031 C 
ATOM     50  C   UNL A   1      39.336  28.174  29.714  1.00  0.00     0.029 A 
ATOM     51  N   UNL A   1      41.295  27.662  28.815  1.00  0.00    -0.354 N 
ATOM     52  C   UNL A   1      44.484  31.430  29.342  1.00  0.00     0.074 A 
ATOM     53  C   UNL A   1      43.956  32.246  30.387  1.00  0.00     0.031 C 
ATOM     54  C   UNL A   1      39.231  26.908  29.271  1.00  0.00     0.029 A 
ATOM     55  C   UNL A   1      40.483  26.511  28.663  1.00  0.00     0.049 A 
ATOM     56  H   UNL A   1      42.231  27.690  28.512  1.00  0.00     0.167 HD
ATOM     57  C   UNL A   1      45.776  31.280  28.925  1.00  0.00     0.034 A 
ATOM     58  C   UNL A   1      40.774  25.322  28.058  1.00  0.00     0.034 A 
ATOM     59  C   UNL A   1      45.852  30.152  28.054  1.00  0.00     0.049 A 
ATOM     60  C   UNL A   1      42.208  25.368  27.743  1.00  0.00     0.074 A 
ATOM     61  C   UNL A   1      45.444  29.943  26.764  1.00  0.00     0.029 A 
ATOM     62  N   UNL A   1      46.068  28.945  28.675  1.00  0.00    -0.354 N 
ATOM     63  N   UNL A   1      43.157  25.247  28.624  1.00  0.00    -0.248 NA
ATOM     64  C   UNL A   1      42.621  25.764  26.392  1.00  0.00     0.031 C 
ATOM     65  C   UNL A   1      45.003  28.604  26.776  1.00  0.00     0.029 A 
ATOM     66  C   UNL A   1      45.331  28.007  28.000  1.00  0.00     0.049 A 
ATOM     67  H   UNL A   1      46.643  28.784  29.457  1.00  0.00     0.167 HD
ATOM     68  C   UNL A   1      44.198  25.909  28.019  1.00  0.00     0.074 A 
ATOM     69  C   UNL A   1      43.925  25.906  26.601  1.00  0.00     0.031 C 
ATOM     70  C   UNL A   1      44.920  26.824  28.715  1.00  0.00     0.034 A 
BRANCH  57  71
ATOM     71  C   UNL A   1      47.104  31.870  29.337  1.00  0.00     0.023 A 
ATOM     72  C   UNL A   1      47.950  32.233  28.251  1.00  0.00     0.012 A 
ATOM     73  C   UNL A   1      47.685  31.807  30.616  1.00  0.00     0.148 A 
ATOM     74  C   UNL A   1      49.327  32.393  28.391  1.00  0.00     0.002 A 
ATOM     75  C   UNL A   1      49.065  32.015  30.761  1.00  0.00     0.091 A 
ATOM     76  F   UNL A   1      46.929  31.462  31.665  1.00  0.00    -0.205 F 
ATOM     77  C   UNL A   1      49.886  32.267  29.648  1.00  0.00     0.022 A 
BRANCH  75  78
ATOM     78  S   UNL A   1      49.913  31.953  32.346  1.00  0.00     0.127 S 
ATOM     79  O   UNL A   1      49.673  30.578  32.770  1.00  0.00    -0.237 OA
ATOM     80  O   UNL A   1      51.300  32.233  31.960  1.00  0.00    -0.237 OA
ATOM     81  O   UNL A   1      49.305  32.994  33.163  1.00  0.00    -0.744 OA
ENDBRANCH  75  78
ENDBRANCH  57  71
BRANCH  58  82
ATOM     82  C   UNL A   1      39.936  24.190  27.528  1.00  0.00     0.023 A 
ATOM     83  C   UNL A   1      38.709  24.351  26.868  1.00  0.00     0.012 A 
ATOM     84  C   UNL A   1      40.450  22.866  27.569  1.00  0.00     0.148 A 
ATOM     85  C   UNL A   1      38.113  23.290  26.160  1.00  0.00     0.002 A 
ATOM     86  C   UNL A   1      39.933  21.853  26.774  1.00  0.00     0.091 A 
ATOM     87  F   UNL A   1      41.439  22.565  28.417  1.00  0.00    -0.205 F 
ATOM     88  C   UNL A   1      38.756  22.059  26.064  1.00  0.00     0.022 A 
BRANCH  86  89
ATOM     89  S   UNL A   1      40.855  20.332  26.484  1.00  0.00     0.127 S 
ATOM     90  O   UNL A   1      41.041  19.819  27.839  1.00  0.00    -0.237 OA
ATOM     91  O   UNL A   1      39.913  19.574  25.660  1.00  0.00    -0.237 OA
ATOM     92  O   UNL A   1      42.076  20.723  25.791  1.00  0.00    -0.744 OA
ENDBRANCH  86  89
ENDBRANCH  58  82
BRANCH  70  93
ATOM     93  C   UNL A   1      44.961  26.601  30.224  1.00  0.00     0.023 A 
ATOM     94  C   UNL A   1      45.928  25.684  30.686  1.00  0.00     0.012 A 
ATOM     95  C   UNL A   1      44.073  27.153  31.184  1.00  0.00     0.148 A 
ATOM     96  C   UNL A   1      46.009  25.309  32.028  1.00  0.00     0.002 A 
ATOM     97  C   UNL A   1      44.160  26.782  32.534  1.00  0.00     0.091 A 
ATOM     98  F   UNL A   1      43.134  28.009  30.776  1.00  0.00    -0.205 F 
ATOM     99  C   UNL A   1      45.129  25.859  32.951  1.00  0.00     0.022 A 
BRANCH  97 100
ATOM    100  S   UNL A   1      43.067  27.397  33.836  1.00  0.00     0.127 S 
ATOM    101  O   UNL A   1      41.871  27.792  33.088  1.00  0.00    -0.237 OA
ATOM    102  O   UNL A   1      42.878  26.215  34.676  1.00  0.00    -0.237 OA
ATOM    103  O   UNL A   1      43.762  28.503  34.478  1.00  0.00    -0.744 OA
ENDBRANCH  97 100
ENDBRANCH  70  93
ENDBRANCH  44  45
ENDBRANCH  36  39
ENDBRANCH  34  35
ENDBRANCH  33  34
ENDBRANCH  32  33
ENDBRANCH   1  32
TORSDOF 20
ENDMDL
