MODEL 1
REMARK VINA RESULT:     -13.1      0.000      0.000
REMARK SMILES O=C(NCCCCNC(=O)c1ccc(-c2c3nc(c(-c4cccc(S(=O)(=O)[O-])c4F)c4ccc([nH]4)c(-c4cccc(S(=O)(=O)[O-])c4F)c4nc(c(-c5cccc(S(=O)(=O)[O-])c5F)c5ccc2[nH]5)C=C4)C=C3)cc1)c1ccc(C(=O)Nc2ccc(-c3nc4ccccc4[nH]3)cc2)cc1
REMARK SMILES IDX 5 1 4 2 3 3 1 4 2 5 74 7 75 8 97 9 76 10 96 11 77 12 78 13
REMARK SMILES IDX 79 14 80 15 81 17 82 18 95 19 83 20 94 21 84 22 85 23 86 24
REMARK SMILES IDX 93 25 87 26 92 27 88 29 91 30 89 31 90 32 6 33 7 34 8 35
REMARK SMILES IDX 9 36 10 38 11 39 12 40 73 41 13 42 72 43 14 44 15 45 16 46
REMARK SMILES IDX 66 47 17 48 71 49 65 50 67 51 18 52 70 53 64 54 63 55 19 57
REMARK SMILES IDX 51 58 31 59 50 60 32 61 35 62 49 63 68 64 33 65 34 66 48 68
REMARK SMILES IDX 69 69 36 70 20 71 21 72 29 73 22 74 24 75 30 76 23 77 25 78
REMARK SMILES IDX 26 79 27 80 28 81 52 82 53 83 61 84 54 85 56 86 62 87 55 88
REMARK SMILES IDX 57 89 58 90 59 91 60 92 37 93 38 94 46 95 39 96 41 97 47 98
REMARK SMILES IDX 40 99 42 100 43 101 44 102 45 103
REMARK H PARENT 3 6 80 16 93 28 8 37 67 56 35 67
REMARK Flexibility Score: inf
ROOT
ATOM      1  C   UNL A   1      31.384  31.231  25.816  1.00  0.00     0.023 C 
ENDROOT
BRANCH   1   2
ATOM      2  C   UNL A   1      31.790  29.777  26.025  1.00  0.00     0.116 C 
BRANCH   2   3
ATOM      3  N   UNL A   1      33.168  29.622  26.457  1.00  0.00    -0.352 N 
ATOM      4  O   UNL A   1      35.119  28.588  26.888  1.00  0.00    -0.269 OA
ATOM      5  C   UNL A   1      34.014  28.546  26.359  1.00  0.00     0.251 C 
ATOM      6  H   UNL A   1      33.557  30.417  26.888  1.00  0.00     0.163 HD
BRANCH   5   7
ATOM      7  C   UNL A   1      33.592  27.307  25.666  1.00  0.00     0.039 A 
ATOM      8  C   UNL A   1      33.690  27.139  24.283  1.00  0.00     0.014 A 
ATOM      9  C   UNL A   1      33.120  26.256  26.449  1.00  0.00     0.014 A 
ATOM     10  C   UNL A   1      33.152  25.998  23.675  1.00  0.00     0.014 A 
ATOM     11  C   UNL A   1      32.668  25.081  25.842  1.00  0.00     0.014 A 
ATOM     12  C   UNL A   1      32.586  24.973  24.447  1.00  0.00     0.040 A 
BRANCH  12  13
ATOM     13  C   UNL A   1      32.023  23.780  23.727  1.00  0.00     0.255 C 
ATOM     14  O   UNL A   1      30.818  23.753  23.475  1.00  0.00    -0.269 OA
ATOM     15  N   UNL A   1      32.819  22.761  23.237  1.00  0.00    -0.322 N 
ATOM     16  H   UNL A   1      32.415  22.221  22.519  1.00  0.00     0.170 HD
BRANCH  15  17
ATOM     17  C   UNL A   1      34.114  22.385  23.608  1.00  0.00     0.041 A 
ATOM     18  C   UNL A   1      35.193  23.045  23.013  1.00  0.00     0.027 A 
ATOM     19  C   UNL A   1      34.343  21.437  24.602  1.00  0.00     0.027 A 
ATOM     20  C   UNL A   1      36.486  22.883  23.532  1.00  0.00     0.014 A 
ATOM     21  C   UNL A   1      35.634  21.253  25.091  1.00  0.00     0.014 A 
ATOM     22  C   UNL A   1      36.712  22.009  24.602  1.00  0.00     0.017 A 
BRANCH  22  23
ATOM     23  C   UNL A   1      38.003  21.858  25.275  1.00  0.00     0.138 A 
ATOM     24  N   UNL A   1      38.722  20.751  25.259  1.00  0.00    -0.229 NA
ATOM     25  N   UNL A   1      38.585  22.786  26.114  1.00  0.00    -0.338 N 
ATOM     26  C   UNL A   1      39.743  20.941  26.147  1.00  0.00     0.089 A 
ATOM     27  C   UNL A   1      39.690  22.213  26.699  1.00  0.00     0.066 A 
ATOM     28  H   UNL A   1      38.264  23.704  26.266  1.00  0.00     0.168 HD
ATOM     29  C   UNL A   1      40.744  20.048  26.547  1.00  0.00     0.030 A 
ATOM     30  C   UNL A   1      40.607  22.665  27.652  1.00  0.00     0.028 A 
ATOM     31  C   UNL A   1      41.672  20.471  27.504  1.00  0.00     0.002 A 
ATOM     32  C   UNL A   1      41.603  21.758  28.043  1.00  0.00     0.002 A 
ENDBRANCH  22  23
ENDBRANCH  15  17
ENDBRANCH  12  13
ENDBRANCH   5   7
ENDBRANCH   2   3
ENDBRANCH   1   2
BRANCH   1  33
ATOM     33  C   UNL A   1      31.417  32.109  27.063  1.00  0.00     0.023 C 
BRANCH  33  34
ATOM     34  C   UNL A   1      32.707  32.889  27.280  1.00  0.00     0.116 C 
BRANCH  34  35
ATOM     35  N   UNL A   1      32.481  34.280  27.642  1.00  0.00    -0.352 N 
ATOM     36  C   UNL A   1      33.089  35.032  28.619  1.00  0.00     0.251 C 
ATOM     37  H   UNL A   1      31.797  34.748  27.113  1.00  0.00     0.163 HD
ATOM     38  O   UNL A   1      32.675  36.162  28.863  1.00  0.00    -0.269 OA
BRANCH  36  39
ATOM     39  C   UNL A   1      34.220  34.470  29.391  1.00  0.00     0.039 A 
ATOM     40  C   UNL A   1      33.958  33.855  30.618  1.00  0.00     0.014 A 
ATOM     41  C   UNL A   1      35.530  34.542  28.911  1.00  0.00     0.014 A 
ATOM     42  C   UNL A   1      35.004  33.266  31.333  1.00  0.00     0.010 A 
ATOM     43  C   UNL A   1      36.553  33.875  29.579  1.00  0.00     0.010 A 
ATOM     44  C   UNL A   1      36.306  33.244  30.807  1.00  0.00    -0.014 A 
BRANCH  44  45
ATOM     45  C   UNL A   1      37.420  32.589  31.542  1.00  0.00     0.031 A 
ATOM     46  C   UNL A   1      38.157  31.427  30.924  1.00  0.00     0.074 A 
ATOM     47  C   UNL A   1      37.737  32.999  32.786  1.00  0.00     0.049 A 
ATOM     48  N   UNL A   1      39.133  30.712  31.419  1.00  0.00    -0.248 NA
ATOM     49  C   UNL A   1      37.722  30.996  29.584  1.00  0.00     0.031 C 
ATOM     50  C   UNL A   1      37.047  34.056  33.532  1.00  0.00     0.029 A 
ATOM     51  N   UNL A   1      38.706  32.563  33.654  1.00  0.00    -0.354 N 
ATOM     52  C   UNL A   1      39.414  29.739  30.466  1.00  0.00     0.074 A 
ATOM     53  C   UNL A   1      38.469  29.920  29.388  1.00  0.00     0.031 C 
ATOM     54  C   UNL A   1      37.621  34.190  34.739  1.00  0.00     0.029 A 
ATOM     55  C   UNL A   1      38.697  33.213  34.868  1.00  0.00     0.049 A 
ATOM     56  H   UNL A   1      39.349  31.852  33.430  1.00  0.00     0.167 HD
ATOM     57  C   UNL A   1      40.396  28.805  30.465  1.00  0.00     0.034 A 
ATOM     58  C   UNL A   1      39.463  33.037  35.961  1.00  0.00     0.034 A 
ATOM     59  C   UNL A   1      41.355  28.644  31.525  1.00  0.00     0.049 A 
ATOM     60  C   UNL A   1      40.566  32.013  35.921  1.00  0.00     0.074 A 
ATOM     61  C   UNL A   1      42.416  27.760  31.598  1.00  0.00     0.029 A 
ATOM     62  N   UNL A   1      41.368  29.383  32.696  1.00  0.00    -0.354 N 
ATOM     63  N   UNL A   1      40.902  31.194  34.953  1.00  0.00    -0.248 NA
ATOM     64  C   UNL A   1      41.429  31.920  37.108  1.00  0.00     0.031 C 
ATOM     65  C   UNL A   1      43.061  27.952  32.825  1.00  0.00     0.029 A 
ATOM     66  C   UNL A   1      42.424  28.982  33.497  1.00  0.00     0.049 A 
ATOM     67  H   UNL A   1      40.722  30.090  32.927  1.00  0.00     0.167 HD
ATOM     68  C   UNL A   1      42.038  30.527  35.393  1.00  0.00     0.074 A 
ATOM     69  C   UNL A   1      42.347  31.053  36.707  1.00  0.00     0.031 C 
ATOM     70  C   UNL A   1      42.756  29.557  34.775  1.00  0.00     0.034 A 
BRANCH  57  71
ATOM     71  C   UNL A   1      40.522  27.927  29.246  1.00  0.00     0.023 A 
ATOM     72  C   UNL A   1      39.646  26.831  29.090  1.00  0.00     0.012 A 
ATOM     73  C   UNL A   1      41.458  28.209  28.233  1.00  0.00     0.148 A 
ATOM     74  C   UNL A   1      39.724  26.010  27.967  1.00  0.00     0.002 A 
ATOM     75  C   UNL A   1      41.497  27.415  27.091  1.00  0.00     0.091 A 
ATOM     76  F   UNL A   1      42.294  29.243  28.405  1.00  0.00    -0.205 F 
ATOM     77  C   UNL A   1      40.641  26.308  26.963  1.00  0.00     0.022 A 
BRANCH  75  78
ATOM     78  S   UNL A   1      42.584  27.759  25.703  1.00  0.00     0.127 S 
ATOM     79  O   UNL A   1      42.235  29.145  25.391  1.00  0.00    -0.237 OA
ATOM     80  O   UNL A   1      43.907  27.583  26.301  1.00  0.00    -0.237 OA
ATOM     81  O   UNL A   1      42.244  26.786  24.674  1.00  0.00    -0.744 OA
ENDBRANCH  75  78
ENDBRANCH  57  71
BRANCH  58  82
ATOM     82  C   UNL A   1      39.256  33.881  37.173  1.00  0.00     0.023 A 
ATOM     83  C   UNL A   1      39.723  35.211  37.186  1.00  0.00     0.012 A 
ATOM     84  C   UNL A   1      38.608  33.371  38.314  1.00  0.00     0.148 A 
ATOM     85  C   UNL A   1      39.598  35.998  38.332  1.00  0.00     0.002 A 
ATOM     86  C   UNL A   1      38.433  34.180  39.430  1.00  0.00     0.091 A 
ATOM     87  F   UNL A   1      38.178  32.103  38.286  1.00  0.00    -0.205 F 
ATOM     88  C   UNL A   1      38.946  35.487  39.450  1.00  0.00     0.022 A 
BRANCH  86  89
ATOM     89  S   UNL A   1      37.491  33.647  40.863  1.00  0.00     0.127 S 
ATOM     90  O   UNL A   1      37.373  34.889  41.622  1.00  0.00    -0.237 OA
ATOM     91  O   UNL A   1      36.247  33.177  40.251  1.00  0.00    -0.237 OA
ATOM     92  O   UNL A   1      38.287  32.596  41.484  1.00  0.00    -0.744 OA
ENDBRANCH  86  89
ENDBRANCH  58  82
BRANCH  70  93
ATOM     93  C   UNL A   1      43.988  29.047  35.477  1.00  0.00     0.023 A 
ATOM     94  C   UNL A   1      45.242  29.644  35.239  1.00  0.00     0.012 A 
ATOM     95  C   UNL A   1      43.890  27.997  36.413  1.00  0.00     0.148 A 
ATOM     96  C   UNL A   1      46.385  29.170  35.880  1.00  0.00     0.002 A 
ATOM     97  C   UNL A   1      45.026  27.568  37.089  1.00  0.00     0.091 A 
ATOM     98  F   UNL A   1      42.692  27.427  36.614  1.00  0.00    -0.205 F 
ATOM     99  C   UNL A   1      46.277  28.141  36.812  1.00  0.00     0.022 A 
BRANCH  97 100
ATOM    100  S   UNL A   1      44.958  26.318  38.377  1.00  0.00     0.127 S 
ATOM    101  O   UNL A   1      44.363  25.189  37.667  1.00  0.00    -0.237 OA
ATOM    102  O   UNL A   1      46.372  26.147  38.717  1.00  0.00    -0.237 OA
ATOM    103  O   UNL A   1      44.147  26.886  39.445  1.00  0.00    -0.744 OA
ENDBRANCH  97 100
ENDBRANCH  70  93
ENDBRANCH  44  45
ENDBRANCH  36  39
ENDBRANCH  34  35
ENDBRANCH  33  34
ENDBRANCH   1  33
TORSDOF 17
ENDMDL
MODEL 2
REMARK VINA RESULT:     -12.3      5.880     10.760
REMARK SMILES O=C(NCCCCNC(=O)c1ccc(-c2c3nc(c(-c4cccc(S(=O)(=O)[O-])c4F)c4ccc([nH]4)c(-c4cccc(S(=O)(=O)[O-])c4F)c4nc(c(-c5cccc(S(=O)(=O)[O-])c5F)c5ccc2[nH]5)C=C4)C=C3)cc1)c1ccc(C(=O)Nc2ccc(-c3nc4ccccc4[nH]3)cc2)cc1
REMARK SMILES IDX 5 1 4 2 3 3 1 4 2 5 74 7 75 8 97 9 76 10 96 11 77 12 78 13
REMARK SMILES IDX 79 14 80 15 81 17 82 18 95 19 83 20 94 21 84 22 85 23 86 24
REMARK SMILES IDX 93 25 87 26 92 27 88 29 91 30 89 31 90 32 6 33 7 34 8 35
REMARK SMILES IDX 9 36 10 38 11 39 12 40 73 41 13 42 72 43 14 44 15 45 16 46
REMARK SMILES IDX 66 47 17 48 71 49 65 50 67 51 18 52 70 53 64 54 63 55 19 57
REMARK SMILES IDX 51 58 31 59 50 60 32 61 35 62 49 63 68 64 33 65 34 66 48 68
REMARK SMILES IDX 69 69 36 70 20 71 21 72 29 73 22 74 24 75 30 76 23 77 25 78
REMARK SMILES IDX 26 79 27 80 28 81 52 82 53 83 61 84 54 85 56 86 62 87 55 88
REMARK SMILES IDX 57 89 58 90 59 91 60 92 37 93 38 94 46 95 39 96 41 97 47 98
REMARK SMILES IDX 40 99 42 100 43 101 44 102 45 103
REMARK H PARENT 3 6 80 16 93 28 8 37 67 56 35 67
REMARK Flexibility Score: inf
ROOT
ATOM      1  C   UNL A   1      39.396  22.463  26.406  1.00  0.00     0.023 C 
ENDROOT
BRANCH   1   2
ATOM      2  C   UNL A   1      38.120  23.247  26.121  1.00  0.00     0.116 C 
BRANCH   2   3
ATOM      3  N   UNL A   1      37.768  23.280  24.713  1.00  0.00    -0.352 N 
ATOM      4  O   UNL A   1      36.464  23.197  22.881  1.00  0.00    -0.269 OA
ATOM      5  C   UNL A   1      36.539  23.270  24.103  1.00  0.00     0.251 C 
ATOM      6  H   UNL A   1      38.535  23.316  24.097  1.00  0.00     0.163 HD
BRANCH   5   7
ATOM      7  C   UNL A   1      35.293  23.295  24.903  1.00  0.00     0.039 A 
ATOM      8  C   UNL A   1      34.564  22.143  25.210  1.00  0.00     0.014 A 
ATOM      9  C   UNL A   1      34.866  24.525  25.398  1.00  0.00     0.014 A 
ATOM     10  C   UNL A   1      33.326  22.248  25.854  1.00  0.00     0.014 A 
ATOM     11  C   UNL A   1      33.673  24.610  26.121  1.00  0.00     0.014 A 
ATOM     12  C   UNL A   1      32.839  23.494  26.275  1.00  0.00     0.040 A 
BRANCH  12  13
ATOM     13  C   UNL A   1      31.500  23.532  26.956  1.00  0.00     0.255 C 
ATOM     14  O   UNL A   1      31.182  22.597  27.692  1.00  0.00    -0.269 OA
ATOM     15  N   UNL A   1      30.655  24.625  26.881  1.00  0.00    -0.322 N 
ATOM     16  H   UNL A   1      29.987  24.688  27.601  1.00  0.00     0.170 HD
BRANCH  15  17
ATOM     17  C   UNL A   1      30.611  25.653  25.934  1.00  0.00     0.041 A 
ATOM     18  C   UNL A   1      29.936  25.420  24.732  1.00  0.00     0.027 A 
ATOM     19  C   UNL A   1      31.148  26.911  26.195  1.00  0.00     0.027 A 
ATOM     20  C   UNL A   1      29.650  26.488  23.870  1.00  0.00     0.014 A 
ATOM     21  C   UNL A   1      30.891  27.962  25.319  1.00  0.00     0.014 A 
ATOM     22  C   UNL A   1      30.096  27.780  24.176  1.00  0.00     0.017 A 
BRANCH  22  23
ATOM     23  C   UNL A   1      29.754  28.969  23.394  1.00  0.00     0.138 A 
ATOM     24  N   UNL A   1      29.806  30.203  23.860  1.00  0.00    -0.229 NA
ATOM     25  N   UNL A   1      29.216  28.967  22.124  1.00  0.00    -0.338 N 
ATOM     26  C   UNL A   1      29.234  30.999  22.909  1.00  0.00     0.089 A 
ATOM     27  C   UNL A   1      28.856  30.254  21.801  1.00  0.00     0.066 A 
ATOM     28  H   UNL A   1      29.108  28.178  21.546  1.00  0.00     0.168 HD
ATOM     29  C   UNL A   1      28.985  32.376  22.942  1.00  0.00     0.030 A 
ATOM     30  C   UNL A   1      28.230  30.819  20.686  1.00  0.00     0.028 A 
ATOM     31  C   UNL A   1      28.354  32.967  21.843  1.00  0.00     0.002 A 
ATOM     32  C   UNL A   1      27.986  32.199  20.735  1.00  0.00     0.002 A 
ENDBRANCH  22  23
ENDBRANCH  15  17
ENDBRANCH  12  13
ENDBRANCH   5   7
ENDBRANCH   2   3
ENDBRANCH   1   2
BRANCH   1  33
ATOM     33  C   UNL A   1      39.531  21.135  25.667  1.00  0.00     0.023 C 
BRANCH  33  34
ATOM     34  C   UNL A   1      40.134  19.994  26.476  1.00  0.00     0.116 C 
BRANCH  34  35
ATOM     35  N   UNL A   1      41.395  19.513  25.934  1.00  0.00    -0.352 N 
ATOM     36  C   UNL A   1      42.565  20.201  25.715  1.00  0.00     0.251 C 
ATOM     37  H   UNL A   1      41.414  18.560  25.690  1.00  0.00     0.163 HD
ATOM     38  O   UNL A   1      43.493  19.652  25.127  1.00  0.00    -0.269 OA
BRANCH  36  39
ATOM     39  C   UNL A   1      42.692  21.606  26.161  1.00  0.00     0.039 A 
ATOM     40  C   UNL A   1      42.789  21.873  27.529  1.00  0.00     0.014 A 
ATOM     41  C   UNL A   1      42.722  22.657  25.240  1.00  0.00     0.014 A 
ATOM     42  C   UNL A   1      42.970  23.187  27.967  1.00  0.00     0.010 A 
ATOM     43  C   UNL A   1      42.994  23.952  25.673  1.00  0.00     0.010 A 
ATOM     44  C   UNL A   1      43.103  24.236  27.042  1.00  0.00    -0.014 A 
BRANCH  44  45
ATOM     45  C   UNL A   1      43.332  25.634  27.494  1.00  0.00     0.031 A 
ATOM     46  C   UNL A   1      44.721  26.219  27.477  1.00  0.00     0.074 A 
ATOM     47  C   UNL A   1      42.303  26.362  27.972  1.00  0.00     0.049 A 
ATOM     48  N   UNL A   1      45.123  27.404  27.856  1.00  0.00    -0.248 NA
ATOM     49  C   UNL A   1      45.808  25.349  26.993  1.00  0.00     0.031 C 
ATOM     50  C   UNL A   1      40.925  25.886  28.122  1.00  0.00     0.029 A 
ATOM     51  N   UNL A   1      42.259  27.651  28.441  1.00  0.00    -0.354 N 
ATOM     52  C   UNL A   1      46.501  27.416  27.678  1.00  0.00     0.074 A 
ATOM     53  C   UNL A   1      46.877  26.101  27.209  1.00  0.00     0.031 C 
ATOM     54  C   UNL A   1      40.171  26.871  28.639  1.00  0.00     0.029 A 
ATOM     55  C   UNL A   1      41.014  28.037  28.885  1.00  0.00     0.049 A 
ATOM     56  H   UNL A   1      43.044  28.244  28.459  1.00  0.00     0.167 HD
ATOM     57  C   UNL A   1      47.375  28.438  27.847  1.00  0.00     0.034 A 
ATOM     58  C   UNL A   1      40.600  29.195  29.433  1.00  0.00     0.034 A 
ATOM     59  C   UNL A   1      46.998  29.754  28.286  1.00  0.00     0.049 A 
ATOM     60  C   UNL A   1      41.585  30.325  29.581  1.00  0.00     0.074 A 
ATOM     61  C   UNL A   1      47.799  30.872  28.443  1.00  0.00     0.029 A 
ATOM     62  N   UNL A   1      45.712  30.132  28.637  1.00  0.00    -0.354 N 
ATOM     63  N   UNL A   1      42.860  30.356  29.277  1.00  0.00    -0.248 NA
ATOM     64  C   UNL A   1      41.064  31.596  30.105  1.00  0.00     0.031 C 
ATOM     65  C   UNL A   1      46.998  31.921  28.909  1.00  0.00     0.029 A 
ATOM     66  C   UNL A   1      45.694  31.467  29.004  1.00  0.00     0.049 A 
ATOM     67  H   UNL A   1      44.926  29.538  28.627  1.00  0.00     0.167 HD
ATOM     68  C   UNL A   1      43.280  31.658  29.525  1.00  0.00     0.074 A 
ATOM     69  C   UNL A   1      42.118  32.389  29.984  1.00  0.00     0.031 C 
ATOM     70  C   UNL A   1      44.517  32.198  29.399  1.00  0.00     0.034 A 
BRANCH  57  71
ATOM     71  C   UNL A   1      48.819  28.188  27.491  1.00  0.00     0.023 A 
ATOM     72  C   UNL A   1      49.236  28.332  26.151  1.00  0.00     0.012 A 
ATOM     73  C   UNL A   1      49.771  27.869  28.478  1.00  0.00     0.148 A 
ATOM     74  C   UNL A   1      50.567  28.126  25.792  1.00  0.00     0.002 A 
ATOM     75  C   UNL A   1      51.106  27.714  28.121  1.00  0.00     0.091 A 
ATOM     76  F   UNL A   1      49.355  27.720  29.744  1.00  0.00    -0.205 F 
ATOM     77  C   UNL A   1      51.503  27.828  26.778  1.00  0.00     0.022 A 
BRANCH  75  78
ATOM     78  S   UNL A   1      52.407  27.409  29.322  1.00  0.00     0.127 S 
ATOM     79  O   UNL A   1      52.272  28.568  30.204  1.00  0.00    -0.237 OA
ATOM     80  O   UNL A   1      51.983  26.140  29.914  1.00  0.00    -0.237 OA
ATOM     81  O   UNL A   1      53.649  27.345  28.565  1.00  0.00    -0.744 OA
ENDBRANCH  75  78
ENDBRANCH  57  71
BRANCH  58  82
ATOM     82  C   UNL A   1      39.176  29.373  29.837  1.00  0.00     0.023 A 
ATOM     83  C   UNL A   1      38.752  28.951  31.113  1.00  0.00     0.012 A 
ATOM     84  C   UNL A   1      38.237  29.949  28.959  1.00  0.00     0.148 A 
ATOM     85  C   UNL A   1      37.411  29.048  31.487  1.00  0.00     0.002 A 
ATOM     86  C   UNL A   1      36.915  30.098  29.361  1.00  0.00     0.091 A 
ATOM     87  F   UNL A   1      38.656  30.338  27.747  1.00  0.00    -0.205 F 
ATOM     88  C   UNL A   1      36.494  29.629  30.615  1.00  0.00     0.022 A 
BRANCH  86  89
ATOM     89  S   UNL A   1      35.698  30.953  28.354  1.00  0.00     0.127 S 
ATOM     90  O   UNL A   1      35.301  29.909  27.415  1.00  0.00    -0.237 OA
ATOM     91  O   UNL A   1      34.682  31.311  29.345  1.00  0.00    -0.237 OA
ATOM     92  O   UNL A   1      36.399  32.093  27.778  1.00  0.00    -0.744 OA
ENDBRANCH  86  89
ENDBRANCH  58  82
BRANCH  70  93
ATOM     93  C   UNL A   1      44.669  33.668  29.693  1.00  0.00     0.023 A 
ATOM     94  C   UNL A   1      45.054  34.101  30.978  1.00  0.00     0.012 A 
ATOM     95  C   UNL A   1      44.470  34.621  28.675  1.00  0.00     0.148 A 
ATOM     96  C   UNL A   1      45.187  35.460  31.257  1.00  0.00     0.002 A 
ATOM     97  C   UNL A   1      44.659  35.971  28.946  1.00  0.00     0.091 A 
ATOM     98  F   UNL A   1      44.086  34.193  27.462  1.00  0.00    -0.205 F 
ATOM     99  C   UNL A   1      45.001  36.394  30.240  1.00  0.00     0.022 A 
BRANCH  97 100
ATOM    100  S   UNL A   1      44.539  37.230  27.671  1.00  0.00     0.127 S 
ATOM    101  O   UNL A   1      44.583  38.459  28.461  1.00  0.00    -0.237 OA
ATOM    102  O   UNL A   1      45.740  36.977  26.872  1.00  0.00    -0.237 OA
ATOM    103  O   UNL A   1      43.287  36.977  26.973  1.00  0.00    -0.744 OA
ENDBRANCH  97 100
ENDBRANCH  70  93
ENDBRANCH  44  45
ENDBRANCH  36  39
ENDBRANCH  34  35
ENDBRANCH  33  34
ENDBRANCH   1  33
TORSDOF 17
ENDMDL
MODEL 3
REMARK VINA RESULT:     -12.3      1.997      7.978
REMARK SMILES O=C(NCCCCNC(=O)c1ccc(-c2c3nc(c(-c4cccc(S(=O)(=O)[O-])c4F)c4ccc([nH]4)c(-c4cccc(S(=O)(=O)[O-])c4F)c4nc(c(-c5cccc(S(=O)(=O)[O-])c5F)c5ccc2[nH]5)C=C4)C=C3)cc1)c1ccc(C(=O)Nc2ccc(-c3nc4ccccc4[nH]3)cc2)cc1
REMARK SMILES IDX 5 1 4 2 3 3 1 4 2 5 74 7 75 8 97 9 76 10 96 11 77 12 78 13
REMARK SMILES IDX 79 14 80 15 81 17 82 18 95 19 83 20 94 21 84 22 85 23 86 24
REMARK SMILES IDX 93 25 87 26 92 27 88 29 91 30 89 31 90 32 6 33 7 34 8 35
REMARK SMILES IDX 9 36 10 38 11 39 12 40 73 41 13 42 72 43 14 44 15 45 16 46
REMARK SMILES IDX 66 47 17 48 71 49 65 50 67 51 18 52 70 53 64 54 63 55 19 57
REMARK SMILES IDX 51 58 31 59 50 60 32 61 35 62 49 63 68 64 33 65 34 66 48 68
REMARK SMILES IDX 69 69 36 70 20 71 21 72 29 73 22 74 24 75 30 76 23 77 25 78
REMARK SMILES IDX 26 79 27 80 28 81 52 82 53 83 61 84 54 85 56 86 62 87 55 88
REMARK SMILES IDX 57 89 58 90 59 91 60 92 37 93 38 94 46 95 39 96 41 97 47 98
REMARK SMILES IDX 40 99 42 100 43 101 44 102 45 103
REMARK H PARENT 3 6 80 16 93 28 8 37 67 56 35 67
REMARK Flexibility Score: inf
ROOT
ATOM      1  C   UNL A   1      34.530  31.015  27.756  1.00  0.00     0.023 C 
ENDROOT
BRANCH   1   2
ATOM      2  C   UNL A   1      34.291  29.556  27.385  1.00  0.00     0.116 C 
BRANCH   2   3
ATOM      3  N   UNL A   1      33.045  29.026  27.911  1.00  0.00    -0.352 N 
ATOM      4  O   UNL A   1      31.096  27.903  27.934  1.00  0.00    -0.269 OA
ATOM      5  C   UNL A   1      32.153  28.142  27.360  1.00  0.00     0.251 C 
ATOM      6  H   UNL A   1      32.803  29.354  28.807  1.00  0.00     0.163 HD
BRANCH   5   7
ATOM      7  C   UNL A   1      32.422  27.505  26.050  1.00  0.00     0.039 A 
ATOM      8  C   UNL A   1      33.713  27.273  25.568  1.00  0.00     0.014 A 
ATOM      9  C   UNL A   1      31.328  27.088  25.296  1.00  0.00     0.014 A 
ATOM     10  C   UNL A   1      33.901  26.792  24.267  1.00  0.00     0.014 A 
ATOM     11  C   UNL A   1      31.525  26.522  24.033  1.00  0.00     0.014 A 
ATOM     12  C   UNL A   1      32.802  26.456  23.462  1.00  0.00     0.040 A 
BRANCH  12  13
ATOM     13  C   UNL A   1      33.078  25.949  22.074  1.00  0.00     0.255 C 
ATOM     14  O   UNL A   1      33.038  26.744  21.133  1.00  0.00    -0.269 OA
ATOM     15  N   UNL A   1      33.485  24.652  21.820  1.00  0.00    -0.322 N 
ATOM     16  H   UNL A   1      33.946  24.517  20.961  1.00  0.00     0.170 HD
BRANCH  15  17
ATOM     17  C   UNL A   1      33.339  23.503  22.605  1.00  0.00     0.041 A 
ATOM     18  C   UNL A   1      32.264  22.651  22.340  1.00  0.00     0.027 A 
ATOM     19  C   UNL A   1      34.275  23.158  23.576  1.00  0.00     0.027 A 
ATOM     20  C   UNL A   1      32.220  21.376  22.922  1.00  0.00     0.014 A 
ATOM     21  C   UNL A   1      34.209  21.904  24.178  1.00  0.00     0.014 A 
ATOM     22  C   UNL A   1      33.216  20.977  23.823  1.00  0.00     0.017 A 
BRANCH  22  23
ATOM     23  C   UNL A   1      33.310  19.633  24.394  1.00  0.00     0.138 A 
ATOM     24  N   UNL A   1      34.381  18.866  24.311  1.00  0.00    -0.229 NA
ATOM     25  N   UNL A   1      32.274  18.934  24.977  1.00  0.00    -0.338 N 
ATOM     26  C   UNL A   1      34.015  17.638  24.785  1.00  0.00     0.089 A 
ATOM     27  C   UNL A   1      32.696  17.647  25.217  1.00  0.00     0.066 A 
ATOM     28  H   UNL A   1      31.383  19.295  25.187  1.00  0.00     0.168 HD
ATOM     29  C   UNL A   1      34.763  16.457  24.850  1.00  0.00     0.030 A 
ATOM     30  C   UNL A   1      32.060  16.515  25.733  1.00  0.00     0.028 A 
ATOM     31  C   UNL A   1      34.150  15.306  25.356  1.00  0.00     0.002 A 
ATOM     32  C   UNL A   1      32.823  15.339  25.791  1.00  0.00     0.002 A 
ENDBRANCH  22  23
ENDBRANCH  15  17
ENDBRANCH  12  13
ENDBRANCH   5   7
ENDBRANCH   2   3
ENDBRANCH   1   2
BRANCH   1  33
ATOM     33  C   UNL A   1      33.275  31.871  27.901  1.00  0.00     0.023 C 
BRANCH  33  34
ATOM     34  C   UNL A   1      33.332  33.235  27.227  1.00  0.00     0.116 C 
BRANCH  34  35
ATOM     35  N   UNL A   1      32.820  34.309  28.064  1.00  0.00    -0.352 N 
ATOM     36  C   UNL A   1      33.261  34.737  29.294  1.00  0.00     0.251 C 
ATOM     37  H   UNL A   1      32.049  34.799  27.699  1.00  0.00     0.163 HD
ATOM     38  O   UNL A   1      32.619  35.582  29.911  1.00  0.00    -0.269 OA
BRANCH  36  39
ATOM     39  C   UNL A   1      34.490  34.158  29.882  1.00  0.00     0.039 A 
ATOM     40  C   UNL A   1      34.374  33.304  30.981  1.00  0.00     0.014 A 
ATOM     41  C   UNL A   1      35.751  34.449  29.354  1.00  0.00     0.014 A 
ATOM     42  C   UNL A   1      35.516  32.701  31.513  1.00  0.00     0.010 A 
ATOM     43  C   UNL A   1      36.874  33.777  29.827  1.00  0.00     0.010 A 
ATOM     44  C   UNL A   1      36.774  32.908  30.923  1.00  0.00    -0.014 A 
BRANCH  44  45
ATOM     45  C   UNL A   1      37.992  32.244  31.458  1.00  0.00     0.031 A 
ATOM     46  C   UNL A   1      38.664  32.777  32.698  1.00  0.00     0.074 A 
ATOM     47  C   UNL A   1      38.527  31.195  30.802  1.00  0.00     0.049 A 
ATOM     48  N   UNL A   1      39.745  32.352  33.298  1.00  0.00    -0.248 NA
ATOM     49  C   UNL A   1      38.056  33.959  33.332  1.00  0.00     0.031 C 
ATOM     50  C   UNL A   1      38.023  30.633  29.546  1.00  0.00     0.029 A 
ATOM     51  N   UNL A   1      39.627  30.425  31.089  1.00  0.00    -0.354 N 
ATOM     52  C   UNL A   1      39.958  33.221  34.362  1.00  0.00     0.074 A 
ATOM     53  C   UNL A   1      38.926  34.232  34.294  1.00  0.00     0.031 C 
ATOM     54  C   UNL A   1      38.807  29.607  29.176  1.00  0.00     0.029 A 
ATOM     55  C   UNL A   1      39.883  29.453  30.149  1.00  0.00     0.049 A 
ATOM     56  H   UNL A   1      40.180  30.556  31.892  1.00  0.00     0.167 HD
ATOM     57  C   UNL A   1      40.899  33.164  35.335  1.00  0.00     0.034 A 
ATOM     58  C   UNL A   1      40.877  28.546  30.075  1.00  0.00     0.034 A 
ATOM     59  C   UNL A   1      41.908  32.142  35.420  1.00  0.00     0.049 A 
ATOM     60  C   UNL A   1      41.892  28.485  31.187  1.00  0.00     0.074 A 
ATOM     61  C   UNL A   1      42.877  31.968  36.392  1.00  0.00     0.029 A 
ATOM     62  N   UNL A   1      42.077  31.122  34.499  1.00  0.00    -0.354 N 
ATOM     63  N   UNL A   1      41.992  29.234  32.258  1.00  0.00    -0.248 NA
ATOM     64  C   UNL A   1      42.904  27.422  31.103  1.00  0.00     0.031 C 
ATOM     65  C   UNL A   1      43.646  30.851  36.047  1.00  0.00     0.029 A 
ATOM     66  C   UNL A   1      43.131  30.309  34.882  1.00  0.00     0.049 A 
ATOM     67  H   UNL A   1      41.530  30.993  33.690  1.00  0.00     0.167 HD
ATOM     68  C   UNL A   1      43.044  28.705  32.997  1.00  0.00     0.074 A 
ATOM     69  C   UNL A   1      43.533  27.558  32.261  1.00  0.00     0.031 C 
ATOM     70  C   UNL A   1      43.568  29.134  34.171  1.00  0.00     0.034 A 
BRANCH  57  71
ATOM     71  C   UNL A   1      40.839  34.203  36.426  1.00  0.00     0.023 A 
ATOM     72  C   UNL A   1      41.411  35.474  36.203  1.00  0.00     0.012 A 
ATOM     73  C   UNL A   1      40.176  33.951  37.642  1.00  0.00     0.148 A 
ATOM     74  C   UNL A   1      41.357  36.462  37.183  1.00  0.00     0.002 A 
ATOM     75  C   UNL A   1      40.082  34.959  38.596  1.00  0.00     0.091 A 
ATOM     76  F   UNL A   1      39.652  32.734  37.845  1.00  0.00    -0.205 F 
ATOM     77  C   UNL A   1      40.684  36.209  38.375  1.00  0.00     0.022 A 
BRANCH  75  78
ATOM     78  S   UNL A   1      39.168  34.765  40.131  1.00  0.00     0.127 S 
ATOM     79  O   UNL A   1      40.177  34.163  41.002  1.00  0.00    -0.237 OA
ATOM     80  O   UNL A   1      38.827  36.149  40.459  1.00  0.00    -0.237 OA
ATOM     81  O   UNL A   1      38.029  33.913  39.818  1.00  0.00    -0.744 OA
ENDBRANCH  75  78
ENDBRANCH  57  71
BRANCH  58  82
ATOM     82  C   UNL A   1      40.937  27.583  28.939  1.00  0.00     0.023 A 
ATOM     83  C   UNL A   1      40.090  26.456  28.932  1.00  0.00     0.012 A 
ATOM     84  C   UNL A   1      41.836  27.772  27.872  1.00  0.00     0.148 A 
ATOM     85  C   UNL A   1      40.175  25.508  27.911  1.00  0.00     0.002 A 
ATOM     86  C   UNL A   1      41.873  26.855  26.828  1.00  0.00     0.091 A 
ATOM     87  F   UNL A   1      42.639  28.844  27.899  1.00  0.00    -0.205 F 
ATOM     88  C   UNL A   1      41.060  25.711  26.855  1.00  0.00     0.022 A 
BRANCH  86  89
ATOM     89  S   UNL A   1      42.887  27.105  25.367  1.00  0.00     0.127 S 
ATOM     90  O   UNL A   1      44.210  27.300  25.952  1.00  0.00    -0.237 OA
ATOM     91  O   UNL A   1      42.708  25.840  24.653  1.00  0.00    -0.237 OA
ATOM     92  O   UNL A   1      42.315  28.261  24.689  1.00  0.00    -0.744 OA
ENDBRANCH  86  89
ENDBRANCH  58  82
BRANCH  70  93
ATOM     93  C   UNL A   1      44.685  28.323  34.774  1.00  0.00     0.023 A 
ATOM     94  C   UNL A   1      46.029  28.659  34.516  1.00  0.00     0.012 A 
ATOM     95  C   UNL A   1      44.397  27.246  35.637  1.00  0.00     0.148 A 
ATOM     96  C   UNL A   1      47.066  27.906  35.064  1.00  0.00     0.002 A 
ATOM     97  C   UNL A   1      45.436  26.536  36.224  1.00  0.00     0.091 A 
ATOM     98  F   UNL A   1      43.112  26.928  35.857  1.00  0.00    -0.205 F 
ATOM     99  C   UNL A   1      46.771  26.852  35.926  1.00  0.00     0.022 A 
BRANCH  97 100
ATOM    100  S   UNL A   1      45.147  25.230  37.424  1.00  0.00     0.127 S 
ATOM    101  O   UNL A   1      46.494  24.994  37.938  1.00  0.00    -0.237 OA
ATOM    102  O   UNL A   1      44.238  25.877  38.372  1.00  0.00    -0.237 OA
ATOM    103  O   UNL A   1      44.556  24.126  36.680  1.00  0.00    -0.744 OA
ENDBRANCH  97 100
ENDBRANCH  70  93
ENDBRANCH  44  45
ENDBRANCH  36  39
ENDBRANCH  34  35
ENDBRANCH  33  34
ENDBRANCH   1  33
TORSDOF 17
ENDMDL
