MODEL 1
REMARK VINA RESULT:     -11.1      0.000      0.000
REMARK SMILES CC[C@@H]1CCc2c(sc(NC(=O)COCC(=O)NCCCCNC(=O)c3ccc(-c4c5nc(c(-c6cccc(S(=O)(=O)[O-])c6F)c6ccc([nH]6)c(-c6cccc(S(=O)(=O)[O-])c6F)c6nc(c(-c7cccc(S(=O)(=O)[O-])c7F)c7ccc4[nH]7)C=C6)C=C5)cc3)c2C(N)=O)C1
REMARK SMILES IDX 19 1 18 2 16 3 17 4 15 6 14 7 13 8 11 9 10 10 12 12 9 13
REMARK SMILES IDX 3 14 4 15 93 16 5 17 7 18 6 19 8 20 89 21 2 22 1 23 90 24
REMARK SMILES IDX 91 25 92 26 20 29 21 30 22 31 23 32 24 33 25 35 26 36 27 37
REMARK SMILES IDX 88 38 28 39 87 40 29 41 30 42 31 43 81 44 32 45 86 46 80 47
REMARK SMILES IDX 82 48 33 49 85 50 79 51 78 52 34 54 66 55 46 56 65 57 47 58
REMARK SMILES IDX 50 59 64 60 83 61 48 62 49 63 63 65 84 66 51 67 35 68 36 69
REMARK SMILES IDX 44 70 37 71 39 72 45 73 38 74 40 75 41 76 42 77 43 78 67 79
REMARK SMILES IDX 68 80 76 81 69 82 71 83 77 84 70 85 72 86 73 87 74 88 75 89
REMARK SMILES IDX 52 90 53 91 61 92 54 93 56 94 62 95 55 96 57 97 58 98 59 99
REMARK SMILES IDX 60 100
REMARK H PARENT 18 5 10 11 91 27 91 28 23 34 82 53 50 64
REMARK Flexibility Score: inf
ROOT
ATOM      1  C   UNL A   1      34.444  25.203  25.822  1.00  0.00     0.116 C 
ENDROOT
BRANCH   1   2
ATOM      2  N   UNL A   1      34.958  24.644  24.583  1.00  0.00    -0.354 N 
ATOM      3  C   UNL A   1      35.890  23.659  24.418  1.00  0.00     0.246 C 
ATOM      4  O   UNL A   1      36.186  23.296  23.279  1.00  0.00    -0.272 OA
ATOM      5  H   UNL A   1      34.586  25.025  23.755  1.00  0.00     0.163 HD
BRANCH   3   6
ATOM      6  C   UNL A   1      36.540  23.023  25.648  1.00  0.00     0.260 C 
BRANCH   6   7
ATOM      7  O   UNL A   1      36.057  21.720  25.936  1.00  0.00    -0.362 OA
BRANCH   7   8
ATOM      8  C   UNL A   1      34.661  21.681  26.164  1.00  0.00     0.261 C 
BRANCH   8   9
ATOM      9  C   UNL A   1      33.899  20.889  25.116  1.00  0.00     0.251 C 
ATOM     10  N   UNL A   1      32.831  21.359  24.426  1.00  0.00    -0.315 N 
ATOM     11  H   UNL A   1      32.511  20.713  23.756  1.00  0.00     0.170 HD
ATOM     12  O   UNL A   1      34.254  19.732  24.850  1.00  0.00    -0.272 OA
BRANCH  10  13
ATOM     13  C   UNL A   1      32.083  22.513  24.430  1.00  0.00     0.108 A 
ATOM     14  C   UNL A   1      30.510  26.930  23.059  1.00  0.00    -0.006 C 
ATOM     15  C   UNL A   1      29.441  26.541  24.109  1.00  0.00     0.009 C 
ATOM     16  C   UNL A   1      31.000  25.661  22.325  1.00  0.00     0.050 C 
ATOM     17  C   UNL A   1      29.968  25.567  25.179  1.00  0.00     0.038 C 
ATOM     18  C   UNL A   1      31.303  24.562  23.293  1.00  0.00     0.011 A 
ATOM     19  C   UNL A   1      30.838  24.486  24.587  1.00  0.00    -0.019 A 
ATOM     20  S   UNL A   1      32.212  23.209  22.859  1.00  0.00    -0.122 S 
ATOM     21  C   UNL A   1      31.276  23.273  25.262  1.00  0.00     0.077 A 
BRANCH  14  22
ATOM     22  C   UNL A   1      31.633  27.768  23.711  1.00  0.00     0.000 C 
ATOM     23  C   UNL A   1      31.175  29.113  24.257  1.00  0.00     0.004 C 
ENDBRANCH  14  22
BRANCH  21  24
ATOM     24  C   UNL A   1      30.826  22.987  26.615  1.00  0.00     0.251 C 
ATOM     25  N   UNL A   1      29.645  22.309  26.705  1.00  0.00    -0.365 N 
ATOM     26  O   UNL A   1      31.366  23.450  27.610  1.00  0.00    -0.269 OA
ATOM     27  H   UNL A   1      29.225  21.942  25.893  1.00  0.00     0.159 HD
ATOM     28  H   UNL A   1      29.214  22.185  27.581  1.00  0.00     0.159 HD
ENDBRANCH  21  24
ENDBRANCH  10  13
ENDBRANCH   8   9
ENDBRANCH   7   8
ENDBRANCH   6   7
ENDBRANCH   3   6
ENDBRANCH   1   2
BRANCH   1  29
ATOM     29  C   UNL A   1      33.642  26.484  25.599  1.00  0.00     0.023 C 
BRANCH  29  30
ATOM     30  C   UNL A   1      33.919  27.625  26.577  1.00  0.00     0.023 C 
BRANCH  30  31
ATOM     31  C   UNL A   1      34.509  28.893  25.972  1.00  0.00     0.116 C 
BRANCH  31  32
ATOM     32  N   UNL A   1      34.000  30.115  26.573  1.00  0.00    -0.352 N 
ATOM     33  C   UNL A   1      34.514  30.845  27.621  1.00  0.00     0.251 C 
ATOM     34  H   UNL A   1      33.171  30.471  26.175  1.00  0.00     0.163 HD
ATOM     35  O   UNL A   1      33.893  31.808  28.061  1.00  0.00    -0.269 OA
BRANCH  33  36
ATOM     36  C   UNL A   1      35.799  30.447  28.245  1.00  0.00     0.039 A 
ATOM     37  C   UNL A   1      35.771  29.687  29.419  1.00  0.00     0.014 A 
ATOM     38  C   UNL A   1      37.023  30.796  27.670  1.00  0.00     0.014 A 
ATOM     39  C   UNL A   1      36.966  29.215  29.972  1.00  0.00     0.010 A 
ATOM     40  C   UNL A   1      38.206  30.265  28.181  1.00  0.00     0.010 A 
ATOM     41  C   UNL A   1      38.192  29.467  29.336  1.00  0.00    -0.014 A 
BRANCH  41  42
ATOM     42  C   UNL A   1      39.466  28.891  29.843  1.00  0.00     0.031 A 
ATOM     43  C   UNL A   1      40.204  29.555  30.976  1.00  0.00     0.074 A 
ATOM     44  C   UNL A   1      40.020  27.835  29.211  1.00  0.00     0.049 A 
ATOM     45  N   UNL A   1      41.366  29.249  31.495  1.00  0.00    -0.248 NA
ATOM     46  C   UNL A   1      39.571  30.736  31.587  1.00  0.00     0.031 C 
ATOM     47  C   UNL A   1      39.457  27.157  28.040  1.00  0.00     0.029 A 
ATOM     48  N   UNL A   1      41.199  27.170  29.440  1.00  0.00    -0.354 N 
ATOM     49  C   UNL A   1      41.626  30.224  32.450  1.00  0.00     0.074 A 
ATOM     50  C   UNL A   1      40.509  31.142  32.432  1.00  0.00     0.031 C 
ATOM     51  C   UNL A   1      40.294  26.182  27.650  1.00  0.00     0.029 A 
ATOM     52  C   UNL A   1      41.461  26.174  28.526  1.00  0.00     0.049 A 
ATOM     53  H   UNL A   1      41.802  27.384  30.189  1.00  0.00     0.167 HD
ATOM     54  C   UNL A   1      42.685  30.330  33.287  1.00  0.00     0.034 A 
ATOM     55  C   UNL A   1      42.523  25.352  28.402  1.00  0.00     0.034 A 
ATOM     56  C   UNL A   1      43.753  29.371  33.363  1.00  0.00     0.049 A 
ATOM     57  C   UNL A   1      43.640  25.439  29.407  1.00  0.00     0.074 A 
ATOM     58  C   UNL A   1      44.798  29.321  34.271  1.00  0.00     0.029 A 
ATOM     59  N   UNL A   1      43.915  28.296  32.506  1.00  0.00    -0.354 N 
ATOM     60  N   UNL A   1      43.766  26.247  30.431  1.00  0.00    -0.248 NA
ATOM     61  C   UNL A   1      44.742  24.475  29.266  1.00  0.00     0.031 C 
ATOM     62  C   UNL A   1      45.598  28.218  33.955  1.00  0.00     0.029 A 
ATOM     63  C   UNL A   1      45.047  27.579  32.858  1.00  0.00     0.049 A 
ATOM     64  H   UNL A   1      43.315  28.074  31.757  1.00  0.00     0.167 HD
ATOM     65  C   UNL A   1      44.939  25.867  31.075  1.00  0.00     0.074 A 
ATOM     66  C   UNL A   1      45.474  24.740  30.340  1.00  0.00     0.031 C 
ATOM     67  C   UNL A   1      45.529  26.415  32.164  1.00  0.00     0.034 A 
BRANCH  54  68
ATOM     68  C   UNL A   1      42.715  31.485  34.250  1.00  0.00     0.023 A 
ATOM     69  C   UNL A   1      43.395  32.666  33.890  1.00  0.00     0.012 A 
ATOM     70  C   UNL A   1      41.989  31.443  35.457  1.00  0.00     0.148 A 
ATOM     71  C   UNL A   1      43.371  33.781  34.726  1.00  0.00     0.002 A 
ATOM     72  C   UNL A   1      41.938  32.571  36.267  1.00  0.00     0.091 A 
ATOM     73  F   UNL A   1      41.364  30.303  35.787  1.00  0.00    -0.205 F 
ATOM     74  C   UNL A   1      42.634  33.738  35.906  1.00  0.00     0.022 A 
BRANCH  72  75
ATOM     75  S   UNL A   1      40.958  32.646  37.771  1.00  0.00     0.127 S 
ATOM     76  O   UNL A   1      39.735  31.957  37.360  1.00  0.00    -0.237 OA
ATOM     77  O   UNL A   1      41.789  31.900  38.716  1.00  0.00    -0.237 OA
ATOM     78  O   UNL A   1      40.803  34.061  38.080  1.00  0.00    -0.744 OA
ENDBRANCH  72  75
ENDBRANCH  54  68
BRANCH  55  79
ATOM     79  C   UNL A   1      42.550  24.321  27.326  1.00  0.00     0.023 A 
ATOM     80  C   UNL A   1      43.224  24.603  26.121  1.00  0.00     0.012 A 
ATOM     81  C   UNL A   1      41.927  23.069  27.484  1.00  0.00     0.148 A 
ATOM     82  C   UNL A   1      43.244  23.672  25.081  1.00  0.00     0.002 A 
ATOM     83  C   UNL A   1      41.997  22.126  26.464  1.00  0.00     0.091 A 
ATOM     84  F   UNL A   1      41.272  22.821  28.627  1.00  0.00    -0.205 F 
ATOM     85  C   UNL A   1      42.639  22.431  25.256  1.00  0.00     0.022 A 
BRANCH  83  86
ATOM     86  S   UNL A   1      41.357  20.460  26.678  1.00  0.00     0.127 S 
ATOM     87  O   UNL A   1      42.070  20.013  27.870  1.00  0.00    -0.237 OA
ATOM     88  O   UNL A   1      39.925  20.695  26.869  1.00  0.00    -0.237 OA
ATOM     89  O   UNL A   1      41.682  19.771  25.435  1.00  0.00    -0.744 OA
ENDBRANCH  83  86
ENDBRANCH  55  79
BRANCH  67  90
ATOM     90  C   UNL A   1      46.806  25.791  32.659  1.00  0.00     0.023 A 
ATOM     91  C   UNL A   1      46.765  24.893  33.745  1.00  0.00     0.012 A 
ATOM     92  C   UNL A   1      48.028  26.023  31.998  1.00  0.00     0.148 A 
ATOM     93  C   UNL A   1      47.926  24.257  34.180  1.00  0.00     0.002 A 
ATOM     94  C   UNL A   1      49.173  25.351  32.410  1.00  0.00     0.091 A 
ATOM     95  F   UNL A   1      48.050  26.897  30.980  1.00  0.00    -0.205 F 
ATOM     96  C   UNL A   1      49.126  24.475  33.506  1.00  0.00     0.022 A 
BRANCH  94  97
ATOM     97  S   UNL A   1      50.736  25.505  31.537  1.00  0.00     0.127 S 
ATOM     98  O   UNL A   1      51.056  26.915  31.744  1.00  0.00    -0.237 OA
ATOM     99  O   UNL A   1      51.597  24.572  32.264  1.00  0.00    -0.237 OA
ATOM    100  O   UNL A   1      50.459  25.116  30.160  1.00  0.00    -0.744 OA
ENDBRANCH  94  97
ENDBRANCH  67  90
ENDBRANCH  41  42
ENDBRANCH  33  36
ENDBRANCH  31  32
ENDBRANCH  30  31
ENDBRANCH  29  30
ENDBRANCH   1  29
TORSDOF 20
ENDMDL
MODEL 2
REMARK VINA RESULT:     -10.7      1.816      2.117
REMARK SMILES CC[C@@H]1CCc2c(sc(NC(=O)COCC(=O)NCCCCNC(=O)c3ccc(-c4c5nc(c(-c6cccc(S(=O)(=O)[O-])c6F)c6ccc([nH]6)c(-c6cccc(S(=O)(=O)[O-])c6F)c6nc(c(-c7cccc(S(=O)(=O)[O-])c7F)c7ccc4[nH]7)C=C6)C=C5)cc3)c2C(N)=O)C1
REMARK SMILES IDX 19 1 18 2 16 3 17 4 15 6 14 7 13 8 11 9 10 10 12 12 9 13
REMARK SMILES IDX 3 14 4 15 93 16 5 17 7 18 6 19 8 20 89 21 2 22 1 23 90 24
REMARK SMILES IDX 91 25 92 26 20 29 21 30 22 31 23 32 24 33 25 35 26 36 27 37
REMARK SMILES IDX 88 38 28 39 87 40 29 41 30 42 31 43 81 44 32 45 86 46 80 47
REMARK SMILES IDX 82 48 33 49 85 50 79 51 78 52 34 54 66 55 46 56 65 57 47 58
REMARK SMILES IDX 50 59 64 60 83 61 48 62 49 63 63 65 84 66 51 67 35 68 36 69
REMARK SMILES IDX 44 70 37 71 39 72 45 73 38 74 40 75 41 76 42 77 43 78 67 79
REMARK SMILES IDX 68 80 76 81 69 82 71 83 77 84 70 85 72 86 73 87 74 88 75 89
REMARK SMILES IDX 52 90 53 91 61 92 54 93 56 94 62 95 55 96 57 97 58 98 59 99
REMARK SMILES IDX 60 100
REMARK H PARENT 18 5 10 11 91 27 91 28 23 34 82 53 50 64
REMARK Flexibility Score: inf
ROOT
ATOM      1  C   UNL A   1      34.680  24.939  26.046  1.00  0.00     0.116 C 
ENDROOT
BRANCH   1   2
ATOM      2  N   UNL A   1      35.411  24.488  24.875  1.00  0.00    -0.354 N 
ATOM      3  C   UNL A   1      36.180  23.369  24.731  1.00  0.00     0.246 C 
ATOM      4  O   UNL A   1      36.710  23.138  23.644  1.00  0.00    -0.272 OA
ATOM      5  H   UNL A   1      35.343  25.066  24.080  1.00  0.00     0.163 HD
BRANCH   3   6
ATOM      6  C   UNL A   1      36.362  22.423  25.920  1.00  0.00     0.260 C 
BRANCH   6   7
ATOM      7  O   UNL A   1      35.682  21.186  25.772  1.00  0.00    -0.362 OA
BRANCH   7   8
ATOM      8  C   UNL A   1      34.319  21.253  26.142  1.00  0.00     0.261 C 
BRANCH   8   9
ATOM      9  C   UNL A   1      33.396  20.513  25.190  1.00  0.00     0.251 C 
ATOM     10  N   UNL A   1      32.362  21.084  24.524  1.00  0.00    -0.315 N 
ATOM     11  H   UNL A   1      31.918  20.450  23.916  1.00  0.00     0.170 HD
ATOM     12  O   UNL A   1      33.574  19.304  24.986  1.00  0.00    -0.272 OA
BRANCH  10  13
ATOM     13  C   UNL A   1      31.779  22.329  24.487  1.00  0.00     0.108 A 
ATOM     14  C   UNL A   1      30.730  26.826  22.894  1.00  0.00    -0.006 C 
ATOM     15  C   UNL A   1      29.689  26.656  24.028  1.00  0.00     0.009 C 
ATOM     16  C   UNL A   1      30.995  25.457  22.226  1.00  0.00     0.050 C 
ATOM     17  C   UNL A   1      30.148  25.688  25.133  1.00  0.00     0.038 C 
ATOM     18  C   UNL A   1      31.209  24.390  23.252  1.00  0.00     0.011 A 
ATOM     19  C   UNL A   1      30.824  24.461  24.572  1.00  0.00    -0.019 A 
ATOM     20  S   UNL A   1      31.896  22.899  22.866  1.00  0.00    -0.122 S 
ATOM     21  C   UNL A   1      31.138  23.244  25.308  1.00  0.00     0.077 A 
BRANCH  14  22
ATOM     22  C   UNL A   1      31.996  27.539  23.420  1.00  0.00     0.000 C 
ATOM     23  C   UNL A   1      33.080  27.745  22.372  1.00  0.00     0.004 C 
ENDBRANCH  14  22
BRANCH  21  24
ATOM     24  C   UNL A   1      30.743  23.110  26.700  1.00  0.00     0.251 C 
ATOM     25  N   UNL A   1      29.534  22.514  26.908  1.00  0.00    -0.365 N 
ATOM     26  O   UNL A   1      31.358  23.629  27.621  1.00  0.00    -0.269 OA
ATOM     27  H   UNL A   1      29.053  22.100  26.155  1.00  0.00     0.159 HD
ATOM     28  H   UNL A   1      29.142  22.496  27.811  1.00  0.00     0.159 HD
ENDBRANCH  21  24
ENDBRANCH  10  13
ENDBRANCH   8   9
ENDBRANCH   7   8
ENDBRANCH   6   7
ENDBRANCH   3   6
ENDBRANCH   1   2
BRANCH   1  29
ATOM     29  C   UNL A   1      33.646  26.014  25.715  1.00  0.00     0.023 C 
BRANCH  29  30
ATOM     30  C   UNL A   1      33.746  27.308  26.521  1.00  0.00     0.023 C 
BRANCH  30  31
ATOM     31  C   UNL A   1      34.389  28.490  25.807  1.00  0.00     0.116 C 
BRANCH  31  32
ATOM     32  N   UNL A   1      33.940  29.782  26.301  1.00  0.00    -0.352 N 
ATOM     33  C   UNL A   1      34.493  30.575  27.281  1.00  0.00     0.251 C 
ATOM     34  H   UNL A   1      33.126  30.140  25.875  1.00  0.00     0.163 HD
ATOM     35  O   UNL A   1      33.919  31.600  27.637  1.00  0.00    -0.269 OA
BRANCH  33  36
ATOM     36  C   UNL A   1      35.762  30.173  27.935  1.00  0.00     0.039 A 
ATOM     37  C   UNL A   1      35.723  29.710  29.255  1.00  0.00     0.014 A 
ATOM     38  C   UNL A   1      36.979  30.227  27.252  1.00  0.00     0.014 A 
ATOM     39  C   UNL A   1      36.890  29.233  29.860  1.00  0.00     0.010 A 
ATOM     40  C   UNL A   1      38.125  29.684  27.830  1.00  0.00     0.010 A 
ATOM     41  C   UNL A   1      38.093  29.179  29.140  1.00  0.00    -0.014 A 
BRANCH  41  42
ATOM     42  C   UNL A   1      39.324  28.579  29.722  1.00  0.00     0.031 A 
ATOM     43  C   UNL A   1      39.957  29.182  30.949  1.00  0.00     0.074 A 
ATOM     44  C   UNL A   1      39.938  27.562  29.083  1.00  0.00     0.049 A 
ATOM     45  N   UNL A   1      41.072  28.852  31.548  1.00  0.00    -0.248 NA
ATOM     46  C   UNL A   1      39.264  30.326  31.567  1.00  0.00     0.031 C 
ATOM     47  C   UNL A   1      39.484  26.949  27.832  1.00  0.00     0.029 A 
ATOM     48  N   UNL A   1      41.100  26.889  29.376  1.00  0.00    -0.354 N 
ATOM     49  C   UNL A   1      41.241  29.773  32.574  1.00  0.00     0.074 A 
ATOM     50  C   UNL A   1      40.123  30.687  32.511  1.00  0.00     0.031 C 
ATOM     51  C   UNL A   1      40.360  25.999  27.462  1.00  0.00     0.029 A 
ATOM     52  C   UNL A   1      41.447  25.947  28.434  1.00  0.00     0.049 A 
ATOM     53  H   UNL A   1      41.634  27.064  30.184  1.00  0.00     0.167 HD
ATOM     54  C   UNL A   1      42.223  29.836  33.504  1.00  0.00     0.034 A 
ATOM     55  C   UNL A   1      42.522  25.137  28.357  1.00  0.00     0.034 A 
ATOM     56  C   UNL A   1      43.289  28.878  33.619  1.00  0.00     0.049 A 
ATOM     57  C   UNL A   1      43.548  25.172  29.458  1.00  0.00     0.074 A 
ATOM     58  C   UNL A   1      44.252  28.782  34.609  1.00  0.00     0.029 A 
ATOM     59  N   UNL A   1      43.533  27.853  32.721  1.00  0.00    -0.354 N 
ATOM     60  N   UNL A   1      43.580  25.922  30.532  1.00  0.00    -0.248 NA
ATOM     61  C   UNL A   1      44.666  24.220  29.359  1.00  0.00     0.031 C 
ATOM     62  C   UNL A   1      45.086  27.701  34.304  1.00  0.00     0.029 A 
ATOM     63  C   UNL A   1      44.636  27.122  33.129  1.00  0.00     0.049 A 
ATOM     64  H   UNL A   1      43.001  27.671  31.913  1.00  0.00     0.167 HD
ATOM     65  C   UNL A   1      44.696  25.511  31.252  1.00  0.00     0.074 A 
ATOM     66  C   UNL A   1      45.301  24.428  30.505  1.00  0.00     0.031 C 
ATOM     67  C   UNL A   1      45.186  26.000  32.417  1.00  0.00     0.034 A 
BRANCH  54  68
ATOM     68  C   UNL A   1      42.161  30.936  34.528  1.00  0.00     0.023 A 
ATOM     69  C   UNL A   1      41.538  30.692  35.768  1.00  0.00     0.012 A 
ATOM     70  C   UNL A   1      42.804  32.171  34.306  1.00  0.00     0.148 A 
ATOM     71  C   UNL A   1      41.537  31.664  36.766  1.00  0.00     0.002 A 
ATOM     72  C   UNL A   1      42.832  33.121  35.320  1.00  0.00     0.091 A 
ATOM     73  F   UNL A   1      43.375  32.389  33.113  1.00  0.00    -0.205 F 
ATOM     74  C   UNL A   1      42.193  32.872  36.547  1.00  0.00     0.022 A 
BRANCH  72  75
ATOM     75  S   UNL A   1      43.713  34.680  35.168  1.00  0.00     0.127 S 
ATOM     76  O   UNL A   1      45.104  34.230  35.127  1.00  0.00    -0.237 OA
ATOM     77  O   UNL A   1      43.203  35.198  33.898  1.00  0.00    -0.237 OA
ATOM     78  O   UNL A   1      43.346  35.466  36.338  1.00  0.00    -0.744 OA
ENDBRANCH  72  75
ENDBRANCH  54  68
BRANCH  55  79
ATOM     79  C   UNL A   1      42.650  24.167  27.232  1.00  0.00     0.023 A 
ATOM     80  C   UNL A   1      43.316  24.563  26.056  1.00  0.00     0.012 A 
ATOM     81  C   UNL A   1      42.130  22.863  27.317  1.00  0.00     0.148 A 
ATOM     82  C   UNL A   1      43.429  23.691  24.972  1.00  0.00     0.002 A 
ATOM     83  C   UNL A   1      42.292  21.981  26.253  1.00  0.00     0.091 A 
ATOM     84  F   UNL A   1      41.479  22.504  28.433  1.00  0.00    -0.205 F 
ATOM     85  C   UNL A   1      42.925  22.397  25.074  1.00  0.00     0.022 A 
BRANCH  83  86
ATOM     86  S   UNL A   1      41.788  20.260  26.372  1.00  0.00     0.127 S 
ATOM     87  O   UNL A   1      42.286  19.890  27.693  1.00  0.00    -0.237 OA
ATOM     88  O   UNL A   1      40.331  20.351  26.267  1.00  0.00    -0.237 OA
ATOM     89  O   UNL A   1      42.422  19.603  25.236  1.00  0.00    -0.744 OA
ENDBRANCH  83  86
ENDBRANCH  55  79
BRANCH  67  90
ATOM     90  C   UNL A   1      46.421  25.354  32.985  1.00  0.00     0.023 A 
ATOM     91  C   UNL A   1      47.686  25.905  32.701  1.00  0.00     0.012 A 
ATOM     92  C   UNL A   1      46.324  24.260  33.868  1.00  0.00     0.148 A 
ATOM     93  C   UNL A   1      48.838  25.361  33.267  1.00  0.00     0.002 A 
ATOM     94  C   UNL A   1      47.472  23.750  34.462  1.00  0.00     0.091 A 
ATOM     95  F   UNL A   1      45.112  23.737  34.109  1.00  0.00    -0.205 F 
ATOM     96  C   UNL A   1      48.731  24.294  34.156  1.00  0.00     0.022 A 
BRANCH  94  97
ATOM     97  S   UNL A   1      47.410  22.440  35.690  1.00  0.00     0.127 S 
ATOM     98  O   UNL A   1      46.917  21.314  34.900  1.00  0.00    -0.237 OA
ATOM     99  O   UNL A   1      48.810  22.327  36.103  1.00  0.00    -0.237 OA
ATOM    100  O   UNL A   1      46.514  22.919  36.734  1.00  0.00    -0.744 OA
ENDBRANCH  94  97
ENDBRANCH  67  90
ENDBRANCH  41  42
ENDBRANCH  33  36
ENDBRANCH  31  32
ENDBRANCH  30  31
ENDBRANCH  29  30
ENDBRANCH   1  29
TORSDOF 20
ENDMDL
MODEL 3
REMARK VINA RESULT:     -10.6      1.520      2.756
REMARK SMILES CC[C@@H]1CCc2c(sc(NC(=O)COCC(=O)NCCCCNC(=O)c3ccc(-c4c5nc(c(-c6cccc(S(=O)(=O)[O-])c6F)c6ccc([nH]6)c(-c6cccc(S(=O)(=O)[O-])c6F)c6nc(c(-c7cccc(S(=O)(=O)[O-])c7F)c7ccc4[nH]7)C=C6)C=C5)cc3)c2C(N)=O)C1
REMARK SMILES IDX 19 1 18 2 16 3 17 4 15 6 14 7 13 8 11 9 10 10 12 12 9 13
REMARK SMILES IDX 3 14 4 15 93 16 5 17 7 18 6 19 8 20 89 21 2 22 1 23 90 24
REMARK SMILES IDX 91 25 92 26 20 29 21 30 22 31 23 32 24 33 25 35 26 36 27 37
REMARK SMILES IDX 88 38 28 39 87 40 29 41 30 42 31 43 81 44 32 45 86 46 80 47
REMARK SMILES IDX 82 48 33 49 85 50 79 51 78 52 34 54 66 55 46 56 65 57 47 58
REMARK SMILES IDX 50 59 64 60 83 61 48 62 49 63 63 65 84 66 51 67 35 68 36 69
REMARK SMILES IDX 44 70 37 71 39 72 45 73 38 74 40 75 41 76 42 77 43 78 67 79
REMARK SMILES IDX 68 80 76 81 69 82 71 83 77 84 70 85 72 86 73 87 74 88 75 89
REMARK SMILES IDX 52 90 53 91 61 92 54 93 56 94 62 95 55 96 57 97 58 98 59 99
REMARK SMILES IDX 60 100
REMARK H PARENT 18 5 10 11 91 27 91 28 23 34 82 53 50 64
REMARK Flexibility Score: inf
ROOT
ATOM      1  C   UNL A   1      30.661  26.437  26.147  1.00  0.00     0.116 C 
ENDROOT
BRANCH   1   2
ATOM      2  N   UNL A   1      31.314  25.443  26.980  1.00  0.00    -0.354 N 
ATOM      3  C   UNL A   1      31.602  24.141  26.683  1.00  0.00     0.246 C 
ATOM      4  O   UNL A   1      32.188  23.448  27.516  1.00  0.00    -0.272 OA
ATOM      5  H   UNL A   1      31.586  25.748  27.876  1.00  0.00     0.163 HD
BRANCH   3   6
ATOM      6  C   UNL A   1      31.197  23.573  25.321  1.00  0.00     0.260 C 
BRANCH   6   7
ATOM      7  O   UNL A   1      32.282  23.025  24.588  1.00  0.00    -0.362 OA
BRANCH   7   8
ATOM      8  C   UNL A   1      33.205  24.003  24.147  1.00  0.00     0.261 C 
BRANCH   8   9
ATOM      9  C   UNL A   1      33.237  24.168  22.638  1.00  0.00     0.251 C 
ATOM     10  N   UNL A   1      32.755  25.247  21.974  1.00  0.00    -0.315 N 
ATOM     11  H   UNL A   1      32.917  25.187  21.005  1.00  0.00     0.170 HD
ATOM     12  O   UNL A   1      33.733  23.273  21.938  1.00  0.00    -0.272 OA
BRANCH  10  13
ATOM     13  C   UNL A   1      32.095  26.403  22.317  1.00  0.00     0.108 A 
ATOM     14  C   UNL A   1      28.391  29.529  22.927  1.00  0.00    -0.006 C 
ATOM     15  C   UNL A   1      29.538  30.273  23.655  1.00  0.00     0.009 C 
ATOM     16  C   UNL A   1      28.579  28.003  23.089  1.00  0.00     0.050 C 
ATOM     17  C   UNL A   1      30.932  29.923  23.105  1.00  0.00     0.038 C 
ATOM     18  C   UNL A   1      29.994  27.604  22.811  1.00  0.00     0.011 A 
ATOM     19  C   UNL A   1      31.081  28.448  22.824  1.00  0.00    -0.019 A 
ATOM     20  S   UNL A   1      30.432  26.000  22.521  1.00  0.00    -0.122 S 
ATOM     21  C   UNL A   1      32.329  27.749  22.553  1.00  0.00     0.077 A 
BRANCH  14  22
ATOM     22  C   UNL A   1      28.274  30.009  21.463  1.00  0.00     0.000 C 
ATOM     23  C   UNL A   1      28.060  31.508  21.310  1.00  0.00     0.004 C 
ENDBRANCH  14  22
BRANCH  21  24
ATOM     24  C   UNL A   1      33.592  28.468  22.594  1.00  0.00     0.251 C 
ATOM     25  N   UNL A   1      33.712  29.378  23.604  1.00  0.00    -0.365 N 
ATOM     26  O   UNL A   1      34.431  28.394  21.707  1.00  0.00    -0.269 OA
ATOM     27  H   UNL A   1      33.027  29.423  24.310  1.00  0.00     0.159 HD
ATOM     28  H   UNL A   1      34.483  29.989  23.627  1.00  0.00     0.159 HD
ENDBRANCH  21  24
ENDBRANCH  10  13
ENDBRANCH   8   9
ENDBRANCH   7   8
ENDBRANCH   6   7
ENDBRANCH   3   6
ENDBRANCH   1   2
BRANCH   1  29
ATOM     29  C   UNL A   1      31.379  27.786  26.170  1.00  0.00     0.023 C 
BRANCH  29  30
ATOM     30  C   UNL A   1      32.120  28.128  27.462  1.00  0.00     0.023 C 
BRANCH  30  31
ATOM     31  C   UNL A   1      33.518  28.709  27.294  1.00  0.00     0.116 C 
BRANCH  31  32
ATOM     32  N   UNL A   1      33.591  30.135  27.572  1.00  0.00    -0.352 N 
ATOM     33  C   UNL A   1      34.613  30.853  28.152  1.00  0.00     0.251 C 
ATOM     34  H   UNL A   1      32.800  30.660  27.308  1.00  0.00     0.163 HD
ATOM     35  O   UNL A   1      34.460  32.047  28.397  1.00  0.00    -0.269 OA
BRANCH  33  36
ATOM     36  C   UNL A   1      35.882  30.180  28.516  1.00  0.00     0.039 A 
ATOM     37  C   UNL A   1      36.957  30.240  27.624  1.00  0.00     0.014 A 
ATOM     38  C   UNL A   1      36.025  29.512  29.735  1.00  0.00     0.014 A 
ATOM     39  C   UNL A   1      38.194  29.698  27.986  1.00  0.00     0.010 A 
ATOM     40  C   UNL A   1      37.277  29.038  30.124  1.00  0.00     0.010 A 
ATOM     41  C   UNL A   1      38.376  29.127  29.255  1.00  0.00    -0.014 A 
BRANCH  41  42
ATOM     42  C   UNL A   1      39.707  28.638  29.707  1.00  0.00     0.031 A 
ATOM     43  C   UNL A   1      40.454  29.362  30.796  1.00  0.00     0.074 A 
ATOM     44  C   UNL A   1      40.295  27.611  29.060  1.00  0.00     0.049 A 
ATOM     45  N   UNL A   1      41.655  29.136  31.262  1.00  0.00    -0.248 NA
ATOM     46  C   UNL A   1      39.776  30.509  31.425  1.00  0.00     0.031 C 
ATOM     47  C   UNL A   1      39.723  26.884  27.924  1.00  0.00     0.029 A 
ATOM     48  N   UNL A   1      41.524  27.024  29.239  1.00  0.00    -0.354 N 
ATOM     49  C   UNL A   1      41.898  30.139  32.193  1.00  0.00     0.074 A 
ATOM     50  C   UNL A   1      40.726  30.984  32.219  1.00  0.00     0.031 C 
ATOM     51  C   UNL A   1      40.600  25.958  27.504  1.00  0.00     0.029 A 
ATOM     52  C   UNL A   1      41.805  26.034  28.324  1.00  0.00     0.049 A 
ATOM     53  H   UNL A   1      42.147  27.285  29.956  1.00  0.00     0.167 HD
ATOM     54  C   UNL A   1      42.986  30.321  32.978  1.00  0.00     0.034 A 
ATOM     55  C   UNL A   1      42.910  25.279  28.158  1.00  0.00     0.034 A 
ATOM     56  C   UNL A   1      44.115  29.433  33.013  1.00  0.00     0.049 A 
ATOM     57  C   UNL A   1      44.065  25.450  29.107  1.00  0.00     0.074 A 
ATOM     58  C   UNL A   1      45.203  29.461  33.870  1.00  0.00     0.029 A 
ATOM     59  N   UNL A   1      44.305  28.359  32.160  1.00  0.00    -0.354 N 
ATOM     60  N   UNL A   1      44.189  26.278  30.116  1.00  0.00    -0.248 NA
ATOM     61  C   UNL A   1      45.219  24.554  28.923  1.00  0.00     0.031 C 
ATOM     62  C   UNL A   1      46.056  28.406  33.528  1.00  0.00     0.029 A 
ATOM     63  C   UNL A   1      45.495  27.719  32.464  1.00  0.00     0.049 A 
ATOM     64  H   UNL A   1      43.686  28.090  31.443  1.00  0.00     0.167 HD
ATOM     65  C   UNL A   1      45.412  25.980  30.707  1.00  0.00     0.074 A 
ATOM     66  C   UNL A   1      45.982  24.879  29.958  1.00  0.00     0.031 C 
ATOM     67  C   UNL A   1      46.017  26.579  31.760  1.00  0.00     0.034 A 
BRANCH  54  68
ATOM     68  C   UNL A   1      42.988  31.489  33.926  1.00  0.00     0.023 A 
ATOM     69  C   UNL A   1      43.487  32.733  33.489  1.00  0.00     0.012 A 
ATOM     70  C   UNL A   1      42.407  31.386  35.206  1.00  0.00     0.148 A 
ATOM     71  C   UNL A   1      43.426  33.852  34.317  1.00  0.00     0.002 A 
ATOM     72  C   UNL A   1      42.316  32.515  36.011  1.00  0.00     0.091 A 
ATOM     73  F   UNL A   1      41.955  30.189  35.608  1.00  0.00    -0.205 F 
ATOM     74  C   UNL A   1      42.831  33.746  35.571  1.00  0.00     0.022 A 
BRANCH  72  75
ATOM     75  S   UNL A   1      41.502  32.504  37.612  1.00  0.00     0.127 S 
ATOM     76  O   UNL A   1      41.621  33.906  38.013  1.00  0.00    -0.237 OA
ATOM     77  O   UNL A   1      40.144  32.084  37.264  1.00  0.00    -0.237 OA
ATOM     78  O   UNL A   1      42.241  31.556  38.434  1.00  0.00    -0.744 OA
ENDBRANCH  72  75
ENDBRANCH  54  68
BRANCH  55  79
ATOM     79  C   UNL A   1      42.952  24.238  27.092  1.00  0.00     0.023 A 
ATOM     80  C   UNL A   1      43.655  24.502  25.900  1.00  0.00     0.012 A 
ATOM     81  C   UNL A   1      42.314  22.993  27.248  1.00  0.00     0.148 A 
ATOM     82  C   UNL A   1      43.690  23.561  24.869  1.00  0.00     0.002 A 
ATOM     83  C   UNL A   1      42.398  22.040  26.238  1.00  0.00     0.091 A 
ATOM     84  F   UNL A   1      41.631  22.762  28.378  1.00  0.00    -0.205 F 
ATOM     85  C   UNL A   1      43.070  22.327  25.042  1.00  0.00     0.022 A 
BRANCH  83  86
ATOM     86  S   UNL A   1      41.739  20.382  26.454  1.00  0.00     0.127 S 
ATOM     87  O   UNL A   1      40.301  20.618  26.388  1.00  0.00    -0.237 OA
ATOM     88  O   UNL A   1      42.299  19.669  25.304  1.00  0.00    -0.237 OA
ATOM     89  O   UNL A   1      42.262  19.934  27.738  1.00  0.00    -0.744 OA
ENDBRANCH  83  86
ENDBRANCH  55  79
BRANCH  67  90
ATOM     90  C   UNL A   1      47.353  26.043  32.200  1.00  0.00     0.023 A 
ATOM     91  C   UNL A   1      47.416  25.132  33.274  1.00  0.00     0.012 A 
ATOM     92  C   UNL A   1      48.530  26.370  31.498  1.00  0.00     0.148 A 
ATOM     93  C   UNL A   1      48.635  24.576  33.658  1.00  0.00     0.002 A 
ATOM     94  C   UNL A   1      49.734  25.777  31.860  1.00  0.00     0.091 A 
ATOM     95  F   UNL A   1      48.451  27.254  30.493  1.00  0.00    -0.205 F 
ATOM     96  C   UNL A   1      49.790  24.887  32.944  1.00  0.00     0.022 A 
BRANCH  94  97
ATOM     97  S   UNL A   1      51.249  26.053  30.933  1.00  0.00     0.127 S 
ATOM     98  O   UNL A   1      51.468  27.483  31.138  1.00  0.00    -0.237 OA
ATOM     99  O   UNL A   1      52.204  25.185  31.622  1.00  0.00    -0.237 OA
ATOM    100  O   UNL A   1      50.953  25.650  29.564  1.00  0.00    -0.744 OA
ENDBRANCH  94  97
ENDBRANCH  67  90
ENDBRANCH  41  42
ENDBRANCH  33  36
ENDBRANCH  31  32
ENDBRANCH  30  31
ENDBRANCH  29  30
ENDBRANCH   1  29
TORSDOF 20
ENDMDL
