MODEL 1
REMARK VINA RESULT:     -11.6      0.000      0.000
REMARK SMILES CC[C@](C)(NC(=O)CNC(=O)c1cccc(Cl)c1)C(=O)NCCCCNC(=O)c1ccc(-c2c3nc(c(-c4cccc(S(=O)(=O)[O-])c4F)c4ccc([nH]4)c(-c4cccc(S(=O)(=O)[O-])c4F)c4nc(c(-c5cccc(S(=O)(=O)[O-])c5F)c5ccc2[nH]5)C=C4)C=C3)cc1
REMARK SMILES IDX 23 1 22 2 21 3 19 4 20 5 3 7 4 8 2 9 1 10 5 11 6 12 7 14
REMARK SMILES IDX 8 15 9 16 10 17 11 19 12 20 13 21 18 22 14 23 16 24 15 25
REMARK SMILES IDX 17 26 24 27 25 28 26 29 27 30 28 32 29 33 30 34 91 35 31 36
REMARK SMILES IDX 90 37 32 38 33 39 34 40 84 41 35 42 89 43 83 44 85 45 36 46
REMARK SMILES IDX 88 47 82 48 81 49 37 51 69 52 49 53 68 54 50 55 53 56 67 57
REMARK SMILES IDX 86 58 51 59 52 60 66 62 87 63 54 64 38 65 39 66 47 67 40 68
REMARK SMILES IDX 42 69 48 70 41 71 43 72 44 73 45 74 46 75 70 76 71 77 79 78
REMARK SMILES IDX 72 79 74 80 80 81 73 82 75 83 76 84 77 85 78 86 55 87 56 88
REMARK SMILES IDX 64 89 57 90 59 91 65 92 58 93 60 94 61 95 62 96 63 97
REMARK H PARENT 21 6 5 13 9 18 26 31 85 50 53 61
REMARK Flexibility Score: inf
ROOT
ATOM      1  C   UNL A   1      36.677  20.074  24.700  1.00  0.00     0.023 C 
ENDROOT
BRANCH   1   2
ATOM      2  C   UNL A   1      36.537  21.449  25.357  1.00  0.00     0.116 C 
BRANCH   2   3
ATOM      3  N   UNL A   1      35.595  21.570  26.463  1.00  0.00    -0.354 N 
ATOM      4  C   UNL A   1      34.260  21.890  26.471  1.00  0.00     0.245 C 
ATOM      5  O   UNL A   1      33.565  21.514  27.415  1.00  0.00    -0.272 OA
ATOM      6  H   UNL A   1      35.981  21.393  27.351  1.00  0.00     0.163 HD
BRANCH   4   7
ATOM      7  C   UNL A   1      33.571  22.504  25.259  1.00  0.00     0.116 C 
ATOM      8  C   UNL A   1      33.224  21.481  24.159  1.00  0.00     0.045 C 
BRANCH   7   9
ATOM      9  C   UNL A   1      34.622  23.500  24.652  1.00  0.00     0.035 C 
ATOM     10  C   UNL A   1      34.745  24.830  25.427  1.00  0.00     0.007 C 
ENDBRANCH   7   9
BRANCH   7  11
ATOM     11  N   UNL A   1      32.311  23.129  25.688  1.00  0.00    -0.340 N 
ATOM     12  C   UNL A   1      31.468  23.928  24.944  1.00  0.00     0.240 C 
ATOM     13  H   UNL A   1      32.035  22.955  26.617  1.00  0.00     0.164 HD
ATOM     14  O   UNL A   1      30.781  24.731  25.587  1.00  0.00    -0.273 OA
BRANCH  12  15
ATOM     15  C   UNL A   1      31.232  23.752  23.398  1.00  0.00     0.216 C 
BRANCH  15  16
ATOM     16  N   UNL A   1      32.114  24.345  22.403  1.00  0.00    -0.343 N 
ATOM     17  C   UNL A   1      32.687  25.599  22.292  1.00  0.00     0.251 C 
ATOM     18  H   UNL A   1      32.349  23.735  21.666  1.00  0.00     0.164 HD
ATOM     19  O   UNL A   1      33.628  25.735  21.509  1.00  0.00    -0.269 OA
BRANCH  17  20
ATOM     20  C   UNL A   1      32.151  26.827  22.941  1.00  0.00     0.041 A 
ATOM     21  C   UNL A   1      32.817  27.581  23.910  1.00  0.00     0.014 A 
ATOM     22  C   UNL A   1      30.869  27.229  22.529  1.00  0.00     0.034 A 
ATOM     23  C   UNL A   1      32.147  28.642  24.548  1.00  0.00     0.002 A 
ATOM     24  C   UNL A   1      30.184  28.228  23.220  1.00  0.00     0.041 A 
ATOM     25  C   UNL A   1      30.814  28.930  24.242  1.00  0.00     0.020 A 
ATOM     26  Cl  UNL A   1      28.521  28.522  22.878  1.00  0.00    -0.084 Cl
ENDBRANCH  17  20
ENDBRANCH  15  16
ENDBRANCH  12  15
ENDBRANCH   7  11
ENDBRANCH   4   7
ENDBRANCH   2   3
ENDBRANCH   1   2
BRANCH   1  27
ATOM     27  C   UNL A   1      37.948  19.282  24.991  1.00  0.00     0.023 C 
BRANCH  27  28
ATOM     28  C   UNL A   1      39.024  20.036  25.751  1.00  0.00     0.116 C 
BRANCH  28  29
ATOM     29  N   UNL A   1      40.175  19.208  26.056  1.00  0.00    -0.352 N 
ATOM     30  C   UNL A   1      41.448  19.587  26.395  1.00  0.00     0.251 C 
ATOM     31  H   UNL A   1      40.021  18.237  26.013  1.00  0.00     0.163 HD
ATOM     32  O   UNL A   1      42.335  18.733  26.462  1.00  0.00    -0.269 OA
BRANCH  30  33
ATOM     33  C   UNL A   1      41.768  21.009  26.650  1.00  0.00     0.039 A 
ATOM     34  C   UNL A   1      42.046  21.407  27.959  1.00  0.00     0.014 A 
ATOM     35  C   UNL A   1      41.786  21.951  25.615  1.00  0.00     0.014 A 
ATOM     36  C   UNL A   1      42.390  22.735  28.224  1.00  0.00     0.010 A 
ATOM     37  C   UNL A   1      42.211  23.254  25.868  1.00  0.00     0.010 A 
ATOM     38  C   UNL A   1      42.505  23.665  27.177  1.00  0.00    -0.014 A 
BRANCH  38  39
ATOM     39  C   UNL A   1      42.928  25.065  27.441  1.00  0.00     0.031 A 
ATOM     40  C   UNL A   1      41.969  26.046  28.065  1.00  0.00     0.074 A 
ATOM     41  C   UNL A   1      44.155  25.474  27.065  1.00  0.00     0.049 A 
ATOM     42  N   UNL A   1      42.149  27.312  28.340  1.00  0.00    -0.248 NA
ATOM     43  C   UNL A   1      40.626  25.546  28.402  1.00  0.00     0.031 C 
ATOM     44  C   UNL A   1      45.152  24.642  26.387  1.00  0.00     0.029 A 
ATOM     45  N   UNL A   1      44.769  26.697  27.178  1.00  0.00    -0.354 N 
ATOM     46  C   UNL A   1      40.940  27.767  28.852  1.00  0.00     0.074 A 
ATOM     47  C   UNL A   1      40.020  26.651  28.814  1.00  0.00     0.031 C 
ATOM     48  C   UNL A   1      46.252  25.376  26.151  1.00  0.00     0.029 A 
ATOM     49  C   UNL A   1      46.028  26.737  26.627  1.00  0.00     0.049 A 
ATOM     50  H   UNL A   1      44.346  27.473  27.612  1.00  0.00     0.167 HD
ATOM     51  C   UNL A   1      40.629  28.993  29.336  1.00  0.00     0.034 A 
ATOM     52  C   UNL A   1      46.901  27.756  26.506  1.00  0.00     0.034 A 
ATOM     53  C   UNL A   1      41.554  30.092  29.404  1.00  0.00     0.049 A 
ATOM     54  C   UNL A   1      46.538  29.102  27.071  1.00  0.00     0.074 A 
ATOM     55  C   UNL A   1      41.357  31.348  29.949  1.00  0.00     0.029 A 
ATOM     56  N   UNL A   1      42.844  30.073  28.899  1.00  0.00    -0.354 N 
ATOM     57  N   UNL A   1      45.442  29.470  27.689  1.00  0.00    -0.248 NA
ATOM     58  C   UNL A   1      47.547  30.167  26.956  1.00  0.00     0.031 C 
ATOM     59  C   UNL A   1      42.518  32.101  29.743  1.00  0.00     0.029 A 
ATOM     60  C   UNL A   1      43.453  31.300  29.108  1.00  0.00     0.049 A 
ATOM     61  H   UNL A   1      43.267  29.301  28.457  1.00  0.00     0.167 HD
ATOM     62  C   UNL A   1      45.643  30.792  28.069  1.00  0.00     0.074 A 
ATOM     63  C   UNL A   1      46.975  31.155  27.630  1.00  0.00     0.031 C 
ATOM     64  C   UNL A   1      44.796  31.634  28.711  1.00  0.00     0.034 A 
BRANCH  51  65
ATOM     65  C   UNL A   1      39.236  29.203  29.875  1.00  0.00     0.023 A 
ATOM     66  C   UNL A   1      38.927  28.797  31.189  1.00  0.00     0.012 A 
ATOM     67  C   UNL A   1      38.254  29.858  29.106  1.00  0.00     0.148 A 
ATOM     68  C   UNL A   1      37.654  29.006  31.718  1.00  0.00     0.002 A 
ATOM     69  C   UNL A   1      37.002  30.107  29.657  1.00  0.00     0.091 A 
ATOM     70  F   UNL A   1      38.560  30.221  27.852  1.00  0.00    -0.205 F 
ATOM     71  C   UNL A   1      36.696  29.670  30.956  1.00  0.00     0.022 A 
BRANCH  69  72
ATOM     72  S   UNL A   1      35.726  31.027  28.791  1.00  0.00     0.127 S 
ATOM     73  O   UNL A   1      36.522  31.993  28.035  1.00  0.00    -0.237 OA
ATOM     74  O   UNL A   1      35.097  29.986  27.978  1.00  0.00    -0.237 OA
ATOM     75  O   UNL A   1      34.870  31.597  29.821  1.00  0.00    -0.744 OA
ENDBRANCH  69  72
ENDBRANCH  51  65
BRANCH  52  76
ATOM     76  C   UNL A   1      48.226  27.533  25.859  1.00  0.00     0.023 A 
ATOM     77  C   UNL A   1      49.339  27.186  26.650  1.00  0.00     0.012 A 
ATOM     78  C   UNL A   1      48.384  27.648  24.465  1.00  0.00     0.148 A 
ATOM     79  C   UNL A   1      50.594  26.996  26.068  1.00  0.00     0.002 A 
ATOM     80  C   UNL A   1      49.622  27.398  23.886  1.00  0.00     0.091 A 
ATOM     81  F   UNL A   1      47.315  27.988  23.731  1.00  0.00    -0.205 F 
ATOM     82  C   UNL A   1      50.733  27.092  24.687  1.00  0.00     0.022 A 
BRANCH  80  83
ATOM     83  S   UNL A   1      49.862  27.367  22.106  1.00  0.00     0.127 S 
ATOM     84  O   UNL A   1      51.260  26.960  22.001  1.00  0.00    -0.237 OA
ATOM     85  O   UNL A   1      48.891  26.354  21.691  1.00  0.00    -0.237 OA
ATOM     86  O   UNL A   1      49.557  28.714  21.645  1.00  0.00    -0.744 OA
ENDBRANCH  80  83
ENDBRANCH  52  76
BRANCH  64  87
ATOM     87  C   UNL A   1      45.293  33.021  29.028  1.00  0.00     0.023 A 
ATOM     88  C   UNL A   1      46.003  33.262  30.220  1.00  0.00     0.012 A 
ATOM     89  C   UNL A   1      45.115  34.071  28.105  1.00  0.00     0.148 A 
ATOM     90  C   UNL A   1      46.497  34.535  30.506  1.00  0.00     0.002 A 
ATOM     91  C   UNL A   1      45.656  35.323  28.372  1.00  0.00     0.091 A 
ATOM     92  F   UNL A   1      44.421  33.826  26.984  1.00  0.00    -0.205 F 
ATOM     93  C   UNL A   1      46.335  35.560  29.578  1.00  0.00     0.022 A 
BRANCH  91  94
ATOM     94  S   UNL A   1      45.584  36.676  27.192  1.00  0.00     0.127 S 
ATOM     95  O   UNL A   1      46.299  37.732  27.907  1.00  0.00    -0.237 OA
ATOM     96  O   UNL A   1      46.300  36.122  26.044  1.00  0.00    -0.237 OA
ATOM     97  O   UNL A   1      44.169  36.930  26.958  1.00  0.00    -0.744 OA
ENDBRANCH  91  94
ENDBRANCH  64  87
ENDBRANCH  38  39
ENDBRANCH  30  33
ENDBRANCH  28  29
ENDBRANCH  27  28
ENDBRANCH   1  27
TORSDOF 19
ENDMDL
MODEL 2
REMARK VINA RESULT:     -11.5      1.756      2.233
REMARK SMILES CC[C@](C)(NC(=O)CNC(=O)c1cccc(Cl)c1)C(=O)NCCCCNC(=O)c1ccc(-c2c3nc(c(-c4cccc(S(=O)(=O)[O-])c4F)c4ccc([nH]4)c(-c4cccc(S(=O)(=O)[O-])c4F)c4nc(c(-c5cccc(S(=O)(=O)[O-])c5F)c5ccc2[nH]5)C=C4)C=C3)cc1
REMARK SMILES IDX 23 1 22 2 21 3 19 4 20 5 3 7 4 8 2 9 1 10 5 11 6 12 7 14
REMARK SMILES IDX 8 15 9 16 10 17 11 19 12 20 13 21 18 22 14 23 16 24 15 25
REMARK SMILES IDX 17 26 24 27 25 28 26 29 27 30 28 32 29 33 30 34 91 35 31 36
REMARK SMILES IDX 90 37 32 38 33 39 34 40 84 41 35 42 89 43 83 44 85 45 36 46
REMARK SMILES IDX 88 47 82 48 81 49 37 51 69 52 49 53 68 54 50 55 53 56 67 57
REMARK SMILES IDX 86 58 51 59 52 60 66 62 87 63 54 64 38 65 39 66 47 67 40 68
REMARK SMILES IDX 42 69 48 70 41 71 43 72 44 73 45 74 46 75 70 76 71 77 79 78
REMARK SMILES IDX 72 79 74 80 80 81 73 82 75 83 76 84 77 85 78 86 55 87 56 88
REMARK SMILES IDX 64 89 57 90 59 91 65 92 58 93 60 94 61 95 62 96 63 97
REMARK H PARENT 21 6 5 13 9 18 26 31 85 50 53 61
REMARK Flexibility Score: inf
ROOT
ATOM      1  C   UNL A   1      37.400  21.173  24.750  1.00  0.00     0.023 C 
ENDROOT
BRANCH   1   2
ATOM      2  C   UNL A   1      35.928  20.928  25.089  1.00  0.00     0.116 C 
BRANCH   2   3
ATOM      3  N   UNL A   1      35.459  21.367  26.397  1.00  0.00    -0.354 N 
ATOM      4  C   UNL A   1      34.363  22.114  26.752  1.00  0.00     0.245 C 
ATOM      5  O   UNL A   1      33.910  22.000  27.891  1.00  0.00    -0.272 OA
ATOM      6  H   UNL A   1      36.023  21.080  27.151  1.00  0.00     0.163 HD
BRANCH   4   7
ATOM      7  C   UNL A   1      33.565  22.910  25.727  1.00  0.00     0.116 C 
ATOM      8  C   UNL A   1      34.257  24.211  25.275  1.00  0.00     0.045 C 
BRANCH   7   9
ATOM      9  C   UNL A   1      32.243  23.322  26.469  1.00  0.00     0.035 C 
ATOM     10  C   UNL A   1      32.014  24.847  26.539  1.00  0.00     0.007 C 
ENDBRANCH   7   9
BRANCH   7  11
ATOM     11  N   UNL A   1      33.362  22.082  24.529  1.00  0.00    -0.340 N 
ATOM     12  C   UNL A   1      32.366  22.198  23.581  1.00  0.00     0.240 C 
ATOM     13  H   UNL A   1      34.014  21.360  24.385  1.00  0.00     0.164 HD
ATOM     14  O   UNL A   1      32.075  21.159  22.977  1.00  0.00    -0.273 OA
BRANCH  12  15
ATOM     15  C   UNL A   1      31.733  23.569  23.139  1.00  0.00     0.216 C 
BRANCH  15  16
ATOM     16  N   UNL A   1      32.225  24.321  21.993  1.00  0.00    -0.343 N 
ATOM     17  C   UNL A   1      32.586  25.647  21.831  1.00  0.00     0.251 C 
ATOM     18  H   UNL A   1      32.321  23.781  21.175  1.00  0.00     0.164 HD
ATOM     19  O   UNL A   1      33.249  25.946  20.838  1.00  0.00    -0.269 OA
BRANCH  17  20
ATOM     20  C   UNL A   1      32.103  26.759  22.695  1.00  0.00     0.041 A 
ATOM     21  C   UNL A   1      30.917  27.470  22.505  1.00  0.00     0.014 A 
ATOM     22  C   UNL A   1      32.934  27.099  23.778  1.00  0.00     0.034 A 
ATOM     23  C   UNL A   1      30.640  28.591  23.310  1.00  0.00     0.002 A 
ATOM     24  C   UNL A   1      32.694  28.256  24.519  1.00  0.00     0.041 A 
ATOM     25  C   UNL A   1      31.554  29.015  24.279  1.00  0.00     0.020 A 
ATOM     26  Cl  UNL A   1      33.864  28.803  25.658  1.00  0.00    -0.084 Cl
ENDBRANCH  17  20
ENDBRANCH  15  16
ENDBRANCH  12  15
ENDBRANCH   7  11
ENDBRANCH   4   7
ENDBRANCH   2   3
ENDBRANCH   1   2
BRANCH   1  27
ATOM     27  C   UNL A   1      38.368  20.007  24.941  1.00  0.00     0.023 C 
BRANCH  27  28
ATOM     28  C   UNL A   1      39.382  20.180  26.056  1.00  0.00     0.116 C 
BRANCH  28  29
ATOM     29  N   UNL A   1      40.436  19.184  26.009  1.00  0.00    -0.352 N 
ATOM     30  C   UNL A   1      41.794  19.359  26.069  1.00  0.00     0.251 C 
ATOM     31  H   UNL A   1      40.133  18.252  25.921  1.00  0.00     0.163 HD
ATOM     32  O   UNL A   1      42.537  18.398  25.853  1.00  0.00    -0.269 OA
BRANCH  30  33
ATOM     33  C   UNL A   1      42.370  20.689  26.363  1.00  0.00     0.039 A 
ATOM     34  C   UNL A   1      42.661  21.543  25.296  1.00  0.00     0.014 A 
ATOM     35  C   UNL A   1      42.634  21.098  27.675  1.00  0.00     0.014 A 
ATOM     36  C   UNL A   1      43.169  22.820  25.546  1.00  0.00     0.010 A 
ATOM     37  C   UNL A   1      43.060  22.401  27.926  1.00  0.00     0.010 A 
ATOM     38  C   UNL A   1      43.345  23.273  26.864  1.00  0.00    -0.014 A 
BRANCH  38  39
ATOM     39  C   UNL A   1      43.828  24.651  27.141  1.00  0.00     0.031 A 
ATOM     40  C   UNL A   1      42.882  25.699  27.666  1.00  0.00     0.074 A 
ATOM     41  C   UNL A   1      45.106  24.978  26.863  1.00  0.00     0.049 A 
ATOM     42  N   UNL A   1      43.115  26.958  27.936  1.00  0.00    -0.248 NA
ATOM     43  C   UNL A   1      41.487  25.287  27.896  1.00  0.00     0.031 C 
ATOM     44  C   UNL A   1      46.104  24.075  26.286  1.00  0.00     0.029 A 
ATOM     45  N   UNL A   1      45.781  26.165  27.009  1.00  0.00    -0.354 N 
ATOM     46  C   UNL A   1      41.897  27.495  28.336  1.00  0.00     0.074 A 
ATOM     47  C   UNL A   1      40.918  26.434  28.237  1.00  0.00     0.031 C 
ATOM     48  C   UNL A   1      47.262  24.737  26.133  1.00  0.00     0.029 A 
ATOM     49  C   UNL A   1      47.082  26.119  26.567  1.00  0.00     0.049 A 
ATOM     50  H   UNL A   1      45.371  26.974  27.394  1.00  0.00     0.167 HD
ATOM     51  C   UNL A   1      41.622  28.747  28.773  1.00  0.00     0.034 A 
ATOM     52  C   UNL A   1      48.023  27.082  26.505  1.00  0.00     0.034 A 
ATOM     53  C   UNL A   1      42.603  29.790  28.902  1.00  0.00     0.049 A 
ATOM     54  C   UNL A   1      47.696  28.459  27.016  1.00  0.00     0.074 A 
ATOM     55  C   UNL A   1      42.438  31.066  29.409  1.00  0.00     0.029 A 
ATOM     56  N   UNL A   1      43.928  29.684  28.509  1.00  0.00    -0.354 N 
ATOM     57  N   UNL A   1      46.576  28.903  27.533  1.00  0.00    -0.248 NA
ATOM     58  C   UNL A   1      48.774  29.458  26.971  1.00  0.00     0.031 C 
ATOM     59  C   UNL A   1      43.656  31.744  29.291  1.00  0.00     0.029 A 
ATOM     60  C   UNL A   1      44.590  30.876  28.749  1.00  0.00     0.049 A 
ATOM     61  H   UNL A   1      44.339  28.879  28.117  1.00  0.00     0.167 HD
ATOM     62  C   UNL A   1      46.825  30.218  27.908  1.00  0.00     0.074 A 
ATOM     63  C   UNL A   1      48.208  30.493  27.578  1.00  0.00     0.031 C 
ATOM     64  C   UNL A   1      45.980  31.122  28.463  1.00  0.00     0.034 A 
BRANCH  51  65
ATOM     65  C   UNL A   1      40.204  29.049  29.189  1.00  0.00     0.023 A 
ATOM     66  C   UNL A   1      39.235  29.336  28.207  1.00  0.00     0.012 A 
ATOM     67  C   UNL A   1      39.819  28.986  30.542  1.00  0.00     0.148 A 
ATOM     68  C   UNL A   1      37.911  29.591  28.567  1.00  0.00     0.002 A 
ATOM     69  C   UNL A   1      38.488  29.193  30.888  1.00  0.00     0.091 A 
ATOM     70  F   UNL A   1      40.758  28.730  31.464  1.00  0.00    -0.205 F 
ATOM     71  C   UNL A   1      37.537  29.508  29.904  1.00  0.00     0.022 A 
BRANCH  69  72
ATOM     72  S   UNL A   1      37.887  29.029  32.573  1.00  0.00     0.127 S 
ATOM     73  O   UNL A   1      36.497  29.460  32.432  1.00  0.00    -0.237 OA
ATOM     74  O   UNL A   1      38.060  27.598  32.821  1.00  0.00    -0.237 OA
ATOM     75  O   UNL A   1      38.727  29.896  33.387  1.00  0.00    -0.744 OA
ENDBRANCH  69  72
ENDBRANCH  51  65
BRANCH  52  76
ATOM     76  C   UNL A   1      49.381  26.767  25.976  1.00  0.00     0.023 A 
ATOM     77  C   UNL A   1      50.284  26.028  26.766  1.00  0.00     0.012 A 
ATOM     78  C   UNL A   1      49.776  27.183  24.690  1.00  0.00     0.148 A 
ATOM     79  C   UNL A   1      51.568  25.743  26.301  1.00  0.00     0.002 A 
ATOM     80  C   UNL A   1      51.035  26.844  24.209  1.00  0.00     0.091 A 
ATOM     81  F   UNL A   1      48.907  27.893  23.958  1.00  0.00    -0.205 F 
ATOM     82  C   UNL A   1      51.940  26.142  25.020  1.00  0.00     0.022 A 
BRANCH  80  83
ATOM     83  S   UNL A   1      51.548  27.198  22.525  1.00  0.00     0.127 S 
ATOM     84  O   UNL A   1      50.505  26.533  21.749  1.00  0.00    -0.237 OA
ATOM     85  O   UNL A   1      51.500  28.660  22.498  1.00  0.00    -0.237 OA
ATOM     86  O   UNL A   1      52.887  26.639  22.397  1.00  0.00    -0.744 OA
ENDBRANCH  80  83
ENDBRANCH  52  76
BRANCH  64  87
ATOM     87  C   UNL A   1      46.532  32.483  28.800  1.00  0.00     0.023 A 
ATOM     88  C   UNL A   1      47.170  32.701  30.036  1.00  0.00     0.012 A 
ATOM     89  C   UNL A   1      46.479  33.528  27.856  1.00  0.00     0.148 A 
ATOM     90  C   UNL A   1      47.715  33.948  30.343  1.00  0.00     0.002 A 
ATOM     91  C   UNL A   1      47.071  34.751  28.146  1.00  0.00     0.091 A 
ATOM     92  F   UNL A   1      45.852  33.306  26.691  1.00  0.00    -0.205 F 
ATOM     93  C   UNL A   1      47.676  34.968  29.395  1.00  0.00     0.022 A 
BRANCH  91  94
ATOM     94  S   UNL A   1      47.158  36.089  26.950  1.00  0.00     0.127 S 
ATOM     95  O   UNL A   1      45.779  36.150  26.471  1.00  0.00    -0.237 OA
ATOM     96  O   UNL A   1      47.565  37.221  27.783  1.00  0.00    -0.237 OA
ATOM     97  O   UNL A   1      48.145  35.680  25.960  1.00  0.00    -0.744 OA
ENDBRANCH  91  94
ENDBRANCH  64  87
ENDBRANCH  38  39
ENDBRANCH  30  33
ENDBRANCH  28  29
ENDBRANCH  27  28
ENDBRANCH   1  27
TORSDOF 19
ENDMDL
MODEL 3
REMARK VINA RESULT:     -11.5      5.874     11.272
REMARK SMILES CC[C@](C)(NC(=O)CNC(=O)c1cccc(Cl)c1)C(=O)NCCCCNC(=O)c1ccc(-c2c3nc(c(-c4cccc(S(=O)(=O)[O-])c4F)c4ccc([nH]4)c(-c4cccc(S(=O)(=O)[O-])c4F)c4nc(c(-c5cccc(S(=O)(=O)[O-])c5F)c5ccc2[nH]5)C=C4)C=C3)cc1
REMARK SMILES IDX 23 1 22 2 21 3 19 4 20 5 3 7 4 8 2 9 1 10 5 11 6 12 7 14
REMARK SMILES IDX 8 15 9 16 10 17 11 19 12 20 13 21 18 22 14 23 16 24 15 25
REMARK SMILES IDX 17 26 24 27 25 28 26 29 27 30 28 32 29 33 30 34 91 35 31 36
REMARK SMILES IDX 90 37 32 38 33 39 34 40 84 41 35 42 89 43 83 44 85 45 36 46
REMARK SMILES IDX 88 47 82 48 81 49 37 51 69 52 49 53 68 54 50 55 53 56 67 57
REMARK SMILES IDX 86 58 51 59 52 60 66 62 87 63 54 64 38 65 39 66 47 67 40 68
REMARK SMILES IDX 42 69 48 70 41 71 43 72 44 73 45 74 46 75 70 76 71 77 79 78
REMARK SMILES IDX 72 79 74 80 80 81 73 82 75 83 76 84 77 85 78 86 55 87 56 88
REMARK SMILES IDX 64 89 57 90 59 91 65 92 58 93 60 94 61 95 62 96 63 97
REMARK H PARENT 21 6 5 13 9 18 26 31 85 50 53 61
REMARK Flexibility Score: inf
ROOT
ATOM      1  C   UNL A   1      31.496  30.499  25.748  1.00  0.00     0.023 C 
ENDROOT
BRANCH   1   2
ATOM      2  C   UNL A   1      32.671  29.533  25.918  1.00  0.00     0.116 C 
BRANCH   2   3
ATOM      3  N   UNL A   1      33.621  29.434  24.818  1.00  0.00    -0.354 N 
ATOM      4  C   UNL A   1      33.707  28.531  23.787  1.00  0.00     0.245 C 
ATOM      5  O   UNL A   1      34.281  28.865  22.750  1.00  0.00    -0.272 OA
ATOM      6  H   UNL A   1      34.317  30.130  24.813  1.00  0.00     0.163 HD
BRANCH   4   7
ATOM      7  C   UNL A   1      32.937  27.217  23.800  1.00  0.00     0.116 C 
ATOM      8  C   UNL A   1      31.451  27.373  24.181  1.00  0.00     0.045 C 
BRANCH   7   9
ATOM      9  C   UNL A   1      33.616  26.356  24.925  1.00  0.00     0.035 C 
ATOM     10  C   UNL A   1      32.658  25.945  26.064  1.00  0.00     0.007 C 
ENDBRANCH   7   9
BRANCH   7  11
ATOM     11  N   UNL A   1      32.984  26.618  22.458  1.00  0.00    -0.340 N 
ATOM     12  C   UNL A   1      32.707  25.315  22.104  1.00  0.00     0.240 C 
ATOM     13  H   UNL A   1      33.245  27.220  21.724  1.00  0.00     0.164 HD
ATOM     14  O   UNL A   1      33.271  24.902  21.084  1.00  0.00    -0.273 OA
BRANCH  12  15
ATOM     15  C   UNL A   1      31.621  24.426  22.816  1.00  0.00     0.216 C 
BRANCH  15  16
ATOM     16  N   UNL A   1      31.636  22.972  22.747  1.00  0.00    -0.343 N 
ATOM     17  C   UNL A   1      32.169  22.003  23.578  1.00  0.00     0.251 C 
ATOM     18  H   UNL A   1      31.177  22.607  21.956  1.00  0.00     0.164 HD
ATOM     19  O   UNL A   1      31.778  20.844  23.437  1.00  0.00    -0.269 OA
BRANCH  17  20
ATOM     20  C   UNL A   1      33.289  22.239  24.530  1.00  0.00     0.041 A 
ATOM     21  C   UNL A   1      33.166  22.299  25.920  1.00  0.00     0.014 A 
ATOM     22  C   UNL A   1      34.558  22.418  23.952  1.00  0.00     0.034 A 
ATOM     23  C   UNL A   1      34.276  22.666  26.703  1.00  0.00     0.002 A 
ATOM     24  C   UNL A   1      35.633  22.858  24.725  1.00  0.00     0.041 A 
ATOM     25  C   UNL A   1      35.493  22.998  26.101  1.00  0.00     0.020 A 
ATOM     26  Cl  UNL A   1      37.102  23.330  23.961  1.00  0.00    -0.084 Cl
ENDBRANCH  17  20
ENDBRANCH  15  16
ENDBRANCH  12  15
ENDBRANCH   7  11
ENDBRANCH   4   7
ENDBRANCH   2   3
ENDBRANCH   1   2
BRANCH   1  27
ATOM     27  C   UNL A   1      31.418  31.685  26.705  1.00  0.00     0.023 C 
BRANCH  27  28
ATOM     28  C   UNL A   1      32.711  32.458  26.889  1.00  0.00     0.116 C 
BRANCH  28  29
ATOM     29  N   UNL A   1      32.488  33.817  27.343  1.00  0.00    -0.352 N 
ATOM     30  C   UNL A   1      33.099  34.500  28.363  1.00  0.00     0.251 C 
ATOM     31  H   UNL A   1      31.800  34.321  26.850  1.00  0.00     0.163 HD
ATOM     32  O   UNL A   1      32.660  35.602  28.701  1.00  0.00    -0.269 OA
BRANCH  30  33
ATOM     33  C   UNL A   1      34.258  33.915  29.072  1.00  0.00     0.039 A 
ATOM     34  C   UNL A   1      34.025  32.927  30.032  1.00  0.00     0.014 A 
ATOM     35  C   UNL A   1      35.566  34.336  28.808  1.00  0.00     0.014 A 
ATOM     36  C   UNL A   1      35.103  32.328  30.689  1.00  0.00     0.010 A 
ATOM     37  C   UNL A   1      36.642  33.680  29.402  1.00  0.00     0.010 A 
ATOM     38  C   UNL A   1      36.423  32.678  30.359  1.00  0.00    -0.014 A 
BRANCH  38  39
ATOM     39  C   UNL A   1      37.578  32.005  31.011  1.00  0.00     0.031 A 
ATOM     40  C   UNL A   1      38.372  30.964  30.266  1.00  0.00     0.074 A 
ATOM     41  C   UNL A   1      37.876  32.286  32.294  1.00  0.00     0.049 A 
ATOM     42  N   UNL A   1      39.388  30.251  30.680  1.00  0.00    -0.248 NA
ATOM     43  C   UNL A   1      37.957  30.667  28.885  1.00  0.00     0.031 C 
ATOM     44  C   UNL A   1      37.142  33.222  33.148  1.00  0.00     0.029 A 
ATOM     45  N   UNL A   1      38.864  31.798  33.114  1.00  0.00    -0.354 N 
ATOM     46  C   UNL A   1      39.714  29.403  29.628  1.00  0.00     0.074 A 
ATOM     47  C   UNL A   1      38.764  29.663  28.569  1.00  0.00     0.031 C 
ATOM     48  C   UNL A   1      37.706  33.244  34.366  1.00  0.00     0.029 A 
ATOM     49  C   UNL A   1      38.819  32.301  34.393  1.00  0.00     0.049 A 
ATOM     50  H   UNL A   1      39.540  31.147  32.814  1.00  0.00     0.167 HD
ATOM     51  C   UNL A   1      40.728  28.510  29.538  1.00  0.00     0.034 A 
ATOM     52  C   UNL A   1      39.579  32.026  35.472  1.00  0.00     0.034 A 
ATOM     53  C   UNL A   1      41.692  28.277  30.580  1.00  0.00     0.049 A 
ATOM     54  C   UNL A   1      40.712  31.045  35.338  1.00  0.00     0.074 A 
ATOM     55  C   UNL A   1      42.801  27.451  30.554  1.00  0.00     0.029 A 
ATOM     56  N   UNL A   1      41.655  28.858  31.837  1.00  0.00    -0.354 N 
ATOM     57  N   UNL A   1      41.096  30.366  34.284  1.00  0.00    -0.248 NA
ATOM     58  C   UNL A   1      41.541  30.819  36.532  1.00  0.00     0.031 C 
ATOM     59  C   UNL A   1      43.417  27.507  31.809  1.00  0.00     0.029 A 
ATOM     60  C   UNL A   1      42.715  28.399  32.602  1.00  0.00     0.049 A 
ATOM     61  H   UNL A   1      40.976  29.503  32.143  1.00  0.00     0.167 HD
ATOM     62  C   UNL A   1      42.230  29.663  34.676  1.00  0.00     0.074 A 
ATOM     63  C   UNL A   1      42.484  30.016  36.058  1.00  0.00     0.031 C 
ATOM     64  C   UNL A   1      42.986  28.794  33.960  1.00  0.00     0.034 A 
BRANCH  51  65
ATOM     65  C   UNL A   1      40.877  27.744  28.248  1.00  0.00     0.023 A 
ATOM     66  C   UNL A   1      41.413  28.385  27.113  1.00  0.00     0.012 A 
ATOM     67  C   UNL A   1      40.548  26.376  28.177  1.00  0.00     0.148 A 
ATOM     68  C   UNL A   1      41.586  27.688  25.917  1.00  0.00     0.002 A 
ATOM     69  C   UNL A   1      40.768  25.677  26.996  1.00  0.00     0.091 A 
ATOM     70  F   UNL A   1      40.021  25.788  29.261  1.00  0.00    -0.205 F 
ATOM     71  C   UNL A   1      41.274  26.333  25.863  1.00  0.00     0.022 A 
BRANCH  69  72
ATOM     72  S   UNL A   1      40.476  23.910  26.846  1.00  0.00     0.127 S 
ATOM     73  O   UNL A   1      39.054  23.875  26.508  1.00  0.00    -0.237 OA
ATOM     74  O   UNL A   1      41.373  23.544  25.749  1.00  0.00    -0.237 OA
ATOM     75  O   UNL A   1      40.824  23.333  28.137  1.00  0.00    -0.744 OA
ENDBRANCH  69  72
ENDBRANCH  51  65
BRANCH  52  76
ATOM     76  C   UNL A   1      39.323  32.723  36.765  1.00  0.00     0.023 A 
ATOM     77  C   UNL A   1      40.000  33.924  37.057  1.00  0.00     0.012 A 
ATOM     78  C   UNL A   1      38.401  32.211  37.698  1.00  0.00     0.148 A 
ATOM     79  C   UNL A   1      39.792  34.580  38.271  1.00  0.00     0.002 A 
ATOM     80  C   UNL A   1      38.155  32.901  38.878  1.00  0.00     0.091 A 
ATOM     81  F   UNL A   1      37.774  31.063  37.405  1.00  0.00    -0.205 F 
ATOM     82  C   UNL A   1      38.864  34.075  39.176  1.00  0.00     0.022 A 
BRANCH  80  83
ATOM     83  S   UNL A   1      36.879  32.397  40.038  1.00  0.00     0.127 S 
ATOM     84  O   UNL A   1      37.389  31.111  40.502  1.00  0.00    -0.237 OA
ATOM     85  O   UNL A   1      36.931  33.475  41.026  1.00  0.00    -0.237 OA
ATOM     86  O   UNL A   1      35.644  32.349  39.267  1.00  0.00    -0.744 OA
ENDBRANCH  80  83
ENDBRANCH  52  76
BRANCH  64  87
ATOM     87  C   UNL A   1      44.193  28.194  34.635  1.00  0.00     0.023 A 
ATOM     88  C   UNL A   1      45.434  28.858  34.583  1.00  0.00     0.012 A 
ATOM     89  C   UNL A   1      44.075  27.005  35.380  1.00  0.00     0.148 A 
ATOM     90  C   UNL A   1      46.548  28.328  35.233  1.00  0.00     0.002 A 
ATOM     91  C   UNL A   1      45.176  26.511  36.070  1.00  0.00     0.091 A 
ATOM     92  F   UNL A   1      42.889  26.379  35.403  1.00  0.00    -0.205 F 
ATOM     93  C   UNL A   1      46.417  27.163  35.985  1.00  0.00     0.022 A 
BRANCH  91  94
ATOM     94  S   UNL A   1      45.077  25.074  37.144  1.00  0.00     0.127 S 
ATOM     95  O   UNL A   1      46.458  24.953  37.607  1.00  0.00    -0.237 OA
ATOM     96  O   UNL A   1      44.127  25.517  38.164  1.00  0.00    -0.237 OA
ATOM     97  O   UNL A   1      44.601  23.980  36.309  1.00  0.00    -0.744 OA
ENDBRANCH  91  94
ENDBRANCH  64  87
ENDBRANCH  38  39
ENDBRANCH  30  33
ENDBRANCH  28  29
ENDBRANCH  27  28
ENDBRANCH   1  27
TORSDOF 19
ENDMDL
