MODEL 1
REMARK VINA RESULT:     -12.2      0.000      0.000
REMARK SMILES O=C(NCCCCNC(=O)c1cc(Cl)cn(Cc2ccc(Cl)cc2)c1=O)c1ccc(-c2c3nc(c(-c4cccc(S(=O)(=O)[O-])c4F)c4ccc([nH]4)c(-c4cccc(S(=O)(=O)[O-])c4F)c4nc(c(-c5cccc(S(=O)(=O)[O-])c5F)c5ccc2[nH]5)C=C4)C=C3)cc1
REMARK SMILES IDX 5 1 4 2 3 3 1 4 2 5 27 7 28 8 89 9 29 10 88 11 30 12 31 13
REMARK SMILES IDX 32 14 82 15 33 16 87 17 81 18 83 19 34 20 86 21 80 22 79 23
REMARK SMILES IDX 35 25 67 26 47 27 66 28 48 29 51 30 65 31 84 32 49 33 50 34
REMARK SMILES IDX 64 36 85 37 52 38 36 39 37 40 45 41 38 42 40 43 46 44 39 45
REMARK SMILES IDX 41 46 42 47 43 48 44 49 68 50 69 51 77 52 70 53 72 54 78 55
REMARK SMILES IDX 71 56 73 57 74 58 75 59 76 60 53 61 54 62 62 63 55 64 57 65
REMARK SMILES IDX 63 66 56 67 58 68 59 69 60 70 61 71 6 72 7 73 8 74 9 75
REMARK SMILES IDX 10 77 11 78 12 79 25 80 13 81 16 82 26 83 14 84 15 85 17 86
REMARK SMILES IDX 18 87 19 88 24 89 20 90 23 91 21 92 22 93
REMARK H PARENT 3 6 83 24 51 35 8 76
REMARK Flexibility Score: inf
ROOT
ATOM      1  C   UNL A   1      33.140  28.460  23.534  1.00  0.00     0.023 C 
ENDROOT
BRANCH   1   2
ATOM      2  C   UNL A   1      33.673  28.967  24.872  1.00  0.00     0.116 C 
BRANCH   2   3
ATOM      3  N   UNL A   1      32.913  30.096  25.381  1.00  0.00    -0.352 N 
ATOM      4  O   UNL A   1      32.208  31.623  26.867  1.00  0.00    -0.269 OA
ATOM      5  C   UNL A   1      33.064  30.800  26.549  1.00  0.00     0.251 C 
ATOM      6  H   UNL A   1      32.180  30.403  24.800  1.00  0.00     0.163 HD
BRANCH   5   7
ATOM      7  C   UNL A   1      34.234  30.577  27.428  1.00  0.00     0.039 A 
ATOM      8  C   UNL A   1      35.134  31.630  27.624  1.00  0.00     0.014 A 
ATOM      9  C   UNL A   1      34.489  29.326  27.998  1.00  0.00     0.014 A 
ATOM     10  C   UNL A   1      36.275  31.436  28.408  1.00  0.00     0.010 A 
ATOM     11  C   UNL A   1      35.597  29.150  28.824  1.00  0.00     0.010 A 
ATOM     12  C   UNL A   1      36.513  30.195  29.016  1.00  0.00    -0.014 A 
BRANCH  12  13
ATOM     13  C   UNL A   1      37.754  29.935  29.786  1.00  0.00     0.031 A 
ATOM     14  C   UNL A   1      38.807  29.033  29.205  1.00  0.00     0.074 A 
ATOM     15  C   UNL A   1      37.919  30.460  31.014  1.00  0.00     0.049 A 
ATOM     16  N   UNL A   1      39.897  28.573  29.760  1.00  0.00    -0.248 NA
ATOM     17  C   UNL A   1      38.597  28.578  27.821  1.00  0.00     0.031 C 
ATOM     18  C   UNL A   1      36.967  31.336  31.695  1.00  0.00     0.029 A 
ATOM     19  N   UNL A   1      38.945  30.315  31.913  1.00  0.00    -0.354 N 
ATOM     20  C   UNL A   1      40.482  27.746  28.811  1.00  0.00     0.074 A 
ATOM     21  C   UNL A   1      39.618  27.751  27.650  1.00  0.00     0.031 C 
ATOM     22  C   UNL A   1      37.459  31.661  32.903  1.00  0.00     0.029 A 
ATOM     23  C   UNL A   1      38.743  30.989  33.092  1.00  0.00     0.049 A 
ATOM     24  H   UNL A   1      39.750  29.778  31.730  1.00  0.00     0.167 HD
ATOM     25  C   UNL A   1      41.651  27.066  28.881  1.00  0.00     0.034 A 
ATOM     26  C   UNL A   1      39.503  31.055  34.204  1.00  0.00     0.034 A 
ATOM     27  C   UNL A   1      42.541  27.101  30.008  1.00  0.00     0.049 A 
ATOM     28  C   UNL A   1      40.803  30.302  34.258  1.00  0.00     0.074 A 
ATOM     29  C   UNL A   1      43.758  26.462  30.163  1.00  0.00     0.029 A 
ATOM     30  N   UNL A   1      42.320  27.831  31.164  1.00  0.00    -0.354 N 
ATOM     31  N   UNL A   1      41.362  29.558  33.334  1.00  0.00    -0.248 NA
ATOM     32  C   UNL A   1      41.584  30.409  35.499  1.00  0.00     0.031 C 
ATOM     33  C   UNL A   1      44.280  26.817  31.411  1.00  0.00     0.029 A 
ATOM     34  C   UNL A   1      43.384  27.671  32.034  1.00  0.00     0.049 A 
ATOM     35  H   UNL A   1      41.523  28.380  31.342  1.00  0.00     0.167 HD
ATOM     36  C   UNL A   1      42.562  29.115  33.877  1.00  0.00     0.074 A 
ATOM     37  C   UNL A   1      42.662  29.691  35.201  1.00  0.00     0.031 C 
ATOM     38  C   UNL A   1      43.487  28.286  33.333  1.00  0.00     0.034 A 
BRANCH  25  39
ATOM     39  C   UNL A   1      42.063  26.286  27.665  1.00  0.00     0.023 A 
ATOM     40  C   UNL A   1      42.712  26.961  26.612  1.00  0.00     0.012 A 
ATOM     41  C   UNL A   1      41.833  24.901  27.567  1.00  0.00     0.148 A 
ATOM     42  C   UNL A   1      43.108  26.273  25.467  1.00  0.00     0.002 A 
ATOM     43  C   UNL A   1      42.256  24.216  26.432  1.00  0.00     0.091 A 
ATOM     44  F   UNL A   1      41.188  24.285  28.569  1.00  0.00    -0.205 F 
ATOM     45  C   UNL A   1      42.886  24.902  25.380  1.00  0.00     0.022 A 
BRANCH  43  46
ATOM     46  S   UNL A   1      42.055  22.442  26.244  1.00  0.00     0.127 S 
ATOM     47  O   UNL A   1      40.602  22.318  26.144  1.00  0.00    -0.237 OA
ATOM     48  O   UNL A   1      42.777  22.178  24.998  1.00  0.00    -0.237 OA
ATOM     49  O   UNL A   1      42.656  21.844  27.428  1.00  0.00    -0.744 OA
ENDBRANCH  43  46
ENDBRANCH  25  39
BRANCH  26  50
ATOM     50  C   UNL A   1      39.071  31.932  35.323  1.00  0.00     0.023 A 
ATOM     51  C   UNL A   1      39.212  33.326  35.186  1.00  0.00     0.012 A 
ATOM     52  C   UNL A   1      38.447  31.409  36.472  1.00  0.00     0.148 A 
ATOM     53  C   UNL A   1      38.741  34.187  36.176  1.00  0.00     0.002 A 
ATOM     54  C   UNL A   1      37.947  32.274  37.438  1.00  0.00     0.091 A 
ATOM     55  F   UNL A   1      38.318  30.078  36.571  1.00  0.00    -0.205 F 
ATOM     56  C   UNL A   1      38.101  33.663  37.296  1.00  0.00     0.022 A 
BRANCH  54  57
ATOM     57  S   UNL A   1      37.021  31.707  38.868  1.00  0.00     0.127 S 
ATOM     58  O   UNL A   1      37.991  31.887  39.947  1.00  0.00    -0.237 OA
ATOM     59  O   UNL A   1      35.900  32.646  38.884  1.00  0.00    -0.237 OA
ATOM     60  O   UNL A   1      36.661  30.323  38.587  1.00  0.00    -0.744 OA
ENDBRANCH  54  57
ENDBRANCH  26  50
BRANCH  38  61
ATOM     61  C   UNL A   1      44.690  27.936  34.164  1.00  0.00     0.023 A 
ATOM     62  C   UNL A   1      45.812  28.787  34.132  1.00  0.00     0.012 A 
ATOM     63  C   UNL A   1      44.672  26.838  35.045  1.00  0.00     0.148 A 
ATOM     64  C   UNL A   1      46.906  28.544  34.961  1.00  0.00     0.002 A 
ATOM     65  C   UNL A   1      45.755  26.618  35.889  1.00  0.00     0.091 A 
ATOM     66  F   UNL A   1      43.600  26.032  35.042  1.00  0.00    -0.205 F 
ATOM     67  C   UNL A   1      46.874  27.468  35.846  1.00  0.00     0.022 A 
BRANCH  65  68
ATOM     68  S   UNL A   1      45.771  25.300  37.109  1.00  0.00     0.127 S 
ATOM     69  O   UNL A   1      46.821  25.749  38.021  1.00  0.00    -0.237 OA
ATOM     70  O   UNL A   1      44.417  25.364  37.659  1.00  0.00    -0.237 OA
ATOM     71  O   UNL A   1      46.062  24.078  36.370  1.00  0.00    -0.744 OA
ENDBRANCH  65  68
ENDBRANCH  38  61
ENDBRANCH  12  13
ENDBRANCH   5   7
ENDBRANCH   2   3
ENDBRANCH   1   2
BRANCH   1  72
ATOM     72  C   UNL A   1      31.622  28.301  23.444  1.00  0.00     0.023 C 
BRANCH  72  73
ATOM     73  C   UNL A   1      31.101  26.880  23.643  1.00  0.00     0.116 C 
BRANCH  73  74
ATOM     74  N   UNL A   1      31.027  26.503  25.045  1.00  0.00    -0.352 N 
ATOM     75  C   UNL A   1      31.619  25.452  25.691  1.00  0.00     0.256 C 
ATOM     76  H   UNL A   1      30.473  27.089  25.610  1.00  0.00     0.163 HD
ATOM     77  O   UNL A   1      31.399  25.252  26.878  1.00  0.00    -0.269 OA
BRANCH  75  78
ATOM     78  C   UNL A   1      32.420  24.500  24.895  1.00  0.00     0.106 A 
ATOM     79  C   UNL A   1      33.754  24.567  25.051  1.00  0.00     0.041 A 
ATOM     80  C   UNL A   1      31.812  23.461  24.010  1.00  0.00     0.263 A 
ATOM     81  C   UNL A   1      34.607  23.593  24.427  1.00  0.00     0.058 A 
ATOM     82  N   UNL A   1      32.701  22.501  23.509  1.00  0.00    -0.309 N 
ATOM     83  O   UNL A   1      30.602  23.442  23.794  1.00  0.00    -0.268 OA
ATOM     84  Cl  UNL A   1      36.306  23.698  24.675  1.00  0.00    -0.083 Cl
ATOM     85  C   UNL A   1      34.071  22.591  23.721  1.00  0.00     0.110 A 
BRANCH  82  86
ATOM     86  C   UNL A   1      32.156  21.373  22.755  1.00  0.00     0.161 C 
BRANCH  86  87
ATOM     87  C   UNL A   1      32.404  20.034  23.414  1.00  0.00    -0.028 A 
ATOM     88  C   UNL A   1      32.528  18.866  22.646  1.00  0.00     0.007 A 
ATOM     89  C   UNL A   1      32.518  19.941  24.809  1.00  0.00     0.007 A 
ATOM     90  C   UNL A   1      32.760  17.633  23.257  1.00  0.00     0.021 A 
ATOM     91  C   UNL A   1      32.767  18.710  25.421  1.00  0.00     0.021 A 
ATOM     92  C   UNL A   1      32.883  17.560  24.642  1.00  0.00     0.041 A 
ATOM     93  Cl  UNL A   1      33.188  16.041  25.390  1.00  0.00    -0.084 Cl
ENDBRANCH  86  87
ENDBRANCH  82  86
ENDBRANCH  75  78
ENDBRANCH  73  74
ENDBRANCH  72  73
ENDBRANCH   1  72
TORSDOF 16
ENDMDL
MODEL 2
REMARK VINA RESULT:     -12.2      5.439     10.168
REMARK SMILES O=C(NCCCCNC(=O)c1cc(Cl)cn(Cc2ccc(Cl)cc2)c1=O)c1ccc(-c2c3nc(c(-c4cccc(S(=O)(=O)[O-])c4F)c4ccc([nH]4)c(-c4cccc(S(=O)(=O)[O-])c4F)c4nc(c(-c5cccc(S(=O)(=O)[O-])c5F)c5ccc2[nH]5)C=C4)C=C3)cc1
REMARK SMILES IDX 5 1 4 2 3 3 1 4 2 5 27 7 28 8 89 9 29 10 88 11 30 12 31 13
REMARK SMILES IDX 32 14 82 15 33 16 87 17 81 18 83 19 34 20 86 21 80 22 79 23
REMARK SMILES IDX 35 25 67 26 47 27 66 28 48 29 51 30 65 31 84 32 49 33 50 34
REMARK SMILES IDX 64 36 85 37 52 38 36 39 37 40 45 41 38 42 40 43 46 44 39 45
REMARK SMILES IDX 41 46 42 47 43 48 44 49 68 50 69 51 77 52 70 53 72 54 78 55
REMARK SMILES IDX 71 56 73 57 74 58 75 59 76 60 53 61 54 62 62 63 55 64 57 65
REMARK SMILES IDX 63 66 56 67 58 68 59 69 60 70 61 71 6 72 7 73 8 74 9 75
REMARK SMILES IDX 10 77 11 78 12 79 25 80 13 81 16 82 26 83 14 84 15 85 17 86
REMARK SMILES IDX 18 87 19 88 24 89 20 90 23 91 21 92 22 93
REMARK H PARENT 3 6 83 24 51 35 8 76
REMARK Flexibility Score: inf
ROOT
ATOM      1  C   UNL A   1      35.153  22.873  25.054  1.00  0.00     0.023 C 
ENDROOT
BRANCH   1   2
ATOM      2  C   UNL A   1      35.835  22.270  26.279  1.00  0.00     0.116 C 
BRANCH   2   3
ATOM      3  N   UNL A   1      36.812  21.253  25.927  1.00  0.00    -0.352 N 
ATOM      4  O   UNL A   1      38.813  20.399  25.375  1.00  0.00    -0.269 OA
ATOM      5  C   UNL A   1      38.180  21.338  25.854  1.00  0.00     0.251 C 
ATOM      6  H   UNL A   1      36.437  20.370  25.709  1.00  0.00     0.163 HD
BRANCH   5   7
ATOM      7  C   UNL A   1      38.896  22.542  26.333  1.00  0.00     0.039 A 
ATOM      8  C   UNL A   1      38.482  23.796  25.870  1.00  0.00     0.014 A 
ATOM      9  C   UNL A   1      40.009  22.441  27.173  1.00  0.00     0.014 A 
ATOM     10  C   UNL A   1      39.168  24.947  26.264  1.00  0.00     0.010 A 
ATOM     11  C   UNL A   1      40.659  23.594  27.609  1.00  0.00     0.010 A 
ATOM     12  C   UNL A   1      40.260  24.854  27.140  1.00  0.00    -0.014 A 
BRANCH  12  13
ATOM     13  C   UNL A   1      41.057  26.049  27.512  1.00  0.00     0.031 A 
ATOM     14  C   UNL A   1      40.414  27.144  28.316  1.00  0.00     0.074 A 
ATOM     15  C   UNL A   1      42.330  26.179  27.094  1.00  0.00     0.049 A 
ATOM     16  N   UNL A   1      40.885  28.321  28.633  1.00  0.00    -0.248 NA
ATOM     17  C   UNL A   1      39.053  26.885  28.815  1.00  0.00     0.031 C 
ATOM     18  C   UNL A   1      43.064  25.197  26.297  1.00  0.00     0.029 A 
ATOM     19  N   UNL A   1      43.225  27.204  27.272  1.00  0.00    -0.354 N 
ATOM     20  C   UNL A   1      39.869  28.956  29.335  1.00  0.00     0.074 A 
ATOM     21  C   UNL A   1      38.747  28.043  29.381  1.00  0.00     0.031 C 
ATOM     22  C   UNL A   1      44.302  25.662  26.063  1.00  0.00     0.029 A 
ATOM     23  C   UNL A   1      44.437  26.987  26.664  1.00  0.00     0.049 A 
ATOM     24  H   UNL A   1      43.016  28.017  27.785  1.00  0.00     0.167 HD
ATOM     25  C   UNL A   1      39.876  30.178  29.919  1.00  0.00     0.034 A 
ATOM     26  C   UNL A   1      45.532  27.769  26.594  1.00  0.00     0.034 A 
ATOM     27  C   UNL A   1      41.004  31.066  29.925  1.00  0.00     0.049 A 
ATOM     28  C   UNL A   1      45.524  29.118  27.259  1.00  0.00     0.074 A 
ATOM     29  C   UNL A   1      41.112  32.316  30.508  1.00  0.00     0.029 A 
ATOM     30  N   UNL A   1      42.227  30.790  29.336  1.00  0.00    -0.354 N 
ATOM     31  N   UNL A   1      44.568  29.686  27.955  1.00  0.00    -0.248 NA
ATOM     32  C   UNL A   1      46.746  29.926  27.143  1.00  0.00     0.031 C 
ATOM     33  C   UNL A   1      42.409  32.791  30.283  1.00  0.00     0.029 A 
ATOM     34  C   UNL A   1      43.104  31.838  29.553  1.00  0.00     0.049 A 
ATOM     35  H   UNL A   1      42.441  29.971  28.835  1.00  0.00     0.167 HD
ATOM     36  C   UNL A   1      45.075  30.912  28.367  1.00  0.00     0.074 A 
ATOM     37  C   UNL A   1      46.430  30.997  27.862  1.00  0.00     0.031 C 
ATOM     38  C   UNL A   1      44.463  31.889  29.080  1.00  0.00     0.034 A 
BRANCH  25  39
ATOM     39  C   UNL A   1      38.637  30.586  30.665  1.00  0.00     0.023 A 
ATOM     40  C   UNL A   1      38.522  30.245  32.028  1.00  0.00     0.012 A 
ATOM     41  C   UNL A   1      37.608  31.313  30.041  1.00  0.00     0.148 A 
ATOM     42  C   UNL A   1      37.388  30.603  32.754  1.00  0.00     0.002 A 
ATOM     43  C   UNL A   1      36.492  31.691  30.780  1.00  0.00     0.091 A 
ATOM     44  F   UNL A   1      37.726  31.601  28.736  1.00  0.00    -0.205 F 
ATOM     45  C   UNL A   1      36.378  31.331  32.133  1.00  0.00     0.022 A 
BRANCH  43  46
ATOM     46  S   UNL A   1      35.156  32.668  30.082  1.00  0.00     0.127 S 
ATOM     47  O   UNL A   1      34.269  32.821  31.234  1.00  0.00    -0.237 OA
ATOM     48  O   UNL A   1      35.846  33.893  29.676  1.00  0.00    -0.237 OA
ATOM     49  O   UNL A   1      34.621  31.882  28.979  1.00  0.00    -0.744 OA
ENDBRANCH  43  46
ENDBRANCH  25  39
BRANCH  26  50
ATOM     50  C   UNL A   1      46.752  27.248  25.923  1.00  0.00     0.023 A 
ATOM     51  C   UNL A   1      46.904  27.453  24.539  1.00  0.00     0.012 A 
ATOM     52  C   UNL A   1      47.791  26.637  26.652  1.00  0.00     0.148 A 
ATOM     53  C   UNL A   1      48.072  27.056  23.888  1.00  0.00     0.002 A 
ATOM     54  C   UNL A   1      48.966  26.277  26.003  1.00  0.00     0.091 A 
ATOM     55  F   UNL A   1      47.622  26.464  27.970  1.00  0.00    -0.205 F 
ATOM     56  C   UNL A   1      49.105  26.477  24.620  1.00  0.00     0.022 A 
BRANCH  54  57
ATOM     57  S   UNL A   1      50.393  25.615  26.870  1.00  0.00     0.127 S 
ATOM     58  O   UNL A   1      51.305  25.317  25.768  1.00  0.00    -0.237 OA
ATOM     59  O   UNL A   1      50.783  26.752  27.704  1.00  0.00    -0.237 OA
ATOM     60  O   UNL A   1      49.910  24.452  27.603  1.00  0.00    -0.744 OA
ENDBRANCH  54  57
ENDBRANCH  26  50
BRANCH  38  61
ATOM     61  C   UNL A   1      45.240  33.147  29.356  1.00  0.00     0.023 A 
ATOM     62  C   UNL A   1      46.056  33.206  30.503  1.00  0.00     0.012 A 
ATOM     63  C   UNL A   1      45.245  34.217  28.441  1.00  0.00     0.148 A 
ATOM     64  C   UNL A   1      46.861  34.319  30.740  1.00  0.00     0.002 A 
ATOM     65  C   UNL A   1      46.072  35.311  28.669  1.00  0.00     0.091 A 
ATOM     66  F   UNL A   1      44.444  34.144  27.368  1.00  0.00    -0.205 F 
ATOM     67  C   UNL A   1      46.878  35.365  29.819  1.00  0.00     0.022 A 
BRANCH  65  68
ATOM     68  S   UNL A   1      46.210  36.671  27.504  1.00  0.00     0.127 S 
ATOM     69  O   UNL A   1      46.660  35.984  26.296  1.00  0.00    -0.237 OA
ATOM     70  O   UNL A   1      44.837  37.173  27.444  1.00  0.00    -0.237 OA
ATOM     71  O   UNL A   1      47.165  37.601  28.090  1.00  0.00    -0.744 OA
ENDBRANCH  65  68
ENDBRANCH  38  61
ENDBRANCH  12  13
ENDBRANCH   5   7
ENDBRANCH   2   3
ENDBRANCH   1   2
BRANCH   1  72
ATOM     72  C   UNL A   1      34.294  21.909  24.234  1.00  0.00     0.023 C 
BRANCH  72  73
ATOM     73  C   UNL A   1      32.816  22.276  24.133  1.00  0.00     0.116 C 
BRANCH  73  74
ATOM     74  N   UNL A   1      32.152  22.281  25.425  1.00  0.00    -0.352 N 
ATOM     75  C   UNL A   1      31.646  23.337  26.134  1.00  0.00     0.256 C 
ATOM     76  H   UNL A   1      32.050  21.400  25.851  1.00  0.00     0.163 HD
ATOM     77  O   UNL A   1      31.165  23.164  27.246  1.00  0.00    -0.269 OA
BRANCH  75  78
ATOM     78  C   UNL A   1      31.813  24.697  25.582  1.00  0.00     0.106 A 
ATOM     79  C   UNL A   1      32.692  25.494  26.215  1.00  0.00     0.041 A 
ATOM     80  C   UNL A   1      31.112  25.171  24.351  1.00  0.00     0.263 A 
ATOM     81  C   UNL A   1      33.024  26.783  25.673  1.00  0.00     0.058 A 
ATOM     82  N   UNL A   1      31.553  26.398  23.841  1.00  0.00    -0.309 N 
ATOM     83  O   UNL A   1      30.246  24.485  23.811  1.00  0.00    -0.268 OA
ATOM     84  Cl  UNL A   1      34.175  27.759  26.497  1.00  0.00    -0.083 Cl
ATOM     85  C   UNL A   1      32.488  27.176  24.511  1.00  0.00     0.110 A 
BRANCH  82  86
ATOM     86  C   UNL A   1      31.015  26.856  22.560  1.00  0.00     0.161 C 
BRANCH  86  87
ATOM     87  C   UNL A   1      30.074  28.033  22.690  1.00  0.00    -0.028 A 
ATOM     88  C   UNL A   1      28.752  27.854  23.126  1.00  0.00     0.007 A 
ATOM     89  C   UNL A   1      30.513  29.329  22.380  1.00  0.00     0.007 A 
ATOM     90  C   UNL A   1      27.888  28.943  23.249  1.00  0.00     0.021 A 
ATOM     91  C   UNL A   1      29.654  30.423  22.518  1.00  0.00     0.021 A 
ATOM     92  C   UNL A   1      28.344  30.224  22.948  1.00  0.00     0.041 A 
ATOM     93  Cl  UNL A   1      27.281  31.566  23.118  1.00  0.00    -0.084 Cl
ENDBRANCH  86  87
ENDBRANCH  82  86
ENDBRANCH  75  78
ENDBRANCH  73  74
ENDBRANCH  72  73
ENDBRANCH   1  72
TORSDOF 16
ENDMDL
MODEL 3
REMARK VINA RESULT:     -12.0      2.427      8.262
REMARK SMILES O=C(NCCCCNC(=O)c1cc(Cl)cn(Cc2ccc(Cl)cc2)c1=O)c1ccc(-c2c3nc(c(-c4cccc(S(=O)(=O)[O-])c4F)c4ccc([nH]4)c(-c4cccc(S(=O)(=O)[O-])c4F)c4nc(c(-c5cccc(S(=O)(=O)[O-])c5F)c5ccc2[nH]5)C=C4)C=C3)cc1
REMARK SMILES IDX 5 1 4 2 3 3 1 4 2 5 27 7 28 8 89 9 29 10 88 11 30 12 31 13
REMARK SMILES IDX 32 14 82 15 33 16 87 17 81 18 83 19 34 20 86 21 80 22 79 23
REMARK SMILES IDX 35 25 67 26 47 27 66 28 48 29 51 30 65 31 84 32 49 33 50 34
REMARK SMILES IDX 64 36 85 37 52 38 36 39 37 40 45 41 38 42 40 43 46 44 39 45
REMARK SMILES IDX 41 46 42 47 43 48 44 49 68 50 69 51 77 52 70 53 72 54 78 55
REMARK SMILES IDX 71 56 73 57 74 58 75 59 76 60 53 61 54 62 62 63 55 64 57 65
REMARK SMILES IDX 63 66 56 67 58 68 59 69 60 70 61 71 6 72 7 73 8 74 9 75
REMARK SMILES IDX 10 77 11 78 12 79 25 80 13 81 16 82 26 83 14 84 15 85 17 86
REMARK SMILES IDX 18 87 19 88 24 89 20 90 23 91 21 92 22 93
REMARK H PARENT 3 6 83 24 51 35 8 76
REMARK Flexibility Score: inf
ROOT
ATOM      1  C   UNL A   1      31.429  32.178  26.530  1.00  0.00     0.023 C 
ENDROOT
BRANCH   1   2
ATOM      2  C   UNL A   1      32.684  32.676  27.244  1.00  0.00     0.116 C 
BRANCH   2   3
ATOM      3  N   UNL A   1      32.572  34.062  27.664  1.00  0.00    -0.352 N 
ATOM      4  O   UNL A   1      32.858  35.865  28.969  1.00  0.00    -0.269 OA
ATOM      5  C   UNL A   1      33.220  34.728  28.674  1.00  0.00     0.251 C 
ATOM      6  H   UNL A   1      31.936  34.606  27.147  1.00  0.00     0.163 HD
BRANCH   5   7
ATOM      7  C   UNL A   1      34.336  34.095  29.411  1.00  0.00     0.039 A 
ATOM      8  C   UNL A   1      35.648  34.404  29.034  1.00  0.00     0.014 A 
ATOM      9  C   UNL A   1      34.104  33.150  30.416  1.00  0.00     0.014 A 
ATOM     10  C   UNL A   1      36.724  33.784  29.676  1.00  0.00     0.010 A 
ATOM     11  C   UNL A   1      35.177  32.575  31.093  1.00  0.00     0.010 A 
ATOM     12  C   UNL A   1      36.495  32.868  30.713  1.00  0.00    -0.014 A 
BRANCH  12  13
ATOM     13  C   UNL A   1      37.612  32.135  31.358  1.00  0.00     0.031 A 
ATOM     14  C   UNL A   1      38.076  32.553  32.726  1.00  0.00     0.074 A 
ATOM     15  C   UNL A   1      38.241  31.138  30.709  1.00  0.00     0.049 A 
ATOM     16  N   UNL A   1      39.110  32.138  33.409  1.00  0.00    -0.248 NA
ATOM     17  C   UNL A   1      37.277  33.585  33.408  1.00  0.00     0.031 C 
ATOM     18  C   UNL A   1      37.898  30.648  29.375  1.00  0.00     0.029 A 
ATOM     19  N   UNL A   1      39.313  30.369  31.085  1.00  0.00    -0.354 N 
ATOM     20  C   UNL A   1      39.109  32.882  34.582  1.00  0.00     0.074 A 
ATOM     21  C   UNL A   1      37.983  33.789  34.510  1.00  0.00     0.031 C 
ATOM     22  C   UNL A   1      38.739  29.653  29.046  1.00  0.00     0.029 A 
ATOM     23  C   UNL A   1      39.697  29.458  30.132  1.00  0.00     0.049 A 
ATOM     24  H   UNL A   1      39.765  30.463  31.955  1.00  0.00     0.167 HD
ATOM     25  C   UNL A   1      39.949  32.800  35.640  1.00  0.00     0.034 A 
ATOM     26  C   UNL A   1      40.710  28.569  30.129  1.00  0.00     0.034 A 
ATOM     27  C   UNL A   1      41.033  31.864  35.742  1.00  0.00     0.049 A 
ATOM     28  C   UNL A   1      41.625  28.485  31.320  1.00  0.00     0.074 A 
ATOM     29  C   UNL A   1      41.926  31.692  36.785  1.00  0.00     0.029 A 
ATOM     30  N   UNL A   1      41.362  30.930  34.774  1.00  0.00    -0.354 N 
ATOM     31  N   UNL A   1      41.584  29.168  32.438  1.00  0.00    -0.248 NA
ATOM     32  C   UNL A   1      42.715  27.500  31.255  1.00  0.00     0.031 C 
ATOM     33  C   UNL A   1      42.787  30.641  36.452  1.00  0.00     0.029 A 
ATOM     34  C   UNL A   1      42.433  30.165  35.199  1.00  0.00     0.049 A 
ATOM     35  H   UNL A   1      40.901  30.825  33.910  1.00  0.00     0.167 HD
ATOM     36  C   UNL A   1      42.634  28.691  33.214  1.00  0.00     0.074 A 
ATOM     37  C   UNL A   1      43.280  27.646  32.448  1.00  0.00     0.031 C 
ATOM     38  C   UNL A   1      43.039  29.100  34.441  1.00  0.00     0.034 A 
BRANCH  25  39
ATOM     39  C   UNL A   1      39.670  33.705  36.807  1.00  0.00     0.023 A 
ATOM     40  C   UNL A   1      40.045  35.061  36.720  1.00  0.00     0.012 A 
ATOM     41  C   UNL A   1      39.029  33.234  37.967  1.00  0.00     0.148 A 
ATOM     42  C   UNL A   1      39.806  35.931  37.781  1.00  0.00     0.002 A 
ATOM     43  C   UNL A   1      38.769  34.115  39.011  1.00  0.00     0.091 A 
ATOM     44  F   UNL A   1      38.707  31.934  38.039  1.00  0.00    -0.205 F 
ATOM     45  C   UNL A   1      39.162  35.461  38.921  1.00  0.00     0.022 A 
BRANCH  43  46
ATOM     46  S   UNL A   1      37.906  33.617  40.505  1.00  0.00     0.127 S 
ATOM     47  O   UNL A   1      36.675  33.047  39.958  1.00  0.00    -0.237 OA
ATOM     48  O   UNL A   1      38.826  32.636  41.083  1.00  0.00    -0.237 OA
ATOM     49  O   UNL A   1      37.741  34.829  41.294  1.00  0.00    -0.744 OA
ENDBRANCH  43  46
ENDBRANCH  25  39
BRANCH  26  50
ATOM     50  C   UNL A   1      40.854  27.640  28.978  1.00  0.00     0.023 A 
ATOM     51  C   UNL A   1      39.973  26.547  28.874  1.00  0.00     0.012 A 
ATOM     52  C   UNL A   1      41.787  27.878  27.950  1.00  0.00     0.148 A 
ATOM     53  C   UNL A   1      40.018  25.703  27.766  1.00  0.00     0.002 A 
ATOM     54  C   UNL A   1      41.802  27.053  26.831  1.00  0.00     0.091 A 
ATOM     55  F   UNL A   1      42.607  28.931  28.071  1.00  0.00    -0.205 F 
ATOM     56  C   UNL A   1      40.925  25.960  26.741  1.00  0.00     0.022 A 
BRANCH  54  57
ATOM     57  S   UNL A   1      42.863  27.356  25.414  1.00  0.00     0.127 S 
ATOM     58  O   UNL A   1      42.767  26.090  24.689  1.00  0.00    -0.237 OA
ATOM     59  O   UNL A   1      42.185  28.484  24.776  1.00  0.00    -0.237 OA
ATOM     60  O   UNL A   1      44.180  27.656  25.959  1.00  0.00    -0.744 OA
ENDBRANCH  54  57
ENDBRANCH  26  50
BRANCH  38  61
ATOM     61  C   UNL A   1      44.243  28.429  35.042  1.00  0.00     0.023 A 
ATOM     62  C   UNL A   1      45.521  28.964  34.786  1.00  0.00     0.012 A 
ATOM     63  C   UNL A   1      44.106  27.346  35.931  1.00  0.00     0.148 A 
ATOM     64  C   UNL A   1      46.649  28.425  35.402  1.00  0.00     0.002 A 
ATOM     65  C   UNL A   1      45.232  26.831  36.563  1.00  0.00     0.091 A 
ATOM     66  F   UNL A   1      42.881  26.842  36.142  1.00  0.00    -0.205 F 
ATOM     67  C   UNL A   1      46.504  27.366  36.297  1.00  0.00     0.022 A 
BRANCH  65  68
ATOM     68  S   UNL A   1      45.132  25.516  37.783  1.00  0.00     0.127 S 
ATOM     69  O   UNL A   1      46.519  25.421  38.233  1.00  0.00    -0.237 OA
ATOM     70  O   UNL A   1      44.207  26.073  38.770  1.00  0.00    -0.237 OA
ATOM     71  O   UNL A   1      44.622  24.351  37.072  1.00  0.00    -0.744 OA
ENDBRANCH  65  68
ENDBRANCH  38  61
ENDBRANCH  12  13
ENDBRANCH   5   7
ENDBRANCH   2   3
ENDBRANCH   1   2
BRANCH   1  72
ATOM     72  C   UNL A   1      31.485  30.735  26.026  1.00  0.00     0.023 C 
BRANCH  72  73
ATOM     73  C   UNL A   1      32.866  30.087  26.052  1.00  0.00     0.116 C 
BRANCH  73  74
ATOM     74  N   UNL A   1      33.317  29.678  24.732  1.00  0.00    -0.352 N 
ATOM     75  C   UNL A   1      32.975  28.570  24.005  1.00  0.00     0.256 C 
ATOM     76  H   UNL A   1      33.959  30.286  24.299  1.00  0.00     0.163 HD
ATOM     77  O   UNL A   1      33.501  28.354  22.921  1.00  0.00    -0.269 OA
BRANCH  75  78
ATOM     78  C   UNL A   1      32.059  27.585  24.615  1.00  0.00     0.106 A 
ATOM     79  C   UNL A   1      30.808  27.551  24.125  1.00  0.00     0.041 A 
ATOM     80  C   UNL A   1      32.485  26.619  25.672  1.00  0.00     0.263 A 
ATOM     81  C   UNL A   1      29.886  26.536  24.557  1.00  0.00     0.058 A 
ATOM     82  N   UNL A   1      31.560  25.611  25.975  1.00  0.00    -0.309 N 
ATOM     83  O   UNL A   1      33.599  26.693  26.187  1.00  0.00    -0.268 OA
ATOM     84  Cl  UNL A   1      28.304  26.510  23.883  1.00  0.00    -0.083 Cl
ATOM     85  C   UNL A   1      30.287  25.595  25.421  1.00  0.00     0.110 A 
BRANCH  82  86
ATOM     86  C   UNL A   1      31.964  24.547  26.893  1.00  0.00     0.161 C 
BRANCH  86  87
ATOM     87  C   UNL A   1      32.404  23.282  26.190  1.00  0.00    -0.028 A 
ATOM     88  C   UNL A   1      33.764  23.023  25.959  1.00  0.00     0.007 A 
ATOM     89  C   UNL A   1      31.455  22.341  25.762  1.00  0.00     0.007 A 
ATOM     90  C   UNL A   1      34.167  21.853  25.314  1.00  0.00     0.021 A 
ATOM     91  C   UNL A   1      31.858  21.162  25.131  1.00  0.00     0.021 A 
ATOM     92  C   UNL A   1      33.212  20.925  24.906  1.00  0.00     0.041 A 
ATOM     93  Cl  UNL A   1      33.715  19.475  24.127  1.00  0.00    -0.084 Cl
ENDBRANCH  86  87
ENDBRANCH  82  86
ENDBRANCH  75  78
ENDBRANCH  73  74
ENDBRANCH  72  73
ENDBRANCH   1  72
TORSDOF 16
ENDMDL
