MODEL 1
REMARK VINA RESULT:     -11.7      0.000      0.000
REMARK SMILES CN(C)Nc1ncnc(Nc2ccc(C(=O)NCCCCNC(=O)c3ccc(-c4c5nc(c(-c6cccc(S(=O)(=O)[O-])c6F)c6ccc([nH]6)c(-c6cccc(S(=O)(=O)[O-])c6F)c6nc(c(-c7cccc(S(=O)(=O)[O-])c7F)c7ccc4[nH]7)C=C6)C=C5)cc3)cc2)c1[N+](=O)[O-]
REMARK SMILES IDX 19 1 18 2 17 3 15 4 16 5 14 7 11 8 12 9 89 10 13 11 88 12
REMARK SMILES IDX 10 13 9 15 5 16 6 17 90 18 7 19 8 20 4 21 2 23 1 24 3 25
REMARK SMILES IDX 91 26 92 27 93 28 20 29 21 30 22 31 23 32 24 34 25 35 26 36
REMARK SMILES IDX 87 37 27 38 86 39 28 40 29 41 30 42 80 43 31 44 85 45 79 46
REMARK SMILES IDX 81 47 32 48 84 49 78 50 77 51 33 53 65 54 45 55 64 56 46 57
REMARK SMILES IDX 49 58 63 59 82 60 47 61 48 62 62 64 83 65 50 66 34 67 35 68
REMARK SMILES IDX 43 69 36 70 38 71 44 72 37 73 39 74 40 75 41 76 42 77 66 78
REMARK SMILES IDX 67 79 75 80 68 81 70 82 76 83 69 84 71 85 72 86 73 87 74 88
REMARK SMILES IDX 51 89 52 90 60 91 53 92 55 93 61 94 54 95 56 96 57 97 58 98
REMARK SMILES IDX 59 99
REMARK H PARENT 17 6 10 14 4 22 22 33 81 52 49 63
REMARK Flexibility Score: inf
ROOT
ATOM      1  C   UNL A   1      33.030  29.093  24.169  1.00  0.00     0.023 C 
ENDROOT
BRANCH   1   2
ATOM      2  C   UNL A   1      32.756  28.716  22.711  1.00  0.00     0.116 C 
BRANCH   2   3
ATOM      3  N   UNL A   1      31.336  28.788  22.425  1.00  0.00    -0.352 N 
ATOM      4  C   UNL A   1      30.289  27.958  22.731  1.00  0.00     0.251 C 
ATOM      5  O   UNL A   1      29.161  28.295  22.368  1.00  0.00    -0.269 OA
ATOM      6  H   UNL A   1      31.074  29.586  21.912  1.00  0.00     0.163 HD
BRANCH   4   7
ATOM      7  C   UNL A   1      30.435  26.707  23.528  1.00  0.00     0.039 A 
ATOM      8  C   UNL A   1      30.612  24.211  24.839  1.00  0.00     0.040 A 
ATOM      9  C   UNL A   1      30.900  24.312  23.480  1.00  0.00     0.027 A 
ATOM     10  C   UNL A   1      30.354  25.385  25.558  1.00  0.00     0.027 A 
ATOM     11  C   UNL A   1      30.789  25.544  22.826  1.00  0.00     0.016 A 
ATOM     12  C   UNL A   1      30.282  26.625  24.911  1.00  0.00     0.016 A 
BRANCH   8  13
ATOM     13  N   UNL A   1      30.693  22.963  25.488  1.00  0.00    -0.334 N 
ATOM     14  H   UNL A   1      29.886  22.399  25.500  1.00  0.00     0.168 HD
BRANCH  13  15
ATOM     15  C   UNL A   1      31.851  22.466  26.122  1.00  0.00     0.215 A 
ATOM     16  C   UNL A   1      33.820  21.143  26.237  1.00  0.00     0.225 A 
ATOM     17  N   UNL A   1      34.074  21.606  27.480  1.00  0.00    -0.212 NA
ATOM     18  C   UNL A   1      32.659  21.485  25.572  1.00  0.00     0.354 A 
ATOM     19  C   UNL A   1      33.205  22.483  27.986  1.00  0.00     0.227 A 
ATOM     20  N   UNL A   1      32.134  22.958  27.351  1.00  0.00    -0.212 NA
BRANCH  16  21
ATOM     21  N   UNL A   1      34.904  20.430  25.714  1.00  0.00    -0.298 N 
ATOM     22  H   UNL A   1      34.773  19.471  25.533  1.00  0.00     0.184 HD
BRANCH  21  23
ATOM     23  N   UNL A   1      36.176  20.986  25.423  1.00  0.00    -0.228 NA
ATOM     24  C   UNL A   1      37.119  19.959  24.942  1.00  0.00     0.130 C 
ATOM     25  C   UNL A   1      35.979  21.962  24.335  1.00  0.00     0.130 C 
ENDBRANCH  21  23
ENDBRANCH  16  21
BRANCH  18  26
ATOM     26  N   UNL A   1      32.277  20.827  24.360  1.00  0.00     0.070 N 
ATOM     27  O   UNL A   1      31.970  19.626  24.445  1.00  0.00    -0.258 OA
ATOM     28  O   UNL A   1      32.380  21.461  23.301  1.00  0.00    -0.258 OA
ENDBRANCH  18  26
ENDBRANCH  13  15
ENDBRANCH   8  13
ENDBRANCH   4   7
ENDBRANCH   2   3
ENDBRANCH   1   2
BRANCH   1  29
ATOM     29  C   UNL A   1      33.712  27.990  24.986  1.00  0.00     0.023 C 
BRANCH  29  30
ATOM     30  C   UNL A   1      34.233  28.426  26.352  1.00  0.00     0.116 C 
BRANCH  30  31
ATOM     31  N   UNL A   1      33.832  29.779  26.711  1.00  0.00    -0.352 N 
ATOM     32  C   UNL A   1      34.471  30.668  27.545  1.00  0.00     0.251 C 
ATOM     33  H   UNL A   1      32.996  30.100  26.303  1.00  0.00     0.163 HD
ATOM     34  O   UNL A   1      33.943  31.734  27.828  1.00  0.00    -0.269 OA
BRANCH  32  35
ATOM     35  C   UNL A   1      35.780  30.301  28.124  1.00  0.00     0.039 A 
ATOM     36  C   UNL A   1      35.817  29.734  29.401  1.00  0.00     0.014 A 
ATOM     37  C   UNL A   1      36.961  30.486  27.399  1.00  0.00     0.014 A 
ATOM     38  C   UNL A   1      37.033  29.293  29.926  1.00  0.00     0.010 A 
ATOM     39  C   UNL A   1      38.161  29.989  27.897  1.00  0.00     0.010 A 
ATOM     40  C   UNL A   1      38.210  29.388  29.165  1.00  0.00    -0.014 A 
BRANCH  40  41
ATOM     41  C   UNL A   1      39.498  28.845  29.664  1.00  0.00     0.031 A 
ATOM     42  C   UNL A   1      40.229  29.537  30.781  1.00  0.00     0.074 A 
ATOM     43  C   UNL A   1      40.057  27.788  29.042  1.00  0.00     0.049 A 
ATOM     44  N   UNL A   1      41.391  29.247  31.308  1.00  0.00    -0.248 NA
ATOM     45  C   UNL A   1      39.588  30.727  31.363  1.00  0.00     0.031 C 
ATOM     46  C   UNL A   1      39.488  27.088  27.888  1.00  0.00     0.029 A 
ATOM     47  N   UNL A   1      41.244  27.138  29.273  1.00  0.00    -0.354 N 
ATOM     48  C   UNL A   1      41.638  30.238  32.251  1.00  0.00     0.074 A 
ATOM     49  C   UNL A   1      40.518  31.153  32.205  1.00  0.00     0.031 C 
ATOM     50  C   UNL A   1      40.327  26.109  27.511  1.00  0.00     0.029 A 
ATOM     51  C   UNL A   1      41.500  26.125  28.378  1.00  0.00     0.049 A 
ATOM     52  H   UNL A   1      41.854  27.374  30.008  1.00  0.00     0.167 HD
ATOM     53  C   UNL A   1      42.686  30.359  33.099  1.00  0.00     0.034 A 
ATOM     54  C   UNL A   1      42.563  25.303  28.267  1.00  0.00     0.034 A 
ATOM     55  C   UNL A   1      43.768  29.414  33.180  1.00  0.00     0.049 A 
ATOM     56  C   UNL A   1      43.683  25.419  29.265  1.00  0.00     0.074 A 
ATOM     57  C   UNL A   1      44.819  29.388  34.079  1.00  0.00     0.029 A 
ATOM     58  N   UNL A   1      43.941  28.335  32.329  1.00  0.00    -0.354 N 
ATOM     59  N   UNL A   1      43.809  26.252  30.270  1.00  0.00    -0.248 NA
ATOM     60  C   UNL A   1      44.787  24.458  29.142  1.00  0.00     0.031 C 
ATOM     61  C   UNL A   1      45.637  28.298  33.762  1.00  0.00     0.029 A 
ATOM     62  C   UNL A   1      45.085  27.637  32.676  1.00  0.00     0.049 A 
ATOM     63  H   UNL A   1      43.338  28.098  31.588  1.00  0.00     0.167 HD
ATOM     64  C   UNL A   1      44.986  25.894  30.917  1.00  0.00     0.074 A 
ATOM     65  C   UNL A   1      45.524  24.754  30.204  1.00  0.00     0.031 C 
ATOM     66  C   UNL A   1      45.577  26.468  31.994  1.00  0.00     0.034 A 
BRANCH  53  67
ATOM     67  C   UNL A   1      42.683  31.521  34.056  1.00  0.00     0.023 A 
ATOM     68  C   UNL A   1      43.265  32.744  33.663  1.00  0.00     0.012 A 
ATOM     69  C   UNL A   1      42.053  31.427  35.313  1.00  0.00     0.148 A 
ATOM     70  C   UNL A   1      43.249  33.845  34.517  1.00  0.00     0.002 A 
ATOM     71  C   UNL A   1      42.006  32.543  36.142  1.00  0.00     0.091 A 
ATOM     72  F   UNL A   1      41.526  30.250  35.679  1.00  0.00    -0.205 F 
ATOM     73  C   UNL A   1      42.611  33.748  35.749  1.00  0.00     0.022 A 
BRANCH  71  74
ATOM     74  S   UNL A   1      41.141  32.541  37.717  1.00  0.00     0.127 S 
ATOM     75  O   UNL A   1      41.976  31.639  38.509  1.00  0.00    -0.237 OA
ATOM     76  O   UNL A   1      41.217  33.947  38.113  1.00  0.00    -0.237 OA
ATOM     77  O   UNL A   1      39.795  32.064  37.434  1.00  0.00    -0.744 OA
ENDBRANCH  71  74
ENDBRANCH  53  67
BRANCH  54  78
ATOM     78  C   UNL A   1      42.580  24.247  27.216  1.00  0.00     0.023 A 
ATOM     79  C   UNL A   1      43.229  24.506  25.992  1.00  0.00     0.012 A 
ATOM     80  C   UNL A   1      41.991  22.987  27.426  1.00  0.00     0.148 A 
ATOM     81  C   UNL A   1      43.263  23.540  24.986  1.00  0.00     0.002 A 
ATOM     82  C   UNL A   1      42.075  22.009  26.441  1.00  0.00     0.091 A 
ATOM     83  F   UNL A   1      41.366  22.763  28.592  1.00  0.00    -0.205 F 
ATOM     84  C   UNL A   1      42.696  22.289  25.214  1.00  0.00     0.022 A 
BRANCH  82  85
ATOM     85  S   UNL A   1      41.490  20.331  26.703  1.00  0.00     0.127 S 
ATOM     86  O   UNL A   1      40.045  20.528  26.788  1.00  0.00    -0.237 OA
ATOM     87  O   UNL A   1      41.948  19.655  25.489  1.00  0.00    -0.237 OA
ATOM     88  O   UNL A   1      42.145  19.877  27.922  1.00  0.00    -0.744 OA
ENDBRANCH  82  85
ENDBRANCH  54  78
BRANCH  66  89
ATOM     89  C   UNL A   1      46.860  25.860  32.495  1.00  0.00     0.023 A 
ATOM     90  C   UNL A   1      48.093  26.319  31.991  1.00  0.00     0.012 A 
ATOM     91  C   UNL A   1      46.847  24.895  33.521  1.00  0.00     0.148 A 
ATOM     92  C   UNL A   1      49.293  25.806  32.482  1.00  0.00     0.002 A 
ATOM     93  C   UNL A   1      48.048  24.423  34.038  1.00  0.00     0.091 A 
ATOM     94  F   UNL A   1      45.663  24.456  33.973  1.00  0.00    -0.205 F 
ATOM     95  C   UNL A   1      49.271  24.869  33.512  1.00  0.00     0.022 A 
BRANCH  93  96
ATOM     96  S   UNL A   1      48.113  23.287  35.429  1.00  0.00     0.127 S 
ATOM     97  O   UNL A   1      47.390  24.031  36.457  1.00  0.00    -0.237 OA
ATOM     98  O   UNL A   1      47.403  22.117  34.910  1.00  0.00    -0.237 OA
ATOM     99  O   UNL A   1      49.528  23.061  35.693  1.00  0.00    -0.744 OA
ENDBRANCH  93  96
ENDBRANCH  66  89
ENDBRANCH  40  41
ENDBRANCH  32  35
ENDBRANCH  30  31
ENDBRANCH  29  30
ENDBRANCH   1  29
TORSDOF 19
ENDMDL
MODEL 2
REMARK VINA RESULT:     -11.4      3.228      8.306
REMARK SMILES CN(C)Nc1ncnc(Nc2ccc(C(=O)NCCCCNC(=O)c3ccc(-c4c5nc(c(-c6cccc(S(=O)(=O)[O-])c6F)c6ccc([nH]6)c(-c6cccc(S(=O)(=O)[O-])c6F)c6nc(c(-c7cccc(S(=O)(=O)[O-])c7F)c7ccc4[nH]7)C=C6)C=C5)cc3)cc2)c1[N+](=O)[O-]
REMARK SMILES IDX 19 1 18 2 17 3 15 4 16 5 14 7 11 8 12 9 89 10 13 11 88 12
REMARK SMILES IDX 10 13 9 15 5 16 6 17 90 18 7 19 8 20 4 21 2 23 1 24 3 25
REMARK SMILES IDX 91 26 92 27 93 28 20 29 21 30 22 31 23 32 24 34 25 35 26 36
REMARK SMILES IDX 87 37 27 38 86 39 28 40 29 41 30 42 80 43 31 44 85 45 79 46
REMARK SMILES IDX 81 47 32 48 84 49 78 50 77 51 33 53 65 54 45 55 64 56 46 57
REMARK SMILES IDX 49 58 63 59 82 60 47 61 48 62 62 64 83 65 50 66 34 67 35 68
REMARK SMILES IDX 43 69 36 70 38 71 44 72 37 73 39 74 40 75 41 76 42 77 66 78
REMARK SMILES IDX 67 79 75 80 68 81 70 82 76 83 69 84 71 85 72 86 73 87 74 88
REMARK SMILES IDX 51 89 52 90 60 91 53 92 55 93 61 94 54 95 56 96 57 97 58 98
REMARK SMILES IDX 59 99
REMARK H PARENT 17 6 10 14 4 22 22 33 81 52 49 63
REMARK Flexibility Score: inf
ROOT
ATOM      1  C   UNL A   1      31.836  30.395  26.979  1.00  0.00     0.023 C 
ENDROOT
BRANCH   1   2
ATOM      2  C   UNL A   1      32.277  29.805  25.638  1.00  0.00     0.116 C 
BRANCH   2   3
ATOM      3  N   UNL A   1      31.303  30.104  24.605  1.00  0.00    -0.352 N 
ATOM      4  C   UNL A   1      30.625  29.310  23.717  1.00  0.00     0.251 C 
ATOM      5  O   UNL A   1      29.824  29.853  22.955  1.00  0.00    -0.269 OA
ATOM      6  H   UNL A   1      31.087  31.061  24.528  1.00  0.00     0.163 HD
BRANCH   4   7
ATOM      7  C   UNL A   1      30.761  27.827  23.666  1.00  0.00     0.039 A 
ATOM      8  C   UNL A   1      30.894  25.023  23.350  1.00  0.00     0.040 A 
ATOM      9  C   UNL A   1      31.051  25.862  22.249  1.00  0.00     0.027 A 
ATOM     10  C   UNL A   1      30.791  25.600  24.622  1.00  0.00     0.027 A 
ATOM     11  C   UNL A   1      30.962  27.250  22.402  1.00  0.00     0.016 A 
ATOM     12  C   UNL A   1      30.742  26.990  24.781  1.00  0.00     0.016 A 
BRANCH   8  13
ATOM     13  N   UNL A   1      30.951  23.624  23.187  1.00  0.00    -0.334 N 
ATOM     14  H   UNL A   1      30.272  23.201  22.615  1.00  0.00     0.168 HD
BRANCH  13  15
ATOM     15  C   UNL A   1      31.916  22.790  23.789  1.00  0.00     0.215 A 
ATOM     16  C   UNL A   1      34.130  22.024  24.180  1.00  0.00     0.225 A 
ATOM     17  N   UNL A   1      33.670  21.102  25.053  1.00  0.00    -0.212 NA
ATOM     18  C   UNL A   1      33.260  22.818  23.459  1.00  0.00     0.354 A 
ATOM     19  C   UNL A   1      32.353  21.070  25.258  1.00  0.00     0.227 A 
ATOM     20  N   UNL A   1      31.467  21.892  24.697  1.00  0.00    -0.212 NA
BRANCH  16  21
ATOM     21  N   UNL A   1      35.523  22.135  24.223  1.00  0.00    -0.298 N 
ATOM     22  H   UNL A   1      36.014  22.043  23.374  1.00  0.00     0.184 HD
BRANCH  21  23
ATOM     23  N   UNL A   1      36.283  22.371  25.397  1.00  0.00    -0.228 NA
ATOM     24  C   UNL A   1      37.685  21.946  25.231  1.00  0.00     0.130 C 
ATOM     25  C   UNL A   1      36.278  23.829  25.625  1.00  0.00     0.130 C 
ENDBRANCH  21  23
ENDBRANCH  16  21
BRANCH  18  26
ATOM     26  N   UNL A   1      33.724  23.631  22.376  1.00  0.00     0.070 N 
ATOM     27  O   UNL A   1      33.419  23.267  21.228  1.00  0.00    -0.258 OA
ATOM     28  O   UNL A   1      34.480  24.575  22.645  1.00  0.00    -0.258 OA
ENDBRANCH  18  26
ENDBRANCH  13  15
ENDBRANCH   8  13
ENDBRANCH   4   7
ENDBRANCH   2   3
ENDBRANCH   1   2
BRANCH   1  29
ATOM     29  C   UNL A   1      31.525  31.895  26.935  1.00  0.00     0.023 C 
BRANCH  29  30
ATOM     30  C   UNL A   1      32.747  32.809  26.945  1.00  0.00     0.116 C 
BRANCH  30  31
ATOM     31  N   UNL A   1      32.508  34.073  27.627  1.00  0.00    -0.352 N 
ATOM     32  C   UNL A   1      33.164  34.595  28.719  1.00  0.00     0.251 C 
ATOM     33  H   UNL A   1      31.782  34.627  27.260  1.00  0.00     0.163 HD
ATOM     34  O   UNL A   1      32.767  35.627  29.240  1.00  0.00    -0.269 OA
BRANCH  32  35
ATOM     35  C   UNL A   1      34.328  33.871  29.274  1.00  0.00     0.039 A 
ATOM     36  C   UNL A   1      35.613  34.297  28.927  1.00  0.00     0.014 A 
ATOM     37  C   UNL A   1      34.152  32.801  30.156  1.00  0.00     0.014 A 
ATOM     38  C   UNL A   1      36.724  33.689  29.515  1.00  0.00     0.010 A 
ATOM     39  C   UNL A   1      35.257  32.240  30.787  1.00  0.00     0.010 A 
ATOM     40  C   UNL A   1      36.553  32.678  30.475  1.00  0.00    -0.014 A 
BRANCH  40  41
ATOM     41  C   UNL A   1      37.714  32.079  31.180  1.00  0.00     0.031 A 
ATOM     42  C   UNL A   1      38.481  30.949  30.551  1.00  0.00     0.074 A 
ATOM     43  C   UNL A   1      38.012  32.486  32.429  1.00  0.00     0.049 A 
ATOM     44  N   UNL A   1      39.481  30.261  31.039  1.00  0.00    -0.248 NA
ATOM     45  C   UNL A   1      38.051  30.513  29.212  1.00  0.00     0.031 C 
ATOM     46  C   UNL A   1      37.284  33.510  33.182  1.00  0.00     0.029 A 
ATOM     47  N   UNL A   1      38.986  32.065  33.301  1.00  0.00    -0.354 N 
ATOM     48  C   UNL A   1      39.773  29.289  30.090  1.00  0.00     0.074 A 
ATOM     49  C   UNL A   1      38.826  29.457  29.008  1.00  0.00     0.031 C 
ATOM     50  C   UNL A   1      37.834  33.636  34.400  1.00  0.00     0.029 A 
ATOM     51  C   UNL A   1      38.937  32.688  34.526  1.00  0.00     0.049 A 
ATOM     52  H   UNL A   1      39.655  31.381  33.071  1.00  0.00     0.167 HD
ATOM     53  C   UNL A   1      40.758  28.360  30.102  1.00  0.00     0.034 A 
ATOM     54  C   UNL A   1      39.694  32.514  35.628  1.00  0.00     0.034 A 
ATOM     55  C   UNL A   1      41.732  28.235  31.152  1.00  0.00     0.049 A 
ATOM     56  C   UNL A   1      40.823  31.521  35.588  1.00  0.00     0.074 A 
ATOM     57  C   UNL A   1      42.834  27.400  31.207  1.00  0.00     0.029 A 
ATOM     58  N   UNL A   1      41.719  28.959  32.334  1.00  0.00    -0.354 N 
ATOM     59  N   UNL A   1      41.197  30.736  34.607  1.00  0.00    -0.248 NA
ATOM     60  C   UNL A   1      41.660  31.415  36.792  1.00  0.00     0.031 C 
ATOM     61  C   UNL A   1      43.481  27.611  32.430  1.00  0.00     0.029 A 
ATOM     62  C   UNL A   1      42.790  28.588  33.129  1.00  0.00     0.049 A 
ATOM     63  H   UNL A   1      41.048  29.639  32.572  1.00  0.00     0.167 HD
ATOM     64  C   UNL A   1      42.331  30.071  35.060  1.00  0.00     0.074 A 
ATOM     65  C   UNL A   1      42.595  30.561  36.397  1.00  0.00     0.031 C 
ATOM     66  C   UNL A   1      43.075  29.128  34.433  1.00  0.00     0.034 A 
BRANCH  53  67
ATOM     67  C   UNL A   1      40.873  27.446  28.911  1.00  0.00     0.023 A 
ATOM     68  C   UNL A   1      39.994  26.350  28.792  1.00  0.00     0.012 A 
ATOM     69  C   UNL A   1      41.803  27.702  27.885  1.00  0.00     0.148 A 
ATOM     70  C   UNL A   1      40.058  25.505  27.685  1.00  0.00     0.002 A 
ATOM     71  C   UNL A   1      41.833  26.878  26.765  1.00  0.00     0.091 A 
ATOM     72  F   UNL A   1      42.647  28.734  28.027  1.00  0.00    -0.205 F 
ATOM     73  C   UNL A   1      40.969  25.775  26.668  1.00  0.00     0.022 A 
BRANCH  71  74
ATOM     74  S   UNL A   1      42.918  27.187  25.366  1.00  0.00     0.127 S 
ATOM     75  O   UNL A   1      42.877  25.900  24.673  1.00  0.00    -0.237 OA
ATOM     76  O   UNL A   1      42.226  28.274  24.673  1.00  0.00    -0.237 OA
ATOM     77  O   UNL A   1      44.207  27.553  25.933  1.00  0.00    -0.744 OA
ENDBRANCH  71  74
ENDBRANCH  53  67
BRANCH  54  78
ATOM     78  C   UNL A   1      39.456  33.356  36.834  1.00  0.00     0.023 A 
ATOM     79  C   UNL A   1      39.948  34.676  36.860  1.00  0.00     0.012 A 
ATOM     80  C   UNL A   1      38.725  32.876  37.936  1.00  0.00     0.148 A 
ATOM     81  C   UNL A   1      39.744  35.491  37.974  1.00  0.00     0.002 A 
ATOM     82  C   UNL A   1      38.478  33.710  39.021  1.00  0.00     0.091 A 
ATOM     83  F   UNL A   1      38.277  31.612  37.900  1.00  0.00    -0.205 F 
ATOM     84  C   UNL A   1      39.001  35.012  39.048  1.00  0.00     0.022 A 
BRANCH  82  85
ATOM     85  S   UNL A   1      37.419  33.219  40.387  1.00  0.00     0.127 S 
ATOM     86  O   UNL A   1      38.171  32.108  40.964  1.00  0.00    -0.237 OA
ATOM     87  O   UNL A   1      37.390  34.434  41.203  1.00  0.00    -0.237 OA
ATOM     88  O   UNL A   1      36.139  32.877  39.782  1.00  0.00    -0.744 OA
ENDBRANCH  82  85
ENDBRANCH  54  78
BRANCH  66  89
ATOM     89  C   UNL A   1      44.270  28.578  35.166  1.00  0.00     0.023 A 
ATOM     90  C   UNL A   1      45.550  29.105  34.908  1.00  0.00     0.012 A 
ATOM     91  C   UNL A   1      44.112  27.599  36.167  1.00  0.00     0.148 A 
ATOM     92  C   UNL A   1      46.660  28.645  35.616  1.00  0.00     0.002 A 
ATOM     93  C   UNL A   1      45.215  27.181  36.901  1.00  0.00     0.091 A 
ATOM     94  F   UNL A   1      42.888  27.096  36.384  1.00  0.00    -0.205 F 
ATOM     95  C   UNL A   1      46.492  27.694  36.620  1.00  0.00     0.022 A 
BRANCH  93  96
ATOM     96  S   UNL A   1      45.074  26.030  38.275  1.00  0.00     0.127 S 
ATOM     97  O   UNL A   1      44.144  26.731  39.157  1.00  0.00    -0.237 OA
ATOM     98  O   UNL A   1      44.521  24.839  37.628  1.00  0.00    -0.237 OA
ATOM     99  O   UNL A   1      46.425  25.859  38.792  1.00  0.00    -0.744 OA
ENDBRANCH  93  96
ENDBRANCH  66  89
ENDBRANCH  40  41
ENDBRANCH  32  35
ENDBRANCH  30  31
ENDBRANCH  29  30
ENDBRANCH   1  29
TORSDOF 19
ENDMDL
MODEL 3
REMARK VINA RESULT:     -11.2      1.667      2.145
REMARK SMILES CN(C)Nc1ncnc(Nc2ccc(C(=O)NCCCCNC(=O)c3ccc(-c4c5nc(c(-c6cccc(S(=O)(=O)[O-])c6F)c6ccc([nH]6)c(-c6cccc(S(=O)(=O)[O-])c6F)c6nc(c(-c7cccc(S(=O)(=O)[O-])c7F)c7ccc4[nH]7)C=C6)C=C5)cc3)cc2)c1[N+](=O)[O-]
REMARK SMILES IDX 19 1 18 2 17 3 15 4 16 5 14 7 11 8 12 9 89 10 13 11 88 12
REMARK SMILES IDX 10 13 9 15 5 16 6 17 90 18 7 19 8 20 4 21 2 23 1 24 3 25
REMARK SMILES IDX 91 26 92 27 93 28 20 29 21 30 22 31 23 32 24 34 25 35 26 36
REMARK SMILES IDX 87 37 27 38 86 39 28 40 29 41 30 42 80 43 31 44 85 45 79 46
REMARK SMILES IDX 81 47 32 48 84 49 78 50 77 51 33 53 65 54 45 55 64 56 46 57
REMARK SMILES IDX 49 58 63 59 82 60 47 61 48 62 62 64 83 65 50 66 34 67 35 68
REMARK SMILES IDX 43 69 36 70 38 71 44 72 37 73 39 74 40 75 41 76 42 77 66 78
REMARK SMILES IDX 67 79 75 80 68 81 70 82 76 83 69 84 71 85 72 86 73 87 74 88
REMARK SMILES IDX 51 89 52 90 60 91 53 92 55 93 61 94 54 95 56 96 57 97 58 98
REMARK SMILES IDX 59 99
REMARK H PARENT 17 6 10 14 4 22 22 33 81 52 49 63
REMARK Flexibility Score: inf
ROOT
ATOM      1  C   UNL A   1      31.913  28.508  26.155  1.00  0.00     0.023 C 
ENDROOT
BRANCH   1   2
ATOM      2  C   UNL A   1      31.983  28.465  24.628  1.00  0.00     0.116 C 
BRANCH   2   3
ATOM      3  N   UNL A   1      30.656  28.319  24.061  1.00  0.00    -0.352 N 
ATOM      4  C   UNL A   1      29.827  27.237  23.915  1.00  0.00     0.251 C 
ATOM      5  O   UNL A   1      28.721  27.423  23.405  1.00  0.00    -0.269 OA
ATOM      6  H   UNL A   1      30.277  29.159  23.715  1.00  0.00     0.163 HD
BRANCH   4   7
ATOM      7  C   UNL A   1      30.169  25.867  24.391  1.00  0.00     0.039 A 
ATOM      8  C   UNL A   1      30.894  23.377  25.512  1.00  0.00     0.040 A 
ATOM      9  C   UNL A   1      30.281  24.349  26.299  1.00  0.00     0.027 A 
ATOM     10  C   UNL A   1      31.031  23.615  24.138  1.00  0.00     0.027 A 
ATOM     11  C   UNL A   1      29.944  25.591  25.749  1.00  0.00     0.016 A 
ATOM     12  C   UNL A   1      30.656  24.843  23.579  1.00  0.00     0.016 A 
BRANCH   8  13
ATOM     13  N   UNL A   1      31.263  22.140  26.077  1.00  0.00    -0.334 N 
ATOM     14  H   UNL A   1      30.772  21.835  26.874  1.00  0.00     0.168 HD
BRANCH  13  15
ATOM     15  C   UNL A   1      32.287  21.308  25.578  1.00  0.00     0.215 A 
ATOM     16  C   UNL A   1      34.551  20.654  25.284  1.00  0.00     0.225 A 
ATOM     17  N   UNL A   1      34.161  19.588  24.552  1.00  0.00    -0.212 NA
ATOM     18  C   UNL A   1      33.635  21.587  25.729  1.00  0.00     0.354 A 
ATOM     19  C   UNL A   1      32.850  19.429  24.371  1.00  0.00     0.227 A 
ATOM     20  N   UNL A   1      31.902  20.215  24.880  1.00  0.00    -0.212 NA
BRANCH  16  21
ATOM     21  N   UNL A   1      35.909  20.593  25.616  1.00  0.00    -0.298 N 
ATOM     22  H   UNL A   1      36.143  20.285  26.521  1.00  0.00     0.184 HD
BRANCH  21  23
ATOM     23  N   UNL A   1      36.973  20.940  24.745  1.00  0.00    -0.228 NA
ATOM     24  C   UNL A   1      37.694  22.135  25.220  1.00  0.00     0.130 C 
ATOM     25  C   UNL A   1      37.921  19.809  24.754  1.00  0.00     0.130 C 
ENDBRANCH  21  23
ENDBRANCH  16  21
BRANCH  18  26
ATOM     26  N   UNL A   1      34.059  22.826  26.305  1.00  0.00     0.070 N 
ATOM     27  O   UNL A   1      34.554  23.666  25.534  1.00  0.00    -0.258 OA
ATOM     28  O   UNL A   1      34.005  22.939  27.538  1.00  0.00    -0.258 OA
ENDBRANCH  18  26
ENDBRANCH  13  15
ENDBRANCH   8  13
ENDBRANCH   4   7
ENDBRANCH   2   3
ENDBRANCH   1   2
BRANCH   1  29
ATOM     29  C   UNL A   1      33.200  28.060  26.857  1.00  0.00     0.023 C 
BRANCH  29  30
ATOM     30  C   UNL A   1      34.359  29.048  26.775  1.00  0.00     0.116 C 
BRANCH  30  31
ATOM     31  N   UNL A   1      33.994  30.393  27.198  1.00  0.00    -0.352 N 
ATOM     32  C   UNL A   1      34.641  31.214  28.093  1.00  0.00     0.251 C 
ATOM     33  H   UNL A   1      33.179  30.763  26.790  1.00  0.00     0.163 HD
ATOM     34  O   UNL A   1      34.140  32.280  28.422  1.00  0.00    -0.269 OA
BRANCH  32  35
ATOM     35  C   UNL A   1      35.924  30.773  28.680  1.00  0.00     0.039 A 
ATOM     36  C   UNL A   1      35.917  29.721  29.600  1.00  0.00     0.014 A 
ATOM     37  C   UNL A   1      37.128  31.373  28.301  1.00  0.00     0.014 A 
ATOM     38  C   UNL A   1      37.127  29.227  30.093  1.00  0.00     0.010 A 
ATOM     39  C   UNL A   1      38.334  30.838  28.744  1.00  0.00     0.010 A 
ATOM     40  C   UNL A   1      38.346  29.761  29.643  1.00  0.00    -0.014 A 
BRANCH  40  41
ATOM     41  C   UNL A   1      39.645  29.194  30.083  1.00  0.00     0.031 A 
ATOM     42  C   UNL A   1      40.418  29.845  31.196  1.00  0.00     0.074 A 
ATOM     43  C   UNL A   1      40.175  28.153  29.411  1.00  0.00     0.049 A 
ATOM     44  N   UNL A   1      41.594  29.531  31.675  1.00  0.00    -0.248 NA
ATOM     45  C   UNL A   1      39.806  31.021  31.835  1.00  0.00     0.031 C 
ATOM     46  C   UNL A   1      39.564  27.492  28.255  1.00  0.00     0.029 A 
ATOM     47  N   UNL A   1      41.364  27.487  29.582  1.00  0.00    -0.354 N 
ATOM     48  C   UNL A   1      41.880  30.490  32.639  1.00  0.00     0.074 A 
ATOM     49  C   UNL A   1      40.767  31.414  32.659  1.00  0.00     0.031 C 
ATOM     50  C   UNL A   1      40.382  26.520  27.820  1.00  0.00     0.029 A 
ATOM     51  C   UNL A   1      41.583  26.501  28.649  1.00  0.00     0.049 A 
ATOM     52  H   UNL A   1      41.999  27.697  30.303  1.00  0.00     0.167 HD
ATOM     53  C   UNL A   1      42.957  30.577  33.456  1.00  0.00     0.034 A 
ATOM     54  C   UNL A   1      42.635  25.675  28.477  1.00  0.00     0.034 A 
ATOM     55  C   UNL A   1      44.032  29.624  33.472  1.00  0.00     0.049 A 
ATOM     56  C   UNL A   1      43.788  25.752  29.441  1.00  0.00     0.074 A 
ATOM     57  C   UNL A   1      45.113  29.562  34.335  1.00  0.00     0.029 A 
ATOM     58  N   UNL A   1      44.169  28.570  32.583  1.00  0.00    -0.354 N 
ATOM     59  N   UNL A   1      43.953  26.553  30.466  1.00  0.00    -0.248 NA
ATOM     60  C   UNL A   1      44.880  24.788  29.251  1.00  0.00     0.031 C 
ATOM     61  C   UNL A   1      45.911  28.476  33.958  1.00  0.00     0.029 A 
ATOM     62  C   UNL A   1      45.318  27.853  32.870  1.00  0.00     0.049 A 
ATOM     63  H   UNL A   1      43.540  28.360  31.855  1.00  0.00     0.167 HD
ATOM     64  C   UNL A   1      45.148  26.167  31.063  1.00  0.00     0.074 A 
ATOM     65  C   UNL A   1      45.653  25.046  30.298  1.00  0.00     0.031 C 
ATOM     66  C   UNL A   1      45.778  26.703  32.137  1.00  0.00     0.034 A 
BRANCH  53  67
ATOM     67  C   UNL A   1      42.993  31.710  34.448  1.00  0.00     0.023 A 
ATOM     68  C   UNL A   1      43.608  32.926  34.087  1.00  0.00     0.012 A 
ATOM     69  C   UNL A   1      42.370  31.595  35.706  1.00  0.00     0.148 A 
ATOM     70  C   UNL A   1      43.630  34.001  34.975  1.00  0.00     0.002 A 
ATOM     71  C   UNL A   1      42.361  32.686  36.569  1.00  0.00     0.091 A 
ATOM     72  F   UNL A   1      41.812  30.423  36.040  1.00  0.00    -0.205 F 
ATOM     73  C   UNL A   1      42.998  33.884  36.209  1.00  0.00     0.022 A 
BRANCH  71  74
ATOM     74  S   UNL A   1      41.508  32.660  38.150  1.00  0.00     0.127 S 
ATOM     75  O   UNL A   1      42.250  31.624  38.868  1.00  0.00    -0.237 OA
ATOM     76  O   UNL A   1      41.730  34.020  38.643  1.00  0.00    -0.237 OA
ATOM     77  O   UNL A   1      40.120  32.343  37.851  1.00  0.00    -0.744 OA
ENDBRANCH  71  74
ENDBRANCH  53  67
BRANCH  54  78
ATOM     78  C   UNL A   1      42.609  24.653  27.394  1.00  0.00     0.023 A 
ATOM     79  C   UNL A   1      43.183  24.960  26.144  1.00  0.00     0.012 A 
ATOM     80  C   UNL A   1      42.054  23.376  27.597  1.00  0.00     0.148 A 
ATOM     81  C   UNL A   1      43.175  24.026  25.108  1.00  0.00     0.002 A 
ATOM     82  C   UNL A   1      42.096  22.431  26.578  1.00  0.00     0.091 A 
ATOM     83  F   UNL A   1      41.499  23.106  28.788  1.00  0.00    -0.205 F 
ATOM     84  C   UNL A   1      42.642  22.759  25.328  1.00  0.00     0.022 A 
BRANCH  82  85
ATOM     85  S   UNL A   1      41.554  20.735  26.820  1.00  0.00     0.127 S 
ATOM     86  O   UNL A   1      42.375  20.318  27.953  1.00  0.00    -0.237 OA
ATOM     87  O   UNL A   1      40.132  20.910  27.120  1.00  0.00    -0.237 OA
ATOM     88  O   UNL A   1      41.818  20.059  25.557  1.00  0.00    -0.744 OA
ENDBRANCH  82  85
ENDBRANCH  54  78
BRANCH  66  89
ATOM     89  C   UNL A   1      47.072  26.070  32.576  1.00  0.00     0.023 A 
ATOM     90  C   UNL A   1      47.066  25.122  33.618  1.00  0.00     0.012 A 
ATOM     91  C   UNL A   1      48.277  26.353  31.904  1.00  0.00     0.148 A 
ATOM     92  C   UNL A   1      48.246  24.486  34.002  1.00  0.00     0.002 A 
ATOM     93  C   UNL A   1      49.439  25.681  32.261  1.00  0.00     0.091 A 
ATOM     94  F   UNL A   1      48.264  27.273  30.928  1.00  0.00    -0.205 F 
ATOM     95  C   UNL A   1      49.429  24.755  33.317  1.00  0.00     0.022 A 
BRANCH  93  96
ATOM     96  S   UNL A   1      50.985  25.897  31.369  1.00  0.00     0.127 S 
ATOM     97  O   UNL A   1      50.635  25.400  30.041  1.00  0.00    -0.237 OA
ATOM     98  O   UNL A   1      51.189  27.344  31.445  1.00  0.00    -0.237 OA
ATOM     99  O   UNL A   1      51.976  25.113  32.094  1.00  0.00    -0.744 OA
ENDBRANCH  93  96
ENDBRANCH  66  89
ENDBRANCH  40  41
ENDBRANCH  32  35
ENDBRANCH  30  31
ENDBRANCH  29  30
ENDBRANCH   1  29
TORSDOF 19
ENDMDL
