MODEL 1
REMARK VINA RESULT:     -13.4      0.000      0.000
REMARK SMILES Cc1cccc(-n2c(C)cc(/C=N\c3ccc(O)c(C(=O)NCCCCNC(=O)c4ccc(-c5c6nc(c(-c7cccc(S(=O)(=O)[O-])c7F)c7ccc([nH]7)c(-c7cccc(S(=O)(=O)[O-])c7F)c7nc(c(-c8cccc(S(=O)(=O)[O-])c8F)c8ccc5[nH]8)C=C7)C=C6)cc4)c3)c2C)c1
REMARK SMILES IDX 24 1 23 2 22 3 20 4 21 5 19 7 14 8 15 9 93 10 16 11 17 12
REMARK SMILES IDX 13 13 12 14 11 15 7 16 8 17 94 18 9 19 10 20 95 21 6 22 1 23
REMARK SMILES IDX 2 24 3 25 96 26 4 27 5 28 18 29 25 31 26 32 27 33 28 34
REMARK SMILES IDX 29 36 30 37 31 38 92 39 32 40 91 41 33 42 34 43 35 44 85 45
REMARK SMILES IDX 36 46 90 47 84 48 86 49 37 50 89 51 83 52 82 53 38 55 70 56
REMARK SMILES IDX 50 57 69 58 51 59 54 60 68 61 87 62 52 63 53 64 67 66 88 67
REMARK SMILES IDX 55 68 39 69 40 70 48 71 41 72 43 73 49 74 42 75 44 76 45 77
REMARK SMILES IDX 46 78 47 79 71 80 72 81 80 82 73 83 75 84 81 85 74 86 76 87
REMARK SMILES IDX 77 88 78 89 79 90 56 91 57 92 65 93 58 94 60 95 66 96 59 97
REMARK SMILES IDX 61 98 62 99 63 100 64 101
REMARK H PARENT 22 6 18 30 27 35 86 54 54 65
REMARK Flexibility Score: inf
ROOT
ATOM      1  C   UNL A   1      32.665  29.565  25.275  1.00  0.00     0.023 C 
ENDROOT
BRANCH   1   2
ATOM      2  C   UNL A   1      33.808  28.569  25.446  1.00  0.00     0.116 C 
BRANCH   2   3
ATOM      3  N   UNL A   1      34.062  27.676  24.325  1.00  0.00    -0.352 N 
ATOM      4  C   UNL A   1      33.210  26.892  23.576  1.00  0.00     0.255 C 
ATOM      5  O   UNL A   1      33.693  26.243  22.649  1.00  0.00    -0.269 OA
ATOM      6  H   UNL A   1      35.006  27.625  24.054  1.00  0.00     0.163 HD
BRANCH   4   7
ATOM      7  C   UNL A   1      31.752  26.762  23.864  1.00  0.00     0.083 A 
ATOM      8  C   UNL A   1      30.032  25.935  25.385  1.00  0.00     0.064 A 
ATOM      9  C   UNL A   1      29.051  26.565  24.624  1.00  0.00     0.032 A 
ATOM     10  C   UNL A   1      31.382  26.152  25.075  1.00  0.00     0.046 A 
ATOM     11  C   UNL A   1      29.393  27.128  23.402  1.00  0.00     0.049 A 
ATOM     12  C   UNL A   1      30.721  27.090  22.980  1.00  0.00     0.128 A 
BRANCH   8  13
ATOM     13  N   UNL A   1      29.704  25.055  26.419  1.00  0.00    -0.256 NA
ATOM     14  C   UNL A   1      30.281  23.894  26.566  1.00  0.00     0.121 C 
BRANCH  14  15
ATOM     15  C   UNL A   1      31.316  23.213  25.778  1.00  0.00     0.014 A 
ATOM     16  N   UNL A   1      33.230  22.364  24.904  1.00  0.00    -0.318 N 
ATOM     17  C   UNL A   1      32.211  22.065  24.013  1.00  0.00     0.021 A 
ATOM     18  C   UNL A   1      32.647  22.899  26.060  1.00  0.00     0.029 A 
ATOM     19  C   UNL A   1      32.401  21.225  22.797  1.00  0.00     0.065 C 
ATOM     20  C   UNL A   1      31.046  22.608  24.514  1.00  0.00     0.033 A 
ATOM     21  C   UNL A   1      33.444  23.120  27.299  1.00  0.00     0.065 C 
BRANCH  16  22
ATOM     22  C   UNL A   1      34.629  22.228  24.647  1.00  0.00     0.046 A 
ATOM     23  C   UNL A   1      37.321  19.542  24.982  1.00  0.00     0.044 C 
ATOM     24  C   UNL A   1      36.612  20.819  24.639  1.00  0.00    -0.049 A 
ATOM     25  C   UNL A   1      37.275  21.782  23.866  1.00  0.00     0.003 A 
ATOM     26  C   UNL A   1      35.285  21.049  25.033  1.00  0.00     0.030 A 
ATOM     27  C   UNL A   1      36.639  22.974  23.525  1.00  0.00     0.002 A 
ATOM     28  C   UNL A   1      35.324  23.203  23.927  1.00  0.00     0.026 A 
ENDBRANCH  16  22
ENDBRANCH  14  15
ENDBRANCH   8  13
BRANCH  12  29
ATOM     29  O   UNL A   1      30.894  27.223  21.628  1.00  0.00    -0.507 OA
ATOM     30  H   UNL A   1      31.643  26.846  21.212  1.00  0.00     0.293 HD
ENDBRANCH  12  29
ENDBRANCH   4   7
ENDBRANCH   2   3
ENDBRANCH   1   2
BRANCH   1  31
ATOM     31  C   UNL A   1      32.286  30.417  26.477  1.00  0.00     0.023 C 
BRANCH  31  32
ATOM     32  C   UNL A   1      33.286  30.403  27.618  1.00  0.00     0.116 C 
BRANCH  32  33
ATOM     33  N   UNL A   1      34.024  31.631  27.812  1.00  0.00    -0.352 N 
ATOM     34  C   UNL A   1      35.300  31.832  28.305  1.00  0.00     0.251 C 
ATOM     35  H   UNL A   1      33.543  32.451  27.554  1.00  0.00     0.163 HD
ATOM     36  O   UNL A   1      35.616  33.000  28.549  1.00  0.00    -0.269 OA
BRANCH  34  37
ATOM     37  C   UNL A   1      36.301  30.729  28.464  1.00  0.00     0.039 A 
ATOM     38  C   UNL A   1      36.527  30.198  29.749  1.00  0.00     0.014 A 
ATOM     39  C   UNL A   1      37.107  30.281  27.421  1.00  0.00     0.014 A 
ATOM     40  C   UNL A   1      37.639  29.384  30.007  1.00  0.00     0.010 A 
ATOM     41  C   UNL A   1      38.229  29.527  27.673  1.00  0.00     0.010 A 
ATOM     42  C   UNL A   1      38.529  29.127  28.972  1.00  0.00    -0.014 A 
BRANCH  42  43
ATOM     43  C   UNL A   1      39.885  28.617  29.105  1.00  0.00     0.031 A 
ATOM     44  C   UNL A   1      40.229  27.212  28.833  1.00  0.00     0.074 A 
ATOM     45  C   UNL A   1      40.854  29.559  29.072  1.00  0.00     0.049 A 
ATOM     46  N   UNL A   1      41.358  26.677  29.157  1.00  0.00    -0.248 NA
ATOM     47  C   UNL A   1      39.329  26.308  28.131  1.00  0.00     0.031 C 
ATOM     48  C   UNL A   1      42.240  29.407  28.653  1.00  0.00     0.029 A 
ATOM     49  N   UNL A   1      40.791  30.858  29.578  1.00  0.00    -0.354 N 
ATOM     50  C   UNL A   1      41.458  25.496  28.454  1.00  0.00     0.074 A 
ATOM     51  C   UNL A   1      40.140  25.271  27.900  1.00  0.00     0.031 C 
ATOM     52  C   UNL A   1      42.952  30.420  29.167  1.00  0.00     0.029 A 
ATOM     53  C   UNL A   1      42.071  31.142  30.070  1.00  0.00     0.049 A 
ATOM     54  H   UNL A   1      40.006  31.454  29.589  1.00  0.00     0.167 HD
ATOM     55  C   UNL A   1      42.682  24.927  28.252  1.00  0.00     0.034 A 
ATOM     56  C   UNL A   1      42.312  31.397  31.389  1.00  0.00     0.034 A 
ATOM     57  C   UNL A   1      43.758  25.745  28.831  1.00  0.00     0.049 A 
ATOM     58  C   UNL A   1      43.278  30.405  32.012  1.00  0.00     0.074 A 
ATOM     59  C   UNL A   1      44.658  26.645  28.279  1.00  0.00     0.029 A 
ATOM     60  N   UNL A   1      43.837  25.917  30.207  1.00  0.00    -0.354 N 
ATOM     61  N   UNL A   1      43.761  29.361  31.397  1.00  0.00    -0.248 NA
ATOM     62  C   UNL A   1      43.768  30.500  33.384  1.00  0.00     0.031 C 
ATOM     63  C   UNL A   1      45.233  27.404  29.332  1.00  0.00     0.029 A 
ATOM     64  C   UNL A   1      44.698  26.957  30.527  1.00  0.00     0.049 A 
ATOM     65  H   UNL A   1      43.348  25.373  30.867  1.00  0.00     0.167 HD
ATOM     66  C   UNL A   1      44.482  28.584  32.268  1.00  0.00     0.074 A 
ATOM     67  C   UNL A   1      44.530  29.393  33.475  1.00  0.00     0.031 C 
ATOM     68  C   UNL A   1      44.915  27.329  31.924  1.00  0.00     0.034 A 
BRANCH  55  69
ATOM     69  C   UNL A   1      42.929  23.833  27.228  1.00  0.00     0.023 A 
ATOM     70  C   UNL A   1      43.498  24.197  25.986  1.00  0.00     0.012 A 
ATOM     71  C   UNL A   1      42.591  22.470  27.379  1.00  0.00     0.148 A 
ATOM     72  C   UNL A   1      43.605  23.302  24.916  1.00  0.00     0.002 A 
ATOM     73  C   UNL A   1      42.619  21.595  26.287  1.00  0.00     0.091 A 
ATOM     74  F   UNL A   1      42.308  21.990  28.598  1.00  0.00    -0.205 F 
ATOM     75  C   UNL A   1      43.121  22.010  25.051  1.00  0.00     0.022 A 
BRANCH  73  76
ATOM     76  S   UNL A   1      41.888  19.950  26.366  1.00  0.00     0.127 S 
ATOM     77  O   UNL A   1      42.392  19.322  25.142  1.00  0.00    -0.237 OA
ATOM     78  O   UNL A   1      42.449  19.410  27.600  1.00  0.00    -0.237 OA
ATOM     79  O   UNL A   1      40.445  20.167  26.360  1.00  0.00    -0.744 OA
ENDBRANCH  73  76
ENDBRANCH  55  69
BRANCH  56  80
ATOM     80  C   UNL A   1      41.176  32.090  32.071  1.00  0.00     0.023 A 
ATOM     81  C   UNL A   1      40.869  33.393  31.604  1.00  0.00     0.012 A 
ATOM     82  C   UNL A   1      40.200  31.389  32.802  1.00  0.00     0.148 A 
ATOM     83  C   UNL A   1      39.588  33.929  31.747  1.00  0.00     0.002 A 
ATOM     84  C   UNL A   1      38.923  31.936  32.946  1.00  0.00     0.091 A 
ATOM     85  F   UNL A   1      40.501  30.169  33.266  1.00  0.00    -0.205 F 
ATOM     86  C   UNL A   1      38.606  33.186  32.389  1.00  0.00     0.022 A 
BRANCH  84  87
ATOM     87  S   UNL A   1      37.584  31.017  33.726  1.00  0.00     0.127 S 
ATOM     88  O   UNL A   1      37.604  31.567  35.078  1.00  0.00    -0.237 OA
ATOM     89  O   UNL A   1      36.425  31.400  32.922  1.00  0.00    -0.237 OA
ATOM     90  O   UNL A   1      37.967  29.620  33.589  1.00  0.00    -0.744 OA
ENDBRANCH  84  87
ENDBRANCH  56  80
BRANCH  68  91
ATOM     91  C   UNL A   1      45.562  26.303  32.847  1.00  0.00     0.023 A 
ATOM     92  C   UNL A   1      46.955  26.188  33.007  1.00  0.00     0.012 A 
ATOM     93  C   UNL A   1      44.765  25.492  33.704  1.00  0.00     0.148 A 
ATOM     94  C   UNL A   1      47.530  25.304  33.930  1.00  0.00     0.002 A 
ATOM     95  C   UNL A   1      45.338  24.701  34.698  1.00  0.00     0.091 A 
ATOM     96  F   UNL A   1      43.433  25.454  33.550  1.00  0.00    -0.205 F 
ATOM     97  C   UNL A   1      46.723  24.582  34.797  1.00  0.00     0.022 A 
BRANCH  95  98
ATOM     98  S   UNL A   1      44.316  23.951  35.975  1.00  0.00     0.127 S 
ATOM     99  O   UNL A   1      43.473  23.044  35.200  1.00  0.00    -0.237 OA
ATOM    100  O   UNL A   1      45.305  23.284  36.825  1.00  0.00    -0.237 OA
ATOM    101  O   UNL A   1      43.644  25.074  36.616  1.00  0.00    -0.744 OA
ENDBRANCH  95  98
ENDBRANCH  68  91
ENDBRANCH  42  43
ENDBRANCH  34  37
ENDBRANCH  32  33
ENDBRANCH  31  32
ENDBRANCH   1  31
TORSDOF 18
ENDMDL
MODEL 2
REMARK VINA RESULT:     -13.2      3.842      9.445
REMARK SMILES Cc1cccc(-n2c(C)cc(/C=N\c3ccc(O)c(C(=O)NCCCCNC(=O)c4ccc(-c5c6nc(c(-c7cccc(S(=O)(=O)[O-])c7F)c7ccc([nH]7)c(-c7cccc(S(=O)(=O)[O-])c7F)c7nc(c(-c8cccc(S(=O)(=O)[O-])c8F)c8ccc5[nH]8)C=C7)C=C6)cc4)c3)c2C)c1
REMARK SMILES IDX 24 1 23 2 22 3 20 4 21 5 19 7 14 8 15 9 93 10 16 11 17 12
REMARK SMILES IDX 13 13 12 14 11 15 7 16 8 17 94 18 9 19 10 20 95 21 6 22 1 23
REMARK SMILES IDX 2 24 3 25 96 26 4 27 5 28 18 29 25 31 26 32 27 33 28 34
REMARK SMILES IDX 29 36 30 37 31 38 92 39 32 40 91 41 33 42 34 43 35 44 85 45
REMARK SMILES IDX 36 46 90 47 84 48 86 49 37 50 89 51 83 52 82 53 38 55 70 56
REMARK SMILES IDX 50 57 69 58 51 59 54 60 68 61 87 62 52 63 53 64 67 66 88 67
REMARK SMILES IDX 55 68 39 69 40 70 48 71 41 72 43 73 49 74 42 75 44 76 45 77
REMARK SMILES IDX 46 78 47 79 71 80 72 81 80 82 73 83 75 84 81 85 74 86 76 87
REMARK SMILES IDX 77 88 78 89 79 90 56 91 57 92 65 93 58 94 60 95 66 96 59 97
REMARK SMILES IDX 61 98 62 99 63 100 64 101
REMARK H PARENT 22 6 18 30 27 35 86 54 54 65
REMARK Flexibility Score: inf
ROOT
ATOM      1  C   UNL A   1      38.558  20.571  25.536  1.00  0.00     0.023 C 
ENDROOT
BRANCH   1   2
ATOM      2  C   UNL A   1      37.214  20.648  24.820  1.00  0.00     0.116 C 
BRANCH   2   3
ATOM      3  N   UNL A   1      37.058  21.722  23.850  1.00  0.00    -0.352 N 
ATOM      4  C   UNL A   1      36.069  22.670  23.695  1.00  0.00     0.255 C 
ATOM      5  O   UNL A   1      36.201  23.495  22.791  1.00  0.00    -0.269 OA
ATOM      6  H   UNL A   1      37.787  21.783  23.192  1.00  0.00     0.163 HD
BRANCH   4   7
ATOM      7  C   UNL A   1      34.837  22.713  24.535  1.00  0.00     0.083 A 
ATOM      8  C   UNL A   1      32.409  22.955  24.595  1.00  0.00     0.064 A 
ATOM      9  C   UNL A   1      32.411  22.668  25.957  1.00  0.00     0.032 A 
ATOM     10  C   UNL A   1      33.605  22.842  23.871  1.00  0.00     0.046 A 
ATOM     11  C   UNL A   1      33.620  22.588  26.635  1.00  0.00     0.049 A 
ATOM     12  C   UNL A   1      34.811  22.753  25.930  1.00  0.00     0.128 A 
BRANCH   8  13
ATOM     13  N   UNL A   1      31.257  23.399  23.942  1.00  0.00    -0.256 NA
ATOM     14  C   UNL A   1      31.059  24.652  23.636  1.00  0.00     0.121 C 
BRANCH  14  15
ATOM     15  C   UNL A   1      31.870  25.853  23.872  1.00  0.00     0.014 A 
ATOM     16  N   UNL A   1      32.913  27.691  24.698  1.00  0.00    -0.318 N 
ATOM     17  C   UNL A   1      33.224  27.622  23.350  1.00  0.00     0.021 A 
ATOM     18  C   UNL A   1      32.242  26.512  25.047  1.00  0.00     0.029 A 
ATOM     19  C   UNL A   1      34.179  28.547  22.676  1.00  0.00     0.065 C 
ATOM     20  C   UNL A   1      32.567  26.528  22.825  1.00  0.00     0.033 A 
ATOM     21  C   UNL A   1      31.963  26.169  26.469  1.00  0.00     0.065 C 
BRANCH  16  22
ATOM     22  C   UNL A   1      33.159  28.808  25.555  1.00  0.00     0.046 A 
ATOM     23  C   UNL A   1      31.320  31.948  26.710  1.00  0.00     0.044 C 
ATOM     24  C   UNL A   1      32.346  30.862  26.575  1.00  0.00    -0.049 A 
ATOM     25  C   UNL A   1      33.436  30.837  27.456  1.00  0.00     0.003 A 
ATOM     26  C   UNL A   1      32.214  29.844  25.618  1.00  0.00     0.030 A 
ATOM     27  C   UNL A   1      34.400  29.836  27.360  1.00  0.00     0.002 A 
ATOM     28  C   UNL A   1      34.270  28.832  26.402  1.00  0.00     0.026 A 
ENDBRANCH  16  22
ENDBRANCH  14  15
ENDBRANCH   8  13
BRANCH  12  29
ATOM     29  O   UNL A   1      35.882  23.124  26.699  1.00  0.00    -0.507 OA
ATOM     30  H   UNL A   1      36.435  22.470  27.078  1.00  0.00     0.293 HD
ENDBRANCH  12  29
ENDBRANCH   4   7
ENDBRANCH   2   3
ENDBRANCH   1   2
BRANCH   1  31
ATOM     31  C   UNL A   1      39.106  21.853  26.147  1.00  0.00     0.023 C 
BRANCH  31  32
ATOM     32  C   UNL A   1      40.386  21.691  26.945  1.00  0.00     0.116 C 
BRANCH  32  33
ATOM     33  N   UNL A   1      41.594  22.119  26.276  1.00  0.00    -0.352 N 
ATOM     34  C   UNL A   1      42.034  23.393  25.965  1.00  0.00     0.251 C 
ATOM     35  H   UNL A   1      42.197  21.391  25.998  1.00  0.00     0.163 HD
ATOM     36  O   UNL A   1      43.012  23.468  25.216  1.00  0.00    -0.269 OA
BRANCH  34  37
ATOM     37  C   UNL A   1      41.438  24.633  26.556  1.00  0.00     0.039 A 
ATOM     38  C   UNL A   1      41.437  25.816  25.790  1.00  0.00     0.014 A 
ATOM     39  C   UNL A   1      40.989  24.707  27.871  1.00  0.00     0.014 A 
ATOM     40  C   UNL A   1      41.166  27.058  26.383  1.00  0.00     0.010 A 
ATOM     41  C   UNL A   1      40.772  25.924  28.475  1.00  0.00     0.010 A 
ATOM     42  C   UNL A   1      40.917  27.103  27.749  1.00  0.00    -0.014 A 
BRANCH  42  43
ATOM     43  C   UNL A   1      40.960  28.283  28.597  1.00  0.00     0.031 A 
ATOM     44  C   UNL A   1      39.936  29.340  28.530  1.00  0.00     0.074 A 
ATOM     45  C   UNL A   1      41.717  28.159  29.709  1.00  0.00     0.049 A 
ATOM     46  N   UNL A   1      40.063  30.493  29.093  1.00  0.00    -0.248 NA
ATOM     47  C   UNL A   1      38.664  29.154  27.848  1.00  0.00     0.031 C 
ATOM     48  C   UNL A   1      41.577  28.865  30.975  1.00  0.00     0.029 A 
ATOM     49  N   UNL A   1      42.905  27.439  29.850  1.00  0.00    -0.354 N 
ATOM     50  C   UNL A   1      38.810  31.066  29.119  1.00  0.00     0.074 A 
ATOM     51  C   UNL A   1      37.994  30.235  28.260  1.00  0.00     0.031 C 
ATOM     52  C   UNL A   1      42.741  28.787  31.636  1.00  0.00     0.029 A 
ATOM     53  C   UNL A   1      43.703  28.181  30.730  1.00  0.00     0.049 A 
ATOM     54  H   UNL A   1      43.136  26.584  29.418  1.00  0.00     0.167 HD
ATOM     55  C   UNL A   1      38.538  32.067  30.007  1.00  0.00     0.034 A 
ATOM     56  C   UNL A   1      44.901  28.718  30.360  1.00  0.00     0.034 A 
ATOM     57  C   UNL A   1      39.698  32.358  30.861  1.00  0.00     0.049 A 
ATOM     58  C   UNL A   1      44.933  30.230  30.490  1.00  0.00     0.074 A 
ATOM     59  C   UNL A   1      40.026  31.996  32.159  1.00  0.00     0.029 A 
ATOM     60  N   UNL A   1      40.856  32.888  30.304  1.00  0.00    -0.354 N 
ATOM     61  N   UNL A   1      43.907  30.962  30.826  1.00  0.00    -0.248 NA
ATOM     62  C   UNL A   1      46.119  31.044  30.239  1.00  0.00     0.031 C 
ATOM     63  C   UNL A   1      41.408  32.255  32.359  1.00  0.00     0.029 A 
ATOM     64  C   UNL A   1      41.920  32.789  31.190  1.00  0.00     0.049 A 
ATOM     65  H   UNL A   1      40.914  33.281  29.403  1.00  0.00     0.167 HD
ATOM     66  C   UNL A   1      44.211  32.295  30.711  1.00  0.00     0.074 A 
ATOM     67  C   UNL A   1      45.638  32.287  30.430  1.00  0.00     0.031 C 
ATOM     68  C   UNL A   1      43.246  33.266  30.802  1.00  0.00     0.034 A 
BRANCH  55  69
ATOM     69  C   UNL A   1      37.127  32.520  30.338  1.00  0.00     0.023 A 
ATOM     70  C   UNL A   1      36.455  31.886  31.407  1.00  0.00     0.012 A 
ATOM     71  C   UNL A   1      36.388  33.498  29.634  1.00  0.00     0.148 A 
ATOM     72  C   UNL A   1      35.100  32.105  31.681  1.00  0.00     0.002 A 
ATOM     73  C   UNL A   1      35.015  33.659  29.852  1.00  0.00     0.091 A 
ATOM     74  F   UNL A   1      37.023  34.332  28.800  1.00  0.00    -0.205 F 
ATOM     75  C   UNL A   1      34.366  32.958  30.872  1.00  0.00     0.022 A 
BRANCH  73  76
ATOM     76  S   UNL A   1      33.986  34.652  28.756  1.00  0.00     0.127 S 
ATOM     77  O   UNL A   1      34.337  34.126  27.433  1.00  0.00    -0.237 OA
ATOM     78  O   UNL A   1      32.636  34.323  29.200  1.00  0.00    -0.237 OA
ATOM     79  O   UNL A   1      34.413  36.031  28.968  1.00  0.00    -0.744 OA
ENDBRANCH  73  76
ENDBRANCH  55  69
BRANCH  56  80
ATOM     80  C   UNL A   1      45.629  27.891  29.349  1.00  0.00     0.023 A 
ATOM     81  C   UNL A   1      46.080  26.621  29.788  1.00  0.00     0.012 A 
ATOM     82  C   UNL A   1      45.514  28.124  27.966  1.00  0.00     0.148 A 
ATOM     83  C   UNL A   1      46.282  25.574  28.887  1.00  0.00     0.002 A 
ATOM     84  C   UNL A   1      45.725  27.072  27.071  1.00  0.00     0.091 A 
ATOM     85  F   UNL A   1      45.115  29.333  27.551  1.00  0.00    -0.205 F 
ATOM     86  C   UNL A   1      46.072  25.791  27.531  1.00  0.00     0.022 A 
BRANCH  84  87
ATOM     87  S   UNL A   1      45.431  27.262  25.304  1.00  0.00     0.127 S 
ATOM     88  O   UNL A   1      45.441  25.873  24.857  1.00  0.00    -0.237 OA
ATOM     89  O   UNL A   1      44.122  27.913  25.267  1.00  0.00    -0.237 OA
ATOM     90  O   UNL A   1      46.525  28.101  24.836  1.00  0.00    -0.744 OA
ENDBRANCH  84  87
ENDBRANCH  56  80
BRANCH  68  91
ATOM     91  C   UNL A   1      43.419  34.753  30.517  1.00  0.00     0.023 A 
ATOM     92  C   UNL A   1      43.718  35.694  31.519  1.00  0.00     0.012 A 
ATOM     93  C   UNL A   1      43.417  35.242  29.180  1.00  0.00     0.148 A 
ATOM     94  C   UNL A   1      43.968  37.041  31.226  1.00  0.00     0.002 A 
ATOM     95  C   UNL A   1      43.777  36.555  28.885  1.00  0.00     0.091 A 
ATOM     96  F   UNL A   1      43.036  34.444  28.171  1.00  0.00    -0.205 F 
ATOM     97  C   UNL A   1      44.027  37.468  29.908  1.00  0.00     0.022 A 
BRANCH  95  98
ATOM     98  S   UNL A   1      44.091  37.059  27.186  1.00  0.00     0.127 S 
ATOM     99  O   UNL A   1      42.742  37.116  26.628  1.00  0.00    -0.237 OA
ATOM    100  O   UNL A   1      44.735  38.363  27.353  1.00  0.00    -0.237 OA
ATOM    101  O   UNL A   1      44.971  36.027  26.652  1.00  0.00    -0.744 OA
ENDBRANCH  95  98
ENDBRANCH  68  91
ENDBRANCH  42  43
ENDBRANCH  34  37
ENDBRANCH  32  33
ENDBRANCH  31  32
ENDBRANCH   1  31
TORSDOF 18
ENDMDL
MODEL 3
REMARK VINA RESULT:     -12.9      3.424      4.653
REMARK SMILES Cc1cccc(-n2c(C)cc(/C=N\c3ccc(O)c(C(=O)NCCCCNC(=O)c4ccc(-c5c6nc(c(-c7cccc(S(=O)(=O)[O-])c7F)c7ccc([nH]7)c(-c7cccc(S(=O)(=O)[O-])c7F)c7nc(c(-c8cccc(S(=O)(=O)[O-])c8F)c8ccc5[nH]8)C=C7)C=C6)cc4)c3)c2C)c1
REMARK SMILES IDX 24 1 23 2 22 3 20 4 21 5 19 7 14 8 15 9 93 10 16 11 17 12
REMARK SMILES IDX 13 13 12 14 11 15 7 16 8 17 94 18 9 19 10 20 95 21 6 22 1 23
REMARK SMILES IDX 2 24 3 25 96 26 4 27 5 28 18 29 25 31 26 32 27 33 28 34
REMARK SMILES IDX 29 36 30 37 31 38 92 39 32 40 91 41 33 42 34 43 35 44 85 45
REMARK SMILES IDX 36 46 90 47 84 48 86 49 37 50 89 51 83 52 82 53 38 55 70 56
REMARK SMILES IDX 50 57 69 58 51 59 54 60 68 61 87 62 52 63 53 64 67 66 88 67
REMARK SMILES IDX 55 68 39 69 40 70 48 71 41 72 43 73 49 74 42 75 44 76 45 77
REMARK SMILES IDX 46 78 47 79 71 80 72 81 80 82 73 83 75 84 81 85 74 86 76 87
REMARK SMILES IDX 77 88 78 89 79 90 56 91 57 92 65 93 58 94 60 95 66 96 59 97
REMARK SMILES IDX 61 98 62 99 63 100 64 101
REMARK H PARENT 22 6 18 30 27 35 86 54 54 65
REMARK Flexibility Score: inf
ROOT
ATOM      1  C   UNL A   1      34.163  31.478  27.572  1.00  0.00     0.023 C 
ENDROOT
BRANCH   1   2
ATOM      2  C   UNL A   1      32.908  30.937  26.894  1.00  0.00     0.116 C 
BRANCH   2   3
ATOM      3  N   UNL A   1      32.209  29.864  27.586  1.00  0.00    -0.352 N 
ATOM      4  C   UNL A   1      31.911  28.575  27.198  1.00  0.00     0.255 C 
ATOM      5  O   UNL A   1      31.323  27.854  28.005  1.00  0.00    -0.269 OA
ATOM      6  H   UNL A   1      31.897  30.100  28.489  1.00  0.00     0.163 HD
BRANCH   4   7
ATOM      7  C   UNL A   1      32.224  28.035  25.844  1.00  0.00     0.083 A 
ATOM      8  C   UNL A   1      31.398  26.873  23.862  1.00  0.00     0.064 A 
ATOM      9  C   UNL A   1      32.613  27.096  23.220  1.00  0.00     0.032 A 
ATOM     10  C   UNL A   1      31.168  27.461  25.115  1.00  0.00     0.046 A 
ATOM     11  C   UNL A   1      33.680  27.616  23.942  1.00  0.00     0.049 A 
ATOM     12  C   UNL A   1      33.501  27.944  25.285  1.00  0.00     0.128 A 
BRANCH   8  13
ATOM     13  N   UNL A   1      30.422  26.039  23.312  1.00  0.00    -0.256 NA
ATOM     14  C   UNL A   1      30.394  24.751  23.523  1.00  0.00     0.121 C 
BRANCH  14  15
ATOM     15  C   UNL A   1      31.283  23.871  24.291  1.00  0.00     0.014 A 
ATOM     16  N   UNL A   1      32.766  22.317  25.021  1.00  0.00    -0.318 N 
ATOM     17  C   UNL A   1      32.191  22.886  26.146  1.00  0.00     0.021 A 
ATOM     18  C   UNL A   1      32.344  23.049  23.904  1.00  0.00     0.029 A 
ATOM     19  C   UNL A   1      32.619  22.572  27.538  1.00  0.00     0.065 C 
ATOM     20  C   UNL A   1      31.259  23.808  25.717  1.00  0.00     0.033 A 
ATOM     21  C   UNL A   1      32.954  22.837  22.562  1.00  0.00     0.065 C 
BRANCH  16  22
ATOM     22  C   UNL A   1      33.575  21.139  25.003  1.00  0.00     0.046 A 
ATOM     23  C   UNL A   1      33.179  17.446  24.121  1.00  0.00     0.044 C 
ATOM     24  C   UNL A   1      33.779  18.766  24.506  1.00  0.00    -0.049 A 
ATOM     25  C   UNL A   1      35.171  18.875  24.629  1.00  0.00     0.003 A 
ATOM     26  C   UNL A   1      32.981  19.904  24.701  1.00  0.00     0.030 A 
ATOM     27  C   UNL A   1      35.756  20.090  24.978  1.00  0.00     0.002 A 
ATOM     28  C   UNL A   1      34.959  21.216  25.179  1.00  0.00     0.026 A 
ENDBRANCH  16  22
ENDBRANCH  14  15
ENDBRANCH   8  13
BRANCH  12  29
ATOM     29  O   UNL A   1      34.656  27.992  26.019  1.00  0.00    -0.507 OA
ATOM     30  H   UNL A   1      34.664  28.417  26.853  1.00  0.00     0.293 HD
ENDBRANCH  12  29
ENDBRANCH   4   7
ENDBRANCH   2   3
ENDBRANCH   1   2
BRANCH   1  31
ATOM     31  C   UNL A   1      33.979  32.316  28.829  1.00  0.00     0.023 C 
BRANCH  31  32
ATOM     32  C   UNL A   1      33.729  33.793  28.588  1.00  0.00     0.116 C 
BRANCH  32  33
ATOM     33  N   UNL A   1      33.173  34.520  29.707  1.00  0.00    -0.352 N 
ATOM     34  C   UNL A   1      33.591  34.580  31.023  1.00  0.00     0.251 C 
ATOM     35  H   UNL A   1      32.371  35.054  29.499  1.00  0.00     0.163 HD
ATOM     36  O   UNL A   1      32.819  35.124  31.819  1.00  0.00    -0.269 OA
BRANCH  34  37
ATOM     37  C   UNL A   1      34.935  34.104  31.480  1.00  0.00     0.039 A 
ATOM     38  C   UNL A   1      36.087  34.625  30.858  1.00  0.00     0.014 A 
ATOM     39  C   UNL A   1      35.101  33.081  32.410  1.00  0.00     0.014 A 
ATOM     40  C   UNL A   1      37.338  34.016  31.033  1.00  0.00     0.010 A 
ATOM     41  C   UNL A   1      36.312  32.445  32.548  1.00  0.00     0.010 A 
ATOM     42  C   UNL A   1      37.417  32.872  31.817  1.00  0.00    -0.014 A 
BRANCH  42  43
ATOM     43  C   UNL A   1      38.513  31.916  31.843  1.00  0.00     0.031 A 
ATOM     44  C   UNL A   1      38.468  30.646  31.098  1.00  0.00     0.074 A 
ATOM     45  C   UNL A   1      39.706  32.426  32.220  1.00  0.00     0.049 A 
ATOM     46  N   UNL A   1      39.308  29.684  31.277  1.00  0.00    -0.248 NA
ATOM     47  C   UNL A   1      37.485  30.384  30.057  1.00  0.00     0.031 C 
ATOM     48  C   UNL A   1      41.037  31.953  31.866  1.00  0.00     0.029 A 
ATOM     49  N   UNL A   1      39.939  33.430  33.162  1.00  0.00    -0.354 N 
ATOM     50  C   UNL A   1      39.181  28.836  30.199  1.00  0.00     0.074 A 
ATOM     51  C   UNL A   1      37.980  29.267  29.516  1.00  0.00     0.031 C 
ATOM     52  C   UNL A   1      41.911  32.436  32.761  1.00  0.00     0.029 A 
ATOM     53  C   UNL A   1      41.133  33.082  33.806  1.00  0.00     0.049 A 
ATOM     54  H   UNL A   1      39.379  34.220  33.338  1.00  0.00     0.167 HD
ATOM     55  C   UNL A   1      40.197  27.980  29.883  1.00  0.00     0.034 A 
ATOM     56  C   UNL A   1      41.194  32.798  35.139  1.00  0.00     0.034 A 
ATOM     57  C   UNL A   1      41.341  28.146  30.791  1.00  0.00     0.049 A 
ATOM     58  C   UNL A   1      41.691  31.391  35.419  1.00  0.00     0.074 A 
ATOM     59  C   UNL A   1      42.553  28.811  30.666  1.00  0.00     0.029 A 
ATOM     60  N   UNL A   1      41.215  27.824  32.136  1.00  0.00    -0.354 N 
ATOM     61  N   UNL A   1      41.946  30.504  34.497  1.00  0.00    -0.248 NA
ATOM     62  C   UNL A   1      41.927  30.862  36.758  1.00  0.00     0.031 C 
ATOM     63  C   UNL A   1      43.124  28.942  31.960  1.00  0.00     0.029 A 
ATOM     64  C   UNL A   1      42.271  28.344  32.871  1.00  0.00     0.049 A 
ATOM     65  H   UNL A   1      40.474  27.299  32.518  1.00  0.00     0.167 HD
ATOM     66  C   UNL A   1      42.232  29.290  35.067  1.00  0.00     0.074 A 
ATOM     67  C   UNL A   1      42.297  29.596  36.487  1.00  0.00     0.031 C 
ATOM     68  C   UNL A   1      42.330  28.145  34.318  1.00  0.00     0.034 A 
BRANCH  55  69
ATOM     69  C   UNL A   1      40.291  27.262  28.548  1.00  0.00     0.023 A 
ATOM     70  C   UNL A   1      39.437  26.159  28.321  1.00  0.00     0.012 A 
ATOM     71  C   UNL A   1      41.202  27.565  27.511  1.00  0.00     0.148 A 
ATOM     72  C   UNL A   1      39.563  25.327  27.203  1.00  0.00     0.002 A 
ATOM     73  C   UNL A   1      41.386  26.689  26.435  1.00  0.00     0.091 A 
ATOM     74  F   UNL A   1      41.847  28.739  27.520  1.00  0.00    -0.205 F 
ATOM     75  C   UNL A   1      40.570  25.565  26.281  1.00  0.00     0.022 A 
BRANCH  73  76
ATOM     76  S   UNL A   1      42.757  26.873  25.280  1.00  0.00     0.127 S 
ATOM     77  O   UNL A   1      43.911  26.984  26.177  1.00  0.00    -0.237 OA
ATOM     78  O   UNL A   1      42.700  25.632  24.516  1.00  0.00    -0.237 OA
ATOM     79  O   UNL A   1      42.475  28.097  24.537  1.00  0.00    -0.744 OA
ENDBRANCH  73  76
ENDBRANCH  55  69
BRANCH  56  80
ATOM     80  C   UNL A   1      40.209  33.577  35.952  1.00  0.00     0.023 A 
ATOM     81  C   UNL A   1      38.943  32.970  36.147  1.00  0.00     0.012 A 
ATOM     82  C   UNL A   1      40.604  34.608  36.824  1.00  0.00     0.148 A 
ATOM     83  C   UNL A   1      38.152  33.288  37.253  1.00  0.00     0.002 A 
ATOM     84  C   UNL A   1      39.803  34.923  37.924  1.00  0.00     0.091 A 
ATOM     85  F   UNL A   1      41.789  35.199  36.622  1.00  0.00    -0.205 F 
ATOM     86  C   UNL A   1      38.599  34.241  38.160  1.00  0.00     0.022 A 
BRANCH  84  87
ATOM     87  S   UNL A   1      40.332  36.115  39.167  1.00  0.00     0.127 S 
ATOM     88  O   UNL A   1      39.600  35.654  40.342  1.00  0.00    -0.237 OA
ATOM     89  O   UNL A   1      41.778  35.900  39.218  1.00  0.00    -0.237 OA
ATOM     90  O   UNL A   1      39.943  37.409  38.626  1.00  0.00    -0.744 OA
ENDBRANCH  84  87
ENDBRANCH  56  80
BRANCH  68  91
ATOM     91  C   UNL A   1      42.463  26.720  34.841  1.00  0.00     0.023 A 
ATOM     92  C   UNL A   1      41.495  26.112  35.660  1.00  0.00     0.012 A 
ATOM     93  C   UNL A   1      43.529  25.883  34.404  1.00  0.00     0.148 A 
ATOM     94  C   UNL A   1      41.587  24.770  36.054  1.00  0.00     0.002 A 
ATOM     95  C   UNL A   1      43.554  24.522  34.704  1.00  0.00     0.091 A 
ATOM     96  F   UNL A   1      44.553  26.401  33.712  1.00  0.00    -0.205 F 
ATOM     97  C   UNL A   1      42.600  23.966  35.553  1.00  0.00     0.022 A 
BRANCH  95  98
ATOM     98  S   UNL A   1      44.715  23.423  33.876  1.00  0.00     0.127 S 
ATOM     99  O   UNL A   1      46.000  23.894  34.384  1.00  0.00    -0.237 OA
ATOM    100  O   UNL A   1      44.313  22.104  34.369  1.00  0.00    -0.237 OA
ATOM    101  O   UNL A   1      44.464  23.627  32.455  1.00  0.00    -0.744 OA
ENDBRANCH  95  98
ENDBRANCH  68  91
ENDBRANCH  42  43
ENDBRANCH  34  37
ENDBRANCH  32  33
ENDBRANCH  31  32
ENDBRANCH   1  31
TORSDOF 18
ENDMDL
