MODEL 1
REMARK VINA RESULT:     -13.9      0.000      0.000
REMARK SMILES Cc1ccc(S(=O)(=O)n2cc(C(=O)C(=O)N[C@@H](Cc3c[nH]c4ccccc34)C(=O)NCCCCNC(=O)c3ccc(-c4c5nc(c(-c6cccc(S(=O)(=O)[O-])c6F)c6ccc([nH]6)c(-c6cccc(S(=O)(=O)[O-])c6F)c6nc(c(-c7cccc(S(=O)(=O)[O-])c7F)c7ccc4[nH]7)C=C6)C=C5)cc3)c3ccccc32)cc1
REMARK SMILES IDX 31 1 30 2 28 3 29 4 17 6 16 7 14 8 15 9 12 11 13 12 11 13
REMARK SMILES IDX 9 14 10 15 106 16 101 17 105 18 102 19 104 20 103 21 6 22
REMARK SMILES IDX 7 23 8 24 5 25 1 26 2 27 3 28 108 29 4 30 107 31 18 32 19 33
REMARK SMILES IDX 20 34 27 35 21 36 22 37 26 38 23 40 25 41 24 42 32 43 33 44
REMARK SMILES IDX 34 45 35 46 36 47 37 49 38 50 39 51 100 52 40 53 99 54 41 55
REMARK SMILES IDX 42 56 43 57 93 58 44 59 98 60 92 61 94 62 45 63 97 64 91 65
REMARK SMILES IDX 90 66 46 68 78 69 58 70 77 71 59 72 62 73 76 74 95 75 60 76
REMARK SMILES IDX 61 77 75 79 96 80 63 81 47 82 48 83 56 84 49 85 51 86 57 87
REMARK SMILES IDX 50 88 52 89 53 90 54 91 55 92 79 93 80 94 88 95 81 96 83 97
REMARK SMILES IDX 89 98 82 99 84 100 85 101 86 102 87 103 64 104 65 105 73 106
REMARK SMILES IDX 66 107 68 108 74 109 67 110 69 111 70 112 71 113 72 114
REMARK H PARENT 30 5 16 10 21 39 35 48 94 67 62 78
REMARK Flexibility Score: inf
ROOT
ATOM      1  C   UNL A   1      35.665  24.365  25.238  1.00  0.00     0.116 C 
ENDROOT
BRANCH   1   2
ATOM      2  N   UNL A   1      35.282  23.750  23.989  1.00  0.00    -0.354 N 
ATOM      3  C   UNL A   1      34.338  22.777  23.773  1.00  0.00     0.242 C 
ATOM      4  O   UNL A   1      33.826  22.745  22.648  1.00  0.00    -0.273 OA
ATOM      5  H   UNL A   1      35.760  24.068  23.190  1.00  0.00     0.163 HD
BRANCH   3   6
ATOM      6  C   UNL A   1      33.821  21.812  24.887  1.00  0.00     0.176 C 
BRANCH   6   7
ATOM      7  N   UNL A   1      32.341  21.717  24.974  1.00  0.00    -0.337 N 
ATOM      8  C   UNL A   1      31.416  22.427  25.729  1.00  0.00     0.293 C 
ATOM      9  O   UNL A   1      30.228  22.116  25.715  1.00  0.00    -0.265 OA
ATOM     10  H   UNL A   1      31.946  21.028  24.394  1.00  0.00     0.164 HD
BRANCH   8  11
ATOM     11  C   UNL A   1      31.851  23.632  26.563  1.00  0.00     0.252 C 
ATOM     12  O   UNL A   1      31.816  23.461  27.783  1.00  0.00    -0.283 OA
BRANCH  11  13
ATOM     13  C   UNL A   1      32.196  24.957  25.995  1.00  0.00     0.054 A 
ATOM     14  N   UNL A   1      32.923  27.057  25.507  1.00  0.00    -0.240 N 
ATOM     15  C   UNL A   1      32.662  26.162  26.554  1.00  0.00     0.117 A 
ATOM     16  C   UNL A   1      32.808  26.322  24.308  1.00  0.00     0.065 A 
ATOM     17  C   UNL A   1      31.970  25.259  24.619  1.00  0.00     0.012 A 
ATOM     18  C   UNL A   1      33.044  26.704  22.970  1.00  0.00     0.028 A 
ATOM     19  C   UNL A   1      31.178  24.703  23.592  1.00  0.00     0.011 A 
ATOM     20  C   UNL A   1      32.178  26.212  21.995  1.00  0.00     0.002 A 
ATOM     21  C   UNL A   1      31.226  25.255  22.310  1.00  0.00     0.001 A 
BRANCH  14  22
ATOM     22  S   UNL A   1      32.296  28.669  25.250  1.00  0.00     0.268 S 
ATOM     23  O   UNL A   1      33.445  29.365  24.689  1.00  0.00    -0.201 OA
ATOM     24  O   UNL A   1      31.810  28.978  26.592  1.00  0.00    -0.201 OA
BRANCH  22  25
ATOM     25  C   UNL A   1      30.949  29.309  24.328  1.00  0.00     0.088 A 
ATOM     26  C   UNL A   1      27.507  31.656  23.152  1.00  0.00     0.044 C 
ATOM     27  C   UNL A   1      28.724  30.836  23.475  1.00  0.00    -0.051 A 
ATOM     28  C   UNL A   1      29.641  31.404  24.341  1.00  0.00     0.005 A 
ATOM     29  C   UNL A   1      28.953  29.522  23.002  1.00  0.00     0.005 A 
ATOM     30  C   UNL A   1      30.732  30.656  24.737  1.00  0.00     0.022 A 
ATOM     31  C   UNL A   1      30.066  28.740  23.431  1.00  0.00     0.022 A 
ENDBRANCH  22  25
ENDBRANCH  14  22
ENDBRANCH  11  13
ENDBRANCH   8  11
ENDBRANCH   6   7
BRANCH   6  32
ATOM     32  C   UNL A   1      34.568  20.432  24.921  1.00  0.00     0.072 C 
BRANCH  32  33
ATOM     33  C   UNL A   1      33.836  19.218  24.403  1.00  0.00    -0.020 A 
ATOM     34  C   UNL A   1      32.582  19.206  23.813  1.00  0.00     0.087 A 
ATOM     35  C   UNL A   1      34.239  17.841  24.511  1.00  0.00     0.003 A 
ATOM     36  N   UNL A   1      32.163  17.903  23.711  1.00  0.00    -0.361 N 
ATOM     37  C   UNL A   1      33.096  17.071  24.283  1.00  0.00     0.046 A 
ATOM     38  C   UNL A   1      35.401  17.192  24.976  1.00  0.00     0.010 A 
ATOM     39  H   UNL A   1      31.322  17.609  23.291  1.00  0.00     0.166 HD
ATOM     40  C   UNL A   1      33.009  15.727  24.661  1.00  0.00     0.026 A 
ATOM     41  C   UNL A   1      35.328  15.853  25.368  1.00  0.00     0.001 A 
ATOM     42  C   UNL A   1      34.137  15.142  25.242  1.00  0.00     0.002 A 
ENDBRANCH  32  33
ENDBRANCH   6  32
ENDBRANCH   3   6
ENDBRANCH   1   2
BRANCH   1  43
ATOM     43  C   UNL A   1      37.049  24.030  25.777  1.00  0.00     0.023 C 
BRANCH  43  44
ATOM     44  C   UNL A   1      37.374  22.557  26.031  1.00  0.00     0.023 C 
BRANCH  44  45
ATOM     45  C   UNL A   1      38.792  22.132  25.679  1.00  0.00     0.116 C 
BRANCH  45  46
ATOM     46  N   UNL A   1      39.606  21.863  26.866  1.00  0.00    -0.352 N 
ATOM     47  C   UNL A   1      40.525  22.682  27.479  1.00  0.00     0.251 C 
ATOM     48  H   UNL A   1      39.479  20.978  27.279  1.00  0.00     0.163 HD
ATOM     49  O   UNL A   1      41.465  22.153  28.099  1.00  0.00    -0.269 OA
BRANCH  47  50
ATOM     50  C   UNL A   1      40.332  24.141  27.498  1.00  0.00     0.039 A 
ATOM     51  C   UNL A   1      40.931  24.999  26.565  1.00  0.00     0.014 A 
ATOM     52  C   UNL A   1      39.705  24.674  28.616  1.00  0.00     0.014 A 
ATOM     53  C   UNL A   1      41.022  26.359  26.861  1.00  0.00     0.010 A 
ATOM     54  C   UNL A   1      39.543  26.011  28.758  1.00  0.00     0.010 A 
ATOM     55  C   UNL A   1      40.393  26.815  28.011  1.00  0.00    -0.014 A 
BRANCH  55  56
ATOM     56  C   UNL A   1      40.657  28.052  28.712  1.00  0.00     0.031 A 
ATOM     57  C   UNL A   1      39.713  29.154  28.579  1.00  0.00     0.074 A 
ATOM     58  C   UNL A   1      41.488  27.897  29.773  1.00  0.00     0.049 A 
ATOM     59  N   UNL A   1      39.859  30.280  29.174  1.00  0.00    -0.248 NA
ATOM     60  C   UNL A   1      38.525  29.080  27.734  1.00  0.00     0.031 C 
ATOM     61  C   UNL A   1      41.416  28.507  31.094  1.00  0.00     0.029 A 
ATOM     62  N   UNL A   1      42.550  27.014  29.911  1.00  0.00    -0.354 N 
ATOM     63  C   UNL A   1      38.645  30.917  29.087  1.00  0.00     0.074 A 
ATOM     64  C   UNL A   1      37.943  30.248  28.022  1.00  0.00     0.031 C 
ATOM     65  C   UNL A   1      42.512  28.158  31.800  1.00  0.00     0.029 A 
ATOM     66  C   UNL A   1      43.423  27.489  30.882  1.00  0.00     0.049 A 
ATOM     67  H   UNL A   1      42.667  26.181  29.399  1.00  0.00     0.167 HD
ATOM     68  C   UNL A   1      38.317  31.797  30.070  1.00  0.00     0.034 A 
ATOM     69  C   UNL A   1      44.631  28.006  30.483  1.00  0.00     0.034 A 
ATOM     70  C   UNL A   1      39.465  31.998  30.974  1.00  0.00     0.049 A 
ATOM     71  C   UNL A   1      44.701  29.519  30.625  1.00  0.00     0.074 A 
ATOM     72  C   UNL A   1      39.760  31.533  32.244  1.00  0.00     0.029 A 
ATOM     73  N   UNL A   1      40.659  32.496  30.456  1.00  0.00    -0.354 N 
ATOM     74  N   UNL A   1      43.680  30.273  30.928  1.00  0.00    -0.248 NA
ATOM     75  C   UNL A   1      45.922  30.301  30.457  1.00  0.00     0.031 C 
ATOM     76  C   UNL A   1      41.171  31.637  32.428  1.00  0.00     0.029 A 
ATOM     77  C   UNL A   1      41.727  32.211  31.296  1.00  0.00     0.049 A 
ATOM     78  H   UNL A   1      40.735  32.988  29.607  1.00  0.00     0.167 HD
ATOM     79  C   UNL A   1      44.022  31.591  30.852  1.00  0.00     0.074 A 
ATOM     80  C   UNL A   1      45.462  31.553  30.645  1.00  0.00     0.031 C 
ATOM     81  C   UNL A   1      43.087  32.591  30.905  1.00  0.00     0.034 A 
BRANCH  68  82
ATOM     82  C   UNL A   1      36.928  32.330  30.372  1.00  0.00     0.023 A 
ATOM     83  C   UNL A   1      36.397  32.012  31.642  1.00  0.00     0.012 A 
ATOM     84  C   UNL A   1      36.065  33.048  29.504  1.00  0.00     0.148 A 
ATOM     85  C   UNL A   1      35.101  32.372  32.028  1.00  0.00     0.002 A 
ATOM     86  C   UNL A   1      34.795  33.468  29.913  1.00  0.00     0.091 A 
ATOM     87  F   UNL A   1      36.411  33.267  28.235  1.00  0.00    -0.205 F 
ATOM     88  C   UNL A   1      34.304  33.116  31.171  1.00  0.00     0.022 A 
BRANCH  86  89
ATOM     89  S   UNL A   1      33.724  34.483  28.874  1.00  0.00     0.127 S 
ATOM     90  O   UNL A   1      33.269  33.523  27.869  1.00  0.00    -0.237 OA
ATOM     91  O   UNL A   1      32.690  34.912  29.817  1.00  0.00    -0.237 OA
ATOM     92  O   UNL A   1      34.554  35.566  28.361  1.00  0.00    -0.744 OA
ENDBRANCH  86  89
ENDBRANCH  68  82
BRANCH  69  93
ATOM     93  C   UNL A   1      45.223  27.211  29.351  1.00  0.00     0.023 A 
ATOM     94  C   UNL A   1      45.474  25.841  29.607  1.00  0.00     0.012 A 
ATOM     95  C   UNL A   1      45.064  27.629  28.015  1.00  0.00     0.148 A 
ATOM     96  C   UNL A   1      45.369  24.894  28.585  1.00  0.00     0.002 A 
ATOM     97  C   UNL A   1      44.953  26.674  27.002  1.00  0.00     0.091 A 
ATOM     98  F   UNL A   1      44.949  28.940  27.762  1.00  0.00    -0.205 F 
ATOM     99  C   UNL A   1      45.044  25.305  27.297  1.00  0.00     0.022 A 
BRANCH  97 100
ATOM    100  S   UNL A   1      44.592  27.146  25.304  1.00  0.00     0.127 S 
ATOM    101  O   UNL A   1      45.795  27.899  24.950  1.00  0.00    -0.237 OA
ATOM    102  O   UNL A   1      44.465  25.856  24.624  1.00  0.00    -0.237 OA
ATOM    103  O   UNL A   1      43.356  27.905  25.372  1.00  0.00    -0.744 OA
ENDBRANCH  97 100
ENDBRANCH  69  93
BRANCH  81 104
ATOM    104  C   UNL A   1      43.367  34.041  30.562  1.00  0.00     0.023 A 
ATOM    105  C   UNL A   1      43.639  35.010  31.548  1.00  0.00     0.012 A 
ATOM    106  C   UNL A   1      43.520  34.447  29.211  1.00  0.00     0.148 A 
ATOM    107  C   UNL A   1      43.960  36.330  31.218  1.00  0.00     0.002 A 
ATOM    108  C   UNL A   1      43.975  35.721  28.892  1.00  0.00     0.091 A 
ATOM    109  F   UNL A   1      43.208  33.601  28.218  1.00  0.00    -0.205 F 
ATOM    110  C   UNL A   1      44.153  36.681  29.889  1.00  0.00     0.022 A 
BRANCH 108 111
ATOM    111  S   UNL A   1      44.513  36.122  27.225  1.00  0.00     0.127 S 
ATOM    112  O   UNL A   1      44.080  34.944  26.477  1.00  0.00    -0.237 OA
ATOM    113  O   UNL A   1      43.754  37.341  26.938  1.00  0.00    -0.237 OA
ATOM    114  O   UNL A   1      45.951  36.326  27.324  1.00  0.00    -0.744 OA
ENDBRANCH 108 111
ENDBRANCH  81 104
ENDBRANCH  55  56
ENDBRANCH  47  50
ENDBRANCH  45  46
ENDBRANCH  44  45
ENDBRANCH  43  44
ENDBRANCH   1  43
TORSDOF 21
ENDMDL
MODEL 2
REMARK VINA RESULT:     -12.7      2.363      3.633
REMARK SMILES Cc1ccc(S(=O)(=O)n2cc(C(=O)C(=O)N[C@@H](Cc3c[nH]c4ccccc34)C(=O)NCCCCNC(=O)c3ccc(-c4c5nc(c(-c6cccc(S(=O)(=O)[O-])c6F)c6ccc([nH]6)c(-c6cccc(S(=O)(=O)[O-])c6F)c6nc(c(-c7cccc(S(=O)(=O)[O-])c7F)c7ccc4[nH]7)C=C6)C=C5)cc3)c3ccccc32)cc1
REMARK SMILES IDX 31 1 30 2 28 3 29 4 17 6 16 7 14 8 15 9 12 11 13 12 11 13
REMARK SMILES IDX 9 14 10 15 106 16 101 17 105 18 102 19 104 20 103 21 6 22
REMARK SMILES IDX 7 23 8 24 5 25 1 26 2 27 3 28 108 29 4 30 107 31 18 32 19 33
REMARK SMILES IDX 20 34 27 35 21 36 22 37 26 38 23 40 25 41 24 42 32 43 33 44
REMARK SMILES IDX 34 45 35 46 36 47 37 49 38 50 39 51 100 52 40 53 99 54 41 55
REMARK SMILES IDX 42 56 43 57 93 58 44 59 98 60 92 61 94 62 45 63 97 64 91 65
REMARK SMILES IDX 90 66 46 68 78 69 58 70 77 71 59 72 62 73 76 74 95 75 60 76
REMARK SMILES IDX 61 77 75 79 96 80 63 81 47 82 48 83 56 84 49 85 51 86 57 87
REMARK SMILES IDX 50 88 52 89 53 90 54 91 55 92 79 93 80 94 88 95 81 96 83 97
REMARK SMILES IDX 89 98 82 99 84 100 85 101 86 102 87 103 64 104 65 105 73 106
REMARK SMILES IDX 66 107 68 108 74 109 67 110 69 111 70 112 71 113 72 114
REMARK H PARENT 30 5 16 10 21 39 35 48 94 67 62 78
REMARK Flexibility Score: inf
ROOT
ATOM      1  C   UNL A   1      37.259  23.630  25.661  1.00  0.00     0.116 C 
ENDROOT
BRANCH   1   2
ATOM      2  N   UNL A   1      37.144  23.324  24.255  1.00  0.00    -0.354 N 
ATOM      3  C   UNL A   1      36.053  22.845  23.574  1.00  0.00     0.242 C 
ATOM      4  O   UNL A   1      35.994  23.112  22.368  1.00  0.00    -0.273 OA
ATOM      5  H   UNL A   1      37.953  23.478  23.715  1.00  0.00     0.163 HD
BRANCH   3   6
ATOM      6  C   UNL A   1      34.867  22.096  24.260  1.00  0.00     0.176 C 
BRANCH   6   7
ATOM      7  N   UNL A   1      33.577  22.195  23.530  1.00  0.00    -0.337 N 
ATOM      8  C   UNL A   1      32.387  22.837  23.848  1.00  0.00     0.293 C 
ATOM      9  O   UNL A   1      31.398  22.710  23.130  1.00  0.00    -0.265 OA
ATOM     10  H   UNL A   1      33.563  21.720  22.668  1.00  0.00     0.164 HD
BRANCH   8  11
ATOM     11  C   UNL A   1      32.294  23.744  25.075  1.00  0.00     0.252 C 
ATOM     12  O   UNL A   1      31.934  23.184  26.111  1.00  0.00    -0.283 OA
BRANCH  11  13
ATOM     13  C   UNL A   1      32.511  25.211  25.045  1.00  0.00     0.054 A 
ATOM     14  N   UNL A   1      33.259  27.359  25.085  1.00  0.00    -0.240 N 
ATOM     15  C   UNL A   1      33.554  26.047  25.482  1.00  0.00     0.117 A 
ATOM     16  C   UNL A   1      32.138  27.280  24.232  1.00  0.00     0.065 A 
ATOM     17  C   UNL A   1      31.494  26.104  24.594  1.00  0.00     0.012 A 
ATOM     18  C   UNL A   1      31.475  28.283  23.491  1.00  0.00     0.028 A 
ATOM     19  C   UNL A   1      30.098  26.016  24.408  1.00  0.00     0.011 A 
ATOM     20  C   UNL A   1      30.085  28.216  23.412  1.00  0.00     0.002 A 
ATOM     21  C   UNL A   1      29.399  27.116  23.905  1.00  0.00     0.001 A 
BRANCH  14  22
ATOM     22  S   UNL A   1      33.134  28.806  26.059  1.00  0.00     0.268 S 
ATOM     23  O   UNL A   1      32.008  28.500  26.929  1.00  0.00    -0.201 OA
ATOM     24  O   UNL A   1      33.023  29.817  25.011  1.00  0.00    -0.201 OA
BRANCH  22  25
ATOM     25  C   UNL A   1      34.246  29.648  27.121  1.00  0.00     0.088 A 
ATOM     26  C   UNL A   1      36.461  32.788  29.112  1.00  0.00     0.044 C 
ATOM     27  C   UNL A   1      35.698  31.651  28.495  1.00  0.00    -0.051 A 
ATOM     28  C   UNL A   1      34.432  31.940  28.019  1.00  0.00     0.005 A 
ATOM     29  C   UNL A   1      36.211  30.343  28.323  1.00  0.00     0.005 A 
ATOM     30  C   UNL A   1      33.725  30.950  27.366  1.00  0.00     0.022 A 
ATOM     31  C   UNL A   1      35.492  29.327  27.626  1.00  0.00     0.022 A 
ENDBRANCH  22  25
ENDBRANCH  14  22
ENDBRANCH  11  13
ENDBRANCH   8  11
ENDBRANCH   6   7
BRANCH   6  32
ATOM     32  C   UNL A   1      35.233  20.648  24.747  1.00  0.00     0.072 C 
BRANCH  32  33
ATOM     33  C   UNL A   1      34.108  19.745  25.190  1.00  0.00    -0.020 A 
ATOM     34  C   UNL A   1      33.256  19.960  26.261  1.00  0.00     0.087 A 
ATOM     35  C   UNL A   1      33.766  18.450  24.663  1.00  0.00     0.003 A 
ATOM     36  N   UNL A   1      32.544  18.809  26.488  1.00  0.00    -0.361 N 
ATOM     37  C   UNL A   1      32.965  17.827  25.622  1.00  0.00     0.046 A 
ATOM     38  C   UNL A   1      34.224  17.683  23.573  1.00  0.00     0.010 A 
ATOM     39  H   UNL A   1      31.840  18.703  27.167  1.00  0.00     0.166 HD
ATOM     40  C   UNL A   1      32.747  16.445  25.635  1.00  0.00     0.026 A 
ATOM     41  C   UNL A   1      34.024  16.299  23.576  1.00  0.00     0.001 A 
ATOM     42  C   UNL A   1      33.323  15.688  24.612  1.00  0.00     0.002 A 
ENDBRANCH  32  33
ENDBRANCH   6  32
ENDBRANCH   3   6
ENDBRANCH   1   2
BRANCH   1  43
ATOM     43  C   UNL A   1      38.541  23.200  26.359  1.00  0.00     0.023 C 
BRANCH  43  44
ATOM     44  C   UNL A   1      39.563  24.286  26.698  1.00  0.00     0.023 C 
BRANCH  44  45
ATOM     45  C   UNL A   1      40.285  24.111  28.026  1.00  0.00     0.116 C 
BRANCH  45  46
ATOM     46  N   UNL A   1      41.408  23.175  27.933  1.00  0.00    -0.352 N 
ATOM     47  C   UNL A   1      42.737  23.450  27.703  1.00  0.00     0.251 C 
ATOM     48  H   UNL A   1      41.182  22.225  28.049  1.00  0.00     0.163 HD
ATOM     49  O   UNL A   1      43.429  22.582  27.145  1.00  0.00    -0.269 OA
BRANCH  47  50
ATOM     50  C   UNL A   1      43.342  24.691  28.211  1.00  0.00     0.039 A 
ATOM     51  C   UNL A   1      43.561  24.928  29.575  1.00  0.00     0.014 A 
ATOM     52  C   UNL A   1      43.494  25.730  27.302  1.00  0.00     0.014 A 
ATOM     53  C   UNL A   1      43.771  26.237  30.008  1.00  0.00     0.010 A 
ATOM     54  C   UNL A   1      43.977  26.935  27.688  1.00  0.00     0.010 A 
ATOM     55  C   UNL A   1      43.884  27.228  29.042  1.00  0.00    -0.014 A 
BRANCH  55  56
ATOM     56  C   UNL A   1      43.720  28.652  29.236  1.00  0.00     0.031 A 
ATOM     57  C   UNL A   1      42.373  29.201  29.328  1.00  0.00     0.074 A 
ATOM     58  C   UNL A   1      44.813  29.246  29.774  1.00  0.00     0.049 A 
ATOM     59  N   UNL A   1      42.133  30.446  29.514  1.00  0.00    -0.248 NA
ATOM     60  C   UNL A   1      41.173  28.380  29.195  1.00  0.00     0.031 C 
ATOM     61  C   UNL A   1      44.887  30.282  30.795  1.00  0.00     0.029 A 
ATOM     62  N   UNL A   1      46.149  28.924  29.580  1.00  0.00    -0.354 N 
ATOM     63  C   UNL A   1      40.812  30.530  29.878  1.00  0.00     0.074 A 
ATOM     64  C   UNL A   1      40.224  29.283  29.457  1.00  0.00     0.031 C 
ATOM     65  C   UNL A   1      46.174  30.657  30.948  1.00  0.00     0.029 A 
ATOM     66  C   UNL A   1      46.939  30.026  29.882  1.00  0.00     0.049 A 
ATOM     67  H   UNL A   1      46.485  28.050  29.275  1.00  0.00     0.167 HD
ATOM     68  C   UNL A   1      40.436  31.565  30.675  1.00  0.00     0.034 A 
ATOM     69  C   UNL A   1      47.532  30.712  28.851  1.00  0.00     0.034 A 
ATOM     70  C   UNL A   1      41.561  32.504  30.849  1.00  0.00     0.049 A 
ATOM     71  C   UNL A   1      46.893  32.070  28.601  1.00  0.00     0.074 A 
ATOM     72  C   UNL A   1      42.441  32.739  31.891  1.00  0.00     0.029 A 
ATOM     73  N   UNL A   1      42.112  33.120  29.727  1.00  0.00    -0.354 N 
ATOM     74  N   UNL A   1      45.798  32.481  29.178  1.00  0.00    -0.248 NA
ATOM     75  C   UNL A   1      47.443  33.080  27.701  1.00  0.00     0.031 C 
ATOM     76  C   UNL A   1      43.591  33.389  31.350  1.00  0.00     0.029 A 
ATOM     77  C   UNL A   1      43.389  33.595  29.993  1.00  0.00     0.049 A 
ATOM     78  H   UNL A   1      41.655  33.209  28.860  1.00  0.00     0.167 HD
ATOM     79  C   UNL A   1      45.403  33.678  28.657  1.00  0.00     0.074 A 
ATOM     80  C   UNL A   1      46.519  34.054  27.801  1.00  0.00     0.031 C 
ATOM     81  C   UNL A   1      44.175  34.221  28.927  1.00  0.00     0.034 A 
BRANCH  68  82
ATOM     82  C   UNL A   1      39.151  31.662  31.477  1.00  0.00     0.023 A 
ATOM     83  C   UNL A   1      38.390  30.477  31.588  1.00  0.00     0.012 A 
ATOM     84  C   UNL A   1      38.582  32.820  32.069  1.00  0.00     0.148 A 
ATOM     85  C   UNL A   1      37.149  30.437  32.233  1.00  0.00     0.002 A 
ATOM     86  C   UNL A   1      37.374  32.767  32.773  1.00  0.00     0.091 A 
ATOM     87  F   UNL A   1      39.143  34.016  31.893  1.00  0.00    -0.205 F 
ATOM     88  C   UNL A   1      36.647  31.577  32.842  1.00  0.00     0.022 A 
BRANCH  86  89
ATOM     89  S   UNL A   1      36.686  34.195  33.636  1.00  0.00     0.127 S 
ATOM     90  O   UNL A   1      36.169  35.002  32.532  1.00  0.00    -0.237 OA
ATOM     91  O   UNL A   1      35.656  33.584  34.477  1.00  0.00    -0.237 OA
ATOM     92  O   UNL A   1      37.787  34.797  34.378  1.00  0.00    -0.744 OA
ENDBRANCH  86  89
ENDBRANCH  68  82
BRANCH  69  93
ATOM     93  C   UNL A   1      48.031  29.777  27.783  1.00  0.00     0.023 A 
ATOM     94  C   UNL A   1      48.997  28.822  28.183  1.00  0.00     0.012 A 
ATOM     95  C   UNL A   1      47.256  29.512  26.636  1.00  0.00     0.148 A 
ATOM     96  C   UNL A   1      49.048  27.564  27.578  1.00  0.00     0.002 A 
ATOM     97  C   UNL A   1      47.308  28.248  26.045  1.00  0.00     0.091 A 
ATOM     98  F   UNL A   1      46.429  30.466  26.187  1.00  0.00    -0.205 F 
ATOM     99  C   UNL A   1      48.159  27.255  26.555  1.00  0.00     0.022 A 
BRANCH  97 100
ATOM    100  S   UNL A   1      46.226  27.807  24.677  1.00  0.00     0.127 S 
ATOM    101  O   UNL A   1      46.803  28.591  23.586  1.00  0.00    -0.237 OA
ATOM    102  O   UNL A   1      46.425  26.362  24.554  1.00  0.00    -0.237 OA
ATOM    103  O   UNL A   1      44.892  28.188  25.107  1.00  0.00    -0.744 OA
ENDBRANCH  97 100
ENDBRANCH  69  93
BRANCH  81 104
ATOM    104  C   UNL A   1      43.579  35.397  28.179  1.00  0.00     0.023 A 
ATOM    105  C   UNL A   1      42.602  35.236  27.176  1.00  0.00     0.012 A 
ATOM    106  C   UNL A   1      43.873  36.727  28.574  1.00  0.00     0.148 A 
ATOM    107  C   UNL A   1      42.011  36.331  26.539  1.00  0.00     0.002 A 
ATOM    108  C   UNL A   1      43.181  37.806  28.034  1.00  0.00     0.091 A 
ATOM    109  F   UNL A   1      44.844  36.962  29.469  1.00  0.00    -0.205 F 
ATOM    110  C   UNL A   1      42.282  37.617  26.984  1.00  0.00     0.022 A 
BRANCH 108 111
ATOM    111  S   UNL A   1      43.286  39.439  28.776  1.00  0.00     0.127 S 
ATOM    112  O   UNL A   1      42.173  40.134  28.134  1.00  0.00    -0.237 OA
ATOM    113  O   UNL A   1      43.086  39.149  30.198  1.00  0.00    -0.237 OA
ATOM    114  O   UNL A   1      44.620  39.924  28.451  1.00  0.00    -0.744 OA
ENDBRANCH 108 111
ENDBRANCH  81 104
ENDBRANCH  55  56
ENDBRANCH  47  50
ENDBRANCH  45  46
ENDBRANCH  44  45
ENDBRANCH  43  44
ENDBRANCH   1  43
TORSDOF 21
ENDMDL
MODEL 3
REMARK VINA RESULT:     -12.5      2.297      3.245
REMARK SMILES Cc1ccc(S(=O)(=O)n2cc(C(=O)C(=O)N[C@@H](Cc3c[nH]c4ccccc34)C(=O)NCCCCNC(=O)c3ccc(-c4c5nc(c(-c6cccc(S(=O)(=O)[O-])c6F)c6ccc([nH]6)c(-c6cccc(S(=O)(=O)[O-])c6F)c6nc(c(-c7cccc(S(=O)(=O)[O-])c7F)c7ccc4[nH]7)C=C6)C=C5)cc3)c3ccccc32)cc1
REMARK SMILES IDX 31 1 30 2 28 3 29 4 17 6 16 7 14 8 15 9 12 11 13 12 11 13
REMARK SMILES IDX 9 14 10 15 106 16 101 17 105 18 102 19 104 20 103 21 6 22
REMARK SMILES IDX 7 23 8 24 5 25 1 26 2 27 3 28 108 29 4 30 107 31 18 32 19 33
REMARK SMILES IDX 20 34 27 35 21 36 22 37 26 38 23 40 25 41 24 42 32 43 33 44
REMARK SMILES IDX 34 45 35 46 36 47 37 49 38 50 39 51 100 52 40 53 99 54 41 55
REMARK SMILES IDX 42 56 43 57 93 58 44 59 98 60 92 61 94 62 45 63 97 64 91 65
REMARK SMILES IDX 90 66 46 68 78 69 58 70 77 71 59 72 62 73 76 74 95 75 60 76
REMARK SMILES IDX 61 77 75 79 96 80 63 81 47 82 48 83 56 84 49 85 51 86 57 87
REMARK SMILES IDX 50 88 52 89 53 90 54 91 55 92 79 93 80 94 88 95 81 96 83 97
REMARK SMILES IDX 89 98 82 99 84 100 85 101 86 102 87 103 64 104 65 105 73 106
REMARK SMILES IDX 66 107 68 108 74 109 67 110 69 111 70 112 71 113 72 114
REMARK H PARENT 30 5 16 10 21 39 35 48 94 67 62 78
REMARK Flexibility Score: inf
ROOT
ATOM      1  C   UNL A   1      34.511  24.127  25.485  1.00  0.00     0.116 C 
ENDROOT
BRANCH   1   2
ATOM      2  N   UNL A   1      34.694  23.994  24.059  1.00  0.00    -0.354 N 
ATOM      3  C   UNL A   1      33.759  23.677  23.106  1.00  0.00     0.242 C 
ATOM      4  O   UNL A   1      33.979  24.086  21.959  1.00  0.00    -0.273 OA
ATOM      5  H   UNL A   1      35.608  24.151  23.728  1.00  0.00     0.163 HD
BRANCH   3   6
ATOM      6  C   UNL A   1      32.418  22.942  23.422  1.00  0.00     0.176 C 
BRANCH   6   7
ATOM      7  N   UNL A   1      31.200  23.708  23.056  1.00  0.00    -0.337 N 
ATOM      8  C   UNL A   1      30.385  24.552  23.800  1.00  0.00     0.293 C 
ATOM      9  O   UNL A   1      29.357  25.017  23.315  1.00  0.00    -0.265 OA
ATOM     10  H   UNL A   1      30.918  23.597  22.120  1.00  0.00     0.164 HD
BRANCH   8  11
ATOM     11  C   UNL A   1      30.771  24.951  25.225  1.00  0.00     0.252 C 
ATOM     12  O   UNL A   1      30.371  24.188  26.106  1.00  0.00    -0.283 OA
BRANCH  11  13
ATOM     13  C   UNL A   1      31.481  26.204  25.576  1.00  0.00     0.054 A 
ATOM     14  N   UNL A   1      32.506  27.999  26.527  1.00  0.00    -0.240 N 
ATOM     15  C   UNL A   1      31.609  26.948  26.764  1.00  0.00     0.117 A 
ATOM     16  C   UNL A   1      33.074  27.767  25.256  1.00  0.00     0.065 A 
ATOM     17  C   UNL A   1      32.141  26.988  24.584  1.00  0.00     0.012 A 
ATOM     18  C   UNL A   1      34.087  28.463  24.562  1.00  0.00     0.028 A 
ATOM     19  C   UNL A   1      32.078  27.078  23.177  1.00  0.00     0.011 A 
ATOM     20  C   UNL A   1      33.939  28.616  23.185  1.00  0.00     0.002 A 
ATOM     21  C   UNL A   1      32.919  27.967  22.505  1.00  0.00     0.001 A 
BRANCH  14  22
ATOM     22  S   UNL A   1      32.274  29.718  26.743  1.00  0.00     0.268 S 
ATOM     23  O   UNL A   1      31.278  29.768  27.804  1.00  0.00    -0.201 OA
ATOM     24  O   UNL A   1      31.939  30.111  25.377  1.00  0.00    -0.201 OA
BRANCH  22  25
ATOM     25  C   UNL A   1      33.352  31.043  27.141  1.00  0.00     0.088 A 
ATOM     26  C   UNL A   1      36.686  33.310  28.717  1.00  0.00     0.044 C 
ATOM     27  C   UNL A   1      35.524  32.581  28.104  1.00  0.00    -0.051 A 
ATOM     28  C   UNL A   1      35.727  31.250  27.784  1.00  0.00     0.005 A 
ATOM     29  C   UNL A   1      34.244  33.146  27.893  1.00  0.00     0.005 A 
ATOM     30  C   UNL A   1      34.665  30.513  27.298  1.00  0.00     0.022 A 
ATOM     31  C   UNL A   1      33.140  32.380  27.416  1.00  0.00     0.022 A 
ENDBRANCH  22  25
ENDBRANCH  14  22
ENDBRANCH  11  13
ENDBRANCH   8  11
ENDBRANCH   6   7
BRANCH   6  32
ATOM     32  C   UNL A   1      32.404  21.437  22.972  1.00  0.00     0.072 C 
BRANCH  32  33
ATOM     33  C   UNL A   1      32.516  20.378  24.042  1.00  0.00    -0.020 A 
ATOM     34  C   UNL A   1      32.534  20.593  25.411  1.00  0.00     0.087 A 
ATOM     35  C   UNL A   1      32.731  18.967  23.858  1.00  0.00     0.003 A 
ATOM     36  N   UNL A   1      32.898  19.423  26.029  1.00  0.00    -0.361 N 
ATOM     37  C   UNL A   1      33.180  18.468  25.082  1.00  0.00     0.046 A 
ATOM     38  C   UNL A   1      32.782  18.122  22.731  1.00  0.00     0.010 A 
ATOM     39  H   UNL A   1      32.949  19.289  27.003  1.00  0.00     0.166 HD
ATOM     40  C   UNL A   1      33.834  17.236  25.196  1.00  0.00     0.026 A 
ATOM     41  C   UNL A   1      33.441  16.893  22.825  1.00  0.00     0.001 A 
ATOM     42  C   UNL A   1      33.988  16.474  24.035  1.00  0.00     0.002 A 
ENDBRANCH  32  33
ENDBRANCH   6  32
ENDBRANCH   3   6
ENDBRANCH   1   2
BRANCH   1  43
ATOM     43  C   UNL A   1      35.422  23.297  26.378  1.00  0.00     0.023 C 
BRANCH  43  44
ATOM     44  C   UNL A   1      36.271  22.212  25.713  1.00  0.00     0.023 C 
BRANCH  44  45
ATOM     45  C   UNL A   1      37.698  22.617  25.373  1.00  0.00     0.116 C 
BRANCH  45  46
ATOM     46  N   UNL A   1      38.671  22.105  26.341  1.00  0.00    -0.352 N 
ATOM     47  C   UNL A   1      39.791  22.727  26.843  1.00  0.00     0.251 C 
ATOM     48  H   UNL A   1      38.501  21.195  26.676  1.00  0.00     0.163 HD
ATOM     49  O   UNL A   1      40.745  22.017  27.205  1.00  0.00    -0.269 OA
BRANCH  47  50
ATOM     50  C   UNL A   1      39.807  24.183  27.052  1.00  0.00     0.039 A 
ATOM     51  C   UNL A   1      40.346  25.079  26.119  1.00  0.00     0.014 A 
ATOM     52  C   UNL A   1      39.465  24.637  28.320  1.00  0.00     0.014 A 
ATOM     53  C   UNL A   1      40.675  26.369  26.534  1.00  0.00     0.010 A 
ATOM     54  C   UNL A   1      39.517  25.954  28.630  1.00  0.00     0.010 A 
ATOM     55  C   UNL A   1      40.326  26.742  27.825  1.00  0.00    -0.014 A 
BRANCH  55  56
ATOM     56  C   UNL A   1      40.878  27.839  28.590  1.00  0.00     0.031 A 
ATOM     57  C   UNL A   1      40.006  28.944  28.968  1.00  0.00     0.074 A 
ATOM     58  C   UNL A   1      42.005  27.505  29.265  1.00  0.00     0.049 A 
ATOM     59  N   UNL A   1      40.404  29.950  29.657  1.00  0.00    -0.248 NA
ATOM     60  C   UNL A   1      38.602  29.015  28.575  1.00  0.00     0.031 C 
ATOM     61  C   UNL A   1      42.411  27.874  30.615  1.00  0.00     0.029 A 
ATOM     62  N   UNL A   1      43.001  26.615  28.888  1.00  0.00    -0.354 N 
ATOM     63  C   UNL A   1      39.268  30.587  30.091  1.00  0.00     0.074 A 
ATOM     64  C   UNL A   1      38.215  30.112  29.231  1.00  0.00     0.031 C 
ATOM     65  C   UNL A   1      43.659  27.412  30.840  1.00  0.00     0.029 A 
ATOM     66  C   UNL A   1      44.173  26.916  29.571  1.00  0.00     0.049 A 
ATOM     67  H   UNL A   1      42.894  25.885  28.236  1.00  0.00     0.167 HD
ATOM     68  C   UNL A   1      39.336  31.281  31.259  1.00  0.00     0.034 A 
ATOM     69  C   UNL A   1      45.206  27.499  28.878  1.00  0.00     0.034 A 
ATOM     70  C   UNL A   1      40.730  31.325  31.742  1.00  0.00     0.049 A 
ATOM     71  C   UNL A   1      45.402  28.965  29.236  1.00  0.00     0.074 A 
ATOM     72  C   UNL A   1      41.405  30.646  32.742  1.00  0.00     0.029 A 
ATOM     73  N   UNL A   1      41.708  31.911  30.940  1.00  0.00    -0.354 N 
ATOM     74  N   UNL A   1      44.585  29.651  29.987  1.00  0.00    -0.248 NA
ATOM     75  C   UNL A   1      46.540  29.768  28.798  1.00  0.00     0.031 C 
ATOM     76  C   UNL A   1      42.800  30.722  32.452  1.00  0.00     0.029 A 
ATOM     77  C   UNL A   1      42.978  31.488  31.310  1.00  0.00     0.049 A 
ATOM     78  H   UNL A   1      41.524  32.543  30.209  1.00  0.00     0.167 HD
ATOM     79  C   UNL A   1      44.955  30.963  30.020  1.00  0.00     0.074 A 
ATOM     80  C   UNL A   1      46.239  30.967  29.334  1.00  0.00     0.031 C 
ATOM     81  C   UNL A   1      44.148  31.935  30.551  1.00  0.00     0.034 A 
BRANCH  68  82
ATOM     82  C   UNL A   1      38.160  31.747  32.097  1.00  0.00     0.023 A 
ATOM     83  C   UNL A   1      36.876  31.541  31.545  1.00  0.00     0.012 A 
ATOM     84  C   UNL A   1      38.196  32.434  33.338  1.00  0.00     0.148 A 
ATOM     85  C   UNL A   1      35.707  31.988  32.172  1.00  0.00     0.002 A 
ATOM     86  C   UNL A   1      37.025  32.821  33.999  1.00  0.00     0.091 A 
ATOM     87  F   UNL A   1      39.359  32.811  33.870  1.00  0.00    -0.205 F 
ATOM     88  C   UNL A   1      35.778  32.613  33.407  1.00  0.00     0.022 A 
BRANCH  86  89
ATOM     89  S   UNL A   1      37.035  33.590  35.631  1.00  0.00     0.127 S 
ATOM     90  O   UNL A   1      37.911  34.742  35.424  1.00  0.00    -0.237 OA
ATOM     91  O   UNL A   1      35.624  33.925  35.828  1.00  0.00    -0.237 OA
ATOM     92  O   UNL A   1      37.547  32.585  36.556  1.00  0.00    -0.744 OA
ENDBRANCH  86  89
ENDBRANCH  68  82
BRANCH  69  93
ATOM     93  C   UNL A   1      45.341  26.917  27.498  1.00  0.00     0.023 A 
ATOM     94  C   UNL A   1      44.177  26.935  26.690  1.00  0.00     0.012 A 
ATOM     95  C   UNL A   1      46.598  26.838  26.867  1.00  0.00     0.148 A 
ATOM     96  C   UNL A   1      44.276  27.072  25.303  1.00  0.00     0.002 A 
ATOM     97  C   UNL A   1      46.685  26.985  25.481  1.00  0.00     0.091 A 
ATOM     98  F   UNL A   1      47.691  26.699  27.630  1.00  0.00    -0.205 F 
ATOM     99  C   UNL A   1      45.528  27.164  24.707  1.00  0.00     0.022 A 
BRANCH  97 100
ATOM    100  S   UNL A   1      48.276  27.050  24.644  1.00  0.00     0.127 S 
ATOM    101  O   UNL A   1      48.902  28.198  25.299  1.00  0.00    -0.237 OA
ATOM    102  O   UNL A   1      48.879  25.759  24.982  1.00  0.00    -0.237 OA
ATOM    103  O   UNL A   1      47.960  27.206  23.235  1.00  0.00    -0.744 OA
ENDBRANCH  97 100
ENDBRANCH  69  93
BRANCH  81 104
ATOM    104  C   UNL A   1      44.378  33.423  30.378  1.00  0.00     0.023 A 
ATOM    105  C   UNL A   1      44.993  34.211  31.371  1.00  0.00     0.012 A 
ATOM    106  C   UNL A   1      44.119  34.054  29.135  1.00  0.00     0.148 A 
ATOM    107  C   UNL A   1      45.260  35.569  31.177  1.00  0.00     0.002 A 
ATOM    108  C   UNL A   1      44.513  35.367  28.900  1.00  0.00     0.091 A 
ATOM    109  F   UNL A   1      43.469  33.390  28.168  1.00  0.00    -0.205 F 
ATOM    110  C   UNL A   1      45.043  36.143  29.932  1.00  0.00     0.022 A 
BRANCH 108 111
ATOM    111  S   UNL A   1      44.520  36.049  27.237  1.00  0.00     0.127 S 
ATOM    112  O   UNL A   1      43.091  36.153  26.949  1.00  0.00    -0.237 OA
ATOM    113  O   UNL A   1      45.199  37.332  27.430  1.00  0.00    -0.237 OA
ATOM    114  O   UNL A   1      45.269  35.094  26.433  1.00  0.00    -0.744 OA
ENDBRANCH 108 111
ENDBRANCH  81 104
ENDBRANCH  55  56
ENDBRANCH  47  50
ENDBRANCH  45  46
ENDBRANCH  44  45
ENDBRANCH  43  44
ENDBRANCH   1  43
TORSDOF 21
ENDMDL
