MODEL 1
REMARK VINA RESULT:     -11.8      0.000      0.000
REMARK SMILES Cc1cc(OCC(=O)Nc2sccc2C(=O)NCCCCNC(=O)c2ccc(-c3c4nc(c(-c5cccc(S(=O)(=O)[O-])c5F)c5ccc([nH]5)c(-c5cccc(S(=O)(=O)[O-])c5F)c5nc(c(-c6cccc(S(=O)(=O)[O-])c6F)c6ccc3[nH]6)C=C5)C=C4)cc2)ccc1Cl
REMARK SMILES IDX 19 1 18 2 17 3 15 4 16 5 14 7 10 8 11 9 12 10 13 11 9 12
REMARK SMILES IDX 7 13 8 14 6 16 5 17 4 18 1 19 2 20 3 21 90 22 89 23 91 24
REMARK SMILES IDX 88 25 20 26 21 27 22 28 23 29 24 31 25 32 26 33 87 34 27 35
REMARK SMILES IDX 86 36 28 37 29 38 30 39 80 40 31 41 85 42 79 43 81 44 32 45
REMARK SMILES IDX 84 46 78 47 77 48 33 50 65 51 45 52 64 53 46 54 49 55 63 56
REMARK SMILES IDX 82 57 47 58 48 59 62 61 83 62 50 63 34 64 35 65 43 66 36 67
REMARK SMILES IDX 38 68 44 69 37 70 39 71 40 72 41 73 42 74 66 75 67 76 75 77
REMARK SMILES IDX 68 78 70 79 76 80 69 81 71 82 72 83 73 84 74 85 51 86 52 87
REMARK SMILES IDX 60 88 53 89 55 90 61 91 54 92 56 93 57 94 58 95 59 96
REMARK H PARENT 17 6 9 15 22 30 81 49 49 60
REMARK Flexibility Score: inf
ROOT
ATOM      1  C   UNL A   1      31.392  30.830  26.076  1.00  0.00     0.023 C 
ENDROOT
BRANCH   1   2
ATOM      2  C   UNL A   1      32.666  30.070  26.457  1.00  0.00     0.116 C 
BRANCH   2   3
ATOM      3  N   UNL A   1      33.450  29.609  25.332  1.00  0.00    -0.352 N 
ATOM      4  C   UNL A   1      33.117  28.730  24.326  1.00  0.00     0.254 C 
ATOM      5  O   UNL A   1      34.042  28.264  23.654  1.00  0.00    -0.269 OA
ATOM      6  H   UNL A   1      34.360  29.981  25.276  1.00  0.00     0.163 HD
BRANCH   4   7
ATOM      7  C   UNL A   1      31.752  28.239  24.123  1.00  0.00     0.074 A 
ATOM      8  C   UNL A   1      31.012  27.269  24.778  1.00  0.00     0.108 A 
ATOM      9  S   UNL A   1      29.619  26.801  23.888  1.00  0.00    -0.126 S 
ATOM     10  C   UNL A   1      29.777  28.113  22.817  1.00  0.00     0.068 A 
ATOM     11  C   UNL A   1      30.945  28.798  23.049  1.00  0.00     0.028 A 
BRANCH   8  12
ATOM     12  N   UNL A   1      31.117  26.488  25.899  1.00  0.00    -0.314 N 
ATOM     13  C   UNL A   1      31.750  25.305  26.131  1.00  0.00     0.262 C 
ATOM     14  O   UNL A   1      31.421  24.693  27.157  1.00  0.00    -0.271 OA
ATOM     15  H   UNL A   1      30.646  26.851  26.685  1.00  0.00     0.170 HD
BRANCH  13  16
ATOM     16  C   UNL A   1      32.978  24.841  25.336  1.00  0.00     0.329 C 
BRANCH  16  17
ATOM     17  O   UNL A   1      32.851  24.028  24.200  1.00  0.00    -0.484 OA
BRANCH  17  18
ATOM     18  C   UNL A   1      33.269  22.729  24.223  1.00  0.00     0.120 A 
ATOM     19  C   UNL A   1      36.127  20.337  25.051  1.00  0.00     0.046 C 
ATOM     20  C   UNL A   1      34.764  20.854  24.679  1.00  0.00    -0.029 A 
ATOM     21  C   UNL A   1      34.539  22.245  24.539  1.00  0.00     0.051 A 
ATOM     22  C   UNL A   1      33.688  19.970  24.516  1.00  0.00     0.044 A 
ATOM     23  C   UNL A   1      32.435  20.450  24.149  1.00  0.00     0.024 A 
ATOM     24  Cl  UNL A   1      33.847  18.275  24.795  1.00  0.00    -0.084 Cl
ATOM     25  C   UNL A   1      32.238  21.818  23.987  1.00  0.00     0.048 A 
ENDBRANCH  17  18
ENDBRANCH  16  17
ENDBRANCH  13  16
ENDBRANCH   8  12
ENDBRANCH   4   7
ENDBRANCH   2   3
ENDBRANCH   1   2
BRANCH   1  26
ATOM     26  C   UNL A   1      31.349  32.312  26.481  1.00  0.00     0.023 C 
BRANCH  26  27
ATOM     27  C   UNL A   1      32.573  32.859  27.223  1.00  0.00     0.116 C 
BRANCH  27  28
ATOM     28  N   UNL A   1      32.432  34.221  27.700  1.00  0.00    -0.352 N 
ATOM     29  C   UNL A   1      33.156  34.929  28.633  1.00  0.00     0.251 C 
ATOM     30  H   UNL A   1      31.694  34.724  27.287  1.00  0.00     0.163 HD
ATOM     31  O   UNL A   1      32.806  36.077  28.904  1.00  0.00    -0.269 OA
BRANCH  29  32
ATOM     32  C   UNL A   1      34.317  34.342  29.359  1.00  0.00     0.039 A 
ATOM     33  C   UNL A   1      34.050  33.516  30.456  1.00  0.00     0.014 A 
ATOM     34  C   UNL A   1      35.646  34.640  29.050  1.00  0.00     0.014 A 
ATOM     35  C   UNL A   1      35.098  32.939  31.187  1.00  0.00     0.010 A 
ATOM     36  C   UNL A   1      36.696  34.013  29.744  1.00  0.00     0.010 A 
ATOM     37  C   UNL A   1      36.438  33.149  30.821  1.00  0.00    -0.014 A 
BRANCH  37  38
ATOM     38  C   UNL A   1      37.544  32.450  31.548  1.00  0.00     0.031 A 
ATOM     39  C   UNL A   1      38.292  31.295  30.925  1.00  0.00     0.074 A 
ATOM     40  C   UNL A   1      37.878  32.840  32.797  1.00  0.00     0.049 A 
ATOM     41  N   UNL A   1      39.291  30.601  31.414  1.00  0.00    -0.248 NA
ATOM     42  C   UNL A   1      37.859  30.853  29.591  1.00  0.00     0.031 C 
ATOM     43  C   UNL A   1      37.212  33.897  33.561  1.00  0.00     0.029 A 
ATOM     44  N   UNL A   1      38.857  32.385  33.653  1.00  0.00    -0.354 N 
ATOM     45  C   UNL A   1      39.593  29.633  30.461  1.00  0.00     0.074 A 
ATOM     46  C   UNL A   1      38.648  29.808  29.379  1.00  0.00     0.031 C 
ATOM     47  C   UNL A   1      37.810  34.022  34.757  1.00  0.00     0.029 A 
ATOM     48  C   UNL A   1      38.884  33.040  34.864  1.00  0.00     0.049 A 
ATOM     49  H   UNL A   1      39.479  31.659  33.419  1.00  0.00     0.167 HD
ATOM     50  C   UNL A   1      40.582  28.705  30.465  1.00  0.00     0.034 A 
ATOM     51  C   UNL A   1      39.680  32.876  35.941  1.00  0.00     0.034 A 
ATOM     52  C   UNL A   1      41.558  28.545  31.511  1.00  0.00     0.049 A 
ATOM     53  C   UNL A   1      40.783  31.849  35.906  1.00  0.00     0.074 A 
ATOM     54  C   UNL A   1      42.631  27.669  31.559  1.00  0.00     0.029 A 
ATOM     55  N   UNL A   1      41.589  29.273  32.689  1.00  0.00    -0.354 N 
ATOM     56  N   UNL A   1      41.141  31.054  34.930  1.00  0.00    -0.248 NA
ATOM     57  C   UNL A   1      41.615  31.725  37.115  1.00  0.00     0.031 C 
ATOM     58  C   UNL A   1      43.305  27.861  32.770  1.00  0.00     0.029 A 
ATOM     59  C   UNL A   1      42.660  28.865  33.470  1.00  0.00     0.049 A 
ATOM     60  H   UNL A   1      40.946  29.976  32.935  1.00  0.00     0.167 HD
ATOM     61  C   UNL A   1      42.260  30.366  35.389  1.00  0.00     0.074 A 
ATOM     62  C   UNL A   1      42.537  30.855  36.723  1.00  0.00     0.031 C 
ATOM     63  C   UNL A   1      42.980  29.401  34.767  1.00  0.00     0.034 A 
BRANCH  50  64
ATOM     64  C   UNL A   1      40.720  27.821  29.250  1.00  0.00     0.023 A 
ATOM     65  C   UNL A   1      39.897  26.683  29.136  1.00  0.00     0.012 A 
ATOM     66  C   UNL A   1      41.580  28.163  28.188  1.00  0.00     0.148 A 
ATOM     67  C   UNL A   1      39.943  25.885  27.994  1.00  0.00     0.002 A 
ATOM     68  C   UNL A   1      41.593  27.383  27.036  1.00  0.00     0.091 A 
ATOM     69  F   UNL A   1      42.365  29.242  28.321  1.00  0.00    -0.205 F 
ATOM     70  C   UNL A   1      40.781  26.240  26.941  1.00  0.00     0.022 A 
BRANCH  68  71
ATOM     71  S   UNL A   1      42.581  27.796  25.593  1.00  0.00     0.127 S 
ATOM     72  O   UNL A   1      41.952  29.041  25.153  1.00  0.00    -0.237 OA
ATOM     73  O   UNL A   1      43.917  27.958  26.167  1.00  0.00    -0.237 OA
ATOM     74  O   UNL A   1      42.445  26.671  24.679  1.00  0.00    -0.744 OA
ENDBRANCH  68  71
ENDBRANCH  50  64
BRANCH  51  75
ATOM     75  C   UNL A   1      39.517  33.753  37.136  1.00  0.00     0.023 A 
ATOM     76  C   UNL A   1      40.073  35.049  37.121  1.00  0.00     0.012 A 
ATOM     77  C   UNL A   1      38.829  33.317  38.284  1.00  0.00     0.148 A 
ATOM     78  C   UNL A   1      39.978  35.878  38.239  1.00  0.00     0.002 A 
ATOM     79  C   UNL A   1      38.690  34.169  39.374  1.00  0.00     0.091 A 
ATOM     80  F   UNL A   1      38.327  32.074  38.291  1.00  0.00    -0.205 F 
ATOM     81  C   UNL A   1      39.280  35.443  39.361  1.00  0.00     0.022 A 
BRANCH  79  82
ATOM     82  S   UNL A   1      37.697  33.730  40.804  1.00  0.00     0.127 S 
ATOM     83  O   UNL A   1      37.537  35.020  41.467  1.00  0.00    -0.237 OA
ATOM     84  O   UNL A   1      36.481  33.200  40.183  1.00  0.00    -0.237 OA
ATOM     85  O   UNL A   1      38.480  32.732  41.521  1.00  0.00    -0.744 OA
ENDBRANCH  79  82
ENDBRANCH  51  75
BRANCH  63  86
ATOM     86  C   UNL A   1      44.167  28.825  35.495  1.00  0.00     0.023 A 
ATOM     87  C   UNL A   1      45.450  29.366  35.274  1.00  0.00     0.012 A 
ATOM     88  C   UNL A   1      44.006  27.798  36.447  1.00  0.00     0.148 A 
ATOM     89  C   UNL A   1      46.557  28.876  35.968  1.00  0.00     0.002 A 
ATOM     90  C   UNL A   1      45.108  27.343  37.166  1.00  0.00     0.091 A 
ATOM     91  F   UNL A   1      42.783  27.280  36.630  1.00  0.00    -0.205 F 
ATOM     92  C   UNL A   1      46.384  27.873  36.919  1.00  0.00     0.022 A 
BRANCH  90  93
ATOM     93  S   UNL A   1      44.966  26.118  38.472  1.00  0.00     0.127 S 
ATOM     94  O   UNL A   1      44.095  26.799  39.427  1.00  0.00    -0.237 OA
ATOM     95  O   UNL A   1      44.344  24.990  37.777  1.00  0.00    -0.237 OA
ATOM     96  O   UNL A   1      46.325  25.866  38.931  1.00  0.00    -0.744 OA
ENDBRANCH  90  93
ENDBRANCH  63  86
ENDBRANCH  37  38
ENDBRANCH  29  32
ENDBRANCH  27  28
ENDBRANCH  26  27
ENDBRANCH   1  26
TORSDOF 18
ENDMDL
MODEL 2
REMARK VINA RESULT:     -11.7      1.283      7.775
REMARK SMILES Cc1cc(OCC(=O)Nc2sccc2C(=O)NCCCCNC(=O)c2ccc(-c3c4nc(c(-c5cccc(S(=O)(=O)[O-])c5F)c5ccc([nH]5)c(-c5cccc(S(=O)(=O)[O-])c5F)c5nc(c(-c6cccc(S(=O)(=O)[O-])c6F)c6ccc3[nH]6)C=C5)C=C4)cc2)ccc1Cl
REMARK SMILES IDX 19 1 18 2 17 3 15 4 16 5 14 7 10 8 11 9 12 10 13 11 9 12
REMARK SMILES IDX 7 13 8 14 6 16 5 17 4 18 1 19 2 20 3 21 90 22 89 23 91 24
REMARK SMILES IDX 88 25 20 26 21 27 22 28 23 29 24 31 25 32 26 33 87 34 27 35
REMARK SMILES IDX 86 36 28 37 29 38 30 39 80 40 31 41 85 42 79 43 81 44 32 45
REMARK SMILES IDX 84 46 78 47 77 48 33 50 65 51 45 52 64 53 46 54 49 55 63 56
REMARK SMILES IDX 82 57 47 58 48 59 62 61 83 62 50 63 34 64 35 65 43 66 36 67
REMARK SMILES IDX 38 68 44 69 37 70 39 71 40 72 41 73 42 74 66 75 67 76 75 77
REMARK SMILES IDX 68 78 70 79 76 80 69 81 71 82 72 83 73 84 74 85 51 86 52 87
REMARK SMILES IDX 60 88 53 89 55 90 61 91 54 92 56 93 57 94 58 95 59 96
REMARK H PARENT 17 6 9 15 22 30 81 49 49 60
REMARK Flexibility Score: inf
ROOT
ATOM      1  C   UNL A   1      31.420  30.862  25.950  1.00  0.00     0.023 C 
ENDROOT
BRANCH   1   2
ATOM      2  C   UNL A   1      32.520  29.948  26.498  1.00  0.00     0.116 C 
BRANCH   2   3
ATOM      3  N   UNL A   1      33.369  29.357  25.486  1.00  0.00    -0.352 N 
ATOM      4  C   UNL A   1      33.087  28.382  24.557  1.00  0.00     0.254 C 
ATOM      5  O   UNL A   1      34.045  27.833  24.006  1.00  0.00    -0.269 OA
ATOM      6  H   UNL A   1      34.290  29.706  25.458  1.00  0.00     0.163 HD
BRANCH   4   7
ATOM      7  C   UNL A   1      31.728  27.894  24.308  1.00  0.00     0.074 A 
ATOM      8  C   UNL A   1      30.978  26.901  24.915  1.00  0.00     0.108 A 
ATOM      9  S   UNL A   1      29.606  26.460  23.980  1.00  0.00    -0.126 S 
ATOM     10  C   UNL A   1      29.782  27.807  22.958  1.00  0.00     0.068 A 
ATOM     11  C   UNL A   1      30.942  28.487  23.237  1.00  0.00     0.028 A 
BRANCH   8  12
ATOM     12  N   UNL A   1      31.062  26.083  26.012  1.00  0.00    -0.314 N 
ATOM     13  C   UNL A   1      31.792  24.960  26.258  1.00  0.00     0.262 C 
ATOM     14  O   UNL A   1      31.437  24.271  27.225  1.00  0.00    -0.271 OA
ATOM     15  H   UNL A   1      30.486  26.359  26.762  1.00  0.00     0.170 HD
BRANCH  13  16
ATOM     16  C   UNL A   1      33.129  24.660  25.567  1.00  0.00     0.329 C 
BRANCH  16  17
ATOM     17  O   UNL A   1      33.453  23.368  25.131  1.00  0.00    -0.484 OA
BRANCH  17  18
ATOM     18  C   UNL A   1      34.693  22.845  25.365  1.00  0.00     0.120 A 
ATOM     19  C   UNL A   1      37.014  19.857  24.861  1.00  0.00     0.046 C 
ATOM     20  C   UNL A   1      36.518  21.231  25.219  1.00  0.00    -0.029 A 
ATOM     21  C   UNL A   1      35.150  21.562  25.062  1.00  0.00     0.051 A 
ATOM     22  C   UNL A   1      37.411  22.217  25.665  1.00  0.00     0.044 A 
ATOM     23  C   UNL A   1      36.944  23.478  26.017  1.00  0.00     0.024 A 
ATOM     24  Cl  UNL A   1      39.110  21.935  25.760  1.00  0.00    -0.084 Cl
ATOM     25  C   UNL A   1      35.591  23.779  25.884  1.00  0.00     0.048 A 
ENDBRANCH  17  18
ENDBRANCH  16  17
ENDBRANCH  13  16
ENDBRANCH   8  12
ENDBRANCH   4   7
ENDBRANCH   2   3
ENDBRANCH   1   2
BRANCH   1  26
ATOM     26  C   UNL A   1      31.326  32.255  26.591  1.00  0.00     0.023 C 
BRANCH  26  27
ATOM     27  C   UNL A   1      32.568  32.756  27.336  1.00  0.00     0.116 C 
BRANCH  27  28
ATOM     28  N   UNL A   1      32.470  34.117  27.827  1.00  0.00    -0.352 N 
ATOM     29  C   UNL A   1      33.293  34.833  28.669  1.00  0.00     0.251 C 
ATOM     30  H   UNL A   1      31.684  34.613  27.504  1.00  0.00     0.163 HD
ATOM     31  O   UNL A   1      32.965  35.977  28.980  1.00  0.00    -0.269 OA
BRANCH  29  32
ATOM     32  C   UNL A   1      34.537  34.258  29.253  1.00  0.00     0.039 A 
ATOM     33  C   UNL A   1      34.414  33.475  30.405  1.00  0.00     0.014 A 
ATOM     34  C   UNL A   1      35.813  34.528  28.756  1.00  0.00     0.014 A 
ATOM     35  C   UNL A   1      35.547  32.911  31.009  1.00  0.00     0.010 A 
ATOM     36  C   UNL A   1      36.943  33.914  29.325  1.00  0.00     0.010 A 
ATOM     37  C   UNL A   1      36.826  33.091  30.458  1.00  0.00    -0.014 A 
BRANCH  37  38
ATOM     38  C   UNL A   1      38.016  32.406  31.055  1.00  0.00     0.031 A 
ATOM     39  C   UNL A   1      38.646  32.893  32.338  1.00  0.00     0.074 A 
ATOM     40  C   UNL A   1      38.559  31.338  30.431  1.00  0.00     0.049 A 
ATOM     41  N   UNL A   1      39.664  32.394  32.998  1.00  0.00    -0.248 NA
ATOM     42  C   UNL A   1      38.072  34.097  32.956  1.00  0.00     0.031 C 
ATOM     43  C   UNL A   1      38.106  30.783  29.154  1.00  0.00     0.029 A 
ATOM     44  N   UNL A   1      39.618  30.532  30.781  1.00  0.00    -0.354 N 
ATOM     45  C   UNL A   1      39.864  33.230  34.092  1.00  0.00     0.074 A 
ATOM     46  C   UNL A   1      38.881  34.288  33.990  1.00  0.00     0.031 C 
ATOM     47  C   UNL A   1      38.866  29.721  28.839  1.00  0.00     0.029 A 
ATOM     48  C   UNL A   1      39.880  29.531  29.871  1.00  0.00     0.049 A 
ATOM     49  H   UNL A   1      40.141  30.659  31.605  1.00  0.00     0.167 HD
ATOM     50  C   UNL A   1      40.755  33.116  35.107  1.00  0.00     0.034 A 
ATOM     51  C   UNL A   1      40.822  28.565  29.864  1.00  0.00     0.034 A 
ATOM     52  C   UNL A   1      41.709  32.046  35.250  1.00  0.00     0.049 A 
ATOM     53  C   UNL A   1      41.787  28.453  31.016  1.00  0.00     0.074 A 
ATOM     54  C   UNL A   1      42.605  31.826  36.284  1.00  0.00     0.029 A 
ATOM     55  N   UNL A   1      41.895  31.018  34.340  1.00  0.00    -0.354 N 
ATOM     56  N   UNL A   1      41.850  29.165  32.113  1.00  0.00    -0.248 NA
ATOM     57  C   UNL A   1      42.787  27.375  30.944  1.00  0.00     0.031 C 
ATOM     58  C   UNL A   1      43.337  30.670  35.995  1.00  0.00     0.029 A 
ATOM     59  C   UNL A   1      42.889  30.163  34.788  1.00  0.00     0.049 A 
ATOM     60  H   UNL A   1      41.393  30.911  33.500  1.00  0.00     0.167 HD
ATOM     61  C   UNL A   1      42.867  28.600  32.876  1.00  0.00     0.074 A 
ATOM     62  C   UNL A   1      43.377  27.471  32.129  1.00  0.00     0.031 C 
ATOM     63  C   UNL A   1      43.349  28.997  34.080  1.00  0.00     0.034 A 
BRANCH  50  64
ATOM     64  C   UNL A   1      40.697  34.141  36.211  1.00  0.00     0.023 A 
ATOM     65  C   UNL A   1      41.183  35.441  35.964  1.00  0.00     0.012 A 
ATOM     66  C   UNL A   1      40.081  33.856  37.446  1.00  0.00     0.148 A 
ATOM     67  C   UNL A   1      41.078  36.436  36.935  1.00  0.00     0.002 A 
ATOM     68  C   UNL A   1      39.946  34.864  38.395  1.00  0.00     0.091 A 
ATOM     69  F   UNL A   1      39.637  32.611  37.668  1.00  0.00    -0.205 F 
ATOM     70  C   UNL A   1      40.450  36.152  38.144  1.00  0.00     0.022 A 
BRANCH  68  71
ATOM     71  S   UNL A   1      39.086  34.623  39.954  1.00  0.00     0.127 S 
ATOM     72  O   UNL A   1      38.940  35.999  40.426  1.00  0.00    -0.237 OA
ATOM     73  O   UNL A   1      37.838  33.990  39.527  1.00  0.00    -0.237 OA
ATOM     74  O   UNL A   1      39.951  33.774  40.762  1.00  0.00    -0.744 OA
ENDBRANCH  68  71
ENDBRANCH  50  64
BRANCH  51  75
ATOM     75  C   UNL A   1      40.868  27.569  28.755  1.00  0.00     0.023 A 
ATOM     76  C   UNL A   1      39.928  26.519  28.732  1.00  0.00     0.012 A 
ATOM     77  C   UNL A   1      41.833  27.646  27.733  1.00  0.00     0.148 A 
ATOM     78  C   UNL A   1      39.971  25.545  27.734  1.00  0.00     0.002 A 
ATOM     79  C   UNL A   1      41.836  26.703  26.711  1.00  0.00     0.091 A 
ATOM     80  F   UNL A   1      42.735  28.637  27.782  1.00  0.00    -0.205 F 
ATOM     81  C   UNL A   1      40.919  25.641  26.719  1.00  0.00     0.022 A 
BRANCH  79  82
ATOM     82  S   UNL A   1      42.942  26.832  25.301  1.00  0.00     0.127 S 
ATOM     83  O   UNL A   1      42.711  25.561  24.621  1.00  0.00    -0.237 OA
ATOM     84  O   UNL A   1      42.417  28.008  24.606  1.00  0.00    -0.237 OA
ATOM     85  O   UNL A   1      44.268  27.023  25.873  1.00  0.00    -0.744 OA
ENDBRANCH  79  82
ENDBRANCH  51  75
BRANCH  63  86
ATOM     86  C   UNL A   1      44.460  28.188  34.698  1.00  0.00     0.023 A 
ATOM     87  C   UNL A   1      45.800  28.572  34.490  1.00  0.00     0.012 A 
ATOM     88  C   UNL A   1      44.179  27.093  35.539  1.00  0.00     0.148 A 
ATOM     89  C   UNL A   1      46.843  27.863  35.086  1.00  0.00     0.002 A 
ATOM     90  C   UNL A   1      45.222  26.416  36.165  1.00  0.00     0.091 A 
ATOM     91  F   UNL A   1      42.899  26.729  35.710  1.00  0.00    -0.205 F 
ATOM     92  C   UNL A   1      46.553  26.793  35.931  1.00  0.00     0.022 A 
BRANCH  90  93
ATOM     93  S   UNL A   1      44.939  25.084  37.337  1.00  0.00     0.127 S 
ATOM     94  O   UNL A   1      46.303  24.738  37.730  1.00  0.00    -0.237 OA
ATOM     95  O   UNL A   1      44.154  25.746  38.379  1.00  0.00    -0.237 OA
ATOM     96  O   UNL A   1      44.217  24.054  36.603  1.00  0.00    -0.744 OA
ENDBRANCH  90  93
ENDBRANCH  63  86
ENDBRANCH  37  38
ENDBRANCH  29  32
ENDBRANCH  27  28
ENDBRANCH  26  27
ENDBRANCH   1  26
TORSDOF 18
ENDMDL
MODEL 3
REMARK VINA RESULT:     -11.4      5.442      8.668
REMARK SMILES Cc1cc(OCC(=O)Nc2sccc2C(=O)NCCCCNC(=O)c2ccc(-c3c4nc(c(-c5cccc(S(=O)(=O)[O-])c5F)c5ccc([nH]5)c(-c5cccc(S(=O)(=O)[O-])c5F)c5nc(c(-c6cccc(S(=O)(=O)[O-])c6F)c6ccc3[nH]6)C=C5)C=C4)cc2)ccc1Cl
REMARK SMILES IDX 19 1 18 2 17 3 15 4 16 5 14 7 10 8 11 9 12 10 13 11 9 12
REMARK SMILES IDX 7 13 8 14 6 16 5 17 4 18 1 19 2 20 3 21 90 22 89 23 91 24
REMARK SMILES IDX 88 25 20 26 21 27 22 28 23 29 24 31 25 32 26 33 87 34 27 35
REMARK SMILES IDX 86 36 28 37 29 38 30 39 80 40 31 41 85 42 79 43 81 44 32 45
REMARK SMILES IDX 84 46 78 47 77 48 33 50 65 51 45 52 64 53 46 54 49 55 63 56
REMARK SMILES IDX 82 57 47 58 48 59 62 61 83 62 50 63 34 64 35 65 43 66 36 67
REMARK SMILES IDX 38 68 44 69 37 70 39 71 40 72 41 73 42 74 66 75 67 76 75 77
REMARK SMILES IDX 68 78 70 79 76 80 69 81 71 82 72 83 73 84 74 85 51 86 52 87
REMARK SMILES IDX 60 88 53 89 55 90 61 91 54 92 56 93 57 94 58 95 59 96
REMARK H PARENT 17 6 9 15 22 30 81 49 49 60
REMARK Flexibility Score: inf
ROOT
ATOM      1  C   UNL A   1      34.653  23.879  24.825  1.00  0.00     0.023 C 
ENDROOT
BRANCH   1   2
ATOM      2  C   UNL A   1      34.161  25.318  25.001  1.00  0.00     0.116 C 
BRANCH   2   3
ATOM      3  N   UNL A   1      34.233  26.128  23.804  1.00  0.00    -0.352 N 
ATOM      4  C   UNL A   1      33.669  27.354  23.533  1.00  0.00     0.254 C 
ATOM      5  O   UNL A   1      33.620  27.704  22.351  1.00  0.00    -0.269 OA
ATOM      6  H   UNL A   1      34.766  25.744  23.070  1.00  0.00     0.163 HD
BRANCH   4   7
ATOM      7  C   UNL A   1      33.020  28.172  24.561  1.00  0.00     0.074 A 
ATOM      8  C   UNL A   1      32.049  29.155  24.482  1.00  0.00     0.108 A 
ATOM      9  S   UNL A   1      31.936  30.077  25.927  1.00  0.00    -0.126 S 
ATOM     10  C   UNL A   1      32.898  28.971  26.789  1.00  0.00     0.068 A 
ATOM     11  C   UNL A   1      33.409  28.008  25.954  1.00  0.00     0.028 A 
BRANCH   8  12
ATOM     12  N   UNL A   1      31.204  29.684  23.541  1.00  0.00    -0.314 N 
ATOM     13  C   UNL A   1      30.405  29.103  22.602  1.00  0.00     0.262 C 
ATOM     14  O   UNL A   1      29.987  29.841  21.700  1.00  0.00    -0.271 OA
ATOM     15  H   UNL A   1      31.169  30.669  23.543  1.00  0.00     0.170 HD
BRANCH  13  16
ATOM     16  C   UNL A   1      29.828  27.689  22.751  1.00  0.00     0.329 C 
BRANCH  16  17
ATOM     17  O   UNL A   1      29.533  27.148  24.010  1.00  0.00    -0.484 OA
BRANCH  17  18
ATOM     18  C   UNL A   1      29.950  25.891  24.343  1.00  0.00     0.120 A 
ATOM     19  C   UNL A   1      31.625  22.685  23.123  1.00  0.00     0.046 C 
ATOM     20  C   UNL A   1      31.023  23.721  24.033  1.00  0.00    -0.029 A 
ATOM     21  C   UNL A   1      30.482  24.916  23.499  1.00  0.00     0.051 A 
ATOM     22  C   UNL A   1      31.034  23.540  25.424  1.00  0.00     0.044 A 
ATOM     23  C   UNL A   1      30.456  24.489  26.259  1.00  0.00     0.024 A 
ATOM     24  Cl  UNL A   1      31.789  22.175  26.161  1.00  0.00    -0.084 Cl
ATOM     25  C   UNL A   1      29.903  25.645  25.716  1.00  0.00     0.048 A 
ENDBRANCH  17  18
ENDBRANCH  16  17
ENDBRANCH  13  16
ENDBRANCH   8  12
ENDBRANCH   4   7
ENDBRANCH   2   3
ENDBRANCH   1   2
BRANCH   1  26
ATOM     26  C   UNL A   1      36.178  23.685  24.837  1.00  0.00     0.023 C 
BRANCH  26  27
ATOM     27  C   UNL A   1      36.810  23.283  26.174  1.00  0.00     0.116 C 
BRANCH  27  28
ATOM     28  N   UNL A   1      37.959  22.405  26.059  1.00  0.00    -0.352 N 
ATOM     29  C   UNL A   1      39.286  22.613  26.362  1.00  0.00     0.251 C 
ATOM     30  H   UNL A   1      37.755  21.510  25.704  1.00  0.00     0.163 HD
ATOM     31  O   UNL A   1      40.092  21.713  26.128  1.00  0.00    -0.269 OA
BRANCH  29  32
ATOM     32  C   UNL A   1      39.788  23.900  26.919  1.00  0.00     0.039 A 
ATOM     33  C   UNL A   1      39.912  24.985  26.044  1.00  0.00     0.014 A 
ATOM     34  C   UNL A   1      40.214  24.051  28.240  1.00  0.00     0.014 A 
ATOM     35  C   UNL A   1      40.386  26.222  26.503  1.00  0.00     0.010 A 
ATOM     36  C   UNL A   1      40.631  25.307  28.715  1.00  0.00     0.010 A 
ATOM     37  C   UNL A   1      40.719  26.413  27.854  1.00  0.00    -0.014 A 
BRANCH  37  38
ATOM     38  C   UNL A   1      41.132  27.763  28.352  1.00  0.00     0.031 A 
ATOM     39  C   UNL A   1      42.580  28.192  28.362  1.00  0.00     0.074 A 
ATOM     40  C   UNL A   1      40.199  28.619  28.824  1.00  0.00     0.049 A 
ATOM     41  N   UNL A   1      43.098  29.337  28.737  1.00  0.00    -0.248 NA
ATOM     42  C   UNL A   1      43.576  27.213  27.904  1.00  0.00     0.031 C 
ATOM     43  C   UNL A   1      38.768  28.333  28.939  1.00  0.00     0.029 A 
ATOM     44  N   UNL A   1      40.316  29.903  29.306  1.00  0.00    -0.354 N 
ATOM     45  C   UNL A   1      44.474  29.209  28.580  1.00  0.00     0.074 A 
ATOM     46  C   UNL A   1      44.715  27.863  28.105  1.00  0.00     0.031 C 
ATOM     47  C   UNL A   1      38.140  29.410  29.438  1.00  0.00     0.029 A 
ATOM     48  C   UNL A   1      39.120  30.457  29.707  1.00  0.00     0.049 A 
ATOM     49  H   UNL A   1      41.175  30.382  29.360  1.00  0.00     0.167 HD
ATOM     50  C   UNL A   1      45.449  30.131  28.777  1.00  0.00     0.034 A 
ATOM     51  C   UNL A   1      38.836  31.669  30.228  1.00  0.00     0.034 A 
ATOM     52  C   UNL A   1      45.226  31.488  29.205  1.00  0.00     0.049 A 
ATOM     53  C   UNL A   1      39.939  32.678  30.417  1.00  0.00     0.074 A 
ATOM     54  C   UNL A   1      46.157  32.502  29.368  1.00  0.00     0.029 A 
ATOM     55  N   UNL A   1      43.993  32.026  29.536  1.00  0.00    -0.354 N 
ATOM     56  N   UNL A   1      41.209  32.582  30.114  1.00  0.00    -0.248 NA
ATOM     57  C   UNL A   1      39.558  33.981  30.989  1.00  0.00     0.031 C 
ATOM     58  C   UNL A   1      45.488  33.650  29.805  1.00  0.00     0.029 A 
ATOM     59  C   UNL A   1      44.139  33.355  29.903  1.00  0.00     0.049 A 
ATOM     60  H   UNL A   1      43.140  31.537  29.513  1.00  0.00     0.167 HD
ATOM     61  C   UNL A   1      41.770  33.818  30.419  1.00  0.00     0.074 A 
ATOM     62  C   UNL A   1      40.697  34.657  30.909  1.00  0.00     0.031 C 
ATOM     63  C   UNL A   1      43.062  34.214  30.321  1.00  0.00     0.034 A 
BRANCH  50  64
ATOM     64  C   UNL A   1      46.867  29.734  28.454  1.00  0.00     0.023 A 
ATOM     65  C   UNL A   1      47.397  30.057  27.188  1.00  0.00     0.012 A 
ATOM     66  C   UNL A   1      47.702  29.137  29.420  1.00  0.00     0.148 A 
ATOM     67  C   UNL A   1      48.726  29.773  26.880  1.00  0.00     0.002 A 
ATOM     68  C   UNL A   1      49.036  28.891  29.119  1.00  0.00     0.091 A 
ATOM     69  F   UNL A   1      47.176  28.825  30.614  1.00  0.00    -0.205 F 
ATOM     70  C   UNL A   1      49.548  29.202  27.847  1.00  0.00     0.022 A 
BRANCH  68  71
ATOM     71  S   UNL A   1      50.198  28.227  30.317  1.00  0.00     0.127 S 
ATOM     72  O   UNL A   1      50.314  29.338  31.262  1.00  0.00    -0.237 OA
ATOM     73  O   UNL A   1      49.480  27.061  30.834  1.00  0.00    -0.237 OA
ATOM     74  O   UNL A   1      51.409  27.913  29.572  1.00  0.00    -0.744 OA
ENDBRANCH  68  71
ENDBRANCH  50  64
BRANCH  51  75
ATOM     75  C   UNL A   1      37.427  32.036  30.552  1.00  0.00     0.023 A 
ATOM     76  C   UNL A   1      36.924  31.768  31.841  1.00  0.00     0.012 A 
ATOM     77  C   UNL A   1      36.583  32.636  29.599  1.00  0.00     0.148 A 
ATOM     78  C   UNL A   1      35.597  32.056  32.163  1.00  0.00     0.002 A 
ATOM     79  C   UNL A   1      35.278  32.972  29.944  1.00  0.00     0.091 A 
ATOM     80  F   UNL A   1      37.070  32.863  28.371  1.00  0.00    -0.205 F 
ATOM     81  C   UNL A   1      34.777  32.666  31.218  1.00  0.00     0.022 A 
BRANCH  79  82
ATOM     82  S   UNL A   1      34.201  33.874  28.825  1.00  0.00     0.127 S 
ATOM     83  O   UNL A   1      35.080  34.943  28.358  1.00  0.00    -0.237 OA
ATOM     84  O   UNL A   1      33.879  32.858  27.822  1.00  0.00    -0.237 OA
ATOM     85  O   UNL A   1      33.065  34.287  29.639  1.00  0.00    -0.744 OA
ENDBRANCH  79  82
ENDBRANCH  51  75
BRANCH  63  86
ATOM     86  C   UNL A   1      43.400  35.629  30.712  1.00  0.00     0.023 A 
ATOM     87  C   UNL A   1      43.800  35.912  32.033  1.00  0.00     0.012 A 
ATOM     88  C   UNL A   1      43.389  36.667  29.758  1.00  0.00     0.148 A 
ATOM     89  C   UNL A   1      44.156  37.208  32.406  1.00  0.00     0.002 A 
ATOM     90  C   UNL A   1      43.787  37.949  30.126  1.00  0.00     0.091 A 
ATOM     91  F   UNL A   1      42.986  36.385  28.510  1.00  0.00    -0.205 F 
ATOM     92  C   UNL A   1      44.160  38.222  31.451  1.00  0.00     0.022 A 
BRANCH  90  93
ATOM     93  S   UNL A   1      43.907  39.297  28.944  1.00  0.00     0.127 S 
ATOM     94  O   UNL A   1      45.077  38.904  28.161  1.00  0.00    -0.237 OA
ATOM     95  O   UNL A   1      42.635  39.199  28.229  1.00  0.00    -0.237 OA
ATOM     96  O   UNL A   1      44.060  40.509  29.737  1.00  0.00    -0.744 OA
ENDBRANCH  90  93
ENDBRANCH  63  86
ENDBRANCH  37  38
ENDBRANCH  29  32
ENDBRANCH  27  28
ENDBRANCH  26  27
ENDBRANCH   1  26
TORSDOF 18
ENDMDL
