MODEL 1
REMARK VINA RESULT:     -13.2      0.000      0.000
REMARK SMILES Cc1cc(C[N@H+]2CC[C@@H](C(=O)NCCCCNC(=O)c3ccc(-c4c5nc(c(-c6cccc(S(=O)(=O)[O-])c6F)c6ccc([nH]6)c(-c6cccc(S(=O)(=O)[O-])c6F)c6nc(c(-c7cccc(S(=O)(=O)[O-])c7F)c7ccc4[nH]7)C=C6)C=C5)cc3)[C@@H]2C)ccc1Br
REMARK SMILES IDX 15 1 14 2 13 3 12 4 10 5 11 6 9 8 6 9 7 10 83 11 8 13 84 14
REMARK SMILES IDX 5 15 4 16 1 17 2 18 3 19 87 20 86 21 88 22 85 23 16 24 17 25
REMARK SMILES IDX 18 26 19 28 20 29 21 30 82 31 22 32 81 33 23 34 24 35 25 36
REMARK SMILES IDX 75 37 26 38 80 39 74 40 76 41 27 42 79 43 73 44 72 45 28 47
REMARK SMILES IDX 60 48 40 49 59 50 41 51 44 52 58 53 77 54 42 55 43 56 57 58
REMARK SMILES IDX 78 59 45 60 29 61 30 62 38 63 31 64 33 65 39 66 32 67 34 68
REMARK SMILES IDX 35 69 36 70 37 71 61 72 62 73 70 74 63 75 65 76 71 77 64 78
REMARK SMILES IDX 66 79 67 80 68 81 69 82 46 83 47 84 55 85 48 86 50 87 56 88
REMARK SMILES IDX 49 89 51 90 52 91 53 92 54 93
REMARK H PARENT 12 7 6 12 17 27 76 46 44 57
REMARK Flexibility Score: inf
ROOT
ATOM      1  C   UNL A   1      37.696  19.588  24.607  1.00  0.00     0.023 C 
ENDROOT
BRANCH   1   2
ATOM      2  C   UNL A   1      36.336  18.571  24.905  1.00  0.00     0.023 C 
BRANCH   2   3
ATOM      3  C   UNL A   1      34.184  18.598  24.493  1.00  0.00     0.116 C 
BRANCH   3   4
ATOM      4  N   UNL A   1      33.178  19.782  24.073  1.00  0.00    -0.356 N 
ATOM      5  C   UNL A   1      33.041  21.101  24.358  1.00  0.00     0.229 C 
ATOM      6  O   UNL A   1      32.128  21.691  23.765  1.00  0.00    -0.275 OA
ATOM      7  H   UNL A   1      32.485  19.468  23.448  1.00  0.00     0.163 HD
BRANCH   5   8
ATOM      8  C   UNL A   1      33.894  21.890  25.346  1.00  0.00     0.142 C 
ATOM      9  N   UNL A   1      33.127  23.692  26.759  1.00  0.00    -0.328 N 
ATOM     10  C   UNL A   1      33.445  22.562  27.634  1.00  0.00     0.263 C 
ATOM     11  C   UNL A   1      33.600  23.387  25.401  1.00  0.00     0.193 C 
ATOM     12  H   UNL A   1      33.623  24.510  27.112  1.00  0.00     0.348 HD
ATOM     13  C   UNL A   1      33.871  21.383  26.774  1.00  0.00     0.081 C 
ATOM     14  C   UNL A   1      34.841  24.241  25.132  1.00  0.00     0.076 C 
BRANCH   9  15
ATOM     15  C   UNL A   1      31.728  24.121  26.806  1.00  0.00     0.299 C 
BRANCH  15  16
ATOM     16  C   UNL A   1      31.419  25.305  25.936  1.00  0.00     0.007 A 
ATOM     17  C   UNL A   1      32.052  29.745  25.845  1.00  0.00     0.045 C 
ATOM     18  C   UNL A   1      31.524  28.398  25.463  1.00  0.00    -0.036 A 
ATOM     19  C   UNL A   1      32.031  26.943  26.403  1.00  0.00     0.014 A 
ATOM     20  C   UNL A   1      30.430  28.218  24.045  1.00  0.00     0.020 A 
ATOM     21  C   UNL A   1      29.831  26.599  23.556  1.00  0.00     0.016 A 
ATOM     22  Br  UNL A   1      29.650  29.749  23.244  1.00  0.00    -0.051 Br
ATOM     23  C   UNL A   1      30.359  25.127  24.470  1.00  0.00     0.011 A 
ENDBRANCH  15  16
ENDBRANCH   9  15
ENDBRANCH   5   8
ENDBRANCH   3   4
ENDBRANCH   2   3
ENDBRANCH   1   2
BRANCH   1  24
ATOM     24  C   UNL A   1      38.613  19.856  25.795  1.00  0.00     0.116 C 
BRANCH  24  25
ATOM     25  N   UNL A   1      39.801  19.015  25.845  1.00  0.00    -0.352 N 
ATOM     26  C   UNL A   1      41.057  19.398  26.249  1.00  0.00     0.251 C 
ATOM     27  H   UNL A   1      39.692  18.078  25.562  1.00  0.00     0.163 HD
ATOM     28  O   UNL A   1      42.008  18.626  26.233  1.00  0.00    -0.269 OA
BRANCH  26  29
ATOM     29  C   UNL A   1      41.227  20.812  26.615  1.00  0.00     0.039 A 
ATOM     30  C   UNL A   1      42.103  21.118  27.655  1.00  0.00     0.014 A 
ATOM     31  C   UNL A   1      40.699  21.810  25.794  1.00  0.00     0.014 A 
ATOM     32  C   UNL A   1      42.498  22.438  27.838  1.00  0.00     0.010 A 
ATOM     33  C   UNL A   1      41.177  23.108  25.915  1.00  0.00     0.010 A 
ATOM     34  C   UNL A   1      42.069  23.437  26.947  1.00  0.00    -0.014 A 
BRANCH  34  35
ATOM     35  C   UNL A   1      42.530  24.835  27.121  1.00  0.00     0.031 A 
ATOM     36  C   UNL A   1      41.632  25.831  27.804  1.00  0.00     0.074 A 
ATOM     37  C   UNL A   1      43.734  25.212  26.648  1.00  0.00     0.049 A 
ATOM     38  N   UNL A   1      41.873  27.078  28.108  1.00  0.00    -0.248 NA
ATOM     39  C   UNL A   1      40.279  25.378  28.173  1.00  0.00     0.031 C 
ATOM     40  C   UNL A   1      44.650  24.360  25.883  1.00  0.00     0.029 A 
ATOM     41  N   UNL A   1      44.394  26.412  26.730  1.00  0.00    -0.354 N 
ATOM     42  C   UNL A   1      40.698  27.564  28.665  1.00  0.00     0.074 A 
ATOM     43  C   UNL A   1      39.729  26.494  28.626  1.00  0.00     0.031 C 
ATOM     44  C   UNL A   1      45.755  25.060  25.578  1.00  0.00     0.029 A 
ATOM     45  C   UNL A   1      45.622  26.414  26.107  1.00  0.00     0.049 A 
ATOM     46  H   UNL A   1      44.025  27.199  27.192  1.00  0.00     0.167 HD
ATOM     47  C   UNL A   1      40.455  28.784  29.192  1.00  0.00     0.034 A 
ATOM     48  C   UNL A   1      46.534  27.399  25.980  1.00  0.00     0.034 A 
ATOM     49  C   UNL A   1      41.441  29.825  29.280  1.00  0.00     0.049 A 
ATOM     50  C   UNL A   1      46.263  28.725  26.641  1.00  0.00     0.074 A 
ATOM     51  C   UNL A   1      41.334  31.056  29.899  1.00  0.00     0.029 A 
ATOM     52  N   UNL A   1      42.705  29.761  28.719  1.00  0.00    -0.354 N 
ATOM     53  N   UNL A   1      45.218  29.099  27.341  1.00  0.00    -0.248 NA
ATOM     54  C   UNL A   1      47.311  29.750  26.536  1.00  0.00     0.031 C 
ATOM     55  C   UNL A   1      42.525  31.754  29.679  1.00  0.00     0.029 A 
ATOM     56  C   UNL A   1      43.385  30.941  28.958  1.00  0.00     0.049 A 
ATOM     57  H   UNL A   1      43.066  28.991  28.223  1.00  0.00     0.167 HD
ATOM     58  C   UNL A   1      45.497  30.386  27.785  1.00  0.00     0.074 A 
ATOM     59  C   UNL A   1      46.821  30.717  27.301  1.00  0.00     0.031 C 
ATOM     60  C   UNL A   1      44.723  31.228  28.513  1.00  0.00     0.034 A 
BRANCH  47  61
ATOM     61  C   UNL A   1      39.086  29.052  29.753  1.00  0.00     0.023 A 
ATOM     62  C   UNL A   1      38.776  28.657  31.071  1.00  0.00     0.012 A 
ATOM     63  C   UNL A   1      38.134  29.764  29.000  1.00  0.00     0.148 A 
ATOM     64  C   UNL A   1      37.529  28.946  31.622  1.00  0.00     0.002 A 
ATOM     65  C   UNL A   1      36.911  30.091  29.573  1.00  0.00     0.091 A 
ATOM     66  F   UNL A   1      38.442  30.107  27.742  1.00  0.00    -0.205 F 
ATOM     67  C   UNL A   1      36.603  29.674  30.879  1.00  0.00     0.022 A 
BRANCH  65  68
ATOM     68  S   UNL A   1      35.684  31.096  28.731  1.00  0.00     0.127 S 
ATOM     69  O   UNL A   1      35.004  30.099  27.905  1.00  0.00    -0.237 OA
ATOM     70  O   UNL A   1      34.891  31.605  29.849  1.00  0.00    -0.237 OA
ATOM     71  O   UNL A   1      36.427  32.109  27.995  1.00  0.00    -0.744 OA
ENDBRANCH  65  68
ENDBRANCH  47  61
BRANCH  48  72
ATOM     72  C   UNL A   1      47.805  27.162  25.236  1.00  0.00     0.023 A 
ATOM     73  C   UNL A   1      48.910  26.586  25.894  1.00  0.00     0.012 A 
ATOM     74  C   UNL A   1      47.928  27.515  23.878  1.00  0.00     0.148 A 
ATOM     75  C   UNL A   1      50.125  26.409  25.228  1.00  0.00     0.002 A 
ATOM     76  C   UNL A   1      49.121  27.281  23.204  1.00  0.00     0.091 A 
ATOM     77  F   UNL A   1      46.874  28.076  23.269  1.00  0.00    -0.205 F 
ATOM     78  C   UNL A   1      50.228  26.748  23.881  1.00  0.00     0.022 A 
BRANCH  76  79
ATOM     79  S   UNL A   1      49.292  27.563  21.438  1.00  0.00     0.127 S 
ATOM     80  O   UNL A   1      48.040  27.017  20.925  1.00  0.00    -0.237 OA
ATOM     81  O   UNL A   1      49.403  29.022  21.373  1.00  0.00    -0.237 OA
ATOM     82  O   UNL A   1      50.505  26.857  21.048  1.00  0.00    -0.744 OA
ENDBRANCH  76  79
ENDBRANCH  48  72
BRANCH  60  83
ATOM     83  C   UNL A   1      45.295  32.574  28.869  1.00  0.00     0.023 A 
ATOM     84  C   UNL A   1      46.046  32.729  30.049  1.00  0.00     0.012 A 
ATOM     85  C   UNL A   1      45.156  33.662  27.986  1.00  0.00     0.148 A 
ATOM     86  C   UNL A   1      46.622  33.959  30.363  1.00  0.00     0.002 A 
ATOM     87  C   UNL A   1      45.779  34.868  28.279  1.00  0.00     0.091 A 
ATOM     88  F   UNL A   1      44.423  33.497  26.875  1.00  0.00    -0.205 F 
ATOM     89  C   UNL A   1      46.500  35.022  29.473  1.00  0.00     0.022 A 
BRANCH  87  90
ATOM     90  S   UNL A   1      45.764  36.257  27.140  1.00  0.00     0.127 S 
ATOM     91  O   UNL A   1      46.379  35.671  25.949  1.00  0.00    -0.237 OA
ATOM     92  O   UNL A   1      44.334  36.538  27.012  1.00  0.00    -0.237 OA
ATOM     93  O   UNL A   1      46.532  37.314  27.783  1.00  0.00    -0.744 OA
ENDBRANCH  87  90
ENDBRANCH  60  83
ENDBRANCH  34  35
ENDBRANCH  26  29
ENDBRANCH  24  25
ENDBRANCH   1  24
TORSDOF 16
ENDMDL
MODEL 2
REMARK VINA RESULT:     -13.2      5.423      8.665
REMARK SMILES Cc1cc(C[N@H+]2CC[C@@H](C(=O)NCCCCNC(=O)c3ccc(-c4c5nc(c(-c6cccc(S(=O)(=O)[O-])c6F)c6ccc([nH]6)c(-c6cccc(S(=O)(=O)[O-])c6F)c6nc(c(-c7cccc(S(=O)(=O)[O-])c7F)c7ccc4[nH]7)C=C6)C=C5)cc3)[C@@H]2C)ccc1Br
REMARK SMILES IDX 15 1 14 2 13 3 12 4 10 5 11 6 9 8 6 9 7 10 83 11 8 13 84 14
REMARK SMILES IDX 5 15 4 16 1 17 2 18 3 19 87 20 86 21 88 22 85 23 16 24 17 25
REMARK SMILES IDX 18 26 19 28 20 29 21 30 82 31 22 32 81 33 23 34 24 35 25 36
REMARK SMILES IDX 75 37 26 38 80 39 74 40 76 41 27 42 79 43 73 44 72 45 28 47
REMARK SMILES IDX 60 48 40 49 59 50 41 51 44 52 58 53 77 54 42 55 43 56 57 58
REMARK SMILES IDX 78 59 45 60 29 61 30 62 38 63 31 64 33 65 39 66 32 67 34 68
REMARK SMILES IDX 35 69 36 70 37 71 61 72 62 73 70 74 63 75 65 76 71 77 64 78
REMARK SMILES IDX 66 79 67 80 68 81 69 82 46 83 47 84 55 85 48 86 50 87 56 88
REMARK SMILES IDX 49 89 51 90 52 91 53 92 54 93
REMARK H PARENT 12 7 6 12 17 27 76 46 44 57
REMARK Flexibility Score: inf
ROOT
ATOM      1  C   UNL A   1      31.817  30.010  26.822  1.00  0.00     0.023 C 
ENDROOT
BRANCH   1   2
ATOM      2  C   UNL A   1      31.944  28.388  27.392  1.00  0.00     0.023 C 
BRANCH   2   3
ATOM      3  C   UNL A   1      32.082  26.382  26.521  1.00  0.00     0.116 C 
BRANCH   3   4
ATOM      4  N   UNL A   1      31.279  25.018  26.813  1.00  0.00    -0.356 N 
ATOM      5  C   UNL A   1      31.581  23.698  26.890  1.00  0.00     0.229 C 
ATOM      6  O   UNL A   1      30.648  22.945  27.199  1.00  0.00    -0.275 OA
ATOM      7  H   UNL A   1      30.323  25.186  26.980  1.00  0.00     0.163 HD
BRANCH   5   8
ATOM      8  C   UNL A   1      32.948  23.081  26.611  1.00  0.00     0.142 C 
ATOM      9  N   UNL A   1      33.806  22.451  24.444  1.00  0.00    -0.328 N 
ATOM     10  C   UNL A   1      34.594  23.596  24.905  1.00  0.00     0.263 C 
ATOM     11  C   UNL A   1      32.959  21.984  25.551  1.00  0.00     0.193 C 
ATOM     12  H   UNL A   1      34.454  21.710  24.182  1.00  0.00     0.348 HD
ATOM     13  C   UNL A   1      34.041  24.064  26.240  1.00  0.00     0.081 C 
ATOM     14  C   UNL A   1      33.543  20.669  26.069  1.00  0.00     0.076 C 
BRANCH   9  15
ATOM     15  C   UNL A   1      33.067  22.682  23.202  1.00  0.00     0.299 C 
BRANCH  15  16
ATOM     16  C   UNL A   1      32.463  24.052  23.091  1.00  0.00     0.007 A 
ATOM     17  C   UNL A   1      33.723  28.303  22.405  1.00  0.00     0.045 C 
ATOM     18  C   UNL A   1      32.842  27.140  22.742  1.00  0.00    -0.036 A 
ATOM     19  C   UNL A   1      33.522  25.469  22.709  1.00  0.00     0.014 A 
ATOM     20  C   UNL A   1      31.104  27.398  23.128  1.00  0.00     0.020 A 
ATOM     21  C   UNL A   1      30.034  26.002  23.489  1.00  0.00     0.016 A 
ATOM     22  Br  UNL A   1      30.451  29.145  23.467  1.00  0.00    -0.051 Br
ATOM     23  C   UNL A   1      30.696  24.317  23.426  1.00  0.00     0.011 A 
ENDBRANCH  15  16
ENDBRANCH   9  15
ENDBRANCH   5   8
ENDBRANCH   3   4
ENDBRANCH   2   3
ENDBRANCH   1   2
BRANCH   1  24
ATOM     24  C   UNL A   1      33.111  30.815  26.782  1.00  0.00     0.116 C 
BRANCH  24  25
ATOM     25  N   UNL A   1      32.999  32.167  27.312  1.00  0.00    -0.352 N 
ATOM     26  C   UNL A   1      33.955  32.846  28.029  1.00  0.00     0.251 C 
ATOM     27  H   UNL A   1      32.155  32.643  27.138  1.00  0.00     0.163 HD
ATOM     28  O   UNL A   1      33.764  33.975  28.461  1.00  0.00    -0.269 OA
BRANCH  26  29
ATOM     29  C   UNL A   1      35.192  32.110  28.336  1.00  0.00     0.039 A 
ATOM     30  C   UNL A   1      36.401  32.797  28.248  1.00  0.00     0.014 A 
ATOM     31  C   UNL A   1      35.119  30.840  28.910  1.00  0.00     0.014 A 
ATOM     32  C   UNL A   1      37.544  32.225  28.796  1.00  0.00     0.010 A 
ATOM     33  C   UNL A   1      36.239  30.321  29.546  1.00  0.00     0.010 A 
ATOM     34  C   UNL A   1      37.465  31.000  29.482  1.00  0.00    -0.014 A 
BRANCH  34  35
ATOM     35  C   UNL A   1      38.679  30.418  30.102  1.00  0.00     0.031 A 
ATOM     36  C   UNL A   1      39.088  30.855  31.482  1.00  0.00     0.074 A 
ATOM     37  C   UNL A   1      39.420  29.522  29.419  1.00  0.00     0.049 A 
ATOM     38  N   UNL A   1      40.075  30.422  32.219  1.00  0.00    -0.248 NA
ATOM     39  C   UNL A   1      38.304  31.935  32.107  1.00  0.00     0.031 C 
ATOM     40  C   UNL A   1      39.177  29.095  28.038  1.00  0.00     0.029 A 
ATOM     41  N   UNL A   1      40.536  28.814  29.790  1.00  0.00    -0.354 N 
ATOM     42  C   UNL A   1      40.053  31.198  33.371  1.00  0.00     0.074 A 
ATOM     43  C   UNL A   1      38.981  32.154  33.224  1.00  0.00     0.031 C 
ATOM     44  C   UNL A   1      40.107  28.192  27.684  1.00  0.00     0.029 A 
ATOM     45  C   UNL A   1      41.023  27.989  28.802  1.00  0.00     0.049 A 
ATOM     46  H   UNL A   1      40.950  28.890  30.680  1.00  0.00     0.167 HD
ATOM     47  C   UNL A   1      40.836  31.102  34.468  1.00  0.00     0.034 A 
ATOM     48  C   UNL A   1      42.088  27.162  28.802  1.00  0.00     0.034 A 
ATOM     49  C   UNL A   1      41.862  30.112  34.630  1.00  0.00     0.049 A 
ATOM     50  C   UNL A   1      42.897  27.025  30.066  1.00  0.00     0.074 A 
ATOM     51  C   UNL A   1      42.634  29.853  35.748  1.00  0.00     0.029 A 
ATOM     52  N   UNL A   1      42.269  29.230  33.643  1.00  0.00    -0.354 N 
ATOM     53  N   UNL A   1      42.732  27.629  31.219  1.00  0.00    -0.248 NA
ATOM     54  C   UNL A   1      44.009  26.065  30.047  1.00  0.00     0.031 C 
ATOM     55  C   UNL A   1      43.536  28.836  35.423  1.00  0.00     0.029 A 
ATOM     56  C   UNL A   1      43.298  28.437  34.117  1.00  0.00     0.049 A 
ATOM     57  H   UNL A   1      41.883  29.176  32.739  1.00  0.00     0.167 HD
ATOM     58  C   UNL A   1      43.695  27.098  32.069  1.00  0.00     0.074 A 
ATOM     59  C   UNL A   1      44.421  26.103  31.307  1.00  0.00     0.031 C 
ATOM     60  C   UNL A   1      43.969  27.415  33.358  1.00  0.00     0.034 A 
BRANCH  47  61
ATOM     61  C   UNL A   1      40.590  32.063  35.598  1.00  0.00     0.023 A 
ATOM     62  C   UNL A   1      41.421  33.192  35.755  1.00  0.00     0.012 A 
ATOM     63  C   UNL A   1      39.488  31.888  36.456  1.00  0.00     0.148 A 
ATOM     64  C   UNL A   1      41.172  34.119  36.766  1.00  0.00     0.002 A 
ATOM     65  C   UNL A   1      39.219  32.842  37.430  1.00  0.00     0.091 A 
ATOM     66  F   UNL A   1      38.728  30.795  36.304  1.00  0.00    -0.205 F 
ATOM     67  C   UNL A   1      40.065  33.951  37.593  1.00  0.00     0.022 A 
BRANCH  65  68
ATOM     68  S   UNL A   1      37.772  32.761  38.490  1.00  0.00     0.127 S 
ATOM     69  O   UNL A   1      36.687  32.907  37.519  1.00  0.00    -0.237 OA
ATOM     70  O   UNL A   1      37.895  31.425  39.070  1.00  0.00    -0.237 OA
ATOM     71  O   UNL A   1      37.904  33.857  39.440  1.00  0.00    -0.744 OA
ENDBRANCH  65  68
ENDBRANCH  47  61
BRANCH  48  72
ATOM     72  C   UNL A   1      42.430  26.366  27.588  1.00  0.00     0.023 A 
ATOM     73  C   UNL A   1      43.124  26.971  26.521  1.00  0.00     0.012 A 
ATOM     74  C   UNL A   1      42.061  25.011  27.480  1.00  0.00     0.148 A 
ATOM     75  C   UNL A   1      43.402  26.257  25.354  1.00  0.00     0.002 A 
ATOM     76  C   UNL A   1      42.393  24.288  26.340  1.00  0.00     0.091 A 
ATOM     77  F   UNL A   1      41.388  24.453  28.496  1.00  0.00    -0.205 F 
ATOM     78  C   UNL A   1      43.045  24.913  25.267  1.00  0.00     0.022 A 
BRANCH  76  79
ATOM     79  S   UNL A   1      42.090  22.523  26.207  1.00  0.00     0.127 S 
ATOM     80  O   UNL A   1      42.773  22.196  24.959  1.00  0.00    -0.237 OA
ATOM     81  O   UNL A   1      42.737  22.011  27.417  1.00  0.00    -0.237 OA
ATOM     82  O   UNL A   1      40.641  22.377  26.200  1.00  0.00    -0.744 OA
ENDBRANCH  76  79
ENDBRANCH  48  72
BRANCH  60  83
ATOM     83  C   UNL A   1      45.072  26.657  34.047  1.00  0.00     0.023 A 
ATOM     84  C   UNL A   1      46.350  27.233  34.172  1.00  0.00     0.012 A 
ATOM     85  C   UNL A   1      44.811  25.408  34.645  1.00  0.00     0.148 A 
ATOM     86  C   UNL A   1      47.365  26.562  34.852  1.00  0.00     0.002 A 
ATOM     87  C   UNL A   1      45.812  24.771  35.368  1.00  0.00     0.091 A 
ATOM     88  F   UNL A   1      43.591  24.870  34.501  1.00  0.00    -0.205 F 
ATOM     89  C   UNL A   1      47.092  25.339  35.460  1.00  0.00     0.022 A 
BRANCH  87  90
ATOM     90  S   UNL A   1      45.519  23.247  36.272  1.00  0.00     0.127 S 
ATOM     91  O   UNL A   1      46.818  22.584  36.165  1.00  0.00    -0.237 OA
ATOM     92  O   UNL A   1      45.194  23.739  37.611  1.00  0.00    -0.237 OA
ATOM     93  O   UNL A   1      44.419  22.579  35.591  1.00  0.00    -0.744 OA
ENDBRANCH  87  90
ENDBRANCH  60  83
ENDBRANCH  34  35
ENDBRANCH  26  29
ENDBRANCH  24  25
ENDBRANCH   1  24
TORSDOF 16
ENDMDL
MODEL 3
REMARK VINA RESULT:     -13.1      1.262      1.920
REMARK SMILES Cc1cc(C[N@H+]2CC[C@@H](C(=O)NCCCCNC(=O)c3ccc(-c4c5nc(c(-c6cccc(S(=O)(=O)[O-])c6F)c6ccc([nH]6)c(-c6cccc(S(=O)(=O)[O-])c6F)c6nc(c(-c7cccc(S(=O)(=O)[O-])c7F)c7ccc4[nH]7)C=C6)C=C5)cc3)[C@@H]2C)ccc1Br
REMARK SMILES IDX 15 1 14 2 13 3 12 4 10 5 11 6 9 8 6 9 7 10 83 11 8 13 84 14
REMARK SMILES IDX 5 15 4 16 1 17 2 18 3 19 87 20 86 21 88 22 85 23 16 24 17 25
REMARK SMILES IDX 18 26 19 28 20 29 21 30 82 31 22 32 81 33 23 34 24 35 25 36
REMARK SMILES IDX 75 37 26 38 80 39 74 40 76 41 27 42 79 43 73 44 72 45 28 47
REMARK SMILES IDX 60 48 40 49 59 50 41 51 44 52 58 53 77 54 42 55 43 56 57 58
REMARK SMILES IDX 78 59 45 60 29 61 30 62 38 63 31 64 33 65 39 66 32 67 34 68
REMARK SMILES IDX 35 69 36 70 37 71 61 72 62 73 70 74 63 75 65 76 71 77 64 78
REMARK SMILES IDX 66 79 67 80 68 81 69 82 46 83 47 84 55 85 48 86 50 87 56 88
REMARK SMILES IDX 49 89 51 90 52 91 53 92 54 93
REMARK H PARENT 12 7 6 12 17 27 76 46 44 57
REMARK Flexibility Score: inf
ROOT
ATOM      1  C   UNL A   1      38.080  20.634  25.072  1.00  0.00     0.023 C 
ENDROOT
BRANCH   1   2
ATOM      2  C   UNL A   1      37.178  22.098  24.942  1.00  0.00     0.023 C 
BRANCH   2   3
ATOM      3  C   UNL A   1      35.906  23.325  26.238  1.00  0.00     0.116 C 
BRANCH   3   4
ATOM      4  N   UNL A   1      34.712  22.951  27.249  1.00  0.00    -0.356 N 
ATOM      5  C   UNL A   1      33.443  22.486  27.139  1.00  0.00     0.229 C 
ATOM      6  O   UNL A   1      32.849  22.276  28.206  1.00  0.00    -0.275 OA
ATOM      7  H   UNL A   1      34.969  23.097  28.188  1.00  0.00     0.163 HD
BRANCH   5   8
ATOM      8  C   UNL A   1      32.701  22.225  25.833  1.00  0.00     0.142 C 
ATOM      9  N   UNL A   1      32.821  23.580  23.837  1.00  0.00    -0.328 N 
ATOM     10  C   UNL A   1      33.475  22.305  23.535  1.00  0.00     0.263 C 
ATOM     11  C   UNL A   1      32.151  23.469  25.142  1.00  0.00     0.193 C 
ATOM     12  H   UNL A   1      32.123  23.752  23.115  1.00  0.00     0.348 HD
ATOM     13  C   UNL A   1      33.477  21.446  24.789  1.00  0.00     0.081 C 
ATOM     14  C   UNL A   1      30.644  23.388  24.891  1.00  0.00     0.076 C 
BRANCH   9  15
ATOM     15  C   UNL A   1      33.692  24.750  23.726  1.00  0.00     0.299 C 
BRANCH  15  16
ATOM     16  C   UNL A   1      33.163  25.978  24.408  1.00  0.00     0.007 A 
ATOM     17  C   UNL A   1      30.294  29.344  23.653  1.00  0.00     0.045 C 
ATOM     18  C   UNL A   1      31.364  28.540  24.323  1.00  0.00    -0.036 A 
ATOM     19  C   UNL A   1      31.886  26.972  23.597  1.00  0.00     0.014 A 
ATOM     20  C   UNL A   1      32.094  29.104  25.868  1.00  0.00     0.020 A 
ATOM     21  C   UNL A   1      33.345  28.120  26.698  1.00  0.00     0.016 A 
ATOM     22  Br  UNL A   1      31.786  30.872  26.478  1.00  0.00    -0.051 Br
ATOM     23  C   UNL A   1      33.854  26.528  25.997  1.00  0.00     0.011 A 
ENDBRANCH  15  16
ENDBRANCH   9  15
ENDBRANCH   5   8
ENDBRANCH   3   4
ENDBRANCH   2   3
ENDBRANCH   1   2
BRANCH   1  24
ATOM     24  C   UNL A   1      39.313  20.677  25.968  1.00  0.00     0.116 C 
BRANCH  24  25
ATOM     25  N   UNL A   1      40.116  19.463  25.951  1.00  0.00    -0.352 N 
ATOM     26  C   UNL A   1      41.469  19.375  26.174  1.00  0.00     0.251 C 
ATOM     27  H   UNL A   1      39.642  18.621  25.762  1.00  0.00     0.163 HD
ATOM     28  O   UNL A   1      42.070  18.309  26.114  1.00  0.00    -0.269 OA
BRANCH  26  29
ATOM     29  C   UNL A   1      42.182  20.642  26.400  1.00  0.00     0.039 A 
ATOM     30  C   UNL A   1      42.522  21.409  25.286  1.00  0.00     0.014 A 
ATOM     31  C   UNL A   1      42.302  21.150  27.694  1.00  0.00     0.014 A 
ATOM     32  C   UNL A   1      42.934  22.723  25.473  1.00  0.00     0.010 A 
ATOM     33  C   UNL A   1      42.614  22.492  27.867  1.00  0.00     0.010 A 
ATOM     34  C   UNL A   1      42.947  23.287  26.760  1.00  0.00    -0.014 A 
BRANCH  34  35
ATOM     35  C   UNL A   1      43.346  24.702  26.947  1.00  0.00     0.031 A 
ATOM     36  C   UNL A   1      42.392  25.659  27.608  1.00  0.00     0.074 A 
ATOM     37  C   UNL A   1      44.545  25.129  26.503  1.00  0.00     0.049 A 
ATOM     38  N   UNL A   1      42.574  26.915  27.919  1.00  0.00    -0.248 NA
ATOM     39  C   UNL A   1      41.050  25.149  27.944  1.00  0.00     0.031 C 
ATOM     40  C   UNL A   1      45.513  24.317  25.760  1.00  0.00     0.029 A 
ATOM     41  N   UNL A   1      45.153  26.355  26.601  1.00  0.00    -0.354 N 
ATOM     42  C   UNL A   1      41.366  27.351  28.447  1.00  0.00     0.074 A 
ATOM     43  C   UNL A   1      40.444  26.241  28.385  1.00  0.00     0.031 C 
ATOM     44  C   UNL A   1      46.596  25.063  25.482  1.00  0.00     0.029 A 
ATOM     45  C   UNL A   1      46.394  26.409  26.008  1.00  0.00     0.049 A 
ATOM     46  H   UNL A   1      44.740  27.125  27.055  1.00  0.00     0.167 HD
ATOM     47  C   UNL A   1      41.061  28.559  28.970  1.00  0.00     0.034 A 
ATOM     48  C   UNL A   1      47.268  27.431  25.904  1.00  0.00     0.034 A 
ATOM     49  C   UNL A   1      42.000  29.639  29.082  1.00  0.00     0.049 A 
ATOM     50  C   UNL A   1      46.926  28.744  26.560  1.00  0.00     0.074 A 
ATOM     51  C   UNL A   1      41.828  30.864  29.699  1.00  0.00     0.029 A 
ATOM     52  N   UNL A   1      43.279  29.629  28.551  1.00  0.00    -0.354 N 
ATOM     53  N   UNL A   1      45.850  29.073  27.234  1.00  0.00    -0.248 NA
ATOM     54  C   UNL A   1      47.933  29.811  26.480  1.00  0.00     0.031 C 
ATOM     55  C   UNL A   1      42.994  31.610  29.509  1.00  0.00     0.029 A 
ATOM     56  C   UNL A   1      43.904  30.835  28.808  1.00  0.00     0.049 A 
ATOM     57  H   UNL A   1      43.684  28.874  28.064  1.00  0.00     0.167 HD
ATOM     58  C   UNL A   1      46.065  30.370  27.686  1.00  0.00     0.074 A 
ATOM     59  C   UNL A   1      47.385  30.756  27.234  1.00  0.00     0.031 C 
ATOM     60  C   UNL A   1      45.240  31.177  28.396  1.00  0.00     0.034 A 
BRANCH  47  61
ATOM     61  C   UNL A   1      39.669  28.769  29.498  1.00  0.00     0.023 A 
ATOM     62  C   UNL A   1      39.326  28.302  30.784  1.00  0.00     0.012 A 
ATOM     63  C   UNL A   1      38.725  29.498  28.750  1.00  0.00     0.148 A 
ATOM     64  C   UNL A   1      38.055  28.536  31.306  1.00  0.00     0.002 A 
ATOM     65  C   UNL A   1      37.478  29.769  29.298  1.00  0.00     0.091 A 
ATOM     66  F   UNL A   1      39.066  29.910  27.521  1.00  0.00    -0.205 F 
ATOM     67  C   UNL A   1      37.138  29.280  30.570  1.00  0.00     0.022 A 
BRANCH  65  68
ATOM     68  S   UNL A   1      36.256  30.790  28.467  1.00  0.00     0.127 S 
ATOM     69  O   UNL A   1      36.087  30.075  27.202  1.00  0.00    -0.237 OA
ATOM     70  O   UNL A   1      35.115  30.698  29.377  1.00  0.00    -0.237 OA
ATOM     71  O   UNL A   1      36.845  32.117  28.355  1.00  0.00    -0.744 OA
ENDBRANCH  65  68
ENDBRANCH  47  61
BRANCH  48  72
ATOM     72  C   UNL A   1      48.565  27.248  25.191  1.00  0.00     0.023 A 
ATOM     73  C   UNL A   1      49.717  26.870  25.909  1.00  0.00     0.012 A 
ATOM     74  C   UNL A   1      48.665  27.456  23.802  1.00  0.00     0.148 A 
ATOM     75  C   UNL A   1      50.951  26.749  25.267  1.00  0.00     0.002 A 
ATOM     76  C   UNL A   1      49.884  27.276  23.158  1.00  0.00     0.091 A 
ATOM     77  F   UNL A   1      47.565  27.830  23.133  1.00  0.00    -0.205 F 
ATOM     78  C   UNL A   1      51.033  26.944  23.890  1.00  0.00     0.022 A 
BRANCH  76  79
ATOM     79  S   UNL A   1      50.044  27.374  21.371  1.00  0.00     0.127 S 
ATOM     80  O   UNL A   1      48.988  26.471  20.926  1.00  0.00    -0.237 OA
ATOM     81  O   UNL A   1      49.789  28.794  21.121  1.00  0.00    -0.237 OA
ATOM     82  O   UNL A   1      51.409  26.954  21.080  1.00  0.00    -0.744 OA
ENDBRANCH  76  79
ENDBRANCH  48  72
BRANCH  60  83
ATOM     83  C   UNL A   1      45.746  32.545  28.766  1.00  0.00     0.023 A 
ATOM     84  C   UNL A   1      46.458  32.730  29.967  1.00  0.00     0.012 A 
ATOM     85  C   UNL A   1      45.588  33.627  27.878  1.00  0.00     0.148 A 
ATOM     86  C   UNL A   1      46.975  33.982  30.296  1.00  0.00     0.002 A 
ATOM     87  C   UNL A   1      46.155  34.858  28.187  1.00  0.00     0.091 A 
ATOM     88  F   UNL A   1      44.894  33.433  26.747  1.00  0.00    -0.205 F 
ATOM     89  C   UNL A   1      46.835  35.040  29.401  1.00  0.00     0.022 A 
BRANCH  87  90
ATOM     90  S   UNL A   1      46.116  36.245  27.047  1.00  0.00     0.127 S 
ATOM     91  O   UNL A   1      44.695  36.589  27.047  1.00  0.00    -0.237 OA
ATOM     92  O   UNL A   1      46.980  37.219  27.714  1.00  0.00    -0.237 OA
ATOM     93  O   UNL A   1      46.636  35.742  25.783  1.00  0.00    -0.744 OA
ENDBRANCH  87  90
ENDBRANCH  60  83
ENDBRANCH  34  35
ENDBRANCH  26  29
ENDBRANCH  24  25
ENDBRANCH   1  24
TORSDOF 16
ENDMDL
