MODEL 1
REMARK VINA RESULT:     -12.4      0.000      0.000
REMARK SMILES COc1cccc([C@@H]2CN(C(=O)c3cnn(C)c3)C[C@H]2C(=O)NCCCCNC(=O)c2ccc(-c3c4nc(c(-c5cccc(S(=O)(=O)[O-])c5F)c5ccc([nH]5)c(-c5cccc(S(=O)(=O)[O-])c5F)c5nc(c(-c6cccc(S(=O)(=O)[O-])c6F)c6ccc3[nH]6)C=C5)C=C4)cc2)c1OC
REMARK SMILES IDX 26 1 25 2 24 3 23 4 21 5 22 6 20 8 8 9 9 10 10 11 19 12 7 13
REMARK SMILES IDX 3 14 4 15 94 16 5 17 6 18 2 19 1 20 95 21 96 22 11 23 12 24
REMARK SMILES IDX 13 25 14 26 18 27 15 28 16 29 17 30 27 31 28 32 29 33 30 35
REMARK SMILES IDX 31 36 32 37 93 38 33 39 92 40 34 41 35 42 36 43 86 44 37 45
REMARK SMILES IDX 91 46 85 47 87 48 38 49 90 50 84 51 83 52 39 54 71 55 51 56
REMARK SMILES IDX 70 57 52 58 55 59 69 60 88 61 53 62 54 63 68 65 89 66 56 67
REMARK SMILES IDX 40 68 41 69 49 70 42 71 44 72 50 73 43 74 45 75 46 76 47 77
REMARK SMILES IDX 48 78 72 79 73 80 81 81 74 82 76 83 82 84 75 85 77 86 78 87
REMARK SMILES IDX 79 88 80 89 57 90 58 91 66 92 59 93 61 94 67 95 60 96 62 97
REMARK SMILES IDX 63 98 64 99 65 100
REMARK H PARENT 23 7 28 34 87 53 55 64
REMARK Flexibility Score: inf
ROOT
ATOM      1  C   UNL A   1      31.035  31.639  26.273  1.00  0.00     0.023 C 
ENDROOT
BRANCH   1   2
ATOM      2  C   UNL A   1      31.064  30.574  25.176  1.00  0.00     0.023 C 
BRANCH   2   3
ATOM      3  C   UNL A   1      32.090  29.461  25.376  1.00  0.00     0.116 C 
BRANCH   3   4
ATOM      4  N   UNL A   1      33.041  29.374  24.284  1.00  0.00    -0.356 N 
ATOM      5  C   UNL A   1      32.977  28.748  23.078  1.00  0.00     0.225 C 
ATOM      6  O   UNL A   1      33.924  28.917  22.304  1.00  0.00    -0.275 OA
ATOM      7  H   UNL A   1      33.885  29.856  24.444  1.00  0.00     0.163 HD
BRANCH   5   8
ATOM      8  C   UNL A   1      31.814  27.864  22.658  1.00  0.00     0.107 C 
ATOM      9  C   UNL A   1      31.395  26.846  23.735  1.00  0.00     0.057 C 
ATOM     10  C   UNL A   1      29.868  26.798  23.655  1.00  0.00     0.129 C 
ATOM     11  N   UNL A   1      29.483  28.092  23.111  1.00  0.00    -0.337 N 
ATOM     12  C   UNL A   1      30.556  28.648  22.301  1.00  0.00     0.134 C 
BRANCH   9  13
ATOM     13  C   UNL A   1      32.083  25.496  23.654  1.00  0.00     0.004 A 
ATOM     14  C   UNL A   1      33.916  23.956  24.106  1.00  0.00     0.161 A 
ATOM     15  C   UNL A   1      33.219  22.933  23.453  1.00  0.00     0.050 A 
ATOM     16  C   UNL A   1      33.364  25.247  24.194  1.00  0.00     0.164 A 
ATOM     17  C   UNL A   1      31.953  23.172  22.928  1.00  0.00     0.004 A 
ATOM     18  C   UNL A   1      31.387  24.439  23.036  1.00  0.00     0.008 A 
BRANCH  14  19
ATOM     19  O   UNL A   1      35.177  23.706  24.587  1.00  0.00    -0.493 OA
ATOM     20  C   UNL A   1      35.244  22.446  25.256  1.00  0.00     0.278 C 
ENDBRANCH  14  19
BRANCH  16  21
ATOM     21  O   UNL A   1      34.001  26.338  24.729  1.00  0.00    -0.493 OA
ATOM     22  C   UNL A   1      33.960  26.475  26.143  1.00  0.00     0.278 C 
ENDBRANCH  16  21
ENDBRANCH   9  13
BRANCH  11  23
ATOM     23  C   UNL A   1      28.215  28.643  23.057  1.00  0.00     0.257 C 
ATOM     24  O   UNL A   1      27.223  28.008  23.419  1.00  0.00    -0.269 OA
BRANCH  23  25
ATOM     25  C   UNL A   1      28.076  30.008  22.586  1.00  0.00     0.077 A 
ATOM     26  C   UNL A   1      27.879  31.163  23.377  1.00  0.00     0.149 A 
ATOM     27  C   UNL A   1      28.007  30.484  21.290  1.00  0.00     0.122 A 
ATOM     28  N   UNL A   1      27.793  32.282  22.650  1.00  0.00    -0.181 NA
ATOM     29  N   UNL A   1      27.877  31.839  21.384  1.00  0.00    -0.275 N 
ATOM     30  C   UNL A   1      27.843  32.782  20.293  1.00  0.00     0.173 C 
ENDBRANCH  23  25
ENDBRANCH  11  23
ENDBRANCH   5   8
ENDBRANCH   3   4
ENDBRANCH   2   3
ENDBRANCH   1   2
BRANCH   1  31
ATOM     31  C   UNL A   1      32.396  32.063  26.819  1.00  0.00     0.116 C 
BRANCH  31  32
ATOM     32  N   UNL A   1      32.412  33.422  27.345  1.00  0.00    -0.352 N 
ATOM     33  C   UNL A   1      33.356  34.024  28.142  1.00  0.00     0.251 C 
ATOM     34  H   UNL A   1      31.642  33.984  27.096  1.00  0.00     0.163 HD
ATOM     35  O   UNL A   1      33.170  35.156  28.578  1.00  0.00    -0.269 OA
BRANCH  33  36
ATOM     36  C   UNL A   1      34.576  33.275  28.507  1.00  0.00     0.039 A 
ATOM     37  C   UNL A   1      35.823  33.837  28.223  1.00  0.00     0.014 A 
ATOM     38  C   UNL A   1      34.482  32.058  29.188  1.00  0.00     0.014 A 
ATOM     39  C   UNL A   1      36.979  33.229  28.713  1.00  0.00     0.010 A 
ATOM     40  C   UNL A   1      35.632  31.481  29.718  1.00  0.00     0.010 A 
ATOM     41  C   UNL A   1      36.886  32.075  29.507  1.00  0.00    -0.014 A 
BRANCH  41  42
ATOM     42  C   UNL A   1      38.070  31.512  30.200  1.00  0.00     0.031 A 
ATOM     43  C   UNL A   1      38.880  30.425  29.557  1.00  0.00     0.074 A 
ATOM     44  C   UNL A   1      38.326  31.889  31.468  1.00  0.00     0.049 A 
ATOM     45  N   UNL A   1      39.868  29.732  30.059  1.00  0.00    -0.248 NA
ATOM     46  C   UNL A   1      38.519  30.053  28.180  1.00  0.00     0.031 C 
ATOM     47  C   UNL A   1      37.557  32.880  32.226  1.00  0.00     0.029 A 
ATOM     48  N   UNL A   1      39.276  31.455  32.358  1.00  0.00    -0.354 N 
ATOM     49  C   UNL A   1      40.225  28.818  29.077  1.00  0.00     0.074 A 
ATOM     50  C   UNL A   1      39.337  29.033  27.954  1.00  0.00     0.031 C 
ATOM     51  C   UNL A   1      38.058  32.970  33.468  1.00  0.00     0.029 A 
ATOM     52  C   UNL A   1      39.164  32.027  33.605  1.00  0.00     0.049 A 
ATOM     53  H   UNL A   1      39.972  30.798  32.127  1.00  0.00     0.167 HD
ATOM     54  C   UNL A   1      41.221  27.903  29.098  1.00  0.00     0.034 A 
ATOM     55  C   UNL A   1      39.863  31.806  34.736  1.00  0.00     0.034 A 
ATOM     56  C   UNL A   1      42.144  27.737  30.187  1.00  0.00     0.049 A 
ATOM     57  C   UNL A   1      40.978  30.799  34.723  1.00  0.00     0.074 A 
ATOM     58  C   UNL A   1      43.268  26.934  30.248  1.00  0.00     0.029 A 
ATOM     59  N   UNL A   1      42.043  28.380  31.410  1.00  0.00    -0.354 N 
ATOM     60  N   UNL A   1      41.416  30.070  33.726  1.00  0.00    -0.248 NA
ATOM     61  C   UNL A   1      41.709  30.597  35.983  1.00  0.00     0.031 C 
ATOM     62  C   UNL A   1      43.848  27.090  31.512  1.00  0.00     0.029 A 
ATOM     63  C   UNL A   1      43.076  27.981  32.240  1.00  0.00     0.049 A 
ATOM     64  H   UNL A   1      41.340  29.025  31.653  1.00  0.00     0.167 HD
ATOM     65  C   UNL A   1      42.481  29.336  34.229  1.00  0.00     0.074 A 
ATOM     66  C   UNL A   1      42.639  29.724  35.617  1.00  0.00     0.031 C 
ATOM     67  C   UNL A   1      43.247  28.408  33.605  1.00  0.00     0.034 A 
BRANCH  54  68
ATOM     68  C   UNL A   1      41.419  27.066  27.866  1.00  0.00     0.023 A 
ATOM     69  C   UNL A   1      41.988  27.660  26.722  1.00  0.00     0.012 A 
ATOM     70  C   UNL A   1      41.092  25.698  27.848  1.00  0.00     0.148 A 
ATOM     71  C   UNL A   1      42.214  26.908  25.571  1.00  0.00     0.002 A 
ATOM     72  C   UNL A   1      41.344  24.948  26.704  1.00  0.00     0.091 A 
ATOM     73  F   UNL A   1      40.517  25.159  28.934  1.00  0.00    -0.205 F 
ATOM     74  C   UNL A   1      41.902  25.551  25.565  1.00  0.00     0.022 A 
BRANCH  72  75
ATOM     75  S   UNL A   1      41.016  23.183  26.635  1.00  0.00     0.127 S 
ATOM     76  O   UNL A   1      41.840  22.772  25.501  1.00  0.00    -0.237 OA
ATOM     77  O   UNL A   1      41.498  22.718  27.937  1.00  0.00    -0.237 OA
ATOM     78  O   UNL A   1      39.575  23.063  26.452  1.00  0.00    -0.744 OA
ENDBRANCH  72  75
ENDBRANCH  54  68
BRANCH  55  79
ATOM     79  C   UNL A   1      39.564  32.609  35.954  1.00  0.00     0.023 A 
ATOM     80  C   UNL A   1      40.145  33.884  36.089  1.00  0.00     0.012 A 
ATOM     81  C   UNL A   1      38.671  32.153  36.941  1.00  0.00     0.148 A 
ATOM     82  C   UNL A   1      39.851  34.686  37.192  1.00  0.00     0.002 A 
ATOM     83  C   UNL A   1      38.346  32.976  38.014  1.00  0.00     0.091 A 
ATOM     84  F   UNL A   1      38.144  30.926  36.811  1.00  0.00    -0.205 F 
ATOM     85  C   UNL A   1      38.942  34.239  38.147  1.00  0.00     0.022 A 
BRANCH  83  86
ATOM     86  S   UNL A   1      37.076  32.507  39.196  1.00  0.00     0.127 S 
ATOM     87  O   UNL A   1      37.428  31.121  39.487  1.00  0.00    -0.237 OA
ATOM     88  O   UNL A   1      37.304  33.444  40.298  1.00  0.00    -0.237 OA
ATOM     89  O   UNL A   1      35.817  32.723  38.492  1.00  0.00    -0.744 OA
ENDBRANCH  83  86
ENDBRANCH  55  79
BRANCH  67  90
ATOM     90  C   UNL A   1      44.319  27.734  34.414  1.00  0.00     0.023 A 
ATOM     91  C   UNL A   1      45.560  28.380  34.573  1.00  0.00     0.012 A 
ATOM     92  C   UNL A   1      44.077  26.519  35.082  1.00  0.00     0.148 A 
ATOM     93  C   UNL A   1      46.552  27.820  35.377  1.00  0.00     0.002 A 
ATOM     94  C   UNL A   1      45.058  25.982  35.908  1.00  0.00     0.091 A 
ATOM     95  F   UNL A   1      42.898  25.908  34.896  1.00  0.00    -0.205 F 
ATOM     96  C   UNL A   1      46.298  26.628  36.053  1.00  0.00     0.022 A 
BRANCH  94  97
ATOM     97  S   UNL A   1      44.779  24.492  36.872  1.00  0.00     0.127 S 
ATOM     98  O   UNL A   1      46.129  24.179  37.338  1.00  0.00    -0.237 OA
ATOM     99  O   UNL A   1      43.867  24.956  37.918  1.00  0.00    -0.237 OA
ATOM    100  O   UNL A   1      44.191  23.532  35.948  1.00  0.00    -0.744 OA
ENDBRANCH  94  97
ENDBRANCH  67  90
ENDBRANCH  41  42
ENDBRANCH  33  36
ENDBRANCH  31  32
ENDBRANCH   1  31
TORSDOF 19
ENDMDL
MODEL 2
REMARK VINA RESULT:     -12.4      2.183      4.474
REMARK SMILES COc1cccc([C@@H]2CN(C(=O)c3cnn(C)c3)C[C@H]2C(=O)NCCCCNC(=O)c2ccc(-c3c4nc(c(-c5cccc(S(=O)(=O)[O-])c5F)c5ccc([nH]5)c(-c5cccc(S(=O)(=O)[O-])c5F)c5nc(c(-c6cccc(S(=O)(=O)[O-])c6F)c6ccc3[nH]6)C=C5)C=C4)cc2)c1OC
REMARK SMILES IDX 26 1 25 2 24 3 23 4 21 5 22 6 20 8 8 9 9 10 10 11 19 12 7 13
REMARK SMILES IDX 3 14 4 15 94 16 5 17 6 18 2 19 1 20 95 21 96 22 11 23 12 24
REMARK SMILES IDX 13 25 14 26 18 27 15 28 16 29 17 30 27 31 28 32 29 33 30 35
REMARK SMILES IDX 31 36 32 37 93 38 33 39 92 40 34 41 35 42 36 43 86 44 37 45
REMARK SMILES IDX 91 46 85 47 87 48 38 49 90 50 84 51 83 52 39 54 71 55 51 56
REMARK SMILES IDX 70 57 52 58 55 59 69 60 88 61 53 62 54 63 68 65 89 66 56 67
REMARK SMILES IDX 40 68 41 69 49 70 42 71 44 72 50 73 43 74 45 75 46 76 47 77
REMARK SMILES IDX 48 78 72 79 73 80 81 81 74 82 76 83 82 84 75 85 77 86 78 87
REMARK SMILES IDX 79 88 80 89 57 90 58 91 66 92 59 93 61 94 67 95 60 96 62 97
REMARK SMILES IDX 63 98 64 99 65 100
REMARK H PARENT 23 7 28 34 87 53 55 64
REMARK Flexibility Score: inf
ROOT
ATOM      1  C   UNL A   1      31.711  29.455  27.184  1.00  0.00     0.023 C 
ENDROOT
BRANCH   1   2
ATOM      2  C   UNL A   1      32.426  28.117  27.373  1.00  0.00     0.023 C 
BRANCH   2   3
ATOM      3  C   UNL A   1      32.041  27.027  26.376  1.00  0.00     0.116 C 
BRANCH   3   4
ATOM      4  N   UNL A   1      30.902  26.242  26.815  1.00  0.00    -0.356 N 
ATOM      5  C   UNL A   1      30.000  25.495  26.125  1.00  0.00     0.225 C 
ATOM      6  O   UNL A   1      29.170  24.861  26.784  1.00  0.00    -0.275 OA
ATOM      7  H   UNL A   1      30.756  26.253  27.789  1.00  0.00     0.163 HD
BRANCH   5   8
ATOM      8  C   UNL A   1      29.971  25.415  24.607  1.00  0.00     0.107 C 
ATOM      9  C   UNL A   1      30.560  26.658  23.915  1.00  0.00     0.057 C 
ATOM     10  C   UNL A   1      31.323  26.107  22.708  1.00  0.00     0.129 C 
ATOM     11  N   UNL A   1      31.678  24.747  23.081  1.00  0.00    -0.337 N 
ATOM     12  C   UNL A   1      30.731  24.216  24.049  1.00  0.00     0.134 C 
BRANCH   9  13
ATOM     13  C   UNL A   1      29.562  27.756  23.593  1.00  0.00     0.004 A 
ATOM     14  C   UNL A   1      28.954  30.048  23.039  1.00  0.00     0.161 A 
ATOM     15  C   UNL A   1      27.605  29.677  22.980  1.00  0.00     0.050 A 
ATOM     16  C   UNL A   1      29.938  29.098  23.365  1.00  0.00     0.164 A 
ATOM     17  C   UNL A   1      27.233  28.355  23.195  1.00  0.00     0.004 A 
ATOM     18  C   UNL A   1      28.203  27.402  23.490  1.00  0.00     0.008 A 
BRANCH  14  19
ATOM     19  O   UNL A   1      29.294  31.365  22.855  1.00  0.00    -0.493 OA
ATOM     20  C   UNL A   1      28.463  31.991  21.876  1.00  0.00     0.278 C 
ENDBRANCH  14  19
BRANCH  16  21
ATOM     21  O   UNL A   1      31.271  29.376  23.539  1.00  0.00    -0.493 OA
ATOM     22  C   UNL A   1      32.082  29.380  22.372  1.00  0.00     0.278 C 
ENDBRANCH  16  21
ENDBRANCH   9  13
BRANCH  11  23
ATOM     23  C   UNL A   1      32.567  23.899  22.443  1.00  0.00     0.257 C 
ATOM     24  O   UNL A   1      33.214  24.267  21.461  1.00  0.00    -0.269 OA
BRANCH  23  25
ATOM     25  C   UNL A   1      32.745  22.561  22.973  1.00  0.00     0.077 A 
ATOM     26  C   UNL A   1      32.016  21.403  22.620  1.00  0.00     0.149 A 
ATOM     27  C   UNL A   1      33.577  22.125  23.989  1.00  0.00     0.122 A 
ATOM     28  N   UNL A   1      32.418  20.313  23.281  1.00  0.00    -0.181 NA
ATOM     29  N   UNL A   1      33.371  20.781  24.105  1.00  0.00    -0.275 N 
ATOM     30  C   UNL A   1      34.068  19.873  24.981  1.00  0.00     0.173 C 
ENDBRANCH  23  25
ENDBRANCH  11  23
ENDBRANCH   5   8
ENDBRANCH   3   4
ENDBRANCH   2   3
ENDBRANCH   1   2
BRANCH   1  31
ATOM     31  C   UNL A   1      32.448  30.483  26.330  1.00  0.00     0.116 C 
BRANCH  31  32
ATOM     32  N   UNL A   1      32.240  31.858  26.768  1.00  0.00    -0.352 N 
ATOM     33  C   UNL A   1      33.076  32.661  27.506  1.00  0.00     0.251 C 
ATOM     34  H   UNL A   1      31.385  32.266  26.497  1.00  0.00     0.163 HD
ATOM     35  O   UNL A   1      32.706  33.772  27.872  1.00  0.00    -0.269 OA
BRANCH  33  36
ATOM     36  C   UNL A   1      34.407  32.152  27.895  1.00  0.00     0.039 A 
ATOM     37  C   UNL A   1      35.487  33.038  27.922  1.00  0.00     0.014 A 
ATOM     38  C   UNL A   1      34.567  30.823  28.298  1.00  0.00     0.014 A 
ATOM     39  C   UNL A   1      36.708  32.618  28.451  1.00  0.00     0.010 A 
ATOM     40  C   UNL A   1      35.770  30.422  28.871  1.00  0.00     0.010 A 
ATOM     41  C   UNL A   1      36.840  31.323  28.975  1.00  0.00    -0.014 A 
BRANCH  41  42
ATOM     42  C   UNL A   1      38.057  30.905  29.714  1.00  0.00     0.031 A 
ATOM     43  C   UNL A   1      38.989  29.887  29.127  1.00  0.00     0.074 A 
ATOM     44  C   UNL A   1      38.240  31.346  30.974  1.00  0.00     0.049 A 
ATOM     45  N   UNL A   1      40.029  29.315  29.674  1.00  0.00    -0.248 NA
ATOM     46  C   UNL A   1      38.704  29.437  27.755  1.00  0.00     0.031 C 
ATOM     47  C   UNL A   1      37.356  32.278  31.680  1.00  0.00     0.029 A 
ATOM     48  N   UNL A   1      39.206  31.040  31.900  1.00  0.00    -0.354 N 
ATOM     49  C   UNL A   1      40.502  28.410  28.732  1.00  0.00     0.074 A 
ATOM     50  C   UNL A   1      39.626  28.499  27.583  1.00  0.00     0.031 C 
ATOM     51  C   UNL A   1      37.813  32.457  32.930  1.00  0.00     0.029 A 
ATOM     52  C   UNL A   1      39.004  31.636  33.123  1.00  0.00     0.049 A 
ATOM     53  H   UNL A   1      39.970  30.450  31.707  1.00  0.00     0.167 HD
ATOM     54  C   UNL A   1      41.585  27.603  28.808  1.00  0.00     0.034 A 
ATOM     55  C   UNL A   1      39.692  31.523  34.277  1.00  0.00     0.034 A 
ATOM     56  C   UNL A   1      42.490  27.566  29.923  1.00  0.00     0.049 A 
ATOM     57  C   UNL A   1      40.903  30.636  34.324  1.00  0.00     0.074 A 
ATOM     58  C   UNL A   1      43.688  26.884  30.036  1.00  0.00     0.029 A 
ATOM     59  N   UNL A   1      42.293  28.234  31.120  1.00  0.00    -0.354 N 
ATOM     60  N   UNL A   1      41.438  29.924  33.362  1.00  0.00    -0.248 NA
ATOM     61  C   UNL A   1      41.617  30.548  35.606  1.00  0.00     0.031 C 
ATOM     62  C   UNL A   1      44.216  27.138  31.308  1.00  0.00     0.029 A 
ATOM     63  C   UNL A   1      43.339  27.969  31.987  1.00  0.00     0.049 A 
ATOM     64  H   UNL A   1      41.523  28.812  31.325  1.00  0.00     0.167 HD
ATOM     65  C   UNL A   1      42.559  29.318  33.915  1.00  0.00     0.074 A 
ATOM     66  C   UNL A   1      42.640  29.763  35.291  1.00  0.00     0.031 C 
ATOM     67  C   UNL A   1      43.430  28.454  33.340  1.00  0.00     0.034 A 
BRANCH  54  68
ATOM     68  C   UNL A   1      41.897  26.753  27.610  1.00  0.00     0.023 A 
ATOM     69  C   UNL A   1      42.512  27.349  26.491  1.00  0.00     0.012 A 
ATOM     70  C   UNL A   1      41.634  25.370  27.602  1.00  0.00     0.148 A 
ATOM     71  C   UNL A   1      42.844  26.586  25.374  1.00  0.00     0.002 A 
ATOM     72  C   UNL A   1      41.992  24.610  26.494  1.00  0.00     0.091 A 
ATOM     73  F   UNL A   1      41.016  24.826  28.662  1.00  0.00    -0.205 F 
ATOM     74  C   UNL A   1      42.594  25.216  25.379  1.00  0.00     0.022 A 
BRANCH  72  75
ATOM     75  S   UNL A   1      41.748  22.831  26.444  1.00  0.00     0.127 S 
ATOM     76  O   UNL A   1      42.424  22.405  27.668  1.00  0.00    -0.237 OA
ATOM     77  O   UNL A   1      40.290  22.708  26.481  1.00  0.00    -0.237 OA
ATOM     78  O   UNL A   1      42.356  22.391  25.195  1.00  0.00    -0.744 OA
ENDBRANCH  72  75
ENDBRANCH  54  68
BRANCH  55  79
ATOM     79  C   UNL A   1      39.282  32.330  35.460  1.00  0.00     0.023 A 
ATOM     80  C   UNL A   1      38.470  31.733  36.443  1.00  0.00     0.012 A 
ATOM     81  C   UNL A   1      39.732  33.649  35.650  1.00  0.00     0.148 A 
ATOM     82  C   UNL A   1      38.106  32.440  37.589  1.00  0.00     0.002 A 
ATOM     83  C   UNL A   1      39.404  34.333  36.815  1.00  0.00     0.091 A 
ATOM     84  F   UNL A   1      40.485  34.213  34.692  1.00  0.00    -0.205 F 
ATOM     85  C   UNL A   1      38.583  33.735  37.782  1.00  0.00     0.022 A 
BRANCH  83  86
ATOM     86  S   UNL A   1      40.107  35.946  37.178  1.00  0.00     0.127 S 
ATOM     87  O   UNL A   1      41.528  35.638  37.301  1.00  0.00    -0.237 OA
ATOM     88  O   UNL A   1      39.747  36.726  35.992  1.00  0.00    -0.237 OA
ATOM     89  O   UNL A   1      39.430  36.379  38.395  1.00  0.00    -0.744 OA
ENDBRANCH  83  86
ENDBRANCH  55  79
BRANCH  67  90
ATOM     90  C   UNL A   1      44.543  27.918  34.195  1.00  0.00     0.023 A 
ATOM     91  C   UNL A   1      45.735  28.660  34.305  1.00  0.00     0.012 A 
ATOM     92  C   UNL A   1      44.384  26.741  34.951  1.00  0.00     0.148 A 
ATOM     93  C   UNL A   1      46.760  28.232  35.148  1.00  0.00     0.002 A 
ATOM     94  C   UNL A   1      45.397  26.337  35.814  1.00  0.00     0.091 A 
ATOM     95  F   UNL A   1      43.252  26.038  34.812  1.00  0.00    -0.205 F 
ATOM     96  C   UNL A   1      46.587  27.078  35.910  1.00  0.00     0.022 A 
BRANCH  94  97
ATOM     97  S   UNL A   1      45.219  24.906  36.885  1.00  0.00     0.127 S 
ATOM     98  O   UNL A   1      44.018  25.249  37.645  1.00  0.00    -0.237 OA
ATOM     99  O   UNL A   1      45.044  23.812  35.929  1.00  0.00    -0.237 OA
ATOM    100  O   UNL A   1      46.455  24.836  37.654  1.00  0.00    -0.744 OA
ENDBRANCH  94  97
ENDBRANCH  67  90
ENDBRANCH  41  42
ENDBRANCH  33  36
ENDBRANCH  31  32
ENDBRANCH   1  31
TORSDOF 19
ENDMDL
MODEL 3
REMARK VINA RESULT:     -12.3      0.756      7.252
REMARK SMILES COc1cccc([C@@H]2CN(C(=O)c3cnn(C)c3)C[C@H]2C(=O)NCCCCNC(=O)c2ccc(-c3c4nc(c(-c5cccc(S(=O)(=O)[O-])c5F)c5ccc([nH]5)c(-c5cccc(S(=O)(=O)[O-])c5F)c5nc(c(-c6cccc(S(=O)(=O)[O-])c6F)c6ccc3[nH]6)C=C5)C=C4)cc2)c1OC
REMARK SMILES IDX 26 1 25 2 24 3 23 4 21 5 22 6 20 8 8 9 9 10 10 11 19 12 7 13
REMARK SMILES IDX 3 14 4 15 94 16 5 17 6 18 2 19 1 20 95 21 96 22 11 23 12 24
REMARK SMILES IDX 13 25 14 26 18 27 15 28 16 29 17 30 27 31 28 32 29 33 30 35
REMARK SMILES IDX 31 36 32 37 93 38 33 39 92 40 34 41 35 42 36 43 86 44 37 45
REMARK SMILES IDX 91 46 85 47 87 48 38 49 90 50 84 51 83 52 39 54 71 55 51 56
REMARK SMILES IDX 70 57 52 58 55 59 69 60 88 61 53 62 54 63 68 65 89 66 56 67
REMARK SMILES IDX 40 68 41 69 49 70 42 71 44 72 50 73 43 74 45 75 46 76 47 77
REMARK SMILES IDX 48 78 72 79 73 80 81 81 74 82 76 83 82 84 75 85 77 86 78 87
REMARK SMILES IDX 79 88 80 89 57 90 58 91 66 92 59 93 61 94 67 95 60 96 62 97
REMARK SMILES IDX 63 98 64 99 65 100
REMARK H PARENT 23 7 28 34 87 53 55 64
REMARK Flexibility Score: inf
ROOT
ATOM      1  C   UNL A   1      31.182  31.871  26.402  1.00  0.00     0.023 C 
ENDROOT
BRANCH   1   2
ATOM      2  C   UNL A   1      31.025  30.813  25.310  1.00  0.00     0.023 C 
BRANCH   2   3
ATOM      3  C   UNL A   1      31.854  29.546  25.506  1.00  0.00     0.116 C 
BRANCH   3   4
ATOM      4  N   UNL A   1      32.941  29.434  24.552  1.00  0.00    -0.356 N 
ATOM      5  C   UNL A   1      33.023  28.814  23.345  1.00  0.00     0.225 C 
ATOM      6  O   UNL A   1      34.070  28.957  22.706  1.00  0.00    -0.275 OA
ATOM      7  H   UNL A   1      33.769  29.890  24.828  1.00  0.00     0.163 HD
BRANCH   5   8
ATOM      8  C   UNL A   1      31.902  27.966  22.766  1.00  0.00     0.107 C 
ATOM      9  C   UNL A   1      31.467  26.810  23.685  1.00  0.00     0.057 C 
ATOM     10  C   UNL A   1      29.946  26.739  23.532  1.00  0.00     0.129 C 
ATOM     11  N   UNL A   1      29.549  28.083  23.141  1.00  0.00    -0.337 N 
ATOM     12  C   UNL A   1      30.638  28.762  22.456  1.00  0.00     0.134 C 
BRANCH   9  13
ATOM     13  C   UNL A   1      32.194  25.496  23.463  1.00  0.00     0.004 A 
ATOM     14  C   UNL A   1      33.086  23.351  24.197  1.00  0.00     0.161 A 
ATOM     15  C   UNL A   1      33.528  23.088  22.896  1.00  0.00     0.050 A 
ATOM     16  C   UNL A   1      32.435  24.562  24.495  1.00  0.00     0.164 A 
ATOM     17  C   UNL A   1      33.285  24.001  21.875  1.00  0.00     0.004 A 
ATOM     18  C   UNL A   1      32.616  25.189  22.155  1.00  0.00     0.008 A 
BRANCH  14  19
ATOM     19  O   UNL A   1      33.366  22.451  25.194  1.00  0.00    -0.493 OA
ATOM     20  C   UNL A   1      34.763  22.158  25.262  1.00  0.00     0.278 C 
ENDBRANCH  14  19
BRANCH  16  21
ATOM     21  O   UNL A   1      32.045  24.956  25.750  1.00  0.00    -0.493 OA
ATOM     22  C   UNL A   1      32.906  25.856  26.435  1.00  0.00     0.278 C 
ENDBRANCH  16  21
ENDBRANCH   9  13
BRANCH  11  23
ATOM     23  C   UNL A   1      28.269  28.610  23.103  1.00  0.00     0.257 C 
ATOM     24  O   UNL A   1      27.297  27.962  23.493  1.00  0.00    -0.269 OA
BRANCH  23  25
ATOM     25  C   UNL A   1      28.095  29.963  22.612  1.00  0.00     0.077 A 
ATOM     26  C   UNL A   1      27.851  31.122  23.385  1.00  0.00     0.149 A 
ATOM     27  C   UNL A   1      28.030  30.422  21.310  1.00  0.00     0.122 A 
ATOM     28  N   UNL A   1      27.741  32.228  22.643  1.00  0.00    -0.181 NA
ATOM     29  N   UNL A   1      27.858  31.773  21.384  1.00  0.00    -0.275 N 
ATOM     30  C   UNL A   1      27.810  32.701  20.281  1.00  0.00     0.173 C 
ENDBRANCH  23  25
ENDBRANCH  11  23
ENDBRANCH   5   8
ENDBRANCH   3   4
ENDBRANCH   2   3
ENDBRANCH   1   2
BRANCH   1  31
ATOM     31  C   UNL A   1      32.610  32.117  26.884  1.00  0.00     0.116 C 
BRANCH  31  32
ATOM     32  N   UNL A   1      32.852  33.493  27.299  1.00  0.00    -0.352 N 
ATOM     33  C   UNL A   1      33.910  34.001  28.015  1.00  0.00     0.251 C 
ATOM     34  H   UNL A   1      32.166  34.146  27.030  1.00  0.00     0.163 HD
ATOM     35  O   UNL A   1      33.915  35.177  28.364  1.00  0.00    -0.269 OA
BRANCH  33  36
ATOM     36  C   UNL A   1      35.019  33.103  28.399  1.00  0.00     0.039 A 
ATOM     37  C   UNL A   1      36.330  33.579  28.321  1.00  0.00     0.014 A 
ATOM     38  C   UNL A   1      34.753  31.825  28.898  1.00  0.00     0.014 A 
ATOM     39  C   UNL A   1      37.372  32.810  28.841  1.00  0.00     0.010 A 
ATOM     40  C   UNL A   1      35.787  31.083  29.462  1.00  0.00     0.010 A 
ATOM     41  C   UNL A   1      37.099  31.580  29.460  1.00  0.00    -0.014 A 
BRANCH  41  42
ATOM     42  C   UNL A   1      38.149  30.828  30.190  1.00  0.00     0.031 A 
ATOM     43  C   UNL A   1      38.495  31.187  31.605  1.00  0.00     0.074 A 
ATOM     44  C   UNL A   1      38.881  29.914  29.523  1.00  0.00     0.049 A 
ATOM     45  N   UNL A   1      39.460  30.725  32.356  1.00  0.00    -0.248 NA
ATOM     46  C   UNL A   1      37.664  32.214  32.252  1.00  0.00     0.031 C 
ATOM     47  C   UNL A   1      38.688  29.538  28.120  1.00  0.00     0.029 A 
ATOM     48  N   UNL A   1      39.960  29.165  29.921  1.00  0.00    -0.354 N 
ATOM     49  C   UNL A   1      39.378  31.428  33.550  1.00  0.00     0.074 A 
ATOM     50  C   UNL A   1      38.278  32.359  33.420  1.00  0.00     0.031 C 
ATOM     51  C   UNL A   1      39.624  28.640  27.772  1.00  0.00     0.029 A 
ATOM     52  C   UNL A   1      40.497  28.395  28.916  1.00  0.00     0.049 A 
ATOM     53  H   UNL A   1      40.315  29.177  30.839  1.00  0.00     0.167 HD
ATOM     54  C   UNL A   1      40.132  31.287  34.665  1.00  0.00     0.034 A 
ATOM     55  C   UNL A   1      41.581  27.594  28.910  1.00  0.00     0.034 A 
ATOM     56  C   UNL A   1      41.180  30.316  34.815  1.00  0.00     0.049 A 
ATOM     57  C   UNL A   1      42.386  27.441  30.168  1.00  0.00     0.074 A 
ATOM     58  C   UNL A   1      41.908  30.004  35.950  1.00  0.00     0.029 A 
ATOM     59  N   UNL A   1      41.654  29.504  33.798  1.00  0.00    -0.354 N 
ATOM     60  N   UNL A   1      42.182  27.982  31.345  1.00  0.00    -0.248 NA
ATOM     61  C   UNL A   1      43.557  26.554  30.108  1.00  0.00     0.031 C 
ATOM     62  C   UNL A   1      42.828  29.002  35.616  1.00  0.00     0.029 A 
ATOM     63  C   UNL A   1      42.677  28.701  34.271  1.00  0.00     0.049 A 
ATOM     64  H   UNL A   1      41.315  29.499  32.874  1.00  0.00     0.167 HD
ATOM     65  C   UNL A   1      43.187  27.491  32.169  1.00  0.00     0.074 A 
ATOM     66  C   UNL A   1      43.987  26.590  31.364  1.00  0.00     0.031 C 
ATOM     67  C   UNL A   1      43.437  27.777  33.470  1.00  0.00     0.034 A 
BRANCH  54  68
ATOM     68  C   UNL A   1      39.791  32.153  35.844  1.00  0.00     0.023 A 
ATOM     69  C   UNL A   1      40.476  33.372  36.016  1.00  0.00     0.012 A 
ATOM     70  C   UNL A   1      38.773  31.795  36.748  1.00  0.00     0.148 A 
ATOM     71  C   UNL A   1      40.166  34.216  37.080  1.00  0.00     0.002 A 
ATOM     72  C   UNL A   1      38.452  32.654  37.793  1.00  0.00     0.091 A 
ATOM     73  F   UNL A   1      38.157  30.614  36.589  1.00  0.00    -0.205 F 
ATOM     74  C   UNL A   1      39.148  33.862  37.963  1.00  0.00     0.022 A 
BRANCH  72  75
ATOM     75  S   UNL A   1      37.118  32.293  38.942  1.00  0.00     0.127 S 
ATOM     76  O   UNL A   1      37.269  30.851  39.125  1.00  0.00    -0.237 OA
ATOM     77  O   UNL A   1      37.480  33.095  40.112  1.00  0.00    -0.237 OA
ATOM     78  O   UNL A   1      35.900  32.726  38.271  1.00  0.00    -0.744 OA
ENDBRANCH  72  75
ENDBRANCH  54  68
BRANCH  55  79
ATOM     79  C   UNL A   1      41.919  26.824  27.681  1.00  0.00     0.023 A 
ATOM     80  C   UNL A   1      42.546  27.490  26.611  1.00  0.00     0.012 A 
ATOM     81  C   UNL A   1      41.685  25.440  27.585  1.00  0.00     0.148 A 
ATOM     82  C   UNL A   1      42.922  26.792  25.462  1.00  0.00     0.002 A 
ATOM     83  C   UNL A   1      42.104  24.741  26.458  1.00  0.00     0.091 A 
ATOM     84  F   UNL A   1      41.065  24.823  28.604  1.00  0.00    -0.205 F 
ATOM     85  C   UNL A   1      42.714  25.417  25.391  1.00  0.00     0.022 A 
BRANCH  83  86
ATOM     86  S   UNL A   1      41.989  22.950  26.375  1.00  0.00     0.127 S 
ATOM     87  O   UNL A   1      42.754  22.541  27.549  1.00  0.00    -0.237 OA
ATOM     88  O   UNL A   1      40.546  22.719  26.470  1.00  0.00    -0.237 OA
ATOM     89  O   UNL A   1      42.556  22.603  25.078  1.00  0.00    -0.744 OA
ENDBRANCH  83  86
ENDBRANCH  55  79
BRANCH  67  90
ATOM     90  C   UNL A   1      44.629  27.122  34.108  1.00  0.00     0.023 A 
ATOM     91  C   UNL A   1      45.875  27.778  34.058  1.00  0.00     0.012 A 
ATOM     92  C   UNL A   1      44.506  25.916  34.824  1.00  0.00     0.148 A 
ATOM     93  C   UNL A   1      46.986  27.235  34.702  1.00  0.00     0.002 A 
ATOM     94  C   UNL A   1      45.611  25.398  35.491  1.00  0.00     0.091 A 
ATOM     95  F   UNL A   1      43.317  25.297  34.838  1.00  0.00    -0.205 F 
ATOM     96  C   UNL A   1      46.852  26.053  35.428  1.00  0.00     0.022 A 
BRANCH  94  97
ATOM     97  S   UNL A   1      45.500  23.922  36.510  1.00  0.00     0.127 S 
ATOM     98  O   UNL A   1      46.909  23.640  36.781  1.00  0.00    -0.237 OA
ATOM     99  O   UNL A   1      44.739  24.391  37.668  1.00  0.00    -0.237 OA
ATOM    100  O   UNL A   1      44.803  22.936  35.696  1.00  0.00    -0.744 OA
ENDBRANCH  94  97
ENDBRANCH  67  90
ENDBRANCH  41  42
ENDBRANCH  33  36
ENDBRANCH  31  32
ENDBRANCH   1  31
TORSDOF 19
ENDMDL
