MODEL 1
REMARK VINA RESULT:      -9.6      0.000      0.000
REMARK SMILES C[C@H](C(=O)NCCCCNC(=O)c1ccc(-c2c3nc(c(-c4cccc(S(=O)(=O)[O-])c4F)c4ccc([nH]4)c(-c4cccc(S(=O)(=O)[O-])c4F)c4nc(c(-c5cccc(S(=O)(=O)[O-])c5F)c5ccc2[nH]5)C=C4)C=C3)cc1)[C@@H](C)[N@@H+](C)CCC[NH+](C)C
REMARK SMILES IDX 6 1 5 2 3 3 4 4 2 6 1 7 76 8 77 9 78 10 79 11 80 13 81 14
REMARK SMILES IDX 82 15 83 16 84 17 85 18 7 20 8 21 9 22 10 23 11 24 12 26
REMARK SMILES IDX 13 27 14 28 75 29 15 30 74 31 16 32 17 33 18 34 68 35 19 36
REMARK SMILES IDX 73 37 67 38 69 39 20 40 72 41 66 42 65 43 21 45 53 46 33 47
REMARK SMILES IDX 52 48 34 49 37 50 51 51 70 52 35 53 36 54 50 56 71 57 38 58
REMARK SMILES IDX 22 59 23 60 31 61 24 62 26 63 32 64 25 65 27 66 28 67 29 68
REMARK SMILES IDX 30 69 54 70 55 71 63 72 56 73 58 74 64 75 57 76 59 77 60 78
REMARK SMILES IDX 61 79 62 80 39 81 40 82 48 83 41 84 43 85 49 86 42 87 44 88
REMARK SMILES IDX 45 89 46 90 47 91
REMARK H PARENT 5 5 78 12 83 19 10 25 69 44 37 55
REMARK Flexibility Score: inf
ROOT
ATOM      1  C   UNL A   1      31.524  29.268  24.570  1.00  0.00     0.116 C 
ENDROOT
BRANCH   1   2
ATOM      2  N   UNL A   1      32.706  29.155  23.749  1.00  0.00    -0.356 N 
ATOM      3  C   UNL A   1      33.246  28.083  23.123  1.00  0.00     0.228 C 
ATOM      4  O   UNL A   1      34.134  28.323  22.296  1.00  0.00    -0.275 OA
ATOM      5  H   UNL A   1      33.201  29.996  23.623  1.00  0.00     0.163 HD
BRANCH   3   6
ATOM      6  C   UNL A   1      32.911  26.632  23.457  1.00  0.00     0.133 C 
ATOM      7  C   UNL A   1      32.793  25.840  22.147  1.00  0.00     0.024 C 
BRANCH   6   8
ATOM      8  C   UNL A   1      33.696  25.833  24.542  1.00  0.00     0.192 C 
ATOM      9  C   UNL A   1      33.296  26.023  26.009  1.00  0.00     0.076 C 
BRANCH   8  10
ATOM     10  N   UNL A   1      33.884  24.408  24.170  1.00  0.00    -0.334 N 
ATOM     11  C   UNL A   1      35.280  24.014  24.016  1.00  0.00     0.332 C 
ATOM     12  H   UNL A   1      33.456  24.436  23.244  1.00  0.00     0.348 HD
BRANCH  10  13
ATOM     13  C   UNL A   1      33.042  23.367  24.787  1.00  0.00     0.268 C 
BRANCH  13  14
ATOM     14  C   UNL A   1      33.558  21.945  25.096  1.00  0.00     0.123 C 
BRANCH  14  15
ATOM     15  C   UNL A   1      33.110  20.743  24.240  1.00  0.00     0.267 C 
BRANCH  15  16
ATOM     16  N   UNL A   1      33.314  19.348  24.655  1.00  0.00    -0.340 N 
ATOM     17  C   UNL A   1      32.394  18.474  23.907  1.00  0.00     0.332 C 
ATOM     18  C   UNL A   1      34.665  18.821  24.554  1.00  0.00     0.332 C 
ATOM     19  H   UNL A   1      33.120  19.357  25.656  1.00  0.00     0.347 HD
ENDBRANCH  15  16
ENDBRANCH  14  15
ENDBRANCH  13  14
ENDBRANCH  10  13
ENDBRANCH   8  10
ENDBRANCH   6   8
ENDBRANCH   3   6
ENDBRANCH   1   2
BRANCH   1  20
ATOM     20  C   UNL A   1      31.533  30.463  25.513  1.00  0.00     0.023 C 
BRANCH  20  21
ATOM     21  C   UNL A   1      32.123  30.212  26.903  1.00  0.00     0.023 C 
BRANCH  21  22
ATOM     22  C   UNL A   1      33.217  31.179  27.347  1.00  0.00     0.116 C 
BRANCH  22  23
ATOM     23  N   UNL A   1      32.761  32.561  27.432  1.00  0.00    -0.352 N 
ATOM     24  C   UNL A   1      33.222  33.594  28.220  1.00  0.00     0.251 C 
ATOM     25  H   UNL A   1      32.011  32.791  26.837  1.00  0.00     0.163 HD
ATOM     26  O   UNL A   1      32.618  34.657  28.257  1.00  0.00    -0.269 OA
BRANCH  24  27
ATOM     27  C   UNL A   1      34.434  33.398  29.046  1.00  0.00     0.039 A 
ATOM     28  C   UNL A   1      34.312  32.815  30.310  1.00  0.00     0.014 A 
ATOM     29  C   UNL A   1      35.689  33.754  28.552  1.00  0.00     0.014 A 
ATOM     30  C   UNL A   1      35.463  32.488  31.035  1.00  0.00     0.010 A 
ATOM     31  C   UNL A   1      36.831  33.355  29.237  1.00  0.00     0.010 A 
ATOM     32  C   UNL A   1      36.733  32.706  30.478  1.00  0.00    -0.014 A 
BRANCH  32  33
ATOM     33  C   UNL A   1      37.981  32.237  31.135  1.00  0.00     0.031 A 
ATOM     34  C   UNL A   1      38.764  31.104  30.534  1.00  0.00     0.074 A 
ATOM     35  C   UNL A   1      38.312  32.710  32.354  1.00  0.00     0.049 A 
ATOM     36  N   UNL A   1      39.754  30.420  31.043  1.00  0.00    -0.248 NA
ATOM     37  C   UNL A   1      38.348  30.653  29.195  1.00  0.00     0.031 C 
ATOM     38  C   UNL A   1      37.582  33.746  33.087  1.00  0.00     0.029 A 
ATOM     39  N   UNL A   1      39.316  32.338  33.216  1.00  0.00    -0.354 N 
ATOM     40  C   UNL A   1      40.037  29.419  30.122  1.00  0.00     0.074 A 
ATOM     41  C   UNL A   1      39.101  29.575  29.030  1.00  0.00     0.031 C 
ATOM     42  C   UNL A   1      38.144  33.911  34.294  1.00  0.00     0.029 A 
ATOM     43  C   UNL A   1      39.250  32.969  34.438  1.00  0.00     0.049 A 
ATOM     44  H   UNL A   1      40.013  31.685  32.982  1.00  0.00     0.167 HD
ATOM     45  C   UNL A   1      41.001  28.471  30.169  1.00  0.00     0.034 A 
ATOM     46  C   UNL A   1      39.978  32.793  35.559  1.00  0.00     0.034 A 
ATOM     47  C   UNL A   1      41.970  28.360  31.226  1.00  0.00     0.049 A 
ATOM     48  C   UNL A   1      41.095  31.785  35.560  1.00  0.00     0.074 A 
ATOM     49  C   UNL A   1      43.061  27.514  31.308  1.00  0.00     0.029 A 
ATOM     50  N   UNL A   1      41.959  29.113  32.390  1.00  0.00    -0.354 N 
ATOM     51  N   UNL A   1      41.458  30.960  34.609  1.00  0.00    -0.248 NA
ATOM     52  C   UNL A   1      41.924  31.708  36.771  1.00  0.00     0.031 C 
ATOM     53  C   UNL A   1      43.702  27.745  32.529  1.00  0.00     0.029 A 
ATOM     54  C   UNL A   1      43.021  28.750  33.199  1.00  0.00     0.049 A 
ATOM     55  H   UNL A   1      41.294  29.806  32.607  1.00  0.00     0.167 HD
ATOM     56  C   UNL A   1      42.576  30.289  35.090  1.00  0.00     0.074 A 
ATOM     57  C   UNL A   1      42.839  30.815  36.414  1.00  0.00     0.031 C 
ATOM     58  C   UNL A   1      43.310  29.320  34.491  1.00  0.00     0.034 A 
BRANCH  45  59
ATOM     59  C   UNL A   1      41.084  27.507  29.014  1.00  0.00     0.023 A 
ATOM     60  C   UNL A   1      40.310  26.328  29.033  1.00  0.00     0.012 A 
ATOM     61  C   UNL A   1      41.901  27.777  27.899  1.00  0.00     0.148 A 
ATOM     62  C   UNL A   1      40.387  25.410  27.987  1.00  0.00     0.002 A 
ATOM     63  C   UNL A   1      41.937  26.879  26.838  1.00  0.00     0.091 A 
ATOM     64  F   UNL A   1      42.650  28.890  27.906  1.00  0.00    -0.205 F 
ATOM     65  C   UNL A   1      41.193  25.689  26.887  1.00  0.00     0.022 A 
BRANCH  63  66
ATOM     66  S   UNL A   1      42.884  27.200  25.346  1.00  0.00     0.127 S 
ATOM     67  O   UNL A   1      42.693  25.957  24.601  1.00  0.00    -0.237 OA
ATOM     68  O   UNL A   1      42.193  28.361  24.781  1.00  0.00    -0.237 OA
ATOM     69  O   UNL A   1      44.243  27.471  25.794  1.00  0.00    -0.744 OA
ENDBRANCH  63  66
ENDBRANCH  45  59
BRANCH  46  70
ATOM     70  C   UNL A   1      39.697  33.642  36.752  1.00  0.00     0.023 A 
ATOM     71  C   UNL A   1      40.020  35.011  36.713  1.00  0.00     0.012 A 
ATOM     72  C   UNL A   1      39.043  33.120  37.885  1.00  0.00     0.148 A 
ATOM     73  C   UNL A   1      39.713  35.844  37.790  1.00  0.00     0.002 A 
ATOM     74  C   UNL A   1      38.691  33.965  38.930  1.00  0.00     0.091 A 
ATOM     75  F   UNL A   1      38.749  31.812  37.900  1.00  0.00    -0.205 F 
ATOM     76  C   UNL A   1      39.038  35.324  38.892  1.00  0.00     0.022 A 
BRANCH  74  77
ATOM     77  S   UNL A   1      37.698  33.419  40.324  1.00  0.00     0.127 S 
ATOM     78  O   UNL A   1      38.592  32.463  40.973  1.00  0.00    -0.237 OA
ATOM     79  O   UNL A   1      37.497  34.671  41.056  1.00  0.00    -0.237 OA
ATOM     80  O   UNL A   1      36.483  32.858  39.750  1.00  0.00    -0.744 OA
ENDBRANCH  74  77
ENDBRANCH  46  70
BRANCH  58  81
ATOM     81  C   UNL A   1      44.503  28.777  35.232  1.00  0.00     0.023 A 
ATOM     82  C   UNL A   1      45.781  29.317  34.992  1.00  0.00     0.012 A 
ATOM     83  C   UNL A   1      44.337  27.811  36.244  1.00  0.00     0.148 A 
ATOM     84  C   UNL A   1      46.880  28.892  35.738  1.00  0.00     0.002 A 
ATOM     85  C   UNL A   1      45.427  27.425  37.014  1.00  0.00     0.091 A 
ATOM     86  F   UNL A   1      43.115  27.295  36.442  1.00  0.00    -0.205 F 
ATOM     87  C   UNL A   1      46.702  27.958  36.757  1.00  0.00     0.022 A 
BRANCH  85  88
ATOM     88  S   UNL A   1      45.273  26.303  38.409  1.00  0.00     0.127 S 
ATOM     89  O   UNL A   1      44.823  25.075  37.755  1.00  0.00    -0.237 OA
ATOM     90  O   UNL A   1      46.643  26.253  38.921  1.00  0.00    -0.237 OA
ATOM     91  O   UNL A   1      44.312  26.917  39.314  1.00  0.00    -0.744 OA
ENDBRANCH  85  88
ENDBRANCH  58  81
ENDBRANCH  32  33
ENDBRANCH  24  27
ENDBRANCH  22  23
ENDBRANCH  21  22
ENDBRANCH  20  21
ENDBRANCH   1  20
TORSDOF 20
ENDMDL
MODEL 2
REMARK VINA RESULT:      -9.3      5.832     11.266
REMARK SMILES C[C@H](C(=O)NCCCCNC(=O)c1ccc(-c2c3nc(c(-c4cccc(S(=O)(=O)[O-])c4F)c4ccc([nH]4)c(-c4cccc(S(=O)(=O)[O-])c4F)c4nc(c(-c5cccc(S(=O)(=O)[O-])c5F)c5ccc2[nH]5)C=C4)C=C3)cc1)[C@@H](C)[N@@H+](C)CCC[NH+](C)C
REMARK SMILES IDX 6 1 5 2 3 3 4 4 2 6 1 7 76 8 77 9 78 10 79 11 80 13 81 14
REMARK SMILES IDX 82 15 83 16 84 17 85 18 7 20 8 21 9 22 10 23 11 24 12 26
REMARK SMILES IDX 13 27 14 28 75 29 15 30 74 31 16 32 17 33 18 34 68 35 19 36
REMARK SMILES IDX 73 37 67 38 69 39 20 40 72 41 66 42 65 43 21 45 53 46 33 47
REMARK SMILES IDX 52 48 34 49 37 50 51 51 70 52 35 53 36 54 50 56 71 57 38 58
REMARK SMILES IDX 22 59 23 60 31 61 24 62 26 63 32 64 25 65 27 66 28 67 29 68
REMARK SMILES IDX 30 69 54 70 55 71 63 72 56 73 58 74 64 75 57 76 59 77 60 78
REMARK SMILES IDX 61 79 62 80 39 81 40 82 48 83 41 84 43 85 49 86 42 87 44 88
REMARK SMILES IDX 45 89 46 90 47 91
REMARK H PARENT 5 5 78 12 83 19 10 25 69 44 37 55
REMARK Flexibility Score: inf
ROOT
ATOM      1  C   UNL A   1      37.384  23.526  25.395  1.00  0.00     0.116 C 
ENDROOT
BRANCH   1   2
ATOM      2  N   UNL A   1      36.271  24.427  25.578  1.00  0.00    -0.356 N 
ATOM      3  C   UNL A   1      34.943  24.236  25.397  1.00  0.00     0.228 C 
ATOM      4  O   UNL A   1      34.198  25.111  25.855  1.00  0.00    -0.275 OA
ATOM      5  H   UNL A   1      36.518  25.329  25.886  1.00  0.00     0.163 HD
BRANCH   3   6
ATOM      6  C   UNL A   1      34.341  23.094  24.583  1.00  0.00     0.133 C 
ATOM      7  C   UNL A   1      34.893  23.165  23.152  1.00  0.00     0.024 C 
BRANCH   6   8
ATOM      8  C   UNL A   1      34.313  21.628  25.115  1.00  0.00     0.192 C 
ATOM      9  C   UNL A   1      34.839  21.364  26.529  1.00  0.00     0.076 C 
BRANCH   8  10
ATOM     10  N   UNL A   1      33.021  20.951  24.839  1.00  0.00    -0.334 N 
ATOM     11  C   UNL A   1      31.857  21.652  25.370  1.00  0.00     0.332 C 
ATOM     12  H   UNL A   1      33.168  20.109  25.397  1.00  0.00     0.348 HD
BRANCH  10  13
ATOM     13  C   UNL A   1      32.783  20.323  23.526  1.00  0.00     0.268 C 
BRANCH  13  14
ATOM     14  C   UNL A   1      32.204  18.900  23.370  1.00  0.00     0.123 C 
BRANCH  14  15
ATOM     15  C   UNL A   1      32.393  17.849  24.481  1.00  0.00     0.267 C 
BRANCH  15  16
ATOM     16  N   UNL A   1      32.974  16.523  24.235  1.00  0.00    -0.340 N 
ATOM     17  C   UNL A   1      34.112  16.650  23.309  1.00  0.00     0.332 C 
ATOM     18  C   UNL A   1      33.387  15.756  25.399  1.00  0.00     0.332 C 
ATOM     19  H   UNL A   1      32.203  15.984  23.838  1.00  0.00     0.347 HD
ENDBRANCH  15  16
ENDBRANCH  14  15
ENDBRANCH  13  14
ENDBRANCH  10  13
ENDBRANCH   8  10
ENDBRANCH   6   8
ENDBRANCH   3   6
ENDBRANCH   1   2
BRANCH   1  20
ATOM     20  C   UNL A   1      38.413  23.572  26.517  1.00  0.00     0.023 C 
BRANCH  20  21
ATOM     21  C   UNL A   1      39.298  22.332  26.661  1.00  0.00     0.023 C 
BRANCH  21  22
ATOM     22  C   UNL A   1      39.196  21.305  25.536  1.00  0.00     0.116 C 
BRANCH  22  23
ATOM     23  N   UNL A   1      39.973  20.099  25.788  1.00  0.00    -0.352 N 
ATOM     24  C   UNL A   1      41.295  19.962  26.153  1.00  0.00     0.251 C 
ATOM     25  H   UNL A   1      39.479  19.253  25.682  1.00  0.00     0.163 HD
ATOM     26  O   UNL A   1      41.816  18.855  26.182  1.00  0.00    -0.269 OA
BRANCH  24  27
ATOM     27  C   UNL A   1      42.093  21.166  26.477  1.00  0.00     0.039 A 
ATOM     28  C   UNL A   1      42.435  22.054  25.454  1.00  0.00     0.014 A 
ATOM     29  C   UNL A   1      42.462  21.433  27.795  1.00  0.00     0.014 A 
ATOM     30  C   UNL A   1      43.055  23.268  25.770  1.00  0.00     0.010 A 
ATOM     31  C   UNL A   1      43.003  22.673  28.116  1.00  0.00     0.010 A 
ATOM     32  C   UNL A   1      43.294  23.610  27.110  1.00  0.00    -0.014 A 
BRANCH  32  33
ATOM     33  C   UNL A   1      43.805  24.947  27.511  1.00  0.00     0.031 A 
ATOM     34  C   UNL A   1      42.854  25.990  28.026  1.00  0.00     0.074 A 
ATOM     35  C   UNL A   1      45.087  25.276  27.252  1.00  0.00     0.049 A 
ATOM     36  N   UNL A   1      43.057  27.263  28.239  1.00  0.00    -0.248 NA
ATOM     37  C   UNL A   1      41.475  25.548  28.297  1.00  0.00     0.031 C 
ATOM     38  C   UNL A   1      46.089  24.382  26.669  1.00  0.00     0.029 A 
ATOM     39  N   UNL A   1      45.749  26.472  27.391  1.00  0.00    -0.354 N 
ATOM     40  C   UNL A   1      41.824  27.788  28.603  1.00  0.00     0.074 A 
ATOM     41  C   UNL A   1      40.874  26.697  28.565  1.00  0.00     0.031 C 
ATOM     42  C   UNL A   1      47.230  25.064  26.479  1.00  0.00     0.029 A 
ATOM     43  C   UNL A   1      47.031  26.451  26.889  1.00  0.00     0.049 A 
ATOM     44  H   UNL A   1      45.347  27.267  27.809  1.00  0.00     0.167 HD
ATOM     45  C   UNL A   1      41.513  29.056  28.959  1.00  0.00     0.034 A 
ATOM     46  C   UNL A   1      47.937  27.439  26.747  1.00  0.00     0.034 A 
ATOM     47  C   UNL A   1      42.472  30.122  29.057  1.00  0.00     0.049 A 
ATOM     48  C   UNL A   1      47.594  28.824  27.222  1.00  0.00     0.074 A 
ATOM     49  C   UNL A   1      42.284  31.410  29.525  1.00  0.00     0.029 A 
ATOM     50  N   UNL A   1      43.801  30.027  28.673  1.00  0.00    -0.354 N 
ATOM     51  N   UNL A   1      46.468  29.265  27.726  1.00  0.00    -0.248 NA
ATOM     52  C   UNL A   1      48.654  29.840  27.142  1.00  0.00     0.031 C 
ATOM     53  C   UNL A   1      43.495  32.098  29.410  1.00  0.00     0.029 A 
ATOM     54  C   UNL A   1      44.444  31.233  28.888  1.00  0.00     0.049 A 
ATOM     55  H   UNL A   1      44.225  29.219  28.302  1.00  0.00     0.167 HD
ATOM     56  C   UNL A   1      46.691  30.597  28.056  1.00  0.00     0.074 A 
ATOM     57  C   UNL A   1      48.066  30.888  27.705  1.00  0.00     0.031 C 
ATOM     58  C   UNL A   1      45.829  31.497  28.590  1.00  0.00     0.034 A 
BRANCH  45  59
ATOM     59  C   UNL A   1      40.078  29.345  29.317  1.00  0.00     0.023 A 
ATOM     60  C   UNL A   1      39.152  29.645  28.297  1.00  0.00     0.012 A 
ATOM     61  C   UNL A   1      39.638  29.294  30.654  1.00  0.00     0.148 A 
ATOM     62  C   UNL A   1      37.825  29.939  28.605  1.00  0.00     0.002 A 
ATOM     63  C   UNL A   1      38.302  29.542  30.949  1.00  0.00     0.091 A 
ATOM     64  F   UNL A   1      40.535  29.031  31.616  1.00  0.00    -0.205 F 
ATOM     65  C   UNL A   1      37.398  29.879  29.929  1.00  0.00     0.022 A 
BRANCH  63  66
ATOM     66  S   UNL A   1      37.651  29.404  32.618  1.00  0.00     0.127 S 
ATOM     67  O   UNL A   1      38.535  30.305  33.355  1.00  0.00    -0.237 OA
ATOM     68  O   UNL A   1      36.280  29.892  32.460  1.00  0.00    -0.237 OA
ATOM     69  O   UNL A   1      37.750  27.993  32.962  1.00  0.00    -0.744 OA
ENDBRANCH  63  66
ENDBRANCH  45  59
BRANCH  46  70
ATOM     70  C   UNL A   1      49.278  27.123  26.179  1.00  0.00     0.023 A 
ATOM     71  C   UNL A   1      49.421  26.987  24.785  1.00  0.00     0.012 A 
ATOM     72  C   UNL A   1      50.420  27.035  27.000  1.00  0.00     0.148 A 
ATOM     73  C   UNL A   1      50.674  26.752  24.218  1.00  0.00     0.002 A 
ATOM     74  C   UNL A   1      51.672  26.856  26.424  1.00  0.00     0.091 A 
ATOM     75  F   UNL A   1      50.259  27.163  28.324  1.00  0.00    -0.205 F 
ATOM     76  C   UNL A   1      51.800  26.699  25.036  1.00  0.00     0.022 A 
BRANCH  74  77
ATOM     77  S   UNL A   1      53.193  26.916  27.379  1.00  0.00     0.127 S 
ATOM     78  O   UNL A   1      52.985  25.837  28.342  1.00  0.00    -0.237 OA
ATOM     79  O   UNL A   1      54.201  26.642  26.353  1.00  0.00    -0.237 OA
ATOM     80  O   UNL A   1      53.256  28.258  27.940  1.00  0.00    -0.744 OA
ENDBRANCH  74  77
ENDBRANCH  46  70
BRANCH  58  81
ATOM     81  C   UNL A   1      46.343  32.883  28.877  1.00  0.00     0.023 A 
ATOM     82  C   UNL A   1      46.892  33.179  30.140  1.00  0.00     0.012 A 
ATOM     83  C   UNL A   1      46.384  33.855  27.859  1.00  0.00     0.148 A 
ATOM     84  C   UNL A   1      47.459  34.428  30.390  1.00  0.00     0.002 A 
ATOM     85  C   UNL A   1      46.991  35.082  28.100  1.00  0.00     0.091 A 
ATOM     86  F   UNL A   1      45.838  33.559  26.670  1.00  0.00    -0.205 F 
ATOM     87  C   UNL A   1      47.521  35.373  29.368  1.00  0.00     0.022 A 
BRANCH  85  88
ATOM     88  S   UNL A   1      47.203  36.321  26.817  1.00  0.00     0.127 S 
ATOM     89  O   UNL A   1      47.226  37.557  27.597  1.00  0.00    -0.237 OA
ATOM     90  O   UNL A   1      48.491  35.946  26.232  1.00  0.00    -0.237 OA
ATOM     91  O   UNL A   1      46.066  36.170  25.920  1.00  0.00    -0.744 OA
ENDBRANCH  85  88
ENDBRANCH  58  81
ENDBRANCH  32  33
ENDBRANCH  24  27
ENDBRANCH  22  23
ENDBRANCH  21  22
ENDBRANCH  20  21
ENDBRANCH   1  20
TORSDOF 20
ENDMDL
MODEL 3
REMARK VINA RESULT:      -9.1      1.969      2.458
REMARK SMILES C[C@H](C(=O)NCCCCNC(=O)c1ccc(-c2c3nc(c(-c4cccc(S(=O)(=O)[O-])c4F)c4ccc([nH]4)c(-c4cccc(S(=O)(=O)[O-])c4F)c4nc(c(-c5cccc(S(=O)(=O)[O-])c5F)c5ccc2[nH]5)C=C4)C=C3)cc1)[C@@H](C)[N@@H+](C)CCC[NH+](C)C
REMARK SMILES IDX 6 1 5 2 3 3 4 4 2 6 1 7 76 8 77 9 78 10 79 11 80 13 81 14
REMARK SMILES IDX 82 15 83 16 84 17 85 18 7 20 8 21 9 22 10 23 11 24 12 26
REMARK SMILES IDX 13 27 14 28 75 29 15 30 74 31 16 32 17 33 18 34 68 35 19 36
REMARK SMILES IDX 73 37 67 38 69 39 20 40 72 41 66 42 65 43 21 45 53 46 33 47
REMARK SMILES IDX 52 48 34 49 37 50 51 51 70 52 35 53 36 54 50 56 71 57 38 58
REMARK SMILES IDX 22 59 23 60 31 61 24 62 26 63 32 64 25 65 27 66 28 67 29 68
REMARK SMILES IDX 30 69 54 70 55 71 63 72 56 73 58 74 64 75 57 76 59 77 60 78
REMARK SMILES IDX 61 79 62 80 39 81 40 82 48 83 41 84 43 85 49 86 42 87 44 88
REMARK SMILES IDX 45 89 46 90 47 91
REMARK H PARENT 5 5 78 12 83 19 10 25 69 44 37 55
REMARK Flexibility Score: inf
ROOT
ATOM      1  C   UNL A   1      31.856  29.630  25.373  1.00  0.00     0.116 C 
ENDROOT
BRANCH   1   2
ATOM      2  N   UNL A   1      31.255  29.429  24.076  1.00  0.00    -0.356 N 
ATOM      3  C   UNL A   1      30.689  28.329  23.527  1.00  0.00     0.228 C 
ATOM      4  O   UNL A   1      30.044  28.507  22.487  1.00  0.00    -0.275 OA
ATOM      5  H   UNL A   1      31.256  30.224  23.495  1.00  0.00     0.163 HD
BRANCH   3   6
ATOM      6  C   UNL A   1      30.894  26.907  24.043  1.00  0.00     0.133 C 
ATOM      7  C   UNL A   1      29.522  26.292  24.351  1.00  0.00     0.024 C 
BRANCH   6   8
ATOM      8  C   UNL A   1      31.827  25.892  23.314  1.00  0.00     0.192 C 
ATOM      9  C   UNL A   1      31.762  25.822  21.785  1.00  0.00     0.076 C 
BRANCH   8  10
ATOM     10  N   UNL A   1      33.217  25.926  23.836  1.00  0.00    -0.334 N 
ATOM     11  C   UNL A   1      33.876  27.219  23.685  1.00  0.00     0.332 C 
ATOM     12  H   UNL A   1      33.642  25.273  23.177  1.00  0.00     0.348 HD
BRANCH  10  13
ATOM     13  C   UNL A   1      33.549  25.238  25.097  1.00  0.00     0.268 C 
BRANCH  13  14
ATOM     14  C   UNL A   1      34.313  23.896  25.143  1.00  0.00     0.123 C 
BRANCH  14  15
ATOM     15  C   UNL A   1      33.754  22.649  24.431  1.00  0.00     0.267 C 
BRANCH  15  16
ATOM     16  N   UNL A   1      33.494  21.381  25.128  1.00  0.00    -0.340 N 
ATOM     17  C   UNL A   1      33.676  21.571  26.577  1.00  0.00     0.332 C 
ATOM     18  C   UNL A   1      32.210  20.745  24.884  1.00  0.00     0.332 C 
ATOM     19  H   UNL A   1      34.176  20.736  24.728  1.00  0.00     0.347 HD
ENDBRANCH  15  16
ENDBRANCH  14  15
ENDBRANCH  13  14
ENDBRANCH  10  13
ENDBRANCH   8  10
ENDBRANCH   6   8
ENDBRANCH   3   6
ENDBRANCH   1   2
BRANCH   1  20
ATOM     20  C   UNL A   1      31.498  30.958  26.027  1.00  0.00     0.023 C 
BRANCH  20  21
ATOM     21  C   UNL A   1      32.160  31.236  27.378  1.00  0.00     0.023 C 
BRANCH  21  22
ATOM     22  C   UNL A   1      33.287  32.265  27.370  1.00  0.00     0.116 C 
BRANCH  22  23
ATOM     23  N   UNL A   1      32.837  33.612  27.696  1.00  0.00    -0.352 N 
ATOM     24  C   UNL A   1      33.264  34.468  28.688  1.00  0.00     0.251 C 
ATOM     25  H   UNL A   1      32.118  33.963  27.121  1.00  0.00     0.163 HD
ATOM     26  O   UNL A   1      32.666  35.513  28.901  1.00  0.00    -0.269 OA
BRANCH  24  27
ATOM     27  C   UNL A   1      34.432  34.099  29.519  1.00  0.00     0.039 A 
ATOM     28  C   UNL A   1      34.255  33.230  30.599  1.00  0.00     0.014 A 
ATOM     29  C   UNL A   1      35.703  34.580  29.201  1.00  0.00     0.014 A 
ATOM     30  C   UNL A   1      35.373  32.757  31.296  1.00  0.00     0.010 A 
ATOM     31  C   UNL A   1      36.815  34.045  29.841  1.00  0.00     0.010 A 
ATOM     32  C   UNL A   1      36.665  33.119  30.886  1.00  0.00    -0.014 A 
BRANCH  32  33
ATOM     33  C   UNL A   1      37.887  32.525  31.489  1.00  0.00     0.031 A 
ATOM     34  C   UNL A   1      38.579  31.378  30.807  1.00  0.00     0.074 A 
ATOM     35  C   UNL A   1      38.270  32.899  32.727  1.00  0.00     0.049 A 
ATOM     36  N   UNL A   1      39.525  30.597  31.255  1.00  0.00    -0.248 NA
ATOM     37  C   UNL A   1      38.110  31.039  29.452  1.00  0.00     0.031 C 
ATOM     38  C   UNL A   1      37.627  33.938  33.534  1.00  0.00     0.029 A 
ATOM     39  N   UNL A   1      39.258  32.407  33.546  1.00  0.00    -0.354 N 
ATOM     40  C   UNL A   1      39.722  29.636  30.272  1.00  0.00     0.074 A 
ATOM     41  C   UNL A   1      38.782  29.923  29.209  1.00  0.00     0.031 C 
ATOM     42  C   UNL A   1      38.218  33.990  34.737  1.00  0.00     0.029 A 
ATOM     43  C   UNL A   1      39.256  32.966  34.803  1.00  0.00     0.049 A 
ATOM     44  H   UNL A   1      39.904  31.722  33.260  1.00  0.00     0.167 HD
ATOM     45  C   UNL A   1      40.617  28.621  30.243  1.00  0.00     0.034 A 
ATOM     46  C   UNL A   1      39.987  32.672  35.898  1.00  0.00     0.034 A 
ATOM     47  C   UNL A   1      41.591  28.379  31.272  1.00  0.00     0.049 A 
ATOM     48  C   UNL A   1      41.029  31.591  35.817  1.00  0.00     0.074 A 
ATOM     49  C   UNL A   1      42.621  27.456  31.282  1.00  0.00     0.029 A 
ATOM     50  N   UNL A   1      41.652  29.060  32.479  1.00  0.00    -0.354 N 
ATOM     51  N   UNL A   1      41.318  30.801  34.812  1.00  0.00    -0.248 NA
ATOM     52  C   UNL A   1      41.870  31.383  37.005  1.00  0.00     0.031 C 
ATOM     53  C   UNL A   1      43.295  27.568  32.502  1.00  0.00     0.029 A 
ATOM     54  C   UNL A   1      42.698  28.575  33.244  1.00  0.00     0.049 A 
ATOM     55  H   UNL A   1      41.042  29.784  32.749  1.00  0.00     0.167 HD
ATOM     56  C   UNL A   1      42.393  30.026  35.230  1.00  0.00     0.074 A 
ATOM     57  C   UNL A   1      42.714  30.451  36.578  1.00  0.00     0.031 C 
ATOM     58  C   UNL A   1      43.047  29.045  34.561  1.00  0.00     0.034 A 
BRANCH  45  59
ATOM     59  C   UNL A   1      40.612  27.726  29.032  1.00  0.00     0.023 A 
ATOM     60  C   UNL A   1      39.654  26.696  28.930  1.00  0.00     0.012 A 
ATOM     61  C   UNL A   1      41.534  27.916  27.984  1.00  0.00     0.148 A 
ATOM     62  C   UNL A   1      39.645  25.840  27.830  1.00  0.00     0.002 A 
ATOM     63  C   UNL A   1      41.489  27.087  26.868  1.00  0.00     0.091 A 
ATOM     64  F   UNL A   1      42.455  28.883  28.106  1.00  0.00    -0.205 F 
ATOM     65  C   UNL A   1      40.555  26.041  26.796  1.00  0.00     0.022 A 
BRANCH  63  66
ATOM     66  S   UNL A   1      42.571  27.328  25.455  1.00  0.00     0.127 S 
ATOM     67  O   UNL A   1      43.878  27.441  26.099  1.00  0.00    -0.237 OA
ATOM     68  O   UNL A   1      42.372  26.093  24.694  1.00  0.00    -0.237 OA
ATOM     69  O   UNL A   1      42.084  28.528  24.789  1.00  0.00    -0.744 OA
ENDBRANCH  63  66
ENDBRANCH  45  59
BRANCH  46  70
ATOM     70  C   UNL A   1      39.786  33.465  37.144  1.00  0.00     0.023 A 
ATOM     71  C   UNL A   1      38.726  33.132  38.008  1.00  0.00     0.012 A 
ATOM     72  C   UNL A   1      40.681  34.488  37.513  1.00  0.00     0.148 A 
ATOM     73  C   UNL A   1      38.549  33.817  39.212  1.00  0.00     0.002 A 
ATOM     74  C   UNL A   1      40.532  35.128  38.738  1.00  0.00     0.091 A 
ATOM     75  F   UNL A   1      41.681  34.790  36.672  1.00  0.00    -0.205 F 
ATOM     76  C   UNL A   1      39.459  34.805  39.582  1.00  0.00     0.022 A 
BRANCH  74  77
ATOM     77  S   UNL A   1      41.730  36.311  39.364  1.00  0.00     0.127 S 
ATOM     78  O   UNL A   1      41.311  36.455  40.756  1.00  0.00    -0.237 OA
ATOM     79  O   UNL A   1      42.990  35.591  39.171  1.00  0.00    -0.237 OA
ATOM     80  O   UNL A   1      41.584  37.499  38.535  1.00  0.00    -0.744 OA
ENDBRANCH  74  77
ENDBRANCH  46  70
BRANCH  58  81
ATOM     81  C   UNL A   1      44.209  28.376  35.245  1.00  0.00     0.023 A 
ATOM     82  C   UNL A   1      43.998  27.206  36.000  1.00  0.00     0.012 A 
ATOM     83  C   UNL A   1      45.523  28.843  35.044  1.00  0.00     0.148 A 
ATOM     84  C   UNL A   1      45.076  26.521  36.560  1.00  0.00     0.002 A 
ATOM     85  C   UNL A   1      46.596  28.131  35.566  1.00  0.00     0.091 A 
ATOM     86  F   UNL A   1      45.700  29.970  34.338  1.00  0.00    -0.205 F 
ATOM     87  C   UNL A   1      46.374  26.974  36.332  1.00  0.00     0.022 A 
BRANCH  85  88
ATOM     88  S   UNL A   1      48.303  28.585  35.241  1.00  0.00     0.127 S 
ATOM     89  O   UNL A   1      49.032  27.548  35.971  1.00  0.00    -0.237 OA
ATOM     90  O   UNL A   1      48.383  28.476  33.784  1.00  0.00    -0.237 OA
ATOM     91  O   UNL A   1      48.464  29.939  35.755  1.00  0.00    -0.744 OA
ENDBRANCH  85  88
ENDBRANCH  58  81
ENDBRANCH  32  33
ENDBRANCH  24  27
ENDBRANCH  22  23
ENDBRANCH  21  22
ENDBRANCH  20  21
ENDBRANCH   1  20
TORSDOF 20
ENDMDL
