MODEL 1
REMARK VINA RESULT:     -10.9      0.000      0.000
REMARK SMILES CC[C@@H](C)N(CC)c1cc(C(=O)NCCCCNC(=O)c2ccc(-c3c4nc(c(-c5cccc(S(=O)(=O)[O-])c5F)c5ccc([nH]5)c(-c5cccc(S(=O)(=O)[O-])c5F)c5nc(c(-c6cccc(S(=O)(=O)[O-])c6F)c6ccc3[nH]6)C=C5)C=C4)cc2)c2ccccc2n1
REMARK SMILES IDX 15 1 14 2 13 3 11 4 12 5 10 7 8 8 9 9 90 10 89 11 84 12
REMARK SMILES IDX 88 13 85 14 87 15 86 16 5 17 3 18 4 19 2 20 1 21 6 22 7 23
REMARK SMILES IDX 16 24 17 25 18 26 19 27 20 29 21 30 22 31 83 32 23 33 82 34
REMARK SMILES IDX 24 35 25 36 26 37 76 38 27 39 81 40 75 41 77 42 28 43 80 44
REMARK SMILES IDX 74 45 73 46 29 48 61 49 41 50 60 51 42 52 45 53 59 54 78 55
REMARK SMILES IDX 43 56 44 57 58 59 79 60 46 61 30 62 31 63 39 64 32 65 34 66
REMARK SMILES IDX 40 67 33 68 35 69 36 70 37 71 38 72 62 73 63 74 71 75 64 76
REMARK SMILES IDX 66 77 72 78 65 79 67 80 68 81 69 82 70 83 47 84 48 85 56 86
REMARK SMILES IDX 49 87 51 88 57 89 50 90 52 91 53 92 54 93 55 94
REMARK H PARENT 13 6 18 28 77 47 45 58
REMARK Flexibility Score: inf
ROOT
ATOM      1  C   UNL A   1      33.470  30.818  27.391  1.00  0.00     0.023 C 
ENDROOT
BRANCH   1   2
ATOM      2  C   UNL A   1      33.166  29.465  26.735  1.00  0.00     0.116 C 
BRANCH   2   3
ATOM      3  N   UNL A   1      33.614  29.515  25.361  1.00  0.00    -0.352 N 
ATOM      4  C   UNL A   1      33.300  28.793  24.242  1.00  0.00     0.252 C 
ATOM      5  O   UNL A   1      34.083  28.901  23.293  1.00  0.00    -0.269 OA
ATOM      6  H   UNL A   1      34.287  30.215  25.197  1.00  0.00     0.163 HD
BRANCH   4   7
ATOM      7  C   UNL A   1      32.042  28.017  24.017  1.00  0.00     0.052 A 
ATOM      8  C   UNL A   1      31.212  25.736  24.069  1.00  0.00     0.130 A 
ATOM      9  C   UNL A   1      32.246  26.640  24.195  1.00  0.00     0.061 A 
ATOM     10  N   UNL A   1      30.031  26.160  23.600  1.00  0.00    -0.231 NA
ATOM     11  C   UNL A   1      29.782  27.464  23.454  1.00  0.00     0.073 A 
ATOM     12  C   UNL A   1      30.730  28.465  23.734  1.00  0.00     0.013 A 
ATOM     13  C   UNL A   1      28.496  27.813  23.061  1.00  0.00     0.029 A 
ATOM     14  C   UNL A   1      30.249  29.793  23.761  1.00  0.00     0.011 A 
ATOM     15  C   UNL A   1      28.083  29.139  22.974  1.00  0.00     0.002 A 
ATOM     16  C   UNL A   1      28.960  30.138  23.351  1.00  0.00     0.001 A 
BRANCH   8  17
ATOM     17  N   UNL A   1      31.361  24.408  24.444  1.00  0.00    -0.354 N 
BRANCH  17  18
ATOM     18  C   UNL A   1      31.698  23.376  23.440  1.00  0.00     0.080 C 
ATOM     19  C   UNL A   1      32.125  22.086  24.142  1.00  0.00     0.031 C 
BRANCH  18  20
ATOM     20  C   UNL A   1      32.700  23.867  22.373  1.00  0.00     0.021 C 
ATOM     21  C   UNL A   1      34.103  23.302  22.549  1.00  0.00     0.006 C 
ENDBRANCH  18  20
ENDBRANCH  17  18
BRANCH  17  22
ATOM     22  C   UNL A   1      30.681  23.969  25.671  1.00  0.00     0.115 C 
ATOM     23  C   UNL A   1      31.557  24.114  26.908  1.00  0.00     0.027 C 
ENDBRANCH  17  22
ENDBRANCH   8  17
ENDBRANCH   4   7
ENDBRANCH   2   3
ENDBRANCH   1   2
BRANCH   1  24
ATOM     24  C   UNL A   1      32.370  31.864  27.274  1.00  0.00     0.023 C 
BRANCH  24  25
ATOM     25  C   UNL A   1      32.877  33.255  26.937  1.00  0.00     0.116 C 
BRANCH  25  26
ATOM     26  N   UNL A   1      32.518  34.271  27.926  1.00  0.00    -0.352 N 
ATOM     27  C   UNL A   1      33.177  34.572  29.093  1.00  0.00     0.251 C 
ATOM     28  H   UNL A   1      31.709  34.800  27.733  1.00  0.00     0.163 HD
ATOM     29  O   UNL A   1      32.745  35.415  29.872  1.00  0.00    -0.269 OA
BRANCH  27  30
ATOM     30  C   UNL A   1      34.396  33.807  29.402  1.00  0.00     0.039 A 
ATOM     31  C   UNL A   1      35.635  34.321  29.013  1.00  0.00     0.014 A 
ATOM     32  C   UNL A   1      34.304  32.690  30.234  1.00  0.00     0.014 A 
ATOM     33  C   UNL A   1      36.797  33.763  29.542  1.00  0.00     0.010 A 
ATOM     34  C   UNL A   1      35.454  32.199  30.827  1.00  0.00     0.010 A 
ATOM     35  C   UNL A   1      36.710  32.734  30.493  1.00  0.00    -0.014 A 
BRANCH  35  36
ATOM     36  C   UNL A   1      37.907  32.196  31.182  1.00  0.00     0.031 A 
ATOM     37  C   UNL A   1      38.680  31.079  30.541  1.00  0.00     0.074 A 
ATOM     38  C   UNL A   1      38.193  32.593  32.437  1.00  0.00     0.049 A 
ATOM     39  N   UNL A   1      39.639  30.348  31.042  1.00  0.00    -0.248 NA
ATOM     40  C   UNL A   1      38.283  30.698  29.175  1.00  0.00     0.031 C 
ATOM     41  C   UNL A   1      37.445  33.593  33.203  1.00  0.00     0.029 A 
ATOM     42  N   UNL A   1      39.163  32.166  33.310  1.00  0.00    -0.354 N 
ATOM     43  C   UNL A   1      39.910  29.380  30.083  1.00  0.00     0.074 A 
ATOM     44  C   UNL A   1      38.999  29.600  28.984  1.00  0.00     0.031 C 
ATOM     45  C   UNL A   1      37.974  33.693  34.433  1.00  0.00     0.029 A 
ATOM     46  C   UNL A   1      39.080  32.749  34.553  1.00  0.00     0.049 A 
ATOM     47  H   UNL A   1      39.852  31.506  33.068  1.00  0.00     0.167 HD
ATOM     48  C   UNL A   1      40.857  28.414  30.105  1.00  0.00     0.034 A 
ATOM     49  C   UNL A   1      39.807  32.536  35.669  1.00  0.00     0.034 A 
ATOM     50  C   UNL A   1      41.819  28.265  31.159  1.00  0.00     0.049 A 
ATOM     51  C   UNL A   1      40.932  31.539  35.624  1.00  0.00     0.074 A 
ATOM     52  C   UNL A   1      42.913  27.420  31.211  1.00  0.00     0.029 A 
ATOM     53  N   UNL A   1      41.807  28.985  32.343  1.00  0.00    -0.354 N 
ATOM     54  N   UNL A   1      41.300  30.759  34.635  1.00  0.00    -0.248 NA
ATOM     55  C   UNL A   1      41.767  31.416  36.827  1.00  0.00     0.031 C 
ATOM     56  C   UNL A   1      43.562  27.629  32.432  1.00  0.00     0.029 A 
ATOM     57  C   UNL A   1      42.875  28.606  33.136  1.00  0.00     0.049 A 
ATOM     58  H   UNL A   1      41.138  29.666  32.583  1.00  0.00     0.167 HD
ATOM     59  C   UNL A   1      42.425  30.077  35.083  1.00  0.00     0.074 A 
ATOM     60  C   UNL A   1      42.688  30.546  36.429  1.00  0.00     0.031 C 
ATOM     61  C   UNL A   1      43.160  29.134  34.445  1.00  0.00     0.034 A 
BRANCH  48  62
ATOM     62  C   UNL A   1      40.936  27.496  28.917  1.00  0.00     0.023 A 
ATOM     63  C   UNL A   1      40.060  26.394  28.832  1.00  0.00     0.012 A 
ATOM     64  C   UNL A   1      41.853  27.732  27.876  1.00  0.00     0.148 A 
ATOM     65  C   UNL A   1      40.122  25.519  27.750  1.00  0.00     0.002 A 
ATOM     66  C   UNL A   1      41.880  26.878  26.779  1.00  0.00     0.091 A 
ATOM     67  F   UNL A   1      42.701  28.764  27.986  1.00  0.00    -0.205 F 
ATOM     68  C   UNL A   1      41.024  25.766  26.719  1.00  0.00     0.022 A 
BRANCH  66  69
ATOM     69  S   UNL A   1      42.961  27.168  25.373  1.00  0.00     0.127 S 
ATOM     70  O   UNL A   1      42.264  28.250  24.682  1.00  0.00    -0.237 OA
ATOM     71  O   UNL A   1      44.215  27.565  26.017  1.00  0.00    -0.237 OA
ATOM     72  O   UNL A   1      43.029  25.898  24.663  1.00  0.00    -0.744 OA
ENDBRANCH  66  69
ENDBRANCH  48  62
BRANCH  49  73
ATOM     73  C   UNL A   1      39.536  33.347  36.889  1.00  0.00     0.023 A 
ATOM     74  C   UNL A   1      40.013  34.670  36.954  1.00  0.00     0.012 A 
ATOM     75  C   UNL A   1      38.755  32.844  37.949  1.00  0.00     0.148 A 
ATOM     76  C   UNL A   1      39.737  35.473  38.061  1.00  0.00     0.002 A 
ATOM     77  C   UNL A   1      38.441  33.667  39.027  1.00  0.00     0.091 A 
ATOM     78  F   UNL A   1      38.319  31.580  37.872  1.00  0.00    -0.205 F 
ATOM     79  C   UNL A   1      38.942  34.975  39.091  1.00  0.00     0.022 A 
BRANCH  77  80
ATOM     80  S   UNL A   1      37.315  33.157  40.330  1.00  0.00     0.127 S 
ATOM     81  O   UNL A   1      36.111  32.827  39.572  1.00  0.00    -0.237 OA
ATOM     82  O   UNL A   1      38.015  32.009  40.905  1.00  0.00    -0.237 OA
ATOM     83  O   UNL A   1      37.209  34.302  41.224  1.00  0.00    -0.744 OA
ENDBRANCH  77  80
ENDBRANCH  49  73
BRANCH  61  84
ATOM     84  C   UNL A   1      44.346  28.557  35.167  1.00  0.00     0.023 A 
ATOM     85  C   UNL A   1      45.615  29.140  34.992  1.00  0.00     0.012 A 
ATOM     86  C   UNL A   1      44.178  27.526  36.113  1.00  0.00     0.148 A 
ATOM     87  C   UNL A   1      46.704  28.698  35.740  1.00  0.00     0.002 A 
ATOM     88  C   UNL A   1      45.259  27.118  36.884  1.00  0.00     0.091 A 
ATOM     89  F   UNL A   1      42.963  26.974  36.248  1.00  0.00    -0.205 F 
ATOM     90  C   UNL A   1      46.524  27.699  36.695  1.00  0.00     0.022 A 
BRANCH  88  91
ATOM     91  S   UNL A   1      45.098  25.908  38.202  1.00  0.00     0.127 S 
ATOM     92  O   UNL A   1      46.461  25.859  38.728  1.00  0.00    -0.237 OA
ATOM     93  O   UNL A   1      44.124  26.543  39.091  1.00  0.00    -0.237 OA
ATOM     94  O   UNL A   1      44.628  24.684  37.568  1.00  0.00    -0.744 OA
ENDBRANCH  88  91
ENDBRANCH  61  84
ENDBRANCH  35  36
ENDBRANCH  27  30
ENDBRANCH  25  26
ENDBRANCH  24  25
ENDBRANCH   1  24
TORSDOF 18
ENDMDL
MODEL 2
REMARK VINA RESULT:     -10.8      5.767     11.715
REMARK SMILES CC[C@@H](C)N(CC)c1cc(C(=O)NCCCCNC(=O)c2ccc(-c3c4nc(c(-c5cccc(S(=O)(=O)[O-])c5F)c5ccc([nH]5)c(-c5cccc(S(=O)(=O)[O-])c5F)c5nc(c(-c6cccc(S(=O)(=O)[O-])c6F)c6ccc3[nH]6)C=C5)C=C4)cc2)c2ccccc2n1
REMARK SMILES IDX 15 1 14 2 13 3 11 4 12 5 10 7 8 8 9 9 90 10 89 11 84 12
REMARK SMILES IDX 88 13 85 14 87 15 86 16 5 17 3 18 4 19 2 20 1 21 6 22 7 23
REMARK SMILES IDX 16 24 17 25 18 26 19 27 20 29 21 30 22 31 83 32 23 33 82 34
REMARK SMILES IDX 24 35 25 36 26 37 76 38 27 39 81 40 75 41 77 42 28 43 80 44
REMARK SMILES IDX 74 45 73 46 29 48 61 49 41 50 60 51 42 52 45 53 59 54 78 55
REMARK SMILES IDX 43 56 44 57 58 59 79 60 46 61 30 62 31 63 39 64 32 65 34 66
REMARK SMILES IDX 40 67 33 68 35 69 36 70 37 71 38 72 62 73 63 74 71 75 64 76
REMARK SMILES IDX 66 77 72 78 65 79 67 80 68 81 69 82 70 83 47 84 48 85 56 86
REMARK SMILES IDX 49 87 51 88 57 89 50 90 52 91 53 92 54 93 55 94
REMARK H PARENT 13 6 18 28 77 47 45 58
REMARK Flexibility Score: inf
ROOT
ATOM      1  C   UNL A   1      38.245  23.344  25.882  1.00  0.00     0.023 C 
ENDROOT
BRANCH   1   2
ATOM      2  C   UNL A   1      36.776  23.732  25.671  1.00  0.00     0.116 C 
BRANCH   2   3
ATOM      3  N   UNL A   1      35.989  23.119  26.717  1.00  0.00    -0.352 N 
ATOM      4  C   UNL A   1      34.674  22.753  26.813  1.00  0.00     0.252 C 
ATOM      5  O   UNL A   1      34.260  22.525  27.954  1.00  0.00    -0.269 OA
ATOM      6  H   UNL A   1      36.508  22.924  27.531  1.00  0.00     0.163 HD
BRANCH   4   7
ATOM      7  C   UNL A   1      33.752  22.468  25.671  1.00  0.00     0.052 A 
ATOM      8  C   UNL A   1      32.189  23.599  24.196  1.00  0.00     0.130 A 
ATOM      9  C   UNL A   1      33.069  23.624  25.258  1.00  0.00     0.061 A 
ATOM     10  N   UNL A   1      31.849  22.420  23.659  1.00  0.00    -0.231 NA
ATOM     11  C   UNL A   1      32.501  21.304  23.995  1.00  0.00     0.073 A 
ATOM     12  C   UNL A   1      33.539  21.274  24.944  1.00  0.00     0.013 A 
ATOM     13  C   UNL A   1      32.148  20.147  23.311  1.00  0.00     0.029 A 
ATOM     14  C   UNL A   1      34.286  20.076  25.018  1.00  0.00     0.011 A 
ATOM     15  C   UNL A   1      32.823  18.943  23.495  1.00  0.00     0.002 A 
ATOM     16  C   UNL A   1      33.917  18.913  24.338  1.00  0.00     0.001 A 
BRANCH   8  17
ATOM     17  N   UNL A   1      31.674  24.769  23.657  1.00  0.00    -0.354 N 
BRANCH  17  18
ATOM     18  C   UNL A   1      32.522  25.655  22.831  1.00  0.00     0.080 C 
ATOM     19  C   UNL A   1      32.796  24.999  21.476  1.00  0.00     0.031 C 
BRANCH  18  20
ATOM     20  C   UNL A   1      33.795  26.135  23.561  1.00  0.00     0.021 C 
ATOM     21  C   UNL A   1      33.565  27.350  24.450  1.00  0.00     0.006 C 
ENDBRANCH  18  20
ENDBRANCH  17  18
BRANCH  17  22
ATOM     22  C   UNL A   1      30.510  25.370  24.326  1.00  0.00     0.115 C 
ATOM     23  C   UNL A   1      29.971  26.584  23.582  1.00  0.00     0.027 C 
ENDBRANCH  17  22
ENDBRANCH   8  17
ENDBRANCH   4   7
ENDBRANCH   2   3
ENDBRANCH   1   2
BRANCH   1  24
ATOM     24  C   UNL A   1      38.577  21.878  25.640  1.00  0.00     0.023 C 
BRANCH  24  25
ATOM     25  C   UNL A   1      39.506  21.277  26.680  1.00  0.00     0.116 C 
BRANCH  25  26
ATOM     26  N   UNL A   1      40.184  20.060  26.234  1.00  0.00    -0.352 N 
ATOM     27  C   UNL A   1      41.532  19.877  26.038  1.00  0.00     0.251 C 
ATOM     28  H   UNL A   1      39.608  19.282  26.053  1.00  0.00     0.163 HD
ATOM     29  O   UNL A   1      41.977  18.818  25.608  1.00  0.00    -0.269 OA
BRANCH  27  30
ATOM     30  C   UNL A   1      42.420  21.018  26.314  1.00  0.00     0.039 A 
ATOM     31  C   UNL A   1      42.742  21.891  25.273  1.00  0.00     0.014 A 
ATOM     32  C   UNL A   1      42.763  21.308  27.635  1.00  0.00     0.014 A 
ATOM     33  C   UNL A   1      43.335  23.116  25.575  1.00  0.00     0.010 A 
ATOM     34  C   UNL A   1      43.267  22.561  27.939  1.00  0.00     0.010 A 
ATOM     35  C   UNL A   1      43.551  23.479  26.913  1.00  0.00    -0.014 A 
BRANCH  35  36
ATOM     36  C   UNL A   1      44.057  24.820  27.292  1.00  0.00     0.031 A 
ATOM     37  C   UNL A   1      43.101  25.832  27.853  1.00  0.00     0.074 A 
ATOM     38  C   UNL A   1      45.320  25.172  26.981  1.00  0.00     0.049 A 
ATOM     39  N   UNL A   1      43.288  27.104  28.082  1.00  0.00    -0.248 NA
ATOM     40  C   UNL A   1      41.735  25.363  28.143  1.00  0.00     0.031 C 
ATOM     41  C   UNL A   1      46.308  24.305  26.333  1.00  0.00     0.029 A 
ATOM     42  N   UNL A   1      45.975  26.370  27.123  1.00  0.00    -0.354 N 
ATOM     43  C   UNL A   1      42.051  27.599  28.474  1.00  0.00     0.074 A 
ATOM     44  C   UNL A   1      41.115  26.498  28.427  1.00  0.00     0.031 C 
ATOM     45  C   UNL A   1      47.436  25.004  26.122  1.00  0.00     0.029 A 
ATOM     46  C   UNL A   1      47.245  26.371  26.595  1.00  0.00     0.049 A 
ATOM     47  H   UNL A   1      45.572  27.154  27.562  1.00  0.00     0.167 HD
ATOM     48  C   UNL A   1      41.730  28.852  28.868  1.00  0.00     0.034 A 
ATOM     49  C   UNL A   1      48.149  27.365  26.493  1.00  0.00     0.034 A 
ATOM     50  C   UNL A   1      42.687  29.913  29.003  1.00  0.00     0.049 A 
ATOM     51  C   UNL A   1      47.806  28.719  27.051  1.00  0.00     0.074 A 
ATOM     52  C   UNL A   1      42.501  31.176  29.537  1.00  0.00     0.029 A 
ATOM     53  N   UNL A   1      44.013  29.833  28.608  1.00  0.00    -0.354 N 
ATOM     54  N   UNL A   1      46.683  29.122  27.598  1.00  0.00    -0.248 NA
ATOM     55  C   UNL A   1      48.858  29.745  27.017  1.00  0.00     0.031 C 
ATOM     56  C   UNL A   1      43.717  31.860  29.461  1.00  0.00     0.029 A 
ATOM     57  C   UNL A   1      44.661  31.023  28.885  1.00  0.00     0.049 A 
ATOM     58  H   UNL A   1      44.431  29.045  28.193  1.00  0.00     0.167 HD
ATOM     59  C   UNL A   1      46.903  30.434  28.000  1.00  0.00     0.074 A 
ATOM     60  C   UNL A   1      48.271  30.755  27.647  1.00  0.00     0.031 C 
ATOM     61  C   UNL A   1      46.042  31.300  28.590  1.00  0.00     0.034 A 
BRANCH  48  62
ATOM     62  C   UNL A   1      40.300  29.114  29.250  1.00  0.00     0.023 A 
ATOM     63  C   UNL A   1      39.361  29.431  28.247  1.00  0.00     0.012 A 
ATOM     64  C   UNL A   1      39.876  29.023  30.589  1.00  0.00     0.148 A 
ATOM     65  C   UNL A   1      38.032  29.693  28.574  1.00  0.00     0.002 A 
ATOM     66  C   UNL A   1      38.540  29.244  30.903  1.00  0.00     0.091 A 
ATOM     67  F   UNL A   1      40.787  28.752  31.536  1.00  0.00    -0.205 F 
ATOM     68  C   UNL A   1      37.620  29.589  29.900  1.00  0.00     0.022 A 
BRANCH  66  69
ATOM     69  S   UNL A   1      37.912  29.057  32.576  1.00  0.00     0.127 S 
ATOM     70  O   UNL A   1      38.060  27.619  32.789  1.00  0.00    -0.237 OA
ATOM     71  O   UNL A   1      38.835  29.886  33.353  1.00  0.00    -0.237 OA
ATOM     72  O   UNL A   1      36.545  29.558  32.538  1.00  0.00    -0.744 OA
ENDBRANCH  66  69
ENDBRANCH  48  62
BRANCH  49  73
ATOM     73  C   UNL A   1      49.490  27.083  25.909  1.00  0.00     0.023 A 
ATOM     74  C   UNL A   1      50.453  26.415  26.691  1.00  0.00     0.012 A 
ATOM     75  C   UNL A   1      49.794  27.407  24.572  1.00  0.00     0.148 A 
ATOM     76  C   UNL A   1      51.702  26.093  26.159  1.00  0.00     0.002 A 
ATOM     77  C   UNL A   1      51.023  27.038  24.033  1.00  0.00     0.091 A 
ATOM     78  F   UNL A   1      48.868  28.051  23.848  1.00  0.00    -0.205 F 
ATOM     79  C   UNL A   1      51.982  26.394  24.828  1.00  0.00     0.022 A 
BRANCH  77  80
ATOM     80  S   UNL A   1      51.418  27.263  22.295  1.00  0.00     0.127 S 
ATOM     81  O   UNL A   1      52.644  26.479  22.163  1.00  0.00    -0.237 OA
ATOM     82  O   UNL A   1      50.244  26.686  21.640  1.00  0.00    -0.237 OA
ATOM     83  O   UNL A   1      51.560  28.701  22.110  1.00  0.00    -0.744 OA
ENDBRANCH  77  80
ENDBRANCH  49  73
BRANCH  61  84
ATOM     84  C   UNL A   1      46.548  32.675  28.929  1.00  0.00     0.023 A 
ATOM     85  C   UNL A   1      47.209  32.887  30.154  1.00  0.00     0.012 A 
ATOM     86  C   UNL A   1      46.483  33.717  27.983  1.00  0.00     0.148 A 
ATOM     87  C   UNL A   1      47.788  34.122  30.438  1.00  0.00     0.002 A 
ATOM     88  C   UNL A   1      47.098  34.932  28.256  1.00  0.00     0.091 A 
ATOM     89  F   UNL A   1      45.832  33.495  26.832  1.00  0.00    -0.205 F 
ATOM     90  C   UNL A   1      47.747  35.138  29.485  1.00  0.00     0.022 A 
BRANCH  88  91
ATOM     91  S   UNL A   1      47.178  36.262  27.050  1.00  0.00     0.127 S 
ATOM     92  O   UNL A   1      45.768  36.618  26.908  1.00  0.00    -0.237 OA
ATOM     93  O   UNL A   1      47.994  37.262  27.742  1.00  0.00    -0.237 OA
ATOM     94  O   UNL A   1      47.802  35.691  25.864  1.00  0.00    -0.744 OA
ENDBRANCH  88  91
ENDBRANCH  61  84
ENDBRANCH  35  36
ENDBRANCH  27  30
ENDBRANCH  25  26
ENDBRANCH  24  25
ENDBRANCH   1  24
TORSDOF 18
ENDMDL
MODEL 3
REMARK VINA RESULT:     -10.8      5.866      9.952
REMARK SMILES CC[C@@H](C)N(CC)c1cc(C(=O)NCCCCNC(=O)c2ccc(-c3c4nc(c(-c5cccc(S(=O)(=O)[O-])c5F)c5ccc([nH]5)c(-c5cccc(S(=O)(=O)[O-])c5F)c5nc(c(-c6cccc(S(=O)(=O)[O-])c6F)c6ccc3[nH]6)C=C5)C=C4)cc2)c2ccccc2n1
REMARK SMILES IDX 15 1 14 2 13 3 11 4 12 5 10 7 8 8 9 9 90 10 89 11 84 12
REMARK SMILES IDX 88 13 85 14 87 15 86 16 5 17 3 18 4 19 2 20 1 21 6 22 7 23
REMARK SMILES IDX 16 24 17 25 18 26 19 27 20 29 21 30 22 31 83 32 23 33 82 34
REMARK SMILES IDX 24 35 25 36 26 37 76 38 27 39 81 40 75 41 77 42 28 43 80 44
REMARK SMILES IDX 74 45 73 46 29 48 61 49 41 50 60 51 42 52 45 53 59 54 78 55
REMARK SMILES IDX 43 56 44 57 58 59 79 60 46 61 30 62 31 63 39 64 32 65 34 66
REMARK SMILES IDX 40 67 33 68 35 69 36 70 37 71 38 72 62 73 63 74 71 75 64 76
REMARK SMILES IDX 66 77 72 78 65 79 67 80 68 81 69 82 70 83 47 84 48 85 56 86
REMARK SMILES IDX 49 87 51 88 57 89 50 90 52 91 53 92 54 93 55 94
REMARK H PARENT 13 6 18 28 77 47 45 58
REMARK Flexibility Score: inf
ROOT
ATOM      1  C   UNL A   1      38.982  23.176  26.502  1.00  0.00     0.023 C 
ENDROOT
BRANCH   1   2
ATOM      2  C   UNL A   1      37.593  23.707  26.124  1.00  0.00     0.116 C 
BRANCH   2   3
ATOM      3  N   UNL A   1      37.462  23.654  24.685  1.00  0.00    -0.352 N 
ATOM      4  C   UNL A   1      36.440  23.304  23.846  1.00  0.00     0.252 C 
ATOM      5  O   UNL A   1      36.756  23.088  22.672  1.00  0.00    -0.269 OA
ATOM      6  H   UNL A   1      38.281  23.925  24.210  1.00  0.00     0.163 HD
BRANCH   4   7
ATOM      7  C   UNL A   1      34.983  23.304  24.182  1.00  0.00     0.052 A 
ATOM      8  C   UNL A   1      33.103  24.828  24.377  1.00  0.00     0.130 A 
ATOM      9  C   UNL A   1      34.442  24.598  24.133  1.00  0.00     0.061 A 
ATOM     10  N   UNL A   1      32.343  23.826  24.837  1.00  0.00    -0.231 NA
ATOM     11  C   UNL A   1      32.807  22.574  24.862  1.00  0.00     0.073 A 
ATOM     12  C   UNL A   1      34.109  22.226  24.457  1.00  0.00     0.013 A 
ATOM     13  C   UNL A   1      31.913  21.586  25.256  1.00  0.00     0.029 A 
ATOM     14  C   UNL A   1      34.373  20.845  24.315  1.00  0.00     0.011 A 
ATOM     15  C   UNL A   1      32.242  20.234  25.225  1.00  0.00     0.002 A 
ATOM     16  C   UNL A   1      33.475  19.858  24.727  1.00  0.00     0.001 A 
BRANCH   8  17
ATOM     17  N   UNL A   1      32.525  26.066  24.129  1.00  0.00    -0.354 N 
BRANCH  17  18
ATOM     18  C   UNL A   1      31.407  26.554  24.964  1.00  0.00     0.080 C 
ATOM     19  C   UNL A   1      30.106  26.526  24.160  1.00  0.00     0.031 C 
BRANCH  18  20
ATOM     20  C   UNL A   1      31.696  27.914  25.635  1.00  0.00     0.021 C 
ATOM     21  C   UNL A   1      32.478  27.797  26.936  1.00  0.00     0.006 C 
ENDBRANCH  18  20
ENDBRANCH  17  18
BRANCH  17  22
ATOM     22  C   UNL A   1      32.654  26.615  22.771  1.00  0.00     0.115 C 
ATOM     23  C   UNL A   1      32.327  25.589  21.694  1.00  0.00     0.027 C 
ENDBRANCH  17  22
ENDBRANCH   8  17
ENDBRANCH   4   7
ENDBRANCH   2   3
ENDBRANCH   1   2
BRANCH   1  24
ATOM     24  C   UNL A   1      39.307  21.776  26.003  1.00  0.00     0.023 C 
BRANCH  24  25
ATOM     25  C   UNL A   1      40.198  20.979  26.940  1.00  0.00     0.116 C 
BRANCH  25  26
ATOM     26  N   UNL A   1      40.950  19.914  26.277  1.00  0.00    -0.352 N 
ATOM     27  C   UNL A   1      42.233  19.976  25.787  1.00  0.00     0.251 C 
ATOM     28  H   UNL A   1      40.483  19.053  26.170  1.00  0.00     0.163 HD
ATOM     29  O   UNL A   1      42.738  19.025  25.199  1.00  0.00    -0.269 OA
BRANCH  27  30
ATOM     30  C   UNL A   1      42.960  21.245  25.945  1.00  0.00     0.039 A 
ATOM     31  C   UNL A   1      43.038  22.120  24.860  1.00  0.00     0.014 A 
ATOM     32  C   UNL A   1      43.390  21.628  27.217  1.00  0.00     0.014 A 
ATOM     33  C   UNL A   1      43.466  23.429  25.074  1.00  0.00     0.010 A 
ATOM     34  C   UNL A   1      43.726  22.952  27.442  1.00  0.00     0.010 A 
ATOM     35  C   UNL A   1      43.760  23.867  26.375  1.00  0.00    -0.014 A 
BRANCH  35  36
ATOM     36  C   UNL A   1      44.093  25.279  26.674  1.00  0.00     0.031 A 
ATOM     37  C   UNL A   1      45.519  25.736  26.558  1.00  0.00     0.074 A 
ATOM     38  C   UNL A   1      43.156  26.091  27.200  1.00  0.00     0.049 A 
ATOM     39  N   UNL A   1      46.056  26.864  26.938  1.00  0.00    -0.248 NA
ATOM     40  C   UNL A   1      46.479  24.773  25.991  1.00  0.00     0.031 C 
ATOM     41  C   UNL A   1      41.762  25.723  27.461  1.00  0.00     0.029 A 
ATOM     42  N   UNL A   1      43.247  27.383  27.658  1.00  0.00    -0.354 N 
ATOM     43  C   UNL A   1      47.421  26.720  26.721  1.00  0.00     0.074 A 
ATOM     44  C   UNL A   1      47.633  25.388  26.202  1.00  0.00     0.031 C 
ATOM     45  C   UNL A   1      41.135  26.758  28.043  1.00  0.00     0.029 A 
ATOM     46  C   UNL A   1      42.083  27.852  28.220  1.00  0.00     0.049 A 
ATOM     47  H   UNL A   1      44.069  27.921  27.588  1.00  0.00     0.167 HD
ATOM     48  C   UNL A   1      48.405  27.629  26.907  1.00  0.00     0.034 A 
ATOM     49  C   UNL A   1      41.815  29.028  28.822  1.00  0.00     0.034 A 
ATOM     50  C   UNL A   1      48.171  28.980  27.331  1.00  0.00     0.049 A 
ATOM     51  C   UNL A   1      42.900  30.066  28.907  1.00  0.00     0.074 A 
ATOM     52  C   UNL A   1      49.074  30.025  27.408  1.00  0.00     0.029 A 
ATOM     53  N   UNL A   1      46.944  29.475  27.743  1.00  0.00    -0.354 N 
ATOM     54  N   UNL A   1      44.151  29.980  28.518  1.00  0.00    -0.248 NA
ATOM     55  C   UNL A   1      42.537  31.373  29.472  1.00  0.00     0.031 C 
ATOM     56  C   UNL A   1      48.390  31.153  27.869  1.00  0.00     0.029 A 
ATOM     57  C   UNL A   1      47.062  30.812  28.076  1.00  0.00     0.049 A 
ATOM     58  H   UNL A   1      46.112  28.951  27.791  1.00  0.00     0.167 HD
ATOM     59  C   UNL A   1      44.714  31.227  28.763  1.00  0.00     0.074 A 
ATOM     60  C   UNL A   1      43.665  32.056  29.320  1.00  0.00     0.031 C 
ATOM     61  C   UNL A   1      45.989  31.639  28.563  1.00  0.00     0.034 A 
BRANCH  48  62
ATOM     62  C   UNL A   1      49.810  27.205  26.581  1.00  0.00     0.023 A 
ATOM     63  C   UNL A   1      50.601  26.597  27.577  1.00  0.00     0.012 A 
ATOM     64  C   UNL A   1      50.341  27.382  25.289  1.00  0.00     0.148 A 
ATOM     65  C   UNL A   1      51.910  26.208  27.307  1.00  0.00     0.002 A 
ATOM     66  C   UNL A   1      51.635  26.953  25.015  1.00  0.00     0.091 A 
ATOM     67  F   UNL A   1      49.589  27.991  24.361  1.00  0.00    -0.205 F 
ATOM     68  C   UNL A   1      52.424  26.376  26.024  1.00  0.00     0.022 A 
BRANCH  66  69
ATOM     69  S   UNL A   1      52.346  27.065  23.369  1.00  0.00     0.127 S 
ATOM     70  O   UNL A   1      53.382  26.036  23.422  1.00  0.00    -0.237 OA
ATOM     71  O   UNL A   1      51.205  26.736  22.511  1.00  0.00    -0.237 OA
ATOM     72  O   UNL A   1      52.817  28.437  23.239  1.00  0.00    -0.744 OA
ENDBRANCH  66  69
ENDBRANCH  48  62
BRANCH  49  73
ATOM     73  C   UNL A   1      40.436  29.306  29.313  1.00  0.00     0.023 A 
ATOM     74  C   UNL A   1      39.470  29.789  28.410  1.00  0.00     0.012 A 
ATOM     75  C   UNL A   1      40.058  29.030  30.642  1.00  0.00     0.148 A 
ATOM     76  C   UNL A   1      38.157  30.014  28.825  1.00  0.00     0.002 A 
ATOM     77  C   UNL A   1      38.736  29.209  31.037  1.00  0.00     0.091 A 
ATOM     78  F   UNL A   1      40.995  28.579  31.488  1.00  0.00    -0.205 F 
ATOM     79  C   UNL A   1      37.788  29.713  30.134  1.00  0.00     0.022 A 
BRANCH  77  80
ATOM     80  S   UNL A   1      38.141  28.720  32.660  1.00  0.00     0.127 S 
ATOM     81  O   UNL A   1      38.331  27.273  32.625  1.00  0.00    -0.237 OA
ATOM     82  O   UNL A   1      39.054  29.441  33.547  1.00  0.00    -0.237 OA
ATOM     83  O   UNL A   1      36.760  29.179  32.723  1.00  0.00    -0.744 OA
ENDBRANCH  77  80
ENDBRANCH  49  73
BRANCH  61  84
ATOM     84  C   UNL A   1      46.333  33.061  28.913  1.00  0.00     0.023 A 
ATOM     85  C   UNL A   1      47.000  33.335  30.123  1.00  0.00     0.012 A 
ATOM     86  C   UNL A   1      46.114  34.101  27.988  1.00  0.00     0.148 A 
ATOM     87  C   UNL A   1      47.433  34.627  30.413  1.00  0.00     0.002 A 
ATOM     88  C   UNL A   1      46.585  35.378  28.266  1.00  0.00     0.091 A 
ATOM     89  F   UNL A   1      45.462  33.818  26.852  1.00  0.00    -0.205 F 
ATOM     90  C   UNL A   1      47.240  35.644  29.480  1.00  0.00     0.022 A 
BRANCH  88  91
ATOM     91  S   UNL A   1      46.467  36.725  27.083  1.00  0.00     0.127 S 
ATOM     92  O   UNL A   1      45.020  36.849  26.919  1.00  0.00    -0.237 OA
ATOM     93  O   UNL A   1      47.096  37.832  27.806  1.00  0.00    -0.237 OA
ATOM     94  O   UNL A   1      47.195  36.285  25.900  1.00  0.00    -0.744 OA
ENDBRANCH  88  91
ENDBRANCH  61  84
ENDBRANCH  35  36
ENDBRANCH  27  30
ENDBRANCH  25  26
ENDBRANCH  24  25
ENDBRANCH   1  24
TORSDOF 18
ENDMDL
