MODEL 1
REMARK VINA RESULT:     -14.6      0.000      0.000
REMARK SMILES O=C(NCCCCNC(=O)[C@@H]1CCCN(c2ccc3cc(S(=O)(=O)N4CCCCC4)ccc3n2)C1)c1ccc(-c2c3nc(c(-c4cccc(S(=O)(=O)[O-])c4F)c4ccc([nH]4)c(-c4cccc(S(=O)(=O)[O-])c4F)c4nc(c(-c5cccc(S(=O)(=O)[O-])c5F)c5ccc2[nH]5)C=C4)C=C3)cc1
REMARK SMILES IDX 5 1 4 2 3 3 1 4 2 5 36 7 37 8 98 9 38 10 97 11 39 12 40 13
REMARK SMILES IDX 41 14 91 15 42 16 96 17 90 18 92 19 43 20 95 21 89 22 88 23
REMARK SMILES IDX 44 25 76 26 56 27 75 28 57 29 60 30 74 31 93 32 58 33 59 34
REMARK SMILES IDX 73 36 94 37 61 38 45 39 46 40 54 41 47 42 49 43 55 44 48 45
REMARK SMILES IDX 50 46 51 47 52 48 53 49 77 50 78 51 86 52 79 53 81 54 87 55
REMARK SMILES IDX 80 56 82 57 83 58 84 59 85 60 62 61 63 62 71 63 64 64 66 65
REMARK SMILES IDX 72 66 65 67 67 68 68 69 69 70 70 71 6 72 7 73 8 74 9 75
REMARK SMILES IDX 10 77 11 78 12 79 35 80 13 81 15 82 14 83 16 84 17 85 34 86
REMARK SMILES IDX 18 87 33 88 19 89 32 90 20 91 31 92 21 93 22 94 23 95 24 96
REMARK SMILES IDX 25 97 26 98 30 99 27 100 29 101 28 102
REMARK H PARENT 3 6 92 24 60 35 8 76
REMARK Flexibility Score: inf
ROOT
ATOM      1  C   UNL A   1      31.883  30.465  26.470  1.00  0.00     0.023 C 
ENDROOT
BRANCH   1   2
ATOM      2  C   UNL A   1      33.187  31.176  27.284  1.00  0.00     0.116 C 
BRANCH   2   3
ATOM      3  N   UNL A   1      32.958  32.630  27.393  1.00  0.00    -0.352 N 
ATOM      4  O   UNL A   1      32.701  34.589  28.420  1.00  0.00    -0.269 OA
ATOM      5  C   UNL A   1      33.375  33.563  28.310  1.00  0.00     0.251 C 
ATOM      6  H   UNL A   1      32.400  33.001  26.671  1.00  0.00     0.163 HD
BRANCH   5   7
ATOM      7  C   UNL A   1      34.558  33.370  29.195  1.00  0.00     0.039 A 
ATOM      8  C   UNL A   1      34.511  32.679  30.403  1.00  0.00     0.014 A 
ATOM      9  C   UNL A   1      35.801  33.826  28.733  1.00  0.00     0.014 A 
ATOM     10  C   UNL A   1      35.670  32.500  31.160  1.00  0.00     0.010 A 
ATOM     11  C   UNL A   1      36.977  33.596  29.452  1.00  0.00     0.010 A 
ATOM     12  C   UNL A   1      36.922  32.905  30.664  1.00  0.00    -0.014 A 
BRANCH  12  13
ATOM     13  C   UNL A   1      38.149  32.330  31.273  1.00  0.00     0.031 A 
ATOM     14  C   UNL A   1      38.787  32.886  32.509  1.00  0.00     0.074 A 
ATOM     15  C   UNL A   1      38.692  31.271  30.639  1.00  0.00     0.049 A 
ATOM     16  N   UNL A   1      39.780  32.389  33.204  1.00  0.00    -0.248 NA
ATOM     17  C   UNL A   1      38.266  34.158  33.031  1.00  0.00     0.031 C 
ATOM     18  C   UNL A   1      38.217  30.731  29.359  1.00  0.00     0.029 A 
ATOM     19  N   UNL A   1      39.744  30.458  30.967  1.00  0.00    -0.354 N 
ATOM     20  C   UNL A   1      40.011  33.284  34.241  1.00  0.00     0.074 A 
ATOM     21  C   UNL A   1      39.063  34.367  34.075  1.00  0.00     0.031 C 
ATOM     22  C   UNL A   1      38.946  29.658  29.032  1.00  0.00     0.029 A 
ATOM     23  C   UNL A   1      39.969  29.457  30.050  1.00  0.00     0.049 A 
ATOM     24  H   UNL A   1      40.287  30.577  31.779  1.00  0.00     0.167 HD
ATOM     25  C   UNL A   1      40.924  33.196  35.241  1.00  0.00     0.034 A 
ATOM     26  C   UNL A   1      40.899  28.486  30.021  1.00  0.00     0.034 A 
ATOM     27  C   UNL A   1      41.872  32.115  35.373  1.00  0.00     0.049 A 
ATOM     28  C   UNL A   1      41.853  28.383  31.171  1.00  0.00     0.074 A 
ATOM     29  C   UNL A   1      42.801  31.900  36.378  1.00  0.00     0.029 A 
ATOM     30  N   UNL A   1      42.032  31.079  34.462  1.00  0.00    -0.354 N 
ATOM     31  N   UNL A   1      41.939  29.140  32.238  1.00  0.00    -0.248 NA
ATOM     32  C   UNL A   1      42.811  27.272  31.138  1.00  0.00     0.031 C 
ATOM     33  C   UNL A   1      43.534  30.750  36.063  1.00  0.00     0.029 A 
ATOM     34  C   UNL A   1      43.043  30.227  34.877  1.00  0.00     0.049 A 
ATOM     35  H   UNL A   1      41.502  30.965  33.639  1.00  0.00     0.167 HD
ATOM     36  C   UNL A   1      42.953  28.594  33.010  1.00  0.00     0.074 A 
ATOM     37  C   UNL A   1      43.416  27.412  32.310  1.00  0.00     0.031 C 
ATOM     38  C   UNL A   1      43.473  29.042  34.179  1.00  0.00     0.034 A 
BRANCH  25  39
ATOM     39  C   UNL A   1      40.915  34.259  36.313  1.00  0.00     0.023 A 
ATOM     40  C   UNL A   1      41.421  35.541  36.012  1.00  0.00     0.012 A 
ATOM     41  C   UNL A   1      40.312  34.037  37.568  1.00  0.00     0.148 A 
ATOM     42  C   UNL A   1      41.346  36.576  36.945  1.00  0.00     0.002 A 
ATOM     43  C   UNL A   1      40.205  35.084  38.479  1.00  0.00     0.091 A 
ATOM     44  F   UNL A   1      39.843  32.811  37.842  1.00  0.00    -0.205 F 
ATOM     45  C   UNL A   1      40.729  36.351  38.172  1.00  0.00     0.022 A 
BRANCH  43  46
ATOM     46  S   UNL A   1      39.355  34.927  40.056  1.00  0.00     0.127 S 
ATOM     47  O   UNL A   1      40.402  34.352  40.901  1.00  0.00    -0.237 OA
ATOM     48  O   UNL A   1      39.023  36.318  40.364  1.00  0.00    -0.237 OA
ATOM     49  O   UNL A   1      38.208  34.064  39.814  1.00  0.00    -0.744 OA
ENDBRANCH  43  46
ENDBRANCH  25  39
BRANCH  26  50
ATOM     50  C   UNL A   1      40.929  27.523  28.886  1.00  0.00     0.023 A 
ATOM     51  C   UNL A   1      39.960  26.505  28.800  1.00  0.00     0.012 A 
ATOM     52  C   UNL A   1      41.885  27.648  27.859  1.00  0.00     0.148 A 
ATOM     53  C   UNL A   1      39.964  25.609  27.729  1.00  0.00     0.002 A 
ATOM     54  C   UNL A   1      41.842  26.797  26.763  1.00  0.00     0.091 A 
ATOM     55  F   UNL A   1      42.809  28.614  27.964  1.00  0.00    -0.205 F 
ATOM     56  C   UNL A   1      40.896  25.763  26.705  1.00  0.00     0.022 A 
BRANCH  54  57
ATOM     57  S   UNL A   1      42.900  27.037  25.332  1.00  0.00     0.127 S 
ATOM     58  O   UNL A   1      44.214  27.185  25.951  1.00  0.00    -0.237 OA
ATOM     59  O   UNL A   1      42.704  25.790  24.592  1.00  0.00    -0.237 OA
ATOM     60  O   UNL A   1      42.375  28.217  24.657  1.00  0.00    -0.744 OA
ENDBRANCH  54  57
ENDBRANCH  26  50
BRANCH  38  61
ATOM     61  C   UNL A   1      44.598  28.234  34.771  1.00  0.00     0.023 A 
ATOM     62  C   UNL A   1      45.929  28.505  34.390  1.00  0.00     0.012 A 
ATOM     63  C   UNL A   1      44.341  27.215  35.707  1.00  0.00     0.148 A 
ATOM     64  C   UNL A   1      46.981  27.740  34.892  1.00  0.00     0.002 A 
ATOM     65  C   UNL A   1      45.399  26.491  36.243  1.00  0.00     0.091 A 
ATOM     66  F   UNL A   1      43.068  26.957  36.040  1.00  0.00    -0.205 F 
ATOM     67  C   UNL A   1      46.717  26.741  35.824  1.00  0.00     0.022 A 
BRANCH  65  68
ATOM     68  S   UNL A   1      45.164  25.247  37.515  1.00  0.00     0.127 S 
ATOM     69  O   UNL A   1      44.560  26.031  38.591  1.00  0.00    -0.237 OA
ATOM     70  O   UNL A   1      44.254  24.304  36.863  1.00  0.00    -0.237 OA
ATOM     71  O   UNL A   1      46.488  24.708  37.799  1.00  0.00    -0.744 OA
ENDBRANCH  65  68
ENDBRANCH  38  61
ENDBRANCH  12  13
ENDBRANCH   5   7
ENDBRANCH   2   3
ENDBRANCH   1   2
BRANCH   1  72
ATOM     72  C   UNL A   1      31.609  29.210  24.699  1.00  0.00     0.023 C 
BRANCH  72  73
ATOM     73  C   UNL A   1      31.234  27.442  24.506  1.00  0.00     0.116 C 
BRANCH  73  74
ATOM     74  N   UNL A   1      32.224  26.421  24.907  1.00  0.00    -0.356 N 
ATOM     75  C   UNL A   1      32.959  25.726  23.946  1.00  0.00     0.224 C 
ATOM     76  H   UNL A   1      32.366  26.228  25.861  1.00  0.00     0.163 HD
ATOM     77  O   UNL A   1      34.147  26.015  23.784  1.00  0.00    -0.275 OA
BRANCH  75  78
ATOM     78  C   UNL A   1      32.358  24.464  23.309  1.00  0.00     0.098 C 
ATOM     79  C   UNL A   1      30.948  24.031  23.801  1.00  0.00     0.017 C 
ATOM     80  C   UNL A   1      33.304  23.296  23.367  1.00  0.00     0.131 C 
ATOM     81  C   UNL A   1      30.875  22.949  24.915  1.00  0.00     0.022 C 
ATOM     82  N   UNL A   1      33.231  22.810  24.740  1.00  0.00    -0.356 N 
ATOM     83  C   UNL A   1      32.070  21.999  24.990  1.00  0.00     0.118 C 
BRANCH  82  84
ATOM     84  C   UNL A   1      34.452  22.593  25.313  1.00  0.00     0.129 A 
ATOM     85  C   UNL A   1      35.364  23.947  26.095  1.00  0.00     0.047 A 
ATOM     86  N   UNL A   1      35.286  21.177  24.764  1.00  0.00    -0.231 NA
ATOM     87  C   UNL A   1      37.159  23.830  26.160  1.00  0.00     0.014 A 
ATOM     88  C   UNL A   1      37.021  21.028  24.904  1.00  0.00     0.073 A 
ATOM     89  C   UNL A   1      38.013  22.313  25.622  1.00  0.00     0.002 A 
ATOM     90  C   UNL A   1      37.606  19.799  24.792  1.00  0.00     0.030 A 
ATOM     91  C   UNL A   1      39.329  21.945  25.930  1.00  0.00     0.032 A 
ATOM     92  C   UNL A   1      38.850  19.565  25.380  1.00  0.00     0.024 A 
ATOM     93  C   UNL A   1      39.689  20.572  25.907  1.00  0.00     0.083 A 
BRANCH  93  94
ATOM     94  S   UNL A   1      41.251  20.105  26.698  1.00  0.00     0.243 S 
ATOM     95  O   UNL A   1      40.922  19.916  28.095  1.00  0.00    -0.207 OA
ATOM     96  O   UNL A   1      41.785  19.027  25.890  1.00  0.00    -0.207 OA
BRANCH  94  97
ATOM     97  N   UNL A   1      42.351  21.418  26.581  1.00  0.00    -0.198 NA
ATOM     98  C   UNL A   1      42.610  22.198  27.813  1.00  0.00     0.102 C 
ATOM     99  C   UNL A   1      43.398  21.373  25.536  1.00  0.00     0.102 C 
ATOM    100  C   UNL A   1      43.359  23.502  27.553  1.00  0.00     0.017 C 
ATOM    101  C   UNL A   1      44.146  22.689  25.366  1.00  0.00     0.017 C 
ATOM    102  C   UNL A   1      44.591  23.267  26.699  1.00  0.00     0.003 C 
ENDBRANCH  94  97
ENDBRANCH  93  94
ENDBRANCH  82  84
ENDBRANCH  75  78
ENDBRANCH  73  74
ENDBRANCH  72  73
ENDBRANCH   1  72
TORSDOF 17
ENDMDL
MODEL 2
REMARK VINA RESULT:     -14.2      1.726      2.406
REMARK SMILES O=C(NCCCCNC(=O)[C@@H]1CCCN(c2ccc3cc(S(=O)(=O)N4CCCCC4)ccc3n2)C1)c1ccc(-c2c3nc(c(-c4cccc(S(=O)(=O)[O-])c4F)c4ccc([nH]4)c(-c4cccc(S(=O)(=O)[O-])c4F)c4nc(c(-c5cccc(S(=O)(=O)[O-])c5F)c5ccc2[nH]5)C=C4)C=C3)cc1
REMARK SMILES IDX 5 1 4 2 3 3 1 4 2 5 36 7 37 8 98 9 38 10 97 11 39 12 40 13
REMARK SMILES IDX 41 14 91 15 42 16 96 17 90 18 92 19 43 20 95 21 89 22 88 23
REMARK SMILES IDX 44 25 76 26 56 27 75 28 57 29 60 30 74 31 93 32 58 33 59 34
REMARK SMILES IDX 73 36 94 37 61 38 45 39 46 40 54 41 47 42 49 43 55 44 48 45
REMARK SMILES IDX 50 46 51 47 52 48 53 49 77 50 78 51 86 52 79 53 81 54 87 55
REMARK SMILES IDX 80 56 82 57 83 58 84 59 85 60 62 61 63 62 71 63 64 64 66 65
REMARK SMILES IDX 72 66 65 67 67 68 68 69 69 70 70 71 6 72 7 73 8 74 9 75
REMARK SMILES IDX 10 77 11 78 12 79 35 80 13 81 15 82 14 83 16 84 17 85 34 86
REMARK SMILES IDX 18 87 33 88 19 89 32 90 20 91 31 92 21 93 22 94 23 95 24 96
REMARK SMILES IDX 25 97 26 98 30 99 27 100 29 101 28 102
REMARK H PARENT 3 6 92 24 60 35 8 76
REMARK Flexibility Score: inf
ROOT
ATOM      1  C   UNL A   1      32.051  28.777  26.952  1.00  0.00     0.023 C 
ENDROOT
BRANCH   1   2
ATOM      2  C   UNL A   1      33.129  29.743  26.072  1.00  0.00     0.116 C 
BRANCH   2   3
ATOM      3  N   UNL A   1      33.040  31.135  26.555  1.00  0.00    -0.352 N 
ATOM      4  O   UNL A   1      33.190  32.804  28.022  1.00  0.00    -0.269 OA
ATOM      5  C   UNL A   1      33.739  31.823  27.516  1.00  0.00     0.251 C 
ATOM      6  H   UNL A   1      32.349  31.671  26.103  1.00  0.00     0.163 HD
BRANCH   5   7
ATOM      7  C   UNL A   1      35.086  31.413  28.001  1.00  0.00     0.039 A 
ATOM      8  C   UNL A   1      36.167  32.285  28.101  1.00  0.00     0.014 A 
ATOM      9  C   UNL A   1      35.239  30.101  28.472  1.00  0.00     0.014 A 
ATOM     10  C   UNL A   1      37.390  31.840  28.606  1.00  0.00     0.010 A 
ATOM     11  C   UNL A   1      36.441  29.663  29.038  1.00  0.00     0.010 A 
ATOM     12  C   UNL A   1      37.521  30.543  29.133  1.00  0.00    -0.014 A 
BRANCH  12  13
ATOM     13  C   UNL A   1      38.668  30.251  30.030  1.00  0.00     0.031 A 
ATOM     14  C   UNL A   1      38.807  30.842  31.399  1.00  0.00     0.074 A 
ATOM     15  C   UNL A   1      39.618  29.427  29.540  1.00  0.00     0.049 A 
ATOM     16  N   UNL A   1      39.695  30.559  32.319  1.00  0.00    -0.248 NA
ATOM     17  C   UNL A   1      37.849  31.887  31.790  1.00  0.00     0.031 C 
ATOM     18  C   UNL A   1      39.637  28.898  28.171  1.00  0.00     0.029 A 
ATOM     19  N   UNL A   1      40.736  28.887  30.116  1.00  0.00    -0.354 N 
ATOM     20  C   UNL A   1      39.412  31.389  33.397  1.00  0.00     0.074 A 
ATOM     21  C   UNL A   1      38.277  32.202  33.010  1.00  0.00     0.031 C 
ATOM     22  C   UNL A   1      40.686  28.081  28.026  1.00  0.00     0.029 A 
ATOM     23  C   UNL A   1      41.442  28.061  29.271  1.00  0.00     0.049 A 
ATOM     24  H   UNL A   1      41.009  29.070  31.044  1.00  0.00     0.167 HD
ATOM     25  C   UNL A   1      40.040  31.451  34.598  1.00  0.00     0.034 A 
ATOM     26  C   UNL A   1      42.578  27.368  29.468  1.00  0.00     0.034 A 
ATOM     27  C   UNL A   1      41.183  30.643  34.953  1.00  0.00     0.049 A 
ATOM     28  C   UNL A   1      43.211  27.414  30.825  1.00  0.00     0.074 A 
ATOM     29  C   UNL A   1      41.857  30.587  36.162  1.00  0.00     0.029 A 
ATOM     30  N   UNL A   1      41.836  29.767  34.096  1.00  0.00    -0.354 N 
ATOM     31  N   UNL A   1      42.823  28.072  31.891  1.00  0.00    -0.248 NA
ATOM     32  C   UNL A   1      44.411  26.594  31.023  1.00  0.00     0.031 C 
ATOM     33  C   UNL A   1      42.929  29.697  36.028  1.00  0.00     0.029 A 
ATOM     34  C   UNL A   1      42.906  29.171  34.746  1.00  0.00     0.049 A 
ATOM     35  H   UNL A   1      41.576  29.593  33.163  1.00  0.00     0.167 HD
ATOM     36  C   UNL A   1      43.724  27.739  32.890  1.00  0.00     0.074 A 
ATOM     37  C   UNL A   1      44.648  26.782  32.314  1.00  0.00     0.031 C 
ATOM     38  C   UNL A   1      43.799  28.202  34.162  1.00  0.00     0.034 A 
BRANCH  25  39
ATOM     39  C   UNL A   1      39.479  32.378  35.650  1.00  0.00     0.023 A 
ATOM     40  C   UNL A   1      38.561  31.871  36.593  1.00  0.00     0.012 A 
ATOM     41  C   UNL A   1      39.935  33.707  35.782  1.00  0.00     0.148 A 
ATOM     42  C   UNL A   1      38.092  32.672  37.635  1.00  0.00     0.002 A 
ATOM     43  C   UNL A   1      39.492  34.487  36.846  1.00  0.00     0.091 A 
ATOM     44  F   UNL A   1      40.801  34.177  34.873  1.00  0.00    -0.205 F 
ATOM     45  C   UNL A   1      38.564  33.974  37.767  1.00  0.00     0.022 A 
BRANCH  43  46
ATOM     46  S   UNL A   1      40.100  36.150  37.160  1.00  0.00     0.127 S 
ATOM     47  O   UNL A   1      41.524  35.906  37.393  1.00  0.00    -0.237 OA
ATOM     48  O   UNL A   1      39.799  36.829  35.900  1.00  0.00    -0.237 OA
ATOM     49  O   UNL A   1      39.358  36.642  38.312  1.00  0.00    -0.744 OA
ENDBRANCH  43  46
ENDBRANCH  25  39
BRANCH  26  50
ATOM     50  C   UNL A   1      43.146  26.549  28.363  1.00  0.00     0.023 A 
ATOM     51  C   UNL A   1      42.556  25.316  28.025  1.00  0.00     0.012 A 
ATOM     52  C   UNL A   1      44.240  27.015  27.608  1.00  0.00     0.148 A 
ATOM     53  C   UNL A   1      43.066  24.548  26.976  1.00  0.00     0.002 A 
ATOM     54  C   UNL A   1      44.699  26.279  26.523  1.00  0.00     0.091 A 
ATOM     55  F   UNL A   1      44.799  28.185  27.952  1.00  0.00    -0.205 F 
ATOM     56  C   UNL A   1      44.128  25.035  26.218  1.00  0.00     0.022 A 
BRANCH  54  57
ATOM     57  S   UNL A   1      45.950  26.918  25.404  1.00  0.00     0.127 S 
ATOM     58  O   UNL A   1      46.118  25.805  24.475  1.00  0.00    -0.237 OA
ATOM     59  O   UNL A   1      45.287  28.095  24.842  1.00  0.00    -0.237 OA
ATOM     60  O   UNL A   1      47.099  27.228  26.245  1.00  0.00    -0.744 OA
ENDBRANCH  54  57
ENDBRANCH  26  50
BRANCH  38  61
ATOM     61  C   UNL A   1      44.920  27.662  35.012  1.00  0.00     0.023 A 
ATOM     62  C   UNL A   1      46.148  28.353  35.071  1.00  0.00     0.012 A 
ATOM     63  C   UNL A   1      44.756  26.480  35.757  1.00  0.00     0.148 A 
ATOM     64  C   UNL A   1      47.212  27.847  35.815  1.00  0.00     0.002 A 
ATOM     65  C   UNL A   1      45.803  26.009  36.540  1.00  0.00     0.091 A 
ATOM     66  F   UNL A   1      43.589  25.825  35.672  1.00  0.00    -0.205 F 
ATOM     67  C   UNL A   1      47.037  26.682  36.556  1.00  0.00     0.022 A 
BRANCH  65  68
ATOM     68  S   UNL A   1      45.640  24.566  37.596  1.00  0.00     0.127 S 
ATOM     69  O   UNL A   1      45.714  23.477  36.623  1.00  0.00    -0.237 OA
ATOM     70  O   UNL A   1      46.808  24.686  38.468  1.00  0.00    -0.237 OA
ATOM     71  O   UNL A   1      44.360  24.712  38.277  1.00  0.00    -0.744 OA
ENDBRANCH  65  68
ENDBRANCH  38  61
ENDBRANCH  12  13
ENDBRANCH   5   7
ENDBRANCH   2   3
ENDBRANCH   1   2
BRANCH   1  72
ATOM     72  C   UNL A   1      30.848  26.989  26.575  1.00  0.00     0.023 C 
BRANCH  72  73
ATOM     73  C   UNL A   1      31.177  25.480  25.616  1.00  0.00     0.116 C 
BRANCH  73  74
ATOM     74  N   UNL A   1      32.567  25.063  25.335  1.00  0.00    -0.356 N 
ATOM     75  C   UNL A   1      33.064  25.071  24.031  1.00  0.00     0.224 C 
ATOM     76  H   UNL A   1      33.149  24.775  26.075  1.00  0.00     0.163 HD
ATOM     77  O   UNL A   1      33.852  25.961  23.702  1.00  0.00    -0.275 OA
BRANCH  75  78
ATOM     78  C   UNL A   1      32.830  23.848  23.132  1.00  0.00     0.098 C 
ATOM     79  C   UNL A   1      31.510  23.057  23.349  1.00  0.00     0.017 C 
ATOM     80  C   UNL A   1      34.003  22.907  23.142  1.00  0.00     0.131 C 
ATOM     81  C   UNL A   1      31.567  21.801  24.263  1.00  0.00     0.022 C 
ATOM     82  N   UNL A   1      33.899  22.177  24.400  1.00  0.00    -0.356 N 
ATOM     83  C   UNL A   1      32.931  21.116  24.359  1.00  0.00     0.118 C 
BRANCH  82  84
ATOM     84  C   UNL A   1      35.072  22.115  25.098  1.00  0.00     0.129 A 
ATOM     85  C   UNL A   1      35.781  23.597  25.858  1.00  0.00     0.047 A 
ATOM     86  N   UNL A   1      36.076  20.750  24.737  1.00  0.00    -0.231 NA
ATOM     87  C   UNL A   1      37.564  23.654  26.097  1.00  0.00     0.014 A 
ATOM     88  C   UNL A   1      37.795  20.775  25.047  1.00  0.00     0.073 A 
ATOM     89  C   UNL A   1      38.596  22.191  25.755  1.00  0.00     0.002 A 
ATOM     90  C   UNL A   1      38.494  19.602  25.081  1.00  0.00     0.030 A 
ATOM     91  C   UNL A   1      39.902  21.970  26.210  1.00  0.00     0.032 A 
ATOM     92  C   UNL A   1      39.689  19.525  25.798  1.00  0.00     0.024 A 
ATOM     93  C   UNL A   1      40.381  20.639  26.323  1.00  0.00     0.083 A 
BRANCH  93  94
ATOM     94  S   UNL A   1      41.891  20.373  27.288  1.00  0.00     0.243 S 
ATOM     95  O   UNL A   1      42.071  21.591  28.049  1.00  0.00    -0.207 OA
ATOM     96  O   UNL A   1      41.713  19.091  27.938  1.00  0.00    -0.207 OA
BRANCH  94  97
ATOM     97  N   UNL A   1      43.221  20.215  26.213  1.00  0.00    -0.198 NA
ATOM     98  C   UNL A   1      43.481  18.871  25.649  1.00  0.00     0.102 C 
ATOM     99  C   UNL A   1      43.655  21.403  25.445  1.00  0.00     0.102 C 
ATOM    100  C   UNL A   1      44.833  18.764  24.949  1.00  0.00     0.017 C 
ATOM    101  C   UNL A   1      44.984  21.211  24.724  1.00  0.00     0.017 C 
ATOM    102  C   UNL A   1      45.032  19.898  23.961  1.00  0.00     0.003 C 
ENDBRANCH  94  97
ENDBRANCH  93  94
ENDBRANCH  82  84
ENDBRANCH  75  78
ENDBRANCH  73  74
ENDBRANCH  72  73
ENDBRANCH   1  72
TORSDOF 17
ENDMDL
MODEL 3
REMARK VINA RESULT:     -13.4      4.218     10.374
REMARK SMILES O=C(NCCCCNC(=O)[C@@H]1CCCN(c2ccc3cc(S(=O)(=O)N4CCCCC4)ccc3n2)C1)c1ccc(-c2c3nc(c(-c4cccc(S(=O)(=O)[O-])c4F)c4ccc([nH]4)c(-c4cccc(S(=O)(=O)[O-])c4F)c4nc(c(-c5cccc(S(=O)(=O)[O-])c5F)c5ccc2[nH]5)C=C4)C=C3)cc1
REMARK SMILES IDX 5 1 4 2 3 3 1 4 2 5 36 7 37 8 98 9 38 10 97 11 39 12 40 13
REMARK SMILES IDX 41 14 91 15 42 16 96 17 90 18 92 19 43 20 95 21 89 22 88 23
REMARK SMILES IDX 44 25 76 26 56 27 75 28 57 29 60 30 74 31 93 32 58 33 59 34
REMARK SMILES IDX 73 36 94 37 61 38 45 39 46 40 54 41 47 42 49 43 55 44 48 45
REMARK SMILES IDX 50 46 51 47 52 48 53 49 77 50 78 51 86 52 79 53 81 54 87 55
REMARK SMILES IDX 80 56 82 57 83 58 84 59 85 60 62 61 63 62 71 63 64 64 66 65
REMARK SMILES IDX 72 66 65 67 67 68 68 69 69 70 70 71 6 72 7 73 8 74 9 75
REMARK SMILES IDX 10 77 11 78 12 79 35 80 13 81 15 82 14 83 16 84 17 85 34 86
REMARK SMILES IDX 18 87 33 88 19 89 32 90 20 91 31 92 21 93 22 94 23 95 24 96
REMARK SMILES IDX 25 97 26 98 30 99 27 100 29 101 28 102
REMARK H PARENT 3 6 92 24 60 35 8 76
REMARK Flexibility Score: inf
ROOT
ATOM      1  C   UNL A   1      38.748  29.844  28.423  1.00  0.00     0.023 C 
ENDROOT
BRANCH   1   2
ATOM      2  C   UNL A   1      38.372  31.271  29.254  1.00  0.00     0.116 C 
BRANCH   2   3
ATOM      3  N   UNL A   1      37.434  30.963  30.350  1.00  0.00    -0.352 N 
ATOM      4  O   UNL A   1      36.407  29.699  31.870  1.00  0.00    -0.269 OA
ATOM      5  C   UNL A   1      37.480  30.049  31.374  1.00  0.00     0.251 C 
ATOM      6  H   UNL A   1      36.621  31.518  30.347  1.00  0.00     0.163 HD
BRANCH   5   7
ATOM      7  C   UNL A   1      38.745  29.437  31.869  1.00  0.00     0.039 A 
ATOM      8  C   UNL A   1      38.904  28.072  32.093  1.00  0.00     0.014 A 
ATOM      9  C   UNL A   1      39.860  30.275  32.022  1.00  0.00     0.014 A 
ATOM     10  C   UNL A   1      40.133  27.563  32.516  1.00  0.00     0.010 A 
ATOM     11  C   UNL A   1      41.111  29.767  32.384  1.00  0.00     0.010 A 
ATOM     12  C   UNL A   1      41.262  28.397  32.609  1.00  0.00    -0.014 A 
BRANCH  12  13
ATOM     13  C   UNL A   1      42.608  27.771  32.638  1.00  0.00     0.031 A 
ATOM     14  C   UNL A   1      43.401  27.475  31.401  1.00  0.00     0.074 A 
ATOM     15  C   UNL A   1      43.094  27.450  33.855  1.00  0.00     0.049 A 
ATOM     16  N   UNL A   1      44.637  27.053  31.311  1.00  0.00    -0.248 NA
ATOM     17  C   UNL A   1      42.732  27.659  30.105  1.00  0.00     0.031 C 
ATOM     18  C   UNL A   1      42.348  27.583  35.112  1.00  0.00     0.029 A 
ATOM     19  N   UNL A   1      44.310  26.955  34.246  1.00  0.00    -0.354 N 
ATOM     20  C   UNL A   1      44.899  26.914  29.953  1.00  0.00     0.074 A 
ATOM     21  C   UNL A   1      43.684  27.281  29.255  1.00  0.00     0.031 C 
ATOM     22  C   UNL A   1      43.132  27.220  36.134  1.00  0.00     0.029 A 
ATOM     23  C   UNL A   1      44.418  26.785  35.607  1.00  0.00     0.049 A 
ATOM     24  H   UNL A   1      45.035  26.743  33.616  1.00  0.00     0.167 HD
ATOM     25  C   UNL A   1      46.053  26.525  29.355  1.00  0.00     0.034 A 
ATOM     26  C   UNL A   1      45.436  26.322  36.355  1.00  0.00     0.034 A 
ATOM     27  C   UNL A   1      47.246  26.144  30.074  1.00  0.00     0.049 A 
ATOM     28  C   UNL A   1      46.715  25.958  35.665  1.00  0.00     0.074 A 
ATOM     29  C   UNL A   1      48.484  25.791  29.565  1.00  0.00     0.029 A 
ATOM     30  N   UNL A   1      47.345  26.044  31.456  1.00  0.00    -0.354 N 
ATOM     31  N   UNL A   1      47.001  26.003  34.387  1.00  0.00    -0.248 NA
ATOM     32  C   UNL A   1      47.825  25.519  36.519  1.00  0.00     0.031 C 
ATOM     33  C   UNL A   1      49.322  25.455  30.635  1.00  0.00     0.029 A 
ATOM     34  C   UNL A   1      48.618  25.631  31.815  1.00  0.00     0.049 A 
ATOM     35  H   UNL A   1      46.616  26.240  32.089  1.00  0.00     0.167 HD
ATOM     36  C   UNL A   1      48.326  25.610  34.280  1.00  0.00     0.074 A 
ATOM     37  C   UNL A   1      48.799  25.378  35.631  1.00  0.00     0.031 C 
ATOM     38  C   UNL A   1      49.077  25.429  33.166  1.00  0.00     0.034 A 
BRANCH  25  39
ATOM     39  C   UNL A   1      46.117  26.545  27.846  1.00  0.00     0.023 A 
ATOM     40  C   UNL A   1      46.318  27.775  27.184  1.00  0.00     0.012 A 
ATOM     41  C   UNL A   1      46.093  25.355  27.090  1.00  0.00     0.148 A 
ATOM     42  C   UNL A   1      46.474  27.822  25.798  1.00  0.00     0.002 A 
ATOM     43  C   UNL A   1      46.290  25.406  25.713  1.00  0.00     0.091 A 
ATOM     44  F   UNL A   1      45.894  24.195  27.732  1.00  0.00    -0.205 F 
ATOM     45  C   UNL A   1      46.471  26.640  25.066  1.00  0.00     0.022 A 
BRANCH  43  46
ATOM     46  S   UNL A   1      46.387  23.936  24.682  1.00  0.00     0.127 S 
ATOM     47  O   UNL A   1      45.025  23.851  24.157  1.00  0.00    -0.237 OA
ATOM     48  O   UNL A   1      47.396  24.322  23.695  1.00  0.00    -0.237 OA
ATOM     49  O   UNL A   1      46.781  22.848  25.565  1.00  0.00    -0.744 OA
ENDBRANCH  43  46
ENDBRANCH  25  39
BRANCH  26  50
ATOM     50  C   UNL A   1      45.284  26.224  37.833  1.00  0.00     0.023 A 
ATOM     51  C   UNL A   1      45.021  24.979  38.433  1.00  0.00     0.012 A 
ATOM     52  C   UNL A   1      45.455  27.358  38.652  1.00  0.00     0.148 A 
ATOM     53  C   UNL A   1      44.898  24.870  39.820  1.00  0.00     0.002 A 
ATOM     54  C   UNL A   1      45.400  27.231  40.034  1.00  0.00     0.091 A 
ATOM     55  F   UNL A   1      45.692  28.539  38.063  1.00  0.00    -0.205 F 
ATOM     56  C   UNL A   1      45.101  25.992  40.620  1.00  0.00     0.022 A 
BRANCH  54  57
ATOM     57  S   UNL A   1      45.812  28.592  41.130  1.00  0.00     0.127 S 
ATOM     58  O   UNL A   1      44.741  29.542  40.845  1.00  0.00    -0.237 OA
ATOM     59  O   UNL A   1      45.740  27.958  42.447  1.00  0.00    -0.237 OA
ATOM     60  O   UNL A   1      47.155  29.006  40.742  1.00  0.00    -0.744 OA
ENDBRANCH  54  57
ENDBRANCH  26  50
BRANCH  38  61
ATOM     61  C   UNL A   1      50.496  24.967  33.376  1.00  0.00     0.023 A 
ATOM     62  C   UNL A   1      51.504  25.911  33.662  1.00  0.00     0.012 A 
ATOM     63  C   UNL A   1      50.828  23.601  33.301  1.00  0.00     0.148 A 
ATOM     64  C   UNL A   1      52.829  25.508  33.816  1.00  0.00     0.002 A 
ATOM     65  C   UNL A   1      52.143  23.201  33.508  1.00  0.00     0.091 A 
ATOM     66  F   UNL A   1      49.860  22.721  33.007  1.00  0.00    -0.205 F 
ATOM     67  C   UNL A   1      53.147  24.155  33.748  1.00  0.00     0.022 A 
BRANCH  65  68
ATOM     68  S   UNL A   1      52.629  21.473  33.528  1.00  0.00     0.127 S 
ATOM     69  O   UNL A   1      51.662  20.904  34.465  1.00  0.00    -0.237 OA
ATOM     70  O   UNL A   1      52.431  21.079  32.132  1.00  0.00    -0.237 OA
ATOM     71  O   UNL A   1      54.017  21.453  33.969  1.00  0.00    -0.744 OA
ENDBRANCH  65  68
ENDBRANCH  38  61
ENDBRANCH  12  13
ENDBRANCH   5   7
ENDBRANCH   2   3
ENDBRANCH   1   2
BRANCH   1  72
ATOM     72  C   UNL A   1      40.397  29.113  27.184  1.00  0.00     0.023 C 
BRANCH  72  73
ATOM     73  C   UNL A   1      40.785  27.466  26.522  1.00  0.00     0.116 C 
BRANCH  73  74
ATOM     74  N   UNL A   1      40.017  26.283  26.965  1.00  0.00    -0.356 N 
ATOM     75  C   UNL A   1      40.283  25.680  28.195  1.00  0.00     0.224 C 
ATOM     76  H   UNL A   1      39.309  25.917  26.387  1.00  0.00     0.163 HD
ATOM     77  O   UNL A   1      39.492  25.852  29.125  1.00  0.00    -0.275 OA
BRANCH  75  78
ATOM     78  C   UNL A   1      41.393  24.622  28.286  1.00  0.00     0.098 C 
ATOM     79  C   UNL A   1      42.615  24.801  27.342  1.00  0.00     0.017 C 
ATOM     80  C   UNL A   1      40.851  23.224  28.168  1.00  0.00     0.131 C 
ATOM     81  C   UNL A   1      42.608  24.016  26.000  1.00  0.00     0.022 C 
ATOM     82  N   UNL A   1      40.590  23.031  26.746  1.00  0.00    -0.356 N 
ATOM     83  C   UNL A   1      41.776  22.734  25.990  1.00  0.00     0.118 C 
BRANCH  82  84
ATOM     84  C   UNL A   1      39.360  22.499  26.480  1.00  0.00     0.129 A 
ATOM     85  C   UNL A   1      39.199  20.840  25.776  1.00  0.00     0.047 A 
ATOM     86  N   UNL A   1      38.077  23.651  26.312  1.00  0.00    -0.231 NA
ATOM     87  C   UNL A   1      37.735  20.477  24.793  1.00  0.00     0.014 A 
ATOM     88  C   UNL A   1      36.619  23.270  25.428  1.00  0.00     0.073 A 
ATOM     89  C   UNL A   1      36.375  21.685  24.668  1.00  0.00     0.002 A 
ATOM     90  C   UNL A   1      35.504  24.040  25.596  1.00  0.00     0.030 A 
ATOM     91  C   UNL A   1      35.065  21.421  24.249  1.00  0.00     0.032 A 
ATOM     92  C   UNL A   1      34.242  23.504  25.336  1.00  0.00     0.024 A 
ATOM     93  C   UNL A   1      34.015  22.273  24.680  1.00  0.00     0.083 A 
BRANCH  93  94
ATOM     94  S   UNL A   1      32.316  21.679  24.469  1.00  0.00     0.243 S 
ATOM     95  O   UNL A   1      31.658  21.967  25.725  1.00  0.00    -0.207 OA
ATOM     96  O   UNL A   1      31.858  22.255  23.221  1.00  0.00    -0.207 OA
BRANCH  94  97
ATOM     97  N   UNL A   1      32.343  19.974  24.259  1.00  0.00    -0.198 NA
ATOM     98  C   UNL A   1      32.492  19.463  22.877  1.00  0.00     0.102 C 
ATOM     99  C   UNL A   1      32.808  19.130  25.383  1.00  0.00     0.102 C 
ATOM    100  C   UNL A   1      32.215  17.967  22.756  1.00  0.00     0.017 C 
ATOM    101  C   UNL A   1      32.551  17.643  25.174  1.00  0.00     0.017 C 
ATOM    102  C   UNL A   1      32.990  17.179  23.795  1.00  0.00     0.003 C 
ENDBRANCH  94  97
ENDBRANCH  93  94
ENDBRANCH  82  84
ENDBRANCH  75  78
ENDBRANCH  73  74
ENDBRANCH  72  73
ENDBRANCH   1  72
TORSDOF 17
ENDMDL
