MODEL 1
REMARK VINA RESULT:     -10.7      0.000      0.000
REMARK SMILES CC(/C=C1\SC(=S)N(CC(=O)NCC(=O)NCCCCNC(=O)c2ccc(-c3c4nc(c(-c5cccc(S(=O)(=O)[O-])c5F)c5ccc([nH]5)c(-c5cccc(S(=O)(=O)[O-])c5F)c5nc(c(-c6cccc(S(=O)(=O)[O-])c6F)c6ccc3[nH]6)C=C5)C=C4)cc2)C1=O)=C\c1ccccc1
REMARK SMILES IDX 17 1 16 2 14 3 15 4 13 6 12 7 10 8 11 9 9 11 8 12 3 13 4 14
REMARK SMILES IDX 5 15 87 16 6 17 88 18 7 19 2 20 1 21 89 22 90 23 91 24 95 25
REMARK SMILES IDX 92 26 94 27 93 28 18 29 19 30 20 31 21 32 22 33 23 35 24 36
REMARK SMILES IDX 25 37 86 38 26 39 85 40 27 41 28 42 29 43 79 44 30 45 84 46
REMARK SMILES IDX 78 47 80 48 31 49 83 50 77 51 76 52 32 54 64 55 44 56 63 57
REMARK SMILES IDX 45 58 48 59 62 60 81 61 46 62 47 63 61 65 82 66 49 67 33 68
REMARK SMILES IDX 34 69 42 70 35 71 37 72 43 73 36 74 38 75 39 76 40 77 41 78
REMARK SMILES IDX 65 79 66 80 74 81 67 82 69 83 75 84 68 85 70 86 71 87 72 88
REMARK SMILES IDX 73 89 50 90 51 91 59 92 52 93 54 94 60 95 53 96 55 97 56 98
REMARK SMILES IDX 57 99 58 100
REMARK H PARENT 16 5 12 10 21 34 80 53 48 64
REMARK Flexibility Score: inf
ROOT
ATOM      1  C   UNL A   1      37.981  23.701  26.391  1.00  0.00     0.116 C 
ENDROOT
BRANCH   1   2
ATOM      2  N   UNL A   1      37.702  23.371  25.012  1.00  0.00    -0.355 N 
ATOM      3  C   UNL A   1      36.769  22.492  24.527  1.00  0.00     0.239 C 
ATOM      4  O   UNL A   1      36.481  22.543  23.330  1.00  0.00    -0.273 OA
ATOM      5  H   UNL A   1      38.250  23.834  24.336  1.00  0.00     0.163 HD
BRANCH   3   6
ATOM      6  C   UNL A   1      35.979  21.585  25.486  1.00  0.00     0.216 C 
BRANCH   6   7
ATOM      7  N   UNL A   1      35.762  20.238  24.983  1.00  0.00    -0.345 N 
ATOM      8  C   UNL A   1      34.674  19.424  24.975  1.00  0.00     0.240 C 
ATOM      9  O   UNL A   1      34.759  18.413  24.267  1.00  0.00    -0.273 OA
ATOM     10  H   UNL A   1      36.559  19.836  24.567  1.00  0.00     0.164 HD
BRANCH   8  11
ATOM     11  C   UNL A   1      33.325  19.787  25.622  1.00  0.00     0.227 C 
BRANCH  11  12
ATOM     12  N   UNL A   1      32.728  21.078  25.277  1.00  0.00    -0.283 N 
ATOM     13  C   UNL A   1      31.864  24.355  26.525  1.00  0.00     0.024 C 
ATOM     14  C   UNL A   1      31.970  23.262  25.760  1.00  0.00     0.080 C 
ATOM     15  S   UNL A   1      31.626  23.087  24.091  1.00  0.00    -0.054 SA
ATOM     16  C   UNL A   1      32.518  21.986  26.304  1.00  0.00     0.266 C 
ATOM     17  C   UNL A   1      32.220  21.429  24.044  1.00  0.00     0.148 C 
ATOM     18  O   UNL A   1      32.789  21.809  27.475  1.00  0.00    -0.268 OA
ATOM     19  S   UNL A   1      32.136  20.498  22.662  1.00  0.00    -0.052 S 
BRANCH  13  20
ATOM     20  C   UNL A   1      31.364  25.676  26.159  1.00  0.00    -0.049 C 
ATOM     21  C   UNL A   1      29.886  25.763  25.894  1.00  0.00     0.044 C 
ATOM     22  C   UNL A   1      32.211  26.726  26.171  1.00  0.00     0.011 C 
BRANCH  22  23
ATOM     23  C   UNL A   1      31.879  28.166  26.123  1.00  0.00    -0.025 A 
ATOM     24  C   UNL A   1      31.337  28.719  24.955  1.00  0.00     0.008 A 
ATOM     25  C   UNL A   1      32.252  29.039  27.158  1.00  0.00     0.008 A 
ATOM     26  C   UNL A   1      31.116  30.096  24.852  1.00  0.00     0.001 A 
ATOM     27  C   UNL A   1      32.012  30.413  27.064  1.00  0.00     0.001 A 
ATOM     28  C   UNL A   1      31.436  30.939  25.914  1.00  0.00     0.000 A 
ENDBRANCH  22  23
ENDBRANCH  13  20
ENDBRANCH  11  12
ENDBRANCH   8  11
ENDBRANCH   6   7
ENDBRANCH   3   6
ENDBRANCH   1   2
BRANCH   1  29
ATOM     29  C   UNL A   1      39.404  23.376  26.834  1.00  0.00     0.023 C 
BRANCH  29  30
ATOM     30  C   UNL A   1      39.855  21.950  26.511  1.00  0.00     0.023 C 
BRANCH  30  31
ATOM     31  C   UNL A   1      40.856  21.333  27.492  1.00  0.00     0.116 C 
BRANCH  31  32
ATOM     32  N   UNL A   1      42.199  21.154  26.958  1.00  0.00    -0.352 N 
ATOM     33  C   UNL A   1      43.200  22.095  26.819  1.00  0.00     0.251 C 
ATOM     34  H   UNL A   1      42.421  20.244  26.656  1.00  0.00     0.163 HD
ATOM     35  O   UNL A   1      44.253  21.788  26.266  1.00  0.00    -0.269 OA
BRANCH  33  36
ATOM     36  C   UNL A   1      43.004  23.484  27.306  1.00  0.00     0.039 A 
ATOM     37  C   UNL A   1      43.151  23.767  28.667  1.00  0.00     0.014 A 
ATOM     38  C   UNL A   1      42.687  24.516  26.423  1.00  0.00     0.014 A 
ATOM     39  C   UNL A   1      43.084  25.093  29.114  1.00  0.00     0.010 A 
ATOM     40  C   UNL A   1      42.660  25.838  26.855  1.00  0.00     0.010 A 
ATOM     41  C   UNL A   1      42.890  26.143  28.200  1.00  0.00    -0.014 A 
BRANCH  41  42
ATOM     42  C   UNL A   1      43.066  27.565  28.590  1.00  0.00     0.031 A 
ATOM     43  C   UNL A   1      44.427  28.196  28.663  1.00  0.00     0.074 A 
ATOM     44  C   UNL A   1      41.987  28.235  29.040  1.00  0.00     0.049 A 
ATOM     45  N   UNL A   1      44.754  29.407  29.038  1.00  0.00    -0.248 NA
ATOM     46  C   UNL A   1      45.573  27.352  28.300  1.00  0.00     0.031 C 
ATOM     47  C   UNL A   1      40.636  27.677  29.150  1.00  0.00     0.029 A 
ATOM     48  N   UNL A   1      41.858  29.512  29.522  1.00  0.00    -0.354 N 
ATOM     49  C   UNL A   1      46.142  29.461  28.992  1.00  0.00     0.074 A 
ATOM     50  C   UNL A   1      46.596  28.153  28.570  1.00  0.00     0.031 C 
ATOM     51  C   UNL A   1      39.816  28.606  29.663  1.00  0.00     0.029 A 
ATOM     52  C   UNL A   1      40.581  29.819  29.929  1.00  0.00     0.049 A 
ATOM     53  H   UNL A   1      42.608  30.147  29.573  1.00  0.00     0.167 HD
ATOM     54  C   UNL A   1      46.959  30.511  29.254  1.00  0.00     0.034 A 
ATOM     55  C   UNL A   1      40.077  30.956  30.448  1.00  0.00     0.034 A 
ATOM     56  C   UNL A   1      46.487  31.822  29.622  1.00  0.00     0.049 A 
ATOM     57  C   UNL A   1      40.983  32.144  30.606  1.00  0.00     0.074 A 
ATOM     58  C   UNL A   1      47.216  32.987  29.785  1.00  0.00     0.029 A 
ATOM     59  N   UNL A   1      45.163  32.141  29.886  1.00  0.00    -0.354 N 
ATOM     60  N   UNL A   1      42.270  32.234  30.370  1.00  0.00    -0.248 NA
ATOM     61  C   UNL A   1      40.363  33.398  31.051  1.00  0.00     0.031 C 
ATOM     62  C   UNL A   1      46.334  34.007  30.160  1.00  0.00     0.029 A 
ATOM     63  C   UNL A   1      45.053  33.483  30.209  1.00  0.00     0.049 A 
ATOM     64  H   UNL A   1      44.412  31.506  29.849  1.00  0.00     0.167 HD
ATOM     65  C   UNL A   1      42.607  33.561  30.604  1.00  0.00     0.074 A 
ATOM     66  C   UNL A   1      41.384  34.242  30.979  1.00  0.00     0.031 C 
ATOM     67  C   UNL A   1      43.823  34.158  30.532  1.00  0.00     0.034 A 
BRANCH  54  68
ATOM     68  C   UNL A   1      48.447  30.316  29.084  1.00  0.00     0.023 A 
ATOM     69  C   UNL A   1      49.216  29.865  30.178  1.00  0.00     0.012 A 
ATOM     70  C   UNL A   1      49.072  30.490  27.832  1.00  0.00     0.148 A 
ATOM     71  C   UNL A   1      50.584  29.630  30.041  1.00  0.00     0.002 A 
ATOM     72  C   UNL A   1      50.427  30.206  27.692  1.00  0.00     0.091 A 
ATOM     73  F   UNL A   1      48.335  30.934  26.805  1.00  0.00    -0.205 F 
ATOM     74  C   UNL A   1      51.186  29.788  28.797  1.00  0.00     0.022 A 
BRANCH  72  75
ATOM     75  S   UNL A   1      51.281  30.292  26.112  1.00  0.00     0.127 S 
ATOM     76  O   UNL A   1      50.589  29.254  25.348  1.00  0.00    -0.237 OA
ATOM     77  O   UNL A   1      50.992  31.661  25.680  1.00  0.00    -0.237 OA
ATOM     78  O   UNL A   1      52.683  30.030  26.399  1.00  0.00    -0.744 OA
ENDBRANCH  72  75
ENDBRANCH  54  68
BRANCH  55  79
ATOM     79  C   UNL A   1      38.620  31.047  30.738  1.00  0.00     0.023 A 
ATOM     80  C   UNL A   1      38.141  30.601  31.985  1.00  0.00     0.012 A 
ATOM     81  C   UNL A   1      37.721  31.628  29.823  1.00  0.00     0.148 A 
ATOM     82  C   UNL A   1      36.787  30.704  32.305  1.00  0.00     0.002 A 
ATOM     83  C   UNL A   1      36.383  31.778  30.170  1.00  0.00     0.091 A 
ATOM     84  F   UNL A   1      38.197  32.042  28.641  1.00  0.00    -0.205 F 
ATOM     85  C   UNL A   1      35.911  31.302  31.404  1.00  0.00     0.022 A 
BRANCH  83  86
ATOM     86  S   UNL A   1      35.215  32.661  29.132  1.00  0.00     0.127 S 
ATOM     87  O   UNL A   1      34.997  31.708  28.048  1.00  0.00    -0.237 OA
ATOM     88  O   UNL A   1      34.076  32.839  30.035  1.00  0.00    -0.237 OA
ATOM     89  O   UNL A   1      35.882  33.903  28.762  1.00  0.00    -0.744 OA
ENDBRANCH  83  86
ENDBRANCH  55  79
BRANCH  67  90
ATOM     90  C   UNL A   1      43.890  35.632  30.838  1.00  0.00     0.023 A 
ATOM     91  C   UNL A   1      44.362  36.065  32.093  1.00  0.00     0.012 A 
ATOM     92  C   UNL A   1      43.545  36.586  29.861  1.00  0.00     0.148 A 
ATOM     93  C   UNL A   1      44.455  37.425  32.384  1.00  0.00     0.002 A 
ATOM     94  C   UNL A   1      43.685  37.940  30.141  1.00  0.00     0.091 A 
ATOM     95  F   UNL A   1      43.079  36.154  28.679  1.00  0.00    -0.205 F 
ATOM     96  C   UNL A   1      44.128  38.361  31.405  1.00  0.00     0.022 A 
BRANCH  94  97
ATOM     97  S   UNL A   1      43.374  39.214  28.913  1.00  0.00     0.127 S 
ATOM     98  O   UNL A   1      44.550  39.094  28.055  1.00  0.00    -0.237 OA
ATOM     99  O   UNL A   1      42.124  38.759  28.303  1.00  0.00    -0.237 OA
ATOM    100  O   UNL A   1      43.263  40.464  29.654  1.00  0.00    -0.744 OA
ENDBRANCH  94  97
ENDBRANCH  67  90
ENDBRANCH  41  42
ENDBRANCH  33  36
ENDBRANCH  31  32
ENDBRANCH  30  31
ENDBRANCH  29  30
ENDBRANCH   1  29
TORSDOF 19
ENDMDL
MODEL 2
REMARK VINA RESULT:     -10.3      4.943     12.062
REMARK SMILES CC(/C=C1\SC(=S)N(CC(=O)NCC(=O)NCCCCNC(=O)c2ccc(-c3c4nc(c(-c5cccc(S(=O)(=O)[O-])c5F)c5ccc([nH]5)c(-c5cccc(S(=O)(=O)[O-])c5F)c5nc(c(-c6cccc(S(=O)(=O)[O-])c6F)c6ccc3[nH]6)C=C5)C=C4)cc2)C1=O)=C\c1ccccc1
REMARK SMILES IDX 17 1 16 2 14 3 15 4 13 6 12 7 10 8 11 9 9 11 8 12 3 13 4 14
REMARK SMILES IDX 5 15 87 16 6 17 88 18 7 19 2 20 1 21 89 22 90 23 91 24 95 25
REMARK SMILES IDX 92 26 94 27 93 28 18 29 19 30 20 31 21 32 22 33 23 35 24 36
REMARK SMILES IDX 25 37 86 38 26 39 85 40 27 41 28 42 29 43 79 44 30 45 84 46
REMARK SMILES IDX 78 47 80 48 31 49 83 50 77 51 76 52 32 54 64 55 44 56 63 57
REMARK SMILES IDX 45 58 48 59 62 60 81 61 46 62 47 63 61 65 82 66 49 67 33 68
REMARK SMILES IDX 34 69 42 70 35 71 37 72 43 73 36 74 38 75 39 76 40 77 41 78
REMARK SMILES IDX 65 79 66 80 74 81 67 82 69 83 75 84 68 85 70 86 71 87 72 88
REMARK SMILES IDX 73 89 50 90 51 91 59 92 52 93 54 94 60 95 53 96 55 97 56 98
REMARK SMILES IDX 57 99 58 100
REMARK H PARENT 16 5 12 10 21 34 80 53 48 64
REMARK Flexibility Score: inf
ROOT
ATOM      1  C   UNL A   1      36.112  32.676  33.446  1.00  0.00     0.116 C 
ENDROOT
BRANCH   1   2
ATOM      2  N   UNL A   1      37.497  33.077  33.554  1.00  0.00    -0.355 N 
ATOM      3  C   UNL A   1      38.565  32.319  33.955  1.00  0.00     0.239 C 
ATOM      4  O   UNL A   1      39.702  32.735  33.721  1.00  0.00    -0.273 OA
ATOM      5  H   UNL A   1      37.698  34.009  33.307  1.00  0.00     0.163 HD
BRANCH   3   6
ATOM      6  C   UNL A   1      38.349  30.908  34.529  1.00  0.00     0.216 C 
BRANCH   6   7
ATOM      7  N   UNL A   1      39.288  30.545  35.579  1.00  0.00    -0.345 N 
ATOM      8  C   UNL A   1      40.514  29.962  35.553  1.00  0.00     0.240 C 
ATOM      9  O   UNL A   1      41.151  29.993  36.614  1.00  0.00    -0.273 OA
ATOM     10  H   UNL A   1      38.973  30.764  36.485  1.00  0.00     0.164 HD
BRANCH   8  11
ATOM     11  C   UNL A   1      41.201  29.461  34.270  1.00  0.00     0.227 C 
BRANCH  11  12
ATOM     12  N   UNL A   1      42.285  28.487  34.413  1.00  0.00    -0.283 N 
ATOM     13  C   UNL A   1      43.115  24.972  34.363  1.00  0.00     0.024 C 
ATOM     14  C   UNL A   1      43.171  26.300  34.519  1.00  0.00     0.080 C 
ATOM     15  S   UNL A   1      44.550  27.294  34.735  1.00  0.00    -0.054 SA
ATOM     16  C   UNL A   1      41.943  27.142  34.438  1.00  0.00     0.266 C 
ATOM     17  C   UNL A   1      43.607  28.781  34.668  1.00  0.00     0.148 C 
ATOM     18  O   UNL A   1      40.818  26.694  34.349  1.00  0.00    -0.268 OA
ATOM     19  S   UNL A   1      44.304  30.280  34.895  1.00  0.00    -0.052 S 
BRANCH  13  20
ATOM     20  C   UNL A   1      44.207  24.004  34.403  1.00  0.00    -0.049 C 
ATOM     21  C   UNL A   1      45.420  24.356  33.587  1.00  0.00     0.044 C 
ATOM     22  C   UNL A   1      44.104  22.932  35.215  1.00  0.00     0.011 C 
BRANCH  22  23
ATOM     23  C   UNL A   1      45.172  21.998  35.632  1.00  0.00    -0.025 A 
ATOM     24  C   UNL A   1      46.063  22.367  36.648  1.00  0.00     0.008 A 
ATOM     25  C   UNL A   1      45.433  20.816  34.919  1.00  0.00     0.008 A 
ATOM     26  C   UNL A   1      47.145  21.545  36.984  1.00  0.00     0.001 A 
ATOM     27  C   UNL A   1      46.500  19.985  35.267  1.00  0.00     0.001 A 
ATOM     28  C   UNL A   1      47.351  20.345  36.306  1.00  0.00     0.000 A 
ENDBRANCH  22  23
ENDBRANCH  13  20
ENDBRANCH  11  12
ENDBRANCH   8  11
ENDBRANCH   6   7
ENDBRANCH   3   6
ENDBRANCH   1   2
BRANCH   1  29
ATOM     29  C   UNL A   1      35.771  31.957  32.146  1.00  0.00     0.023 C 
BRANCH  29  30
ATOM     30  C   UNL A   1      34.738  32.679  31.277  1.00  0.00     0.023 C 
BRANCH  30  31
ATOM     31  C   UNL A   1      35.068  32.762  29.784  1.00  0.00     0.116 C 
BRANCH  31  32
ATOM     32  N   UNL A   1      34.258  31.898  28.935  1.00  0.00    -0.352 N 
ATOM     33  C   UNL A   1      34.621  30.720  28.314  1.00  0.00     0.251 C 
ATOM     34  H   UNL A   1      33.332  32.195  28.785  1.00  0.00     0.163 HD
ATOM     35  O   UNL A   1      33.830  30.160  27.558  1.00  0.00    -0.269 OA
BRANCH  33  36
ATOM     36  C   UNL A   1      35.971  30.140  28.526  1.00  0.00     0.039 A 
ATOM     37  C   UNL A   1      36.932  30.238  27.515  1.00  0.00     0.014 A 
ATOM     38  C   UNL A   1      36.301  29.508  29.724  1.00  0.00     0.014 A 
ATOM     39  C   UNL A   1      38.241  29.798  27.754  1.00  0.00     0.010 A 
ATOM     40  C   UNL A   1      37.608  29.108  29.981  1.00  0.00     0.010 A 
ATOM     41  C   UNL A   1      38.599  29.277  29.009  1.00  0.00    -0.014 A 
BRANCH  41  42
ATOM     42  C   UNL A   1      40.016  29.041  29.384  1.00  0.00     0.031 A 
ATOM     43  C   UNL A   1      40.880  30.143  29.926  1.00  0.00     0.074 A 
ATOM     44  C   UNL A   1      40.561  27.849  29.070  1.00  0.00     0.049 A 
ATOM     45  N   UNL A   1      42.147  30.112  30.249  1.00  0.00    -0.248 NA
ATOM     46  C   UNL A   1      40.249  31.459  30.098  1.00  0.00     0.031 C 
ATOM     47  C   UNL A   1      39.855  26.748  28.408  1.00  0.00     0.029 A 
ATOM     48  N   UNL A   1      41.838  27.375  29.230  1.00  0.00    -0.354 N 
ATOM     49  C   UNL A   1      42.478  31.408  30.628  1.00  0.00     0.074 A 
ATOM     50  C   UNL A   1      41.279  32.205  30.476  1.00  0.00     0.031 C 
ATOM     51  C   UNL A   1      40.705  25.728  28.222  1.00  0.00     0.029 A 
ATOM     52  C   UNL A   1      42.016  26.103  28.738  1.00  0.00     0.049 A 
ATOM     53  H   UNL A   1      42.557  27.895  29.655  1.00  0.00     0.167 HD
ATOM     54  C   UNL A   1      43.665  31.883  31.083  1.00  0.00     0.034 A 
ATOM     55  C   UNL A   1      43.113  25.320  28.715  1.00  0.00     0.034 A 
ATOM     56  C   UNL A   1      44.834  31.063  31.277  1.00  0.00     0.049 A 
ATOM     57  C   UNL A   1      44.379  25.827  29.344  1.00  0.00     0.074 A 
ATOM     58  C   UNL A   1      46.045  31.411  31.851  1.00  0.00     0.029 A 
ATOM     59  N   UNL A   1      44.938  29.732  30.903  1.00  0.00    -0.354 N 
ATOM     60  N   UNL A   1      44.620  27.000  29.879  1.00  0.00    -0.248 NA
ATOM     61  C   UNL A   1      45.508  24.891  29.412  1.00  0.00     0.031 C 
ATOM     62  C   UNL A   1      46.886  30.292  31.811  1.00  0.00     0.029 A 
ATOM     63  C   UNL A   1      46.191  29.243  31.233  1.00  0.00     0.049 A 
ATOM     64  H   UNL A   1      44.226  29.211  30.466  1.00  0.00     0.167 HD
ATOM     65  C   UNL A   1      45.914  26.932  30.379  1.00  0.00     0.074 A 
ATOM     66  C   UNL A   1      46.397  25.594  30.102  1.00  0.00     0.031 C 
ATOM     67  C   UNL A   1      46.642  27.895  30.996  1.00  0.00     0.034 A 
BRANCH  54  68
ATOM     68  C   UNL A   1      43.747  33.339  31.473  1.00  0.00     0.023 A 
ATOM     69  C   UNL A   1      44.266  34.274  30.552  1.00  0.00     0.012 A 
ATOM     70  C   UNL A   1      43.237  33.799  32.704  1.00  0.00     0.148 A 
ATOM     71  C   UNL A   1      44.312  35.633  30.863  1.00  0.00     0.002 A 
ATOM     72  C   UNL A   1      43.242  35.162  32.987  1.00  0.00     0.091 A 
ATOM     73  F   UNL A   1      42.763  32.900  33.577  1.00  0.00    -0.205 F 
ATOM     74  C   UNL A   1      43.790  36.078  32.074  1.00  0.00     0.022 A 
BRANCH  72  75
ATOM     75  S   UNL A   1      42.513  35.848  34.480  1.00  0.00     0.127 S 
ATOM     76  O   UNL A   1      43.331  35.224  35.519  1.00  0.00    -0.237 OA
ATOM     77  O   UNL A   1      42.742  37.283  34.304  1.00  0.00    -0.237 OA
ATOM     78  O   UNL A   1      41.113  35.451  34.462  1.00  0.00    -0.744 OA
ENDBRANCH  72  75
ENDBRANCH  54  68
BRANCH  55  79
ATOM     79  C   UNL A   1      43.013  23.934  28.181  1.00  0.00     0.023 A 
ATOM     80  C   UNL A   1      42.142  23.021  28.805  1.00  0.00     0.012 A 
ATOM     81  C   UNL A   1      43.718  23.534  27.029  1.00  0.00     0.148 A 
ATOM     82  C   UNL A   1      41.995  21.725  28.311  1.00  0.00     0.002 A 
ATOM     83  C   UNL A   1      43.525  22.259  26.510  1.00  0.00     0.091 A 
ATOM     84  F   UNL A   1      44.545  24.417  26.453  1.00  0.00    -0.205 F 
ATOM     85  C   UNL A   1      42.677  21.347  27.159  1.00  0.00     0.022 A 
BRANCH  83  86
ATOM     86  S   UNL A   1      44.252  21.737  24.953  1.00  0.00     0.127 S 
ATOM     87  O   UNL A   1      43.717  20.386  24.810  1.00  0.00    -0.237 OA
ATOM     88  O   UNL A   1      43.705  22.719  24.016  1.00  0.00    -0.237 OA
ATOM     89  O   UNL A   1      45.694  21.833  25.143  1.00  0.00    -0.744 OA
ENDBRANCH  83  86
ENDBRANCH  55  79
BRANCH  67  90
ATOM     90  C   UNL A   1      48.034  27.532  31.443  1.00  0.00     0.023 A 
ATOM     91  C   UNL A   1      48.247  27.059  32.753  1.00  0.00     0.012 A 
ATOM     92  C   UNL A   1      49.118  27.601  30.546  1.00  0.00     0.148 A 
ATOM     93  C   UNL A   1      49.525  26.694  33.175  1.00  0.00     0.002 A 
ATOM     94  C   UNL A   1      50.380  27.191  30.959  1.00  0.00     0.091 A 
ATOM     95  F   UNL A   1      48.898  28.073  29.310  1.00  0.00    -0.205 F 
ATOM     96  C   UNL A   1      50.588  26.750  32.275  1.00  0.00     0.022 A 
BRANCH  94  97
ATOM     97  S   UNL A   1      51.788  27.143  29.845  1.00  0.00     0.127 S 
ATOM     98  O   UNL A   1      52.833  26.596  30.708  1.00  0.00    -0.237 OA
ATOM     99  O   UNL A   1      51.324  26.233  28.797  1.00  0.00    -0.237 OA
ATOM    100  O   UNL A   1      51.996  28.516  29.402  1.00  0.00    -0.744 OA
ENDBRANCH  94  97
ENDBRANCH  67  90
ENDBRANCH  41  42
ENDBRANCH  33  36
ENDBRANCH  31  32
ENDBRANCH  30  31
ENDBRANCH  29  30
ENDBRANCH   1  29
TORSDOF 19
ENDMDL
MODEL 3
REMARK VINA RESULT:     -10.3      5.304     13.111
REMARK SMILES CC(/C=C1\SC(=S)N(CC(=O)NCC(=O)NCCCCNC(=O)c2ccc(-c3c4nc(c(-c5cccc(S(=O)(=O)[O-])c5F)c5ccc([nH]5)c(-c5cccc(S(=O)(=O)[O-])c5F)c5nc(c(-c6cccc(S(=O)(=O)[O-])c6F)c6ccc3[nH]6)C=C5)C=C4)cc2)C1=O)=C\c1ccccc1
REMARK SMILES IDX 17 1 16 2 14 3 15 4 13 6 12 7 10 8 11 9 9 11 8 12 3 13 4 14
REMARK SMILES IDX 5 15 87 16 6 17 88 18 7 19 2 20 1 21 89 22 90 23 91 24 95 25
REMARK SMILES IDX 92 26 94 27 93 28 18 29 19 30 20 31 21 32 22 33 23 35 24 36
REMARK SMILES IDX 25 37 86 38 26 39 85 40 27 41 28 42 29 43 79 44 30 45 84 46
REMARK SMILES IDX 78 47 80 48 31 49 83 50 77 51 76 52 32 54 64 55 44 56 63 57
REMARK SMILES IDX 45 58 48 59 62 60 81 61 46 62 47 63 61 65 82 66 49 67 33 68
REMARK SMILES IDX 34 69 42 70 35 71 37 72 43 73 36 74 38 75 39 76 40 77 41 78
REMARK SMILES IDX 65 79 66 80 74 81 67 82 69 83 75 84 68 85 70 86 71 87 72 88
REMARK SMILES IDX 73 89 50 90 51 91 59 92 52 93 54 94 60 95 53 96 55 97 56 98
REMARK SMILES IDX 57 99 58 100
REMARK H PARENT 16 5 12 10 21 34 80 53 48 64
REMARK Flexibility Score: inf
ROOT
ATOM      1  C   UNL A   1      37.072  34.047  30.672  1.00  0.00     0.116 C 
ENDROOT
BRANCH   1   2
ATOM      2  N   UNL A   1      38.203  34.203  31.558  1.00  0.00    -0.355 N 
ATOM      3  C   UNL A   1      39.510  34.439  31.224  1.00  0.00     0.239 C 
ATOM      4  O   UNL A   1      40.283  34.819  32.105  1.00  0.00    -0.273 OA
ATOM      5  H   UNL A   1      38.011  34.132  32.522  1.00  0.00     0.163 HD
BRANCH   3   6
ATOM      6  C   UNL A   1      39.959  34.395  29.752  1.00  0.00     0.216 C 
BRANCH   6   7
ATOM      7  N   UNL A   1      41.392  34.554  29.565  1.00  0.00    -0.345 N 
ATOM      8  C   UNL A   1      42.437  33.697  29.703  1.00  0.00     0.240 C 
ATOM      9  O   UNL A   1      43.521  34.086  29.251  1.00  0.00    -0.273 OA
ATOM     10  H   UNL A   1      41.658  35.459  29.285  1.00  0.00     0.164 HD
BRANCH   8  11
ATOM     11  C   UNL A   1      42.298  32.245  30.196  1.00  0.00     0.227 C 
BRANCH  11  12
ATOM     12  N   UNL A   1      43.527  31.480  30.419  1.00  0.00    -0.283 N 
ATOM     13  C   UNL A   1      45.696  28.929  29.067  1.00  0.00     0.024 C 
ATOM     14  C   UNL A   1      45.120  29.822  29.880  1.00  0.00     0.080 C 
ATOM     15  S   UNL A   1      45.730  30.496  31.332  1.00  0.00    -0.054 SA
ATOM     16  C   UNL A   1      43.805  30.439  29.544  1.00  0.00     0.266 C 
ATOM     17  C   UNL A   1      44.369  31.603  31.503  1.00  0.00     0.148 C 
ATOM     18  O   UNL A   1      43.119  30.103  28.600  1.00  0.00    -0.268 OA
ATOM     19  S   UNL A   1      44.210  32.611  32.822  1.00  0.00    -0.052 S 
BRANCH  13  20
ATOM     20  C   UNL A   1      46.970  28.237  29.232  1.00  0.00    -0.049 C 
ATOM     21  C   UNL A   1      47.982  28.465  28.143  1.00  0.00     0.044 C 
ATOM     22  C   UNL A   1      47.193  27.531  30.360  1.00  0.00     0.011 C 
BRANCH  22  23
ATOM     23  C   UNL A   1      48.478  27.004  30.867  1.00  0.00    -0.025 A 
ATOM     24  C   UNL A   1      48.673  25.620  30.966  1.00  0.00     0.008 A 
ATOM     25  C   UNL A   1      49.452  27.852  31.420  1.00  0.00     0.008 A 
ATOM     26  C   UNL A   1      49.838  25.102  31.542  1.00  0.00     0.001 A 
ATOM     27  C   UNL A   1      50.625  27.335  31.976  1.00  0.00     0.001 A 
ATOM     28  C   UNL A   1      50.821  25.960  32.029  1.00  0.00     0.000 A 
ENDBRANCH  22  23
ENDBRANCH  13  20
ENDBRANCH  11  12
ENDBRANCH   8  11
ENDBRANCH   6   7
ENDBRANCH   3   6
ENDBRANCH   1   2
BRANCH   1  29
ATOM     29  C   UNL A   1      35.718  34.206  31.357  1.00  0.00     0.023 C 
BRANCH  29  30
ATOM     30  C   UNL A   1      34.526  33.755  30.510  1.00  0.00     0.023 C 
BRANCH  30  31
ATOM     31  C   UNL A   1      34.676  33.946  28.998  1.00  0.00     0.116 C 
BRANCH  31  32
ATOM     32  N   UNL A   1      33.835  33.073  28.189  1.00  0.00    -0.352 N 
ATOM     33  C   UNL A   1      34.103  31.794  27.744  1.00  0.00     0.251 C 
ATOM     34  H   UNL A   1      32.963  33.445  27.925  1.00  0.00     0.163 HD
ATOM     35  O   UNL A   1      33.310  31.230  26.994  1.00  0.00    -0.269 OA
BRANCH  33  36
ATOM     36  C   UNL A   1      35.357  31.105  28.138  1.00  0.00     0.039 A 
ATOM     37  C   UNL A   1      36.582  31.762  27.992  1.00  0.00     0.014 A 
ATOM     38  C   UNL A   1      35.332  29.815  28.667  1.00  0.00     0.014 A 
ATOM     39  C   UNL A   1      37.755  31.164  28.472  1.00  0.00     0.010 A 
ATOM     40  C   UNL A   1      36.487  29.234  29.182  1.00  0.00     0.010 A 
ATOM     41  C   UNL A   1      37.705  29.916  29.117  1.00  0.00    -0.014 A 
BRANCH  41  42
ATOM     42  C   UNL A   1      38.870  29.371  29.860  1.00  0.00     0.031 A 
ATOM     43  C   UNL A   1      39.261  29.902  31.209  1.00  0.00     0.074 A 
ATOM     44  C   UNL A   1      39.673  28.497  29.220  1.00  0.00     0.049 A 
ATOM     45  N   UNL A   1      40.280  29.571  31.960  1.00  0.00    -0.248 NA
ATOM     46  C   UNL A   1      38.419  30.965  31.775  1.00  0.00     0.031 C 
ATOM     47  C   UNL A   1      39.472  28.017  27.850  1.00  0.00     0.029 A 
ATOM     48  N   UNL A   1      40.834  27.886  29.618  1.00  0.00    -0.354 N 
ATOM     49  C   UNL A   1      40.225  30.406  33.070  1.00  0.00     0.074 A 
ATOM     50  C   UNL A   1      39.081  31.273  32.883  1.00  0.00     0.031 C 
ATOM     51  C   UNL A   1      40.472  27.185  27.523  1.00  0.00     0.029 A 
ATOM     52  C   UNL A   1      41.389  27.081  28.652  1.00  0.00     0.049 A 
ATOM     53  H   UNL A   1      41.231  28.013  30.510  1.00  0.00     0.167 HD
ATOM     54  C   UNL A   1      41.039  30.430  34.154  1.00  0.00     0.034 A 
ATOM     55  C   UNL A   1      42.509  26.331  28.675  1.00  0.00     0.034 A 
ATOM     56  C   UNL A   1      42.143  29.524  34.348  1.00  0.00     0.049 A 
ATOM     57  C   UNL A   1      43.321  26.280  29.939  1.00  0.00     0.074 A 
ATOM     58  C   UNL A   1      42.951  29.376  35.462  1.00  0.00     0.029 A 
ATOM     59  N   UNL A   1      42.594  28.613  33.405  1.00  0.00    -0.354 N 
ATOM     60  N   UNL A   1      43.141  26.937  31.059  1.00  0.00    -0.248 NA
ATOM     61  C   UNL A   1      44.457  25.350  29.961  1.00  0.00     0.031 C 
ATOM     62  C   UNL A   1      43.899  28.383  35.187  1.00  0.00     0.029 A 
ATOM     63  C   UNL A   1      43.667  27.899  33.910  1.00  0.00     0.049 A 
ATOM     64  H   UNL A   1      42.208  28.492  32.508  1.00  0.00     0.167 HD
ATOM     65  C   UNL A   1      44.118  26.475  31.931  1.00  0.00     0.074 A 
ATOM     66  C   UNL A   1      44.873  25.466  31.215  1.00  0.00     0.031 C 
ATOM     67  C   UNL A   1      44.378  26.863  33.205  1.00  0.00     0.034 A 
BRANCH  54  68
ATOM     68  C   UNL A   1      40.731  31.418  35.254  1.00  0.00     0.023 A 
ATOM     69  C   UNL A   1      41.592  32.517  35.458  1.00  0.00     0.012 A 
ATOM     70  C   UNL A   1      39.556  31.315  36.026  1.00  0.00     0.148 A 
ATOM     71  C   UNL A   1      41.311  33.474  36.435  1.00  0.00     0.002 A 
ATOM     72  C   UNL A   1      39.258  32.299  36.964  1.00  0.00     0.091 A 
ATOM     73  F   UNL A   1      38.755  30.257  35.835  1.00  0.00    -0.205 F 
ATOM     74  C   UNL A   1      40.140  33.371  37.178  1.00  0.00     0.022 A 
BRANCH  72  75
ATOM     75  S   UNL A   1      37.730  32.308  37.912  1.00  0.00     0.127 S 
ATOM     76  O   UNL A   1      38.086  33.176  39.034  1.00  0.00    -0.237 OA
ATOM     77  O   UNL A   1      36.782  32.895  36.963  1.00  0.00    -0.237 OA
ATOM     78  O   UNL A   1      37.463  30.919  38.255  1.00  0.00    -0.744 OA
ENDBRANCH  72  75
ENDBRANCH  54  68
BRANCH  55  79
ATOM     79  C   UNL A   1      42.848  25.482  27.500  1.00  0.00     0.023 A 
ATOM     80  C   UNL A   1      43.617  26.033  26.457  1.00  0.00     0.012 A 
ATOM     81  C   UNL A   1      42.474  24.126  27.438  1.00  0.00     0.148 A 
ATOM     82  C   UNL A   1      43.984  25.258  25.357  1.00  0.00     0.002 A 
ATOM     83  C   UNL A   1      42.890  23.345  26.365  1.00  0.00     0.091 A 
ATOM     84  F   UNL A   1      41.739  23.623  28.438  1.00  0.00    -0.205 F 
ATOM     85  C   UNL A   1      43.631  23.913  25.316  1.00  0.00     0.022 A 
BRANCH  83  86
ATOM     86  S   UNL A   1      42.602  21.573  26.300  1.00  0.00     0.127 S 
ATOM     87  O   UNL A   1      41.467  21.488  25.386  1.00  0.00    -0.237 OA
ATOM     88  O   UNL A   1      43.869  21.078  25.758  1.00  0.00    -0.237 OA
ATOM     89  O   UNL A   1      42.343  21.169  27.676  1.00  0.00    -0.744 OA
ENDBRANCH  83  86
ENDBRANCH  55  79
BRANCH  67  90
ATOM     90  C   UNL A   1      45.510  26.176  33.921  1.00  0.00     0.023 A 
ATOM     91  C   UNL A   1      46.785  26.776  33.953  1.00  0.00     0.012 A 
ATOM     92  C   UNL A   1      45.296  24.968  34.614  1.00  0.00     0.148 A 
ATOM     93  C   UNL A   1      47.838  26.166  34.634  1.00  0.00     0.002 A 
ATOM     94  C   UNL A   1      46.339  24.390  35.329  1.00  0.00     0.091 A 
ATOM     95  F   UNL A   1      44.082  24.402  34.555  1.00  0.00    -0.205 F 
ATOM     96  C   UNL A   1      47.612  24.980  35.330  1.00  0.00     0.022 A 
BRANCH  94  97
ATOM     97  S   UNL A   1      46.118  22.913  36.328  1.00  0.00     0.127 S 
ATOM     98  O   UNL A   1      45.135  23.363  37.312  1.00  0.00    -0.237 OA
ATOM     99  O   UNL A   1      45.607  21.951  35.351  1.00  0.00    -0.237 OA
ATOM    100  O   UNL A   1      47.435  22.590  36.861  1.00  0.00    -0.744 OA
ENDBRANCH  94  97
ENDBRANCH  67  90
ENDBRANCH  41  42
ENDBRANCH  33  36
ENDBRANCH  31  32
ENDBRANCH  30  31
ENDBRANCH  29  30
ENDBRANCH   1  29
TORSDOF 19
ENDMDL
