MODEL 1
REMARK VINA RESULT:     -11.9      0.000      0.000
REMARK SMILES N#Cc1cccnc1N1CC[NH+]([C@@H](C(=O)NCCCCNC(=O)c2ccc(-c3c4nc(c(-c5cccc(S(=O)(=O)[O-])c5F)c5ccc([nH]5)c(-c5cccc(S(=O)(=O)[O-])c5F)c5nc(c(-c6cccc(S(=O)(=O)[O-])c6F)c6ccc3[nH]6)C=C5)C=C4)cc2)c2c[nH]c3cc(CO)ccc23)CC1
REMARK SMILES IDX 18 1 17 2 16 3 14 4 15 5 13 7 12 8 9 9 10 10 99 11 11 12
REMARK SMILES IDX 98 13 8 15 3 16 4 17 5 18 7 19 6 20 2 21 1 22 87 23 88 24
REMARK SMILES IDX 97 25 89 26 90 27 96 28 91 30 95 31 92 32 93 33 94 34 19 36
REMARK SMILES IDX 20 37 21 38 22 39 23 41 24 42 25 43 86 44 26 45 85 46 27 47
REMARK SMILES IDX 28 48 29 49 79 50 30 51 84 52 78 53 80 54 31 55 83 56 77 57
REMARK SMILES IDX 76 58 32 60 64 61 44 62 63 63 45 64 48 65 62 66 81 67 46 68
REMARK SMILES IDX 47 69 61 71 82 72 49 73 33 74 34 75 42 76 35 77 37 78 43 79
REMARK SMILES IDX 36 80 38 81 39 82 40 83 41 84 65 85 66 86 74 87 67 88 69 89
REMARK SMILES IDX 75 90 68 91 70 92 71 93 72 94 73 95 50 96 51 97 59 98 52 99
REMARK SMILES IDX 54 100 60 101 53 102 55 103 56 104 57 105 58 106
REMARK H PARENT 16 6 12 14 89 29 94 35 21 40 80 59 48 70
REMARK Flexibility Score: inf
ROOT
ATOM      1  C   UNL A   1      34.743  24.633  24.999  1.00  0.00     0.023 C 
ENDROOT
BRANCH   1   2
ATOM      2  C   UNL A   1      33.341  23.992  24.790  1.00  0.00     0.116 C 
BRANCH   2   3
ATOM      3  N   UNL A   1      32.285  24.394  25.717  1.00  0.00    -0.351 N 
ATOM      4  C   UNL A   1      31.532  25.519  25.961  1.00  0.00     0.283 C 
ATOM      5  O   UNL A   1      30.618  25.324  26.769  1.00  0.00    -0.268 OA
ATOM      6  H   UNL A   1      32.049  23.662  26.333  1.00  0.00     0.163 HD
BRANCH   4   7
ATOM      7  C   UNL A   1      31.750  26.892  25.254  1.00  0.00     0.307 C 
BRANCH   7   8
ATOM      8  N   UNL A   1      31.222  28.142  25.951  1.00  0.00    -0.318 N 
ATOM      9  N   UNL A   1      33.320  29.827  27.239  1.00  0.00    -0.344 N 
ATOM     10  C   UNL A   1      32.865  28.571  27.847  1.00  0.00     0.179 C 
ATOM     11  C   UNL A   1      33.056  29.923  25.795  1.00  0.00     0.179 C 
ATOM     12  C   UNL A   1      31.416  28.318  27.408  1.00  0.00     0.284 C 
ATOM     13  C   UNL A   1      31.636  29.428  25.391  1.00  0.00     0.284 C 
ATOM     14  H   UNL A   1      30.245  27.913  25.767  1.00  0.00     0.349 HD
BRANCH   9  15
ATOM     15  C   UNL A   1      34.627  30.209  27.591  1.00  0.00     0.146 A 
ATOM     16  C   UNL A   1      34.942  31.545  27.878  1.00  0.00     0.095 A 
ATOM     17  C   UNL A   1      36.272  31.898  28.127  1.00  0.00     0.025 A 
ATOM     18  C   UNL A   1      37.259  30.922  28.096  1.00  0.00     0.022 A 
ATOM     19  N   UNL A   1      35.589  29.253  27.599  1.00  0.00    -0.238 NA
ATOM     20  C   UNL A   1      36.871  29.623  27.834  1.00  0.00     0.113 A 
BRANCH  16  21
ATOM     21  C   UNL A   1      33.921  32.555  27.939  1.00  0.00     0.103 C 
ATOM     22  N   UNL A   1      33.123  33.385  27.984  1.00  0.00    -0.192 NA
ENDBRANCH  16  21
ENDBRANCH   9  15
ENDBRANCH   7   8
BRANCH   7  23
ATOM     23  C   UNL A   1      31.311  26.958  23.761  1.00  0.00     0.044 A 
ATOM     24  C   UNL A   1      32.177  26.982  22.672  1.00  0.00     0.094 A 
ATOM     25  C   UNL A   1      30.076  27.437  23.188  1.00  0.00     0.009 A 
ATOM     26  N   UNL A   1      31.795  28.116  21.982  1.00  0.00    -0.361 N 
ATOM     27  C   UNL A   1      30.497  28.438  22.307  1.00  0.00     0.046 A 
ATOM     28  C   UNL A   1      28.707  27.376  23.499  1.00  0.00     0.011 A 
ATOM     29  H   UNL A   1      32.364  28.617  21.353  1.00  0.00     0.166 HD
ATOM     30  C   UNL A   1      29.717  29.578  22.047  1.00  0.00     0.032 A 
ATOM     31  C   UNL A   1      27.872  28.436  23.131  1.00  0.00     0.007 A 
ATOM     32  C   UNL A   1      28.408  29.595  22.560  1.00  0.00    -0.021 A 
BRANCH  32  33
ATOM     33  C   UNL A   1      27.601  30.869  22.568  1.00  0.00     0.191 C 
BRANCH  33  34
ATOM     34  O   UNL A   1      27.107  31.175  23.871  1.00  0.00    -0.392 OA
ATOM     35  H   UNL A   1      26.168  31.409  23.814  1.00  0.00     0.211 HD
ENDBRANCH  33  34
ENDBRANCH  32  33
ENDBRANCH   7  23
ENDBRANCH   4   7
ENDBRANCH   2   3
ENDBRANCH   1   2
BRANCH   1  36
ATOM     36  C   UNL A   1      35.967  23.714  24.900  1.00  0.00     0.023 C 
BRANCH  36  37
ATOM     37  C   UNL A   1      36.722  23.546  26.201  1.00  0.00     0.116 C 
BRANCH  37  38
ATOM     38  N   UNL A   1      37.608  22.392  26.191  1.00  0.00    -0.352 N 
ATOM     39  C   UNL A   1      38.971  22.346  26.383  1.00  0.00     0.251 C 
ATOM     40  H   UNL A   1      37.174  21.523  26.026  1.00  0.00     0.163 HD
ATOM     41  O   UNL A   1      39.573  21.289  26.218  1.00  0.00    -0.269 OA
BRANCH  39  42
ATOM     42  C   UNL A   1      39.714  23.575  26.757  1.00  0.00     0.039 A 
ATOM     43  C   UNL A   1      40.518  23.561  27.900  1.00  0.00     0.014 A 
ATOM     44  C   UNL A   1      39.624  24.736  25.987  1.00  0.00     0.014 A 
ATOM     45  C   UNL A   1      41.261  24.695  28.240  1.00  0.00     0.010 A 
ATOM     46  C   UNL A   1      40.447  25.821  26.260  1.00  0.00     0.010 A 
ATOM     47  C   UNL A   1      41.249  25.826  27.407  1.00  0.00    -0.014 A 
BRANCH  47  48
ATOM     48  C   UNL A   1      42.040  27.038  27.731  1.00  0.00     0.031 A 
ATOM     49  C   UNL A   1      43.471  27.146  27.272  1.00  0.00     0.074 A 
ATOM     50  C   UNL A   1      41.500  27.995  28.507  1.00  0.00     0.049 A 
ATOM     51  N   UNL A   1      44.330  28.110  27.471  1.00  0.00    -0.248 NA
ATOM     52  C   UNL A   1      44.022  26.001  26.526  1.00  0.00     0.031 C 
ATOM     53  C   UNL A   1      40.157  27.952  29.091  1.00  0.00     0.029 A 
ATOM     54  N   UNL A   1      42.018  29.185  28.952  1.00  0.00    -0.354 N 
ATOM     55  C   UNL A   1      45.527  27.672  26.917  1.00  0.00     0.074 A 
ATOM     56  C   UNL A   1      45.299  26.335  26.419  1.00  0.00     0.031 C 
ATOM     57  C   UNL A   1      39.947  29.078  29.792  1.00  0.00     0.029 A 
ATOM     58  C   UNL A   1      41.144  29.908  29.731  1.00  0.00     0.049 A 
ATOM     59  H   UNL A   1      42.927  29.492  28.735  1.00  0.00     0.167 HD
ATOM     60  C   UNL A   1      46.703  28.335  26.802  1.00  0.00     0.034 A 
ATOM     61  C   UNL A   1      41.293  31.112  30.317  1.00  0.00     0.034 A 
ATOM     62  C   UNL A   1      46.899  29.686  27.250  1.00  0.00     0.049 A 
ATOM     63  C   UNL A   1      42.582  31.860  30.114  1.00  0.00     0.074 A 
ATOM     64  C   UNL A   1      48.006  30.498  27.083  1.00  0.00     0.029 A 
ATOM     65  N   UNL A   1      45.965  30.422  27.963  1.00  0.00    -0.354 N 
ATOM     66  N   UNL A   1      43.645  31.503  29.434  1.00  0.00    -0.248 NA
ATOM     67  C   UNL A   1      42.678  33.191  30.727  1.00  0.00     0.031 C 
ATOM     68  C   UNL A   1      47.750  31.717  27.719  1.00  0.00     0.029 A 
ATOM     69  C   UNL A   1      46.473  31.674  28.260  1.00  0.00     0.049 A 
ATOM     70  H   UNL A   1      45.071  30.100  28.222  1.00  0.00     0.167 HD
ATOM     71  C   UNL A   1      44.526  32.576  29.511  1.00  0.00     0.074 A 
ATOM     72  C   UNL A   1      43.858  33.605  30.284  1.00  0.00     0.031 C 
ATOM     73  C   UNL A   1      45.777  32.696  29.001  1.00  0.00     0.034 A 
BRANCH  60  74
ATOM     74  C   UNL A   1      47.842  27.618  26.120  1.00  0.00     0.023 A 
ATOM     75  C   UNL A   1      48.000  27.723  24.722  1.00  0.00     0.012 A 
ATOM     76  C   UNL A   1      48.764  26.852  26.861  1.00  0.00     0.148 A 
ATOM     77  C   UNL A   1      49.023  27.038  24.066  1.00  0.00     0.002 A 
ATOM     78  C   UNL A   1      49.811  26.212  26.206  1.00  0.00     0.091 A 
ATOM     79  F   UNL A   1      48.588  26.740  28.184  1.00  0.00    -0.205 F 
ATOM     80  C   UNL A   1      49.933  26.291  24.809  1.00  0.00     0.022 A 
BRANCH  78  81
ATOM     81  S   UNL A   1      51.080  25.292  27.084  1.00  0.00     0.127 S 
ATOM     82  O   UNL A   1      50.280  24.308  27.812  1.00  0.00    -0.237 OA
ATOM     83  O   UNL A   1      51.876  24.739  25.988  1.00  0.00    -0.237 OA
ATOM     84  O   UNL A   1      51.780  26.268  27.908  1.00  0.00    -0.744 OA
ENDBRANCH  78  81
ENDBRANCH  60  74
BRANCH  61  85
ATOM     85  C   UNL A   1      40.150  31.717  31.056  1.00  0.00     0.023 A 
ATOM     86  C   UNL A   1      39.260  32.566  30.367  1.00  0.00     0.012 A 
ATOM     87  C   UNL A   1      39.898  31.410  32.406  1.00  0.00     0.148 A 
ATOM     88  C   UNL A   1      38.154  33.115  31.015  1.00  0.00     0.002 A 
ATOM     89  C   UNL A   1      38.762  31.916  33.031  1.00  0.00     0.091 A 
ATOM     90  F   UNL A   1      40.759  30.606  33.046  1.00  0.00    -0.205 F 
ATOM     91  C   UNL A   1      37.899  32.782  32.342  1.00  0.00     0.022 A 
BRANCH  89  92
ATOM     92  S   UNL A   1      38.273  31.422  34.687  1.00  0.00     0.127 S 
ATOM     93  O   UNL A   1      36.992  32.109  34.839  1.00  0.00    -0.237 OA
ATOM     94  O   UNL A   1      38.182  29.967  34.553  1.00  0.00    -0.237 OA
ATOM     95  O   UNL A   1      39.342  31.873  35.567  1.00  0.00    -0.744 OA
ENDBRANCH  89  92
ENDBRANCH  61  85
BRANCH  73  96
ATOM     96  C   UNL A   1      46.502  33.992  29.250  1.00  0.00     0.023 A 
ATOM     97  C   UNL A   1      47.332  34.123  30.381  1.00  0.00     0.012 A 
ATOM     98  C   UNL A   1      46.411  35.055  28.331  1.00  0.00     0.148 A 
ATOM     99  C   UNL A   1      48.030  35.306  30.614  1.00  0.00     0.002 A 
ATOM    100  C   UNL A   1      47.151  36.212  28.542  1.00  0.00     0.091 A 
ATOM    101  F   UNL A   1      45.601  34.919  27.271  1.00  0.00    -0.205 F 
ATOM    102  C   UNL A   1      47.949  36.345  29.690  1.00  0.00     0.022 A 
BRANCH 100 103
ATOM    103  S   UNL A   1      47.184  37.560  27.354  1.00  0.00     0.127 S 
ATOM    104  O   UNL A   1      48.138  38.478  27.973  1.00  0.00    -0.237 OA
ATOM    105  O   UNL A   1      47.672  36.896  26.144  1.00  0.00    -0.237 OA
ATOM    106  O   UNL A   1      45.814  38.045  27.264  1.00  0.00    -0.744 OA
ENDBRANCH 100 103
ENDBRANCH  73  96
ENDBRANCH  47  48
ENDBRANCH  39  42
ENDBRANCH  37  38
ENDBRANCH  36  37
ENDBRANCH   1  36
TORSDOF 20
ENDMDL
MODEL 2
REMARK VINA RESULT:     -11.9      4.956      8.501
REMARK SMILES N#Cc1cccnc1N1CC[NH+]([C@@H](C(=O)NCCCCNC(=O)c2ccc(-c3c4nc(c(-c5cccc(S(=O)(=O)[O-])c5F)c5ccc([nH]5)c(-c5cccc(S(=O)(=O)[O-])c5F)c5nc(c(-c6cccc(S(=O)(=O)[O-])c6F)c6ccc3[nH]6)C=C5)C=C4)cc2)c2c[nH]c3cc(CO)ccc23)CC1
REMARK SMILES IDX 18 1 17 2 16 3 14 4 15 5 13 7 12 8 9 9 10 10 99 11 11 12
REMARK SMILES IDX 98 13 8 15 3 16 4 17 5 18 7 19 6 20 2 21 1 22 87 23 88 24
REMARK SMILES IDX 97 25 89 26 90 27 96 28 91 30 95 31 92 32 93 33 94 34 19 36
REMARK SMILES IDX 20 37 21 38 22 39 23 41 24 42 25 43 86 44 26 45 85 46 27 47
REMARK SMILES IDX 28 48 29 49 79 50 30 51 84 52 78 53 80 54 31 55 83 56 77 57
REMARK SMILES IDX 76 58 32 60 64 61 44 62 63 63 45 64 48 65 62 66 81 67 46 68
REMARK SMILES IDX 47 69 61 71 82 72 49 73 33 74 34 75 42 76 35 77 37 78 43 79
REMARK SMILES IDX 36 80 38 81 39 82 40 83 41 84 65 85 66 86 74 87 67 88 69 89
REMARK SMILES IDX 75 90 68 91 70 92 71 93 72 94 73 95 50 96 51 97 59 98 52 99
REMARK SMILES IDX 54 100 60 101 53 102 55 103 56 104 57 105 58 106
REMARK H PARENT 16 6 12 14 89 29 94 35 21 40 80 59 48 70
REMARK Flexibility Score: inf
ROOT
ATOM      1  C   UNL A   1      32.452  30.402  27.227  1.00  0.00     0.023 C 
ENDROOT
BRANCH   1   2
ATOM      2  C   UNL A   1      32.174  29.436  26.040  1.00  0.00     0.116 C 
BRANCH   2   3
ATOM      3  N   UNL A   1      31.349  28.262  26.321  1.00  0.00    -0.351 N 
ATOM      4  C   UNL A   1      31.166  27.008  25.787  1.00  0.00     0.283 C 
ATOM      5  O   UNL A   1      30.453  26.282  26.489  1.00  0.00    -0.268 OA
ATOM      6  H   UNL A   1      30.768  28.410  27.103  1.00  0.00     0.163 HD
BRANCH   4   7
ATOM      7  C   UNL A   1      31.830  26.510  24.467  1.00  0.00     0.307 C 
BRANCH   7   8
ATOM      8  N   UNL A   1      33.334  26.251  24.482  1.00  0.00    -0.318 N 
ATOM      9  N   UNL A   1      34.098  23.374  24.687  1.00  0.00    -0.344 N 
ATOM     10  C   UNL A   1      33.612  24.124  25.852  1.00  0.00     0.179 C 
ATOM     11  C   UNL A   1      33.715  23.964  23.395  1.00  0.00     0.179 C 
ATOM     12  C   UNL A   1      33.965  25.606  25.656  1.00  0.00     0.284 C 
ATOM     13  C   UNL A   1      33.882  25.511  23.346  1.00  0.00     0.284 C 
ATOM     14  H   UNL A   1      33.572  27.242  24.475  1.00  0.00     0.349 HD
BRANCH   9  15
ATOM     15  C   UNL A   1      33.880  21.987  24.752  1.00  0.00     0.146 A 
ATOM     16  C   UNL A   1      34.945  21.090  24.915  1.00  0.00     0.095 A 
ATOM     17  C   UNL A   1      34.697  19.714  24.876  1.00  0.00     0.025 A 
ATOM     18  C   UNL A   1      33.400  19.256  24.683  1.00  0.00     0.022 A 
ATOM     19  N   UNL A   1      32.610  21.534  24.601  1.00  0.00    -0.238 NA
ATOM     20  C   UNL A   1      32.397  20.197  24.556  1.00  0.00     0.113 A 
BRANCH  16  21
ATOM     21  C   UNL A   1      36.285  21.558  25.143  1.00  0.00     0.103 C 
ATOM     22  N   UNL A   1      37.355  21.931  25.355  1.00  0.00    -0.192 NA
ENDBRANCH  16  21
ENDBRANCH   9  15
ENDBRANCH   7   8
BRANCH   7  23
ATOM     23  C   UNL A   1      31.504  27.343  23.192  1.00  0.00     0.044 A 
ATOM     24  C   UNL A   1      32.447  27.958  22.374  1.00  0.00     0.094 A 
ATOM     25  C   UNL A   1      30.284  28.022  22.827  1.00  0.00     0.009 A 
ATOM     26  N   UNL A   1      32.035  29.276  22.342  1.00  0.00    -0.361 N 
ATOM     27  C   UNL A   1      30.695  29.347  22.649  1.00  0.00     0.046 A 
ATOM     28  C   UNL A   1      28.904  27.774  22.913  1.00  0.00     0.011 A 
ATOM     29  H   UNL A   1      32.611  30.047  22.132  1.00  0.00     0.166 HD
ATOM     30  C   UNL A   1      29.853  30.433  22.942  1.00  0.00     0.032 A 
ATOM     31  C   UNL A   1      28.022  28.848  23.067  1.00  0.00     0.007 A 
ATOM     32  C   UNL A   1      28.511  30.147  23.247  1.00  0.00    -0.021 A 
BRANCH  32  33
ATOM     33  C   UNL A   1      27.611  31.205  23.834  1.00  0.00     0.191 C 
BRANCH  33  34
ATOM     34  O   UNL A   1      27.533  32.358  22.997  1.00  0.00    -0.392 OA
ATOM     35  H   UNL A   1      27.701  32.100  22.077  1.00  0.00     0.211 HD
ENDBRANCH  33  34
ENDBRANCH  32  33
ENDBRANCH   7  23
ENDBRANCH   4   7
ENDBRANCH   2   3
ENDBRANCH   1   2
BRANCH   1  36
ATOM     36  C   UNL A   1      31.967  31.852  27.092  1.00  0.00     0.023 C 
BRANCH  36  37
ATOM     37  C   UNL A   1      33.082  32.875  27.043  1.00  0.00     0.116 C 
BRANCH  37  38
ATOM     38  N   UNL A   1      32.692  34.157  27.610  1.00  0.00    -0.352 N 
ATOM     39  C   UNL A   1      33.165  34.779  28.745  1.00  0.00     0.251 C 
ATOM     40  H   UNL A   1      31.996  34.648  27.116  1.00  0.00     0.163 HD
ATOM     41  O   UNL A   1      32.629  35.811  29.140  1.00  0.00    -0.269 OA
BRANCH  39  42
ATOM     42  C   UNL A   1      34.295  34.190  29.504  1.00  0.00     0.039 A 
ATOM     43  C   UNL A   1      34.025  33.263  30.514  1.00  0.00     0.014 A 
ATOM     44  C   UNL A   1      35.617  34.544  29.223  1.00  0.00     0.014 A 
ATOM     45  C   UNL A   1      35.081  32.663  31.207  1.00  0.00     0.010 A 
ATOM     46  C   UNL A   1      36.665  33.866  29.831  1.00  0.00     0.010 A 
ATOM     47  C   UNL A   1      36.411  32.944  30.853  1.00  0.00    -0.014 A 
BRANCH  47  48
ATOM     48  C   UNL A   1      37.552  32.310  31.556  1.00  0.00     0.031 A 
ATOM     49  C   UNL A   1      38.322  31.200  30.891  1.00  0.00     0.074 A 
ATOM     50  C   UNL A   1      37.837  32.674  32.820  1.00  0.00     0.049 A 
ATOM     51  N   UNL A   1      39.334  30.510  31.347  1.00  0.00    -0.248 NA
ATOM     52  C   UNL A   1      37.872  30.783  29.551  1.00  0.00     0.031 C 
ATOM     53  C   UNL A   1      37.097  33.669  33.601  1.00  0.00     0.029 A 
ATOM     54  N   UNL A   1      38.815  32.240  33.677  1.00  0.00    -0.354 N 
ATOM     55  C   UNL A   1      39.609  29.554  30.376  1.00  0.00     0.074 A 
ATOM     56  C   UNL A   1      38.629  29.719  29.329  1.00  0.00     0.031 C 
ATOM     57  C   UNL A   1      37.666  33.789  34.811  1.00  0.00     0.029 A 
ATOM     58  C   UNL A   1      38.791  32.865  34.902  1.00  0.00     0.049 A 
ATOM     59  H   UNL A   1      39.473  31.547  33.439  1.00  0.00     0.167 HD
ATOM     60  C   UNL A   1      40.610  28.642  30.342  1.00  0.00     0.034 A 
ATOM     61  C   UNL A   1      39.596  32.716  35.972  1.00  0.00     0.034 A 
ATOM     62  C   UNL A   1      41.614  28.526  31.363  1.00  0.00     0.049 A 
ATOM     63  C   UNL A   1      40.744  31.749  35.883  1.00  0.00     0.074 A 
ATOM     64  C   UNL A   1      42.739  27.723  31.381  1.00  0.00     0.029 A 
ATOM     65  N   UNL A   1      41.608  29.234  32.556  1.00  0.00    -0.354 N 
ATOM     66  N   UNL A   1      41.097  30.977  34.884  1.00  0.00    -0.248 NA
ATOM     67  C   UNL A   1      41.626  31.659  37.054  1.00  0.00     0.031 C 
ATOM     68  C   UNL A   1      43.399  27.926  32.598  1.00  0.00     0.029 A 
ATOM     69  C   UNL A   1      42.699  28.875  33.327  1.00  0.00     0.049 A 
ATOM     70  H   UNL A   1      40.926  29.895  32.817  1.00  0.00     0.167 HD
ATOM     71  C   UNL A   1      42.259  30.331  35.291  1.00  0.00     0.074 A 
ATOM     72  C   UNL A   1      42.562  30.824  36.620  1.00  0.00     0.031 C 
ATOM     73  C   UNL A   1      43.000  29.406  34.633  1.00  0.00     0.034 A 
BRANCH  60  74
ATOM     74  C   UNL A   1      40.688  27.739  29.136  1.00  0.00     0.023 A 
ATOM     75  C   UNL A   1      39.876  26.586  29.070  1.00  0.00     0.012 A 
ATOM     76  C   UNL A   1      41.549  28.035  28.062  1.00  0.00     0.148 A 
ATOM     77  C   UNL A   1      39.959  25.716  27.983  1.00  0.00     0.002 A 
ATOM     78  C   UNL A   1      41.590  27.189  26.958  1.00  0.00     0.091 A 
ATOM     79  F   UNL A   1      42.332  29.119  28.148  1.00  0.00    -0.205 F 
ATOM     80  C   UNL A   1      40.809  26.022  26.924  1.00  0.00     0.022 A 
BRANCH  78  81
ATOM     81  S   UNL A   1      42.593  27.541  25.510  1.00  0.00     0.127 S 
ATOM     82  O   UNL A   1      42.306  26.383  24.663  1.00  0.00    -0.237 OA
ATOM     83  O   UNL A   1      42.020  28.800  25.035  1.00  0.00    -0.237 OA
ATOM     84  O   UNL A   1      43.964  27.644  25.991  1.00  0.00    -0.744 OA
ENDBRANCH  78  81
ENDBRANCH  60  74
BRANCH  61  85
ATOM     85  C   UNL A   1      39.399  33.582  37.169  1.00  0.00     0.023 A 
ATOM     86  C   UNL A   1      39.835  34.921  37.126  1.00  0.00     0.012 A 
ATOM     87  C   UNL A   1      38.728  33.116  38.315  1.00  0.00     0.148 A 
ATOM     88  C   UNL A   1      39.628  35.773  38.210  1.00  0.00     0.002 A 
ATOM     89  C   UNL A   1      38.475  33.986  39.370  1.00  0.00     0.091 A 
ATOM     90  F   UNL A   1      38.326  31.837  38.340  1.00  0.00    -0.205 F 
ATOM     91  C   UNL A   1      38.938  35.310  39.327  1.00  0.00     0.022 A 
BRANCH  89  92
ATOM     92  S   UNL A   1      37.465  33.521  40.781  1.00  0.00     0.127 S 
ATOM     93  O   UNL A   1      37.379  34.780  41.517  1.00  0.00    -0.237 OA
ATOM     94  O   UNL A   1      36.222  33.096  40.136  1.00  0.00    -0.237 OA
ATOM     95  O   UNL A   1      38.187  32.446  41.448  1.00  0.00    -0.744 OA
ENDBRANCH  89  92
ENDBRANCH  61  85
BRANCH  73  96
ATOM     96  C   UNL A   1      44.223  28.876  35.335  1.00  0.00     0.023 A 
ATOM     97  C   UNL A   1      45.483  29.451  35.075  1.00  0.00     0.012 A 
ATOM     98  C   UNL A   1      44.114  27.852  36.296  1.00  0.00     0.148 A 
ATOM     99  C   UNL A   1      46.621  28.989  35.733  1.00  0.00     0.002 A 
ATOM    100  C   UNL A   1      45.245  27.434  36.987  1.00  0.00     0.091 A 
ATOM    101  F   UNL A   1      42.910  27.304  36.516  1.00  0.00    -0.205 F 
ATOM    102  C   UNL A   1      46.501  27.991  36.696  1.00  0.00     0.022 A 
BRANCH 100 103
ATOM    103  S   UNL A   1      45.166  26.224  38.313  1.00  0.00     0.127 S 
ATOM    104  O   UNL A   1      46.561  26.166  38.746  1.00  0.00    -0.237 OA
ATOM    105  O   UNL A   1      44.257  26.865  39.265  1.00  0.00    -0.237 OA
ATOM    106  O   UNL A   1      44.645  25.005  37.710  1.00  0.00    -0.744 OA
ENDBRANCH 100 103
ENDBRANCH  73  96
ENDBRANCH  47  48
ENDBRANCH  39  42
ENDBRANCH  37  38
ENDBRANCH  36  37
ENDBRANCH   1  36
TORSDOF 20
ENDMDL
MODEL 3
REMARK VINA RESULT:     -11.9      2.938      5.112
REMARK SMILES N#Cc1cccnc1N1CC[NH+]([C@@H](C(=O)NCCCCNC(=O)c2ccc(-c3c4nc(c(-c5cccc(S(=O)(=O)[O-])c5F)c5ccc([nH]5)c(-c5cccc(S(=O)(=O)[O-])c5F)c5nc(c(-c6cccc(S(=O)(=O)[O-])c6F)c6ccc3[nH]6)C=C5)C=C4)cc2)c2c[nH]c3cc(CO)ccc23)CC1
REMARK SMILES IDX 18 1 17 2 16 3 14 4 15 5 13 7 12 8 9 9 10 10 99 11 11 12
REMARK SMILES IDX 98 13 8 15 3 16 4 17 5 18 7 19 6 20 2 21 1 22 87 23 88 24
REMARK SMILES IDX 97 25 89 26 90 27 96 28 91 30 95 31 92 32 93 33 94 34 19 36
REMARK SMILES IDX 20 37 21 38 22 39 23 41 24 42 25 43 86 44 26 45 85 46 27 47
REMARK SMILES IDX 28 48 29 49 79 50 30 51 84 52 78 53 80 54 31 55 83 56 77 57
REMARK SMILES IDX 76 58 32 60 64 61 44 62 63 63 45 64 48 65 62 66 81 67 46 68
REMARK SMILES IDX 47 69 61 71 82 72 49 73 33 74 34 75 42 76 35 77 37 78 43 79
REMARK SMILES IDX 36 80 38 81 39 82 40 83 41 84 65 85 66 86 74 87 67 88 69 89
REMARK SMILES IDX 75 90 68 91 70 92 71 93 72 94 73 95 50 96 51 97 59 98 52 99
REMARK SMILES IDX 54 100 60 101 53 102 55 103 56 104 57 105 58 106
REMARK H PARENT 16 6 12 14 89 29 94 35 21 40 80 59 48 70
REMARK Flexibility Score: inf
ROOT
ATOM      1  C   UNL A   1      36.588  20.887  24.771  1.00  0.00     0.023 C 
ENDROOT
BRANCH   1   2
ATOM      2  C   UNL A   1      36.872  22.311  24.215  1.00  0.00     0.116 C 
BRANCH   2   3
ATOM      3  N   UNL A   1      35.987  23.385  24.663  1.00  0.00    -0.351 N 
ATOM      4  C   UNL A   1      34.655  23.707  24.548  1.00  0.00     0.283 C 
ATOM      5  O   UNL A   1      34.324  24.662  25.259  1.00  0.00    -0.268 OA
ATOM      6  H   UNL A   1      36.477  24.059  25.189  1.00  0.00     0.163 HD
BRANCH   4   7
ATOM      7  C   UNL A   1      33.634  22.922  23.668  1.00  0.00     0.307 C 
BRANCH   7   8
ATOM      8  N   UNL A   1      32.773  23.722  22.694  1.00  0.00    -0.318 N 
ATOM      9  N   UNL A   1      31.908  26.392  23.705  1.00  0.00    -0.344 N 
ATOM     10  C   UNL A   1      31.278  25.153  24.176  1.00  0.00     0.179 C 
ATOM     11  C   UNL A   1      33.249  26.200  23.130  1.00  0.00     0.179 C 
ATOM     12  C   UNL A   1      31.391  24.100  23.064  1.00  0.00     0.284 C 
ATOM     13  C   UNL A   1      33.347  24.967  22.185  1.00  0.00     0.284 C 
ATOM     14  H   UNL A   1      32.744  22.973  22.002  1.00  0.00     0.349 HD
BRANCH   9  15
ATOM     15  C   UNL A   1      31.841  27.465  24.612  1.00  0.00     0.146 A 
ATOM     16  C   UNL A   1      31.268  28.691  24.247  1.00  0.00     0.095 A 
ATOM     17  C   UNL A   1      31.309  29.762  25.145  1.00  0.00     0.025 A 
ATOM     18  C   UNL A   1      31.910  29.595  26.386  1.00  0.00     0.022 A 
ATOM     19  N   UNL A   1      32.393  27.296  25.840  1.00  0.00    -0.238 NA
ATOM     20  C   UNL A   1      32.429  28.352  26.688  1.00  0.00     0.113 A 
BRANCH  16  21
ATOM     21  C   UNL A   1      30.621  28.862  22.974  1.00  0.00     0.103 C 
ATOM     22  N   UNL A   1      30.091  28.971  21.957  1.00  0.00    -0.192 NA
ENDBRANCH  16  21
ENDBRANCH   9  15
ENDBRANCH   7   8
BRANCH   7  23
ATOM     23  C   UNL A   1      32.699  21.941  24.435  1.00  0.00     0.044 A 
ATOM     24  C   UNL A   1      32.329  22.065  25.770  1.00  0.00     0.094 A 
ATOM     25  C   UNL A   1      32.390  20.559  24.154  1.00  0.00     0.009 A 
ATOM     26  N   UNL A   1      32.693  20.851  26.320  1.00  0.00    -0.361 N 
ATOM     27  C   UNL A   1      32.765  19.900  25.328  1.00  0.00     0.046 A 
ATOM     28  C   UNL A   1      32.140  19.773  23.016  1.00  0.00     0.011 A 
ATOM     29  H   UNL A   1      32.872  20.691  27.275  1.00  0.00     0.166 HD
ATOM     30  C   UNL A   1      33.271  18.589  25.318  1.00  0.00     0.032 A 
ATOM     31  C   UNL A   1      32.506  18.423  23.021  1.00  0.00     0.007 A 
ATOM     32  C   UNL A   1      33.215  17.885  24.102  1.00  0.00    -0.021 A 
BRANCH  32  33
ATOM     33  C   UNL A   1      33.971  16.592  23.925  1.00  0.00     0.191 C 
BRANCH  33  34
ATOM     34  O   UNL A   1      34.173  16.281  22.547  1.00  0.00    -0.392 OA
ATOM     35  H   UNL A   1      34.089  17.090  22.018  1.00  0.00     0.211 HD
ENDBRANCH  33  34
ENDBRANCH  32  33
ENDBRANCH   7  23
ENDBRANCH   4   7
ENDBRANCH   2   3
ENDBRANCH   1   2
BRANCH   1  36
ATOM     36  C   UNL A   1      37.787  19.950  24.970  1.00  0.00     0.023 C 
BRANCH  36  37
ATOM     37  C   UNL A   1      38.927  20.560  25.758  1.00  0.00     0.116 C 
BRANCH  37  38
ATOM     38  N   UNL A   1      40.026  19.630  25.967  1.00  0.00    -0.352 N 
ATOM     39  C   UNL A   1      41.327  19.898  26.333  1.00  0.00     0.251 C 
ATOM     40  H   UNL A   1      39.811  18.679  25.829  1.00  0.00     0.163 HD
ATOM     41  O   UNL A   1      42.153  18.990  26.343  1.00  0.00    -0.269 OA
BRANCH  39  42
ATOM     42  C   UNL A   1      41.735  21.280  26.681  1.00  0.00     0.039 A 
ATOM     43  C   UNL A   1      42.003  22.189  25.653  1.00  0.00     0.014 A 
ATOM     44  C   UNL A   1      41.852  21.686  28.012  1.00  0.00     0.014 A 
ATOM     45  C   UNL A   1      42.343  23.509  25.964  1.00  0.00     0.010 A 
ATOM     46  C   UNL A   1      42.078  23.022  28.318  1.00  0.00     0.010 A 
ATOM     47  C   UNL A   1      42.359  23.941  27.300  1.00  0.00    -0.014 A 
BRANCH  47  48
ATOM     48  C   UNL A   1      42.699  25.338  27.661  1.00  0.00     0.031 A 
ATOM     49  C   UNL A   1      44.110  25.836  27.494  1.00  0.00     0.074 A 
ATOM     50  C   UNL A   1      41.760  26.126  28.217  1.00  0.00     0.049 A 
ATOM     51  N   UNL A   1      44.607  27.012  27.771  1.00  0.00    -0.248 NA
ATOM     52  C   UNL A   1      45.103  24.873  26.986  1.00  0.00     0.031 C 
ATOM     53  C   UNL A   1      40.385  25.720  28.518  1.00  0.00     0.029 A 
ATOM     54  N   UNL A   1      41.822  27.428  28.644  1.00  0.00    -0.354 N 
ATOM     55  C   UNL A   1      45.971  26.917  27.515  1.00  0.00     0.074 A 
ATOM     56  C   UNL A   1      46.232  25.556  27.109  1.00  0.00     0.031 C 
ATOM     57  C   UNL A   1      39.727  26.761  29.052  1.00  0.00     0.029 A 
ATOM     58  C   UNL A   1      40.635  27.896  29.157  1.00  0.00     0.049 A 
ATOM     59  H   UNL A   1      42.639  27.975  28.587  1.00  0.00     0.167 HD
ATOM     60  C   UNL A   1      46.917  27.884  27.578  1.00  0.00     0.034 A 
ATOM     61  C   UNL A   1      40.317  29.111  29.645  1.00  0.00     0.034 A 
ATOM     62  C   UNL A   1      46.634  29.249  27.927  1.00  0.00     0.049 A 
ATOM     63  C   UNL A   1      41.365  30.190  29.638  1.00  0.00     0.074 A 
ATOM     64  C   UNL A   1      47.485  30.338  27.912  1.00  0.00     0.029 A 
ATOM     65  N   UNL A   1      45.400  29.711  28.364  1.00  0.00    -0.354 N 
ATOM     66  N   UNL A   1      42.608  30.130  29.224  1.00  0.00    -0.248 NA
ATOM     67  C   UNL A   1      40.957  31.512  30.130  1.00  0.00     0.031 C 
ATOM     68  C   UNL A   1      46.772  31.454  28.365  1.00  0.00     0.029 A 
ATOM     69  C   UNL A   1      45.470  31.065  28.638  1.00  0.00     0.049 A 
ATOM     70  H   UNL A   1      44.594  29.155  28.465  1.00  0.00     0.167 HD
ATOM     71  C   UNL A   1      43.123  31.412  29.376  1.00  0.00     0.074 A 
ATOM     72  C   UNL A   1      42.047  32.232  29.897  1.00  0.00     0.031 C 
ATOM     73  C   UNL A   1      44.375  31.868  29.122  1.00  0.00     0.034 A 
BRANCH  60  74
ATOM     74  C   UNL A   1      48.329  27.502  27.213  1.00  0.00     0.023 A 
ATOM     75  C   UNL A   1      49.184  26.957  28.195  1.00  0.00     0.012 A 
ATOM     76  C   UNL A   1      48.809  27.666  25.899  1.00  0.00     0.148 A 
ATOM     77  C   UNL A   1      50.506  26.632  27.889  1.00  0.00     0.002 A 
ATOM     78  C   UNL A   1      50.113  27.292  25.589  1.00  0.00     0.091 A 
ATOM     79  F   UNL A   1      47.995  28.206  24.982  1.00  0.00    -0.205 F 
ATOM     80  C   UNL A   1      50.966  26.791  26.586  1.00  0.00     0.022 A 
BRANCH  78  81
ATOM     81  S   UNL A   1      50.773  27.384  23.921  1.00  0.00     0.127 S 
ATOM     82  O   UNL A   1      50.925  28.828  23.743  1.00  0.00    -0.237 OA
ATOM     83  O   UNL A   1      52.033  26.650  24.046  1.00  0.00    -0.237 OA
ATOM     84  O   UNL A   1      49.783  26.745  23.066  1.00  0.00    -0.744 OA
ENDBRANCH  78  81
ENDBRANCH  60  74
BRANCH  61  85
ATOM     85  C   UNL A   1      38.918  29.388  30.076  1.00  0.00     0.023 A 
ATOM     86  C   UNL A   1      38.513  29.013  31.372  1.00  0.00     0.012 A 
ATOM     87  C   UNL A   1      38.011  30.074  29.246  1.00  0.00     0.148 A 
ATOM     88  C   UNL A   1      37.225  29.295  31.826  1.00  0.00     0.002 A 
ATOM     89  C   UNL A   1      36.747  30.402  29.724  1.00  0.00     0.091 A 
ATOM     90  F   UNL A   1      38.413  30.416  28.014  1.00  0.00    -0.205 F 
ATOM     91  C   UNL A   1      36.346  29.999  31.007  1.00  0.00     0.022 A 
BRANCH  89  92
ATOM     92  S   UNL A   1      35.605  31.435  28.799  1.00  0.00     0.127 S 
ATOM     93  O   UNL A   1      34.999  30.470  27.886  1.00  0.00    -0.237 OA
ATOM     94  O   UNL A   1      34.719  31.927  29.856  1.00  0.00    -0.237 OA
ATOM     95  O   UNL A   1      36.422  32.469  28.177  1.00  0.00    -0.744 OA
ENDBRANCH  89  92
ENDBRANCH  61  85
BRANCH  73  96
ATOM     96  C   UNL A   1      44.646  33.325  29.389  1.00  0.00     0.023 A 
ATOM     97  C   UNL A   1      45.258  33.713  30.598  1.00  0.00     0.012 A 
ATOM     98  C   UNL A   1      44.353  34.302  28.417  1.00  0.00     0.148 A 
ATOM     99  C   UNL A   1      45.538  35.054  30.851  1.00  0.00     0.002 A 
ATOM    100  C   UNL A   1      44.684  35.630  28.655  1.00  0.00     0.091 A 
ATOM    101  F   UNL A   1      43.753  33.916  27.281  1.00  0.00    -0.205 F 
ATOM    102  C   UNL A   1      45.263  36.010  29.877  1.00  0.00     0.022 A 
BRANCH 100 103
ATOM    103  S   UNL A   1      44.457  36.912  27.416  1.00  0.00     0.127 S 
ATOM    104  O   UNL A   1      44.288  38.102  28.248  1.00  0.00    -0.237 OA
ATOM    105  O   UNL A   1      45.718  36.857  26.676  1.00  0.00    -0.237 OA
ATOM    106  O   UNL A   1      43.287  36.516  26.643  1.00  0.00    -0.744 OA
ENDBRANCH 100 103
ENDBRANCH  73  96
ENDBRANCH  47  48
ENDBRANCH  39  42
ENDBRANCH  37  38
ENDBRANCH  36  37
ENDBRANCH   1  36
TORSDOF 20
ENDMDL
