MODEL 1
REMARK VINA RESULT:     -11.5      0.000      0.000
REMARK SMILES COC[C@@H](C)CC(=O)Nc1cccc(/C=C/C(=O)NCCCCNC(=O)c2ccc(-c3c4nc(c(-c5cccc(S(=O)(=O)[O-])c5F)c5ccc([nH]5)c(-c5cccc(S(=O)(=O)[O-])c5F)c5nc(c(-c6cccc(S(=O)(=O)[O-])c6F)c6ccc3[nH]6)C=C5)C=C4)cc2)c1
REMARK SMILES IDX 20 1 19 2 17 3 18 4 16 6 15 7 14 8 10 9 11 10 90 11 12 12
REMARK SMILES IDX 13 13 9 14 7 15 8 16 6 18 4 19 5 20 3 21 2 22 1 23 21 24
REMARK SMILES IDX 22 25 23 26 24 27 25 28 26 30 27 31 28 32 89 33 29 34 88 35
REMARK SMILES IDX 30 36 31 37 32 38 82 39 33 40 87 41 81 42 83 43 34 44 86 45
REMARK SMILES IDX 80 46 79 47 35 49 67 50 47 51 66 52 48 53 51 54 65 55 84 56
REMARK SMILES IDX 49 57 50 58 64 60 85 61 52 62 36 63 37 64 45 65 38 66 40 67
REMARK SMILES IDX 46 68 39 69 41 70 42 71 43 72 44 73 68 74 69 75 77 76 70 77
REMARK SMILES IDX 72 78 78 79 71 80 73 81 74 82 75 83 76 84 53 85 54 86 62 87
REMARK SMILES IDX 55 88 57 89 63 90 56 91 58 92 59 93 60 94 61 95
REMARK H PARENT 19 5 9 17 24 29 83 48 51 59
REMARK Flexibility Score: inf
ROOT
ATOM      1  C   UNL A   1      33.061  28.961  23.039  1.00  0.00     0.116 C 
ENDROOT
BRANCH   1   2
ATOM      2  N   UNL A   1      31.726  28.844  22.477  1.00  0.00    -0.353 N 
ATOM      3  C   UNL A   1      30.771  27.905  22.734  1.00  0.00     0.243 C 
ATOM      4  O   UNL A   1      29.605  28.084  22.392  1.00  0.00    -0.270 OA
ATOM      5  H   UNL A   1      31.479  29.535  21.820  1.00  0.00     0.163 HD
BRANCH   3   6
ATOM      6  C   UNL A   1      31.112  26.691  23.510  1.00  0.00     0.072 C 
ATOM      7  C   UNL A   1      30.630  26.457  24.740  1.00  0.00     0.014 C 
BRANCH   7   8
ATOM      8  C   UNL A   1      30.967  25.246  25.498  1.00  0.00    -0.023 A 
ATOM      9  C   UNL A   1      32.689  23.752  26.352  1.00  0.00     0.041 A 
ATOM     10  C   UNL A   1      31.715  22.950  26.940  1.00  0.00     0.026 A 
ATOM     11  C   UNL A   1      32.309  24.850  25.578  1.00  0.00     0.034 A 
ATOM     12  C   UNL A   1      30.371  23.323  26.851  1.00  0.00     0.003 A 
ATOM     13  C   UNL A   1      30.000  24.473  26.145  1.00  0.00     0.008 A 
BRANCH   9  14
ATOM     14  N   UNL A   1      34.041  23.407  26.477  1.00  0.00    -0.326 N 
ATOM     15  C   UNL A   1      34.743  22.509  25.709  1.00  0.00     0.224 C 
ATOM     16  O   UNL A   1      35.717  21.926  26.185  1.00  0.00    -0.275 OA
ATOM     17  H   UNL A   1      34.544  23.859  27.192  1.00  0.00     0.169 HD
BRANCH  15  18
ATOM     18  C   UNL A   1      34.438  22.455  24.213  1.00  0.00     0.106 C 
BRANCH  18  19
ATOM     19  C   UNL A   1      33.510  21.320  23.745  1.00  0.00     0.021 C 
ATOM     20  C   UNL A   1      32.186  21.893  23.230  1.00  0.00     0.010 C 
BRANCH  19  21
ATOM     21  C   UNL A   1      33.303  20.297  24.876  1.00  0.00     0.163 C 
BRANCH  21  22
ATOM     22  O   UNL A   1      32.105  19.535  24.756  1.00  0.00    -0.384 OA
ATOM     23  C   UNL A   1      32.368  18.202  24.322  1.00  0.00     0.194 C 
ENDBRANCH  21  22
ENDBRANCH  19  21
ENDBRANCH  18  19
ENDBRANCH  15  18
ENDBRANCH   9  14
ENDBRANCH   7   8
ENDBRANCH   3   6
ENDBRANCH   1   2
BRANCH   1  24
ATOM     24  C   UNL A   1      33.072  29.120  24.555  1.00  0.00     0.023 C 
BRANCH  24  25
ATOM     25  C   UNL A   1      31.958  30.000  25.124  1.00  0.00     0.023 C 
BRANCH  25  26
ATOM     26  C   UNL A   1      32.081  30.357  26.607  1.00  0.00     0.116 C 
BRANCH  26  27
ATOM     27  N   UNL A   1      32.022  31.791  26.872  1.00  0.00    -0.352 N 
ATOM     28  C   UNL A   1      32.953  32.627  27.446  1.00  0.00     0.251 C 
ATOM     29  H   UNL A   1      31.185  32.229  26.598  1.00  0.00     0.163 HD
ATOM     30  O   UNL A   1      32.663  33.796  27.693  1.00  0.00    -0.269 OA
BRANCH  28  31
ATOM     31  C   UNL A   1      34.298  32.118  27.802  1.00  0.00     0.039 A 
ATOM     32  C   UNL A   1      35.356  33.023  27.918  1.00  0.00     0.014 A 
ATOM     33  C   UNL A   1      34.511  30.760  28.047  1.00  0.00     0.014 A 
ATOM     34  C   UNL A   1      36.594  32.586  28.404  1.00  0.00     0.010 A 
ATOM     35  C   UNL A   1      35.721  30.338  28.596  1.00  0.00     0.010 A 
ATOM     36  C   UNL A   1      36.763  31.252  28.811  1.00  0.00    -0.014 A 
BRANCH  36  37
ATOM     37  C   UNL A   1      37.972  30.818  29.563  1.00  0.00     0.031 A 
ATOM     38  C   UNL A   1      38.912  29.792  28.995  1.00  0.00     0.074 A 
ATOM     39  C   UNL A   1      38.147  31.258  30.827  1.00  0.00     0.049 A 
ATOM     40  N   UNL A   1      39.947  29.222  29.558  1.00  0.00    -0.248 NA
ATOM     41  C   UNL A   1      38.643  29.325  27.626  1.00  0.00     0.031 C 
ATOM     42  C   UNL A   1      37.259  32.190  31.529  1.00  0.00     0.029 A 
ATOM     43  N   UNL A   1      39.107  30.955  31.762  1.00  0.00    -0.354 N 
ATOM     44  C   UNL A   1      40.434  28.311  28.630  1.00  0.00     0.074 A 
ATOM     45  C   UNL A   1      39.566  28.385  27.473  1.00  0.00     0.031 C 
ATOM     46  C   UNL A   1      37.711  32.376  32.779  1.00  0.00     0.029 A 
ATOM     47  C   UNL A   1      38.899  31.553  32.983  1.00  0.00     0.049 A 
ATOM     48  H   UNL A   1      39.873  30.363  31.575  1.00  0.00     0.167 HD
ATOM     49  C   UNL A   1      41.520  27.507  28.720  1.00  0.00     0.034 A 
ATOM     50  C   UNL A   1      39.573  31.445  34.144  1.00  0.00     0.034 A 
ATOM     51  C   UNL A   1      42.408  27.463  29.852  1.00  0.00     0.049 A 
ATOM     52  C   UNL A   1      40.788  30.559  34.206  1.00  0.00     0.074 A 
ATOM     53  C   UNL A   1      43.589  26.754  29.993  1.00  0.00     0.029 A 
ATOM     54  N   UNL A   1      42.212  28.148  31.041  1.00  0.00    -0.354 N 
ATOM     55  N   UNL A   1      41.332  29.838  33.258  1.00  0.00    -0.248 NA
ATOM     56  C   UNL A   1      41.498  30.495  35.493  1.00  0.00     0.031 C 
ATOM     57  C   UNL A   1      44.097  26.996  31.272  1.00  0.00     0.029 A 
ATOM     58  C   UNL A   1      43.239  27.867  31.926  1.00  0.00     0.049 A 
ATOM     59  H   UNL A   1      41.453  28.746  31.230  1.00  0.00     0.167 HD
ATOM     60  C   UNL A   1      42.459  29.253  33.823  1.00  0.00     0.074 A 
ATOM     61  C   UNL A   1      42.538  29.729  35.188  1.00  0.00     0.031 C 
ATOM     62  C   UNL A   1      43.336  28.382  33.267  1.00  0.00     0.034 A 
BRANCH  49  63
ATOM     63  C   UNL A   1      41.857  26.647  27.530  1.00  0.00     0.023 A 
ATOM     64  C   UNL A   1      42.525  27.225  26.433  1.00  0.00     0.012 A 
ATOM     65  C   UNL A   1      41.594  25.263  27.529  1.00  0.00     0.148 A 
ATOM     66  C   UNL A   1      42.903  26.446  25.340  1.00  0.00     0.002 A 
ATOM     67  C   UNL A   1      42.007  24.485  26.453  1.00  0.00     0.091 A 
ATOM     68  F   UNL A   1      40.941  24.735  28.574  1.00  0.00    -0.205 F 
ATOM     69  C   UNL A   1      42.655  25.077  25.355  1.00  0.00     0.022 A 
BRANCH  67  70
ATOM     70  S   UNL A   1      41.798  22.702  26.405  1.00  0.00     0.127 S 
ATOM     71  O   UNL A   1      42.433  22.365  25.131  1.00  0.00    -0.237 OA
ATOM     72  O   UNL A   1      42.542  22.272  27.589  1.00  0.00    -0.237 OA
ATOM     73  O   UNL A   1      40.363  22.464  26.469  1.00  0.00    -0.744 OA
ENDBRANCH  67  70
ENDBRANCH  49  63
BRANCH  50  74
ATOM     74  C   UNL A   1      39.146  32.236  35.333  1.00  0.00     0.023 A 
ATOM     75  C   UNL A   1      38.232  31.670  36.242  1.00  0.00     0.012 A 
ATOM     76  C   UNL A   1      39.653  33.525  35.582  1.00  0.00     0.148 A 
ATOM     77  C   UNL A   1      37.807  32.385  37.362  1.00  0.00     0.002 A 
ATOM     78  C   UNL A   1      39.267  34.211  36.728  1.00  0.00     0.091 A 
ATOM     79  F   UNL A   1      40.508  34.057  34.696  1.00  0.00    -0.205 F 
ATOM     80  C   UNL A   1      38.331  33.650  37.611  1.00  0.00     0.022 A 
BRANCH  78  81
ATOM     81  S   UNL A   1      40.001  35.784  37.192  1.00  0.00     0.127 S 
ATOM     82  O   UNL A   1      39.663  36.622  36.045  1.00  0.00    -0.237 OA
ATOM     83  O   UNL A   1      39.283  36.108  38.424  1.00  0.00    -0.237 OA
ATOM     84  O   UNL A   1      41.419  35.505  37.385  1.00  0.00    -0.744 OA
ENDBRANCH  78  81
ENDBRANCH  50  74
BRANCH  62  85
ATOM     85  C   UNL A   1      44.467  27.888  34.130  1.00  0.00     0.023 A 
ATOM     86  C   UNL A   1      45.658  28.636  34.204  1.00  0.00     0.012 A 
ATOM     87  C   UNL A   1      44.329  26.727  34.916  1.00  0.00     0.148 A 
ATOM     88  C   UNL A   1      46.706  28.223  35.026  1.00  0.00     0.002 A 
ATOM     89  C   UNL A   1      45.361  26.346  35.767  1.00  0.00     0.091 A 
ATOM     90  F   UNL A   1      43.196  26.018  34.817  1.00  0.00    -0.205 F 
ATOM     91  C   UNL A   1      46.553  27.086  35.816  1.00  0.00     0.022 A 
BRANCH  89  92
ATOM     92  S   UNL A   1      45.221  24.945  36.885  1.00  0.00     0.127 S 
ATOM     93  O   UNL A   1      44.267  25.448  37.873  1.00  0.00    -0.237 OA
ATOM     94  O   UNL A   1      44.696  23.898  36.008  1.00  0.00    -0.237 OA
ATOM     95  O   UNL A   1      46.566  24.695  37.384  1.00  0.00    -0.744 OA
ENDBRANCH  89  92
ENDBRANCH  62  85
ENDBRANCH  36  37
ENDBRANCH  28  31
ENDBRANCH  26  27
ENDBRANCH  25  26
ENDBRANCH  24  25
ENDBRANCH   1  24
TORSDOF 20
ENDMDL
MODEL 2
REMARK VINA RESULT:     -11.4      1.813      2.572
REMARK SMILES COC[C@@H](C)CC(=O)Nc1cccc(/C=C/C(=O)NCCCCNC(=O)c2ccc(-c3c4nc(c(-c5cccc(S(=O)(=O)[O-])c5F)c5ccc([nH]5)c(-c5cccc(S(=O)(=O)[O-])c5F)c5nc(c(-c6cccc(S(=O)(=O)[O-])c6F)c6ccc3[nH]6)C=C5)C=C4)cc2)c1
REMARK SMILES IDX 20 1 19 2 17 3 18 4 16 6 15 7 14 8 10 9 11 10 90 11 12 12
REMARK SMILES IDX 13 13 9 14 7 15 8 16 6 18 4 19 5 20 3 21 2 22 1 23 21 24
REMARK SMILES IDX 22 25 23 26 24 27 25 28 26 30 27 31 28 32 89 33 29 34 88 35
REMARK SMILES IDX 30 36 31 37 32 38 82 39 33 40 87 41 81 42 83 43 34 44 86 45
REMARK SMILES IDX 80 46 79 47 35 49 67 50 47 51 66 52 48 53 51 54 65 55 84 56
REMARK SMILES IDX 49 57 50 58 64 60 85 61 52 62 36 63 37 64 45 65 38 66 40 67
REMARK SMILES IDX 46 68 39 69 41 70 42 71 43 72 44 73 68 74 69 75 77 76 70 77
REMARK SMILES IDX 72 78 78 79 71 80 73 81 74 82 75 83 76 84 53 85 54 86 62 87
REMARK SMILES IDX 55 88 57 89 63 90 56 91 58 92 59 93 60 94 61 95
REMARK H PARENT 19 5 9 17 24 29 83 48 51 59
REMARK Flexibility Score: inf
ROOT
ATOM      1  C   UNL A   1      29.021  31.579  24.243  1.00  0.00     0.116 C 
ENDROOT
BRANCH   1   2
ATOM      2  N   UNL A   1      29.260  31.245  22.850  1.00  0.00    -0.353 N 
ATOM      3  C   UNL A   1      29.362  30.013  22.273  1.00  0.00     0.243 C 
ATOM      4  O   UNL A   1      29.296  29.882  21.054  1.00  0.00    -0.270 OA
ATOM      5  H   UNL A   1      29.362  32.011  22.240  1.00  0.00     0.163 HD
BRANCH   3   6
ATOM      6  C   UNL A   1      29.468  28.803  23.119  1.00  0.00     0.072 C 
ATOM      7  C   UNL A   1      30.335  27.812  22.863  1.00  0.00     0.014 C 
BRANCH   7   8
ATOM      8  C   UNL A   1      30.438  26.619  23.714  1.00  0.00    -0.023 A 
ATOM      9  C   UNL A   1      30.745  24.210  23.871  1.00  0.00     0.041 A 
ATOM     10  C   UNL A   1      30.658  24.280  25.259  1.00  0.00     0.026 A 
ATOM     11  C   UNL A   1      30.564  25.363  23.106  1.00  0.00     0.034 A 
ATOM     12  C   UNL A   1      30.512  25.524  25.876  1.00  0.00     0.003 A 
ATOM     13  C   UNL A   1      30.416  26.690  25.109  1.00  0.00     0.008 A 
BRANCH   9  14
ATOM     14  N   UNL A   1      30.936  22.970  23.248  1.00  0.00    -0.326 N 
ATOM     15  C   UNL A   1      32.133  22.400  22.881  1.00  0.00     0.224 C 
ATOM     16  O   UNL A   1      32.171  21.607  21.941  1.00  0.00    -0.275 OA
ATOM     17  H   UNL A   1      30.125  22.448  23.052  1.00  0.00     0.169 HD
BRANCH  15  18
ATOM     18  C   UNL A   1      33.328  22.583  23.816  1.00  0.00     0.106 C 
BRANCH  18  19
ATOM     19  C   UNL A   1      34.515  23.387  23.257  1.00  0.00     0.021 C 
ATOM     20  C   UNL A   1      35.794  23.055  24.033  1.00  0.00     0.010 C 
BRANCH  19  21
ATOM     21  C   UNL A   1      34.197  24.892  23.272  1.00  0.00     0.163 C 
BRANCH  21  22
ATOM     22  O   UNL A   1      33.799  25.412  22.006  1.00  0.00    -0.384 OA
ATOM     23  C   UNL A   1      33.740  26.838  22.016  1.00  0.00     0.194 C 
ENDBRANCH  21  22
ENDBRANCH  19  21
ENDBRANCH  18  19
ENDBRANCH  15  18
ENDBRANCH   9  14
ENDBRANCH   7   8
ENDBRANCH   3   6
ENDBRANCH   1   2
BRANCH   1  24
ATOM     24  C   UNL A   1      30.288  31.952  25.007  1.00  0.00     0.023 C 
BRANCH  24  25
ATOM     25  C   UNL A   1      31.103  30.767  25.527  1.00  0.00     0.023 C 
BRANCH  25  26
ATOM     26  C   UNL A   1      32.061  31.072  26.681  1.00  0.00     0.116 C 
BRANCH  26  27
ATOM     27  N   UNL A   1      32.085  32.479  27.067  1.00  0.00    -0.352 N 
ATOM     28  C   UNL A   1      33.051  33.202  27.732  1.00  0.00     0.251 C 
ATOM     29  H   UNL A   1      31.286  32.992  26.812  1.00  0.00     0.163 HD
ATOM     30  O   UNL A   1      32.828  34.362  28.072  1.00  0.00    -0.269 OA
BRANCH  28  31
ATOM     31  C   UNL A   1      34.350  32.577  28.074  1.00  0.00     0.039 A 
ATOM     32  C   UNL A   1      35.504  33.365  28.058  1.00  0.00     0.014 A 
ATOM     33  C   UNL A   1      34.428  31.231  28.435  1.00  0.00     0.014 A 
ATOM     34  C   UNL A   1      36.712  32.835  28.527  1.00  0.00     0.010 A 
ATOM     35  C   UNL A   1      35.613  30.725  28.966  1.00  0.00     0.010 A 
ATOM     36  C   UNL A   1      36.758  31.531  29.049  1.00  0.00    -0.014 A 
BRANCH  36  37
ATOM     37  C   UNL A   1      37.951  31.031  29.784  1.00  0.00     0.031 A 
ATOM     38  C   UNL A   1      38.855  29.992  29.180  1.00  0.00     0.074 A 
ATOM     39  C   UNL A   1      38.143  31.424  31.061  1.00  0.00     0.049 A 
ATOM     40  N   UNL A   1      39.870  29.369  29.722  1.00  0.00    -0.248 NA
ATOM     41  C   UNL A   1      38.568  29.580  27.797  1.00  0.00     0.031 C 
ATOM     42  C   UNL A   1      37.289  32.362  31.795  1.00  0.00     0.029 A 
ATOM     43  N   UNL A   1      39.094  31.057  31.983  1.00  0.00    -0.354 N 
ATOM     44  C   UNL A   1      40.325  28.473  28.764  1.00  0.00     0.074 A 
ATOM     45  C   UNL A   1      39.459  28.613  27.613  1.00  0.00     0.031 C 
ATOM     46  C   UNL A   1      37.749  32.492  33.049  1.00  0.00     0.029 A 
ATOM     47  C   UNL A   1      38.908  31.623  33.223  1.00  0.00     0.049 A 
ATOM     48  H   UNL A   1      39.838  30.446  31.775  1.00  0.00     0.167 HD
ATOM     49  C   UNL A   1      41.382  27.628  28.826  1.00  0.00     0.034 A 
ATOM     50  C   UNL A   1      39.579  31.453  34.379  1.00  0.00     0.034 A 
ATOM     51  C   UNL A   1      42.269  27.517  29.954  1.00  0.00     0.049 A 
ATOM     52  C   UNL A   1      40.763  30.524  34.410  1.00  0.00     0.074 A 
ATOM     53  C   UNL A   1      43.425  26.764  30.069  1.00  0.00     0.029 A 
ATOM     54  N   UNL A   1      42.098  28.170  31.165  1.00  0.00    -0.354 N 
ATOM     55  N   UNL A   1      41.280  29.817  33.437  1.00  0.00    -0.248 NA
ATOM     56  C   UNL A   1      41.472  30.394  35.691  1.00  0.00     0.031 C 
ATOM     57  C   UNL A   1      43.942  26.946  31.354  1.00  0.00     0.029 A 
ATOM     58  C   UNL A   1      43.116  27.824  32.037  1.00  0.00     0.049 A 
ATOM     59  H   UNL A   1      41.361  28.787  31.374  1.00  0.00     0.167 HD
ATOM     60  C   UNL A   1      42.387  29.175  33.980  1.00  0.00     0.074 A 
ATOM     61  C   UNL A   1      42.484  29.604  35.360  1.00  0.00     0.031 C 
ATOM     62  C   UNL A   1      43.233  28.292  33.395  1.00  0.00     0.034 A 
BRANCH  49  63
ATOM     63  C   UNL A   1      41.688  26.796  27.608  1.00  0.00     0.023 A 
ATOM     64  C   UNL A   1      42.290  27.409  26.491  1.00  0.00     0.012 A 
ATOM     65  C   UNL A   1      41.461  25.406  27.596  1.00  0.00     0.148 A 
ATOM     66  C   UNL A   1      42.639  26.658  25.370  1.00  0.00     0.002 A 
ATOM     67  C   UNL A   1      41.846  24.656  26.489  1.00  0.00     0.091 A 
ATOM     68  F   UNL A   1      40.871  24.844  28.660  1.00  0.00    -0.205 F 
ATOM     69  C   UNL A   1      42.427  25.282  25.373  1.00  0.00     0.022 A 
BRANCH  67  70
ATOM     70  S   UNL A   1      41.683  22.869  26.421  1.00  0.00     0.127 S 
ATOM     71  O   UNL A   1      40.231  22.707  26.366  1.00  0.00    -0.237 OA
ATOM     72  O   UNL A   1      42.381  22.542  25.177  1.00  0.00    -0.237 OA
ATOM     73  O   UNL A   1      42.322  22.361  27.627  1.00  0.00    -0.744 OA
ENDBRANCH  67  70
ENDBRANCH  49  63
BRANCH  50  74
ATOM     74  C   UNL A   1      39.181  32.220  35.593  1.00  0.00     0.023 A 
ATOM     75  C   UNL A   1      39.558  33.572  35.706  1.00  0.00     0.012 A 
ATOM     76  C   UNL A   1      38.417  31.632  36.619  1.00  0.00     0.148 A 
ATOM     77  C   UNL A   1      39.207  34.316  36.832  1.00  0.00     0.002 A 
ATOM     78  C   UNL A   1      38.024  32.395  37.714  1.00  0.00     0.091 A 
ATOM     79  F   UNL A   1      38.083  30.338  36.505  1.00  0.00    -0.205 F 
ATOM     80  C   UNL A   1      38.432  33.732  37.831  1.00  0.00     0.022 A 
BRANCH  78  81
ATOM     81  S   UNL A   1      36.911  31.757  38.972  1.00  0.00     0.127 S 
ATOM     82  O   UNL A   1      36.866  30.336  38.638  1.00  0.00    -0.237 OA
ATOM     83  O   UNL A   1      37.627  32.077  40.207  1.00  0.00    -0.237 OA
ATOM     84  O   UNL A   1      35.668  32.496  38.796  1.00  0.00    -0.744 OA
ENDBRANCH  78  81
ENDBRANCH  50  74
BRANCH  62  85
ATOM     85  C   UNL A   1      44.347  27.731  34.238  1.00  0.00     0.023 A 
ATOM     86  C   UNL A   1      45.573  28.421  34.312  1.00  0.00     0.012 A 
ATOM     87  C   UNL A   1      44.161  26.567  35.009  1.00  0.00     0.148 A 
ATOM     88  C   UNL A   1      46.608  27.946  35.116  1.00  0.00     0.002 A 
ATOM     89  C   UNL A   1      45.181  26.124  35.843  1.00  0.00     0.091 A 
ATOM     90  F   UNL A   1      42.994  25.914  34.911  1.00  0.00    -0.205 F 
ATOM     91  C   UNL A   1      46.408  26.805  35.891  1.00  0.00     0.022 A 
BRANCH  89  92
ATOM     92  S   UNL A   1      44.985  24.715  36.942  1.00  0.00     0.127 S 
ATOM     93  O   UNL A   1      46.255  24.723  37.667  1.00  0.00    -0.237 OA
ATOM     94  O   UNL A   1      43.823  25.104  37.742  1.00  0.00    -0.237 OA
ATOM     95  O   UNL A   1      44.764  23.562  36.079  1.00  0.00    -0.744 OA
ENDBRANCH  89  92
ENDBRANCH  62  85
ENDBRANCH  36  37
ENDBRANCH  28  31
ENDBRANCH  26  27
ENDBRANCH  25  26
ENDBRANCH  24  25
ENDBRANCH   1  24
TORSDOF 20
ENDMDL
MODEL 3
REMARK VINA RESULT:     -11.2      1.953      2.605
REMARK SMILES COC[C@@H](C)CC(=O)Nc1cccc(/C=C/C(=O)NCCCCNC(=O)c2ccc(-c3c4nc(c(-c5cccc(S(=O)(=O)[O-])c5F)c5ccc([nH]5)c(-c5cccc(S(=O)(=O)[O-])c5F)c5nc(c(-c6cccc(S(=O)(=O)[O-])c6F)c6ccc3[nH]6)C=C5)C=C4)cc2)c1
REMARK SMILES IDX 20 1 19 2 17 3 18 4 16 6 15 7 14 8 10 9 11 10 90 11 12 12
REMARK SMILES IDX 13 13 9 14 7 15 8 16 6 18 4 19 5 20 3 21 2 22 1 23 21 24
REMARK SMILES IDX 22 25 23 26 24 27 25 28 26 30 27 31 28 32 89 33 29 34 88 35
REMARK SMILES IDX 30 36 31 37 32 38 82 39 33 40 87 41 81 42 83 43 34 44 86 45
REMARK SMILES IDX 80 46 79 47 35 49 67 50 47 51 66 52 48 53 51 54 65 55 84 56
REMARK SMILES IDX 49 57 50 58 64 60 85 61 52 62 36 63 37 64 45 65 38 66 40 67
REMARK SMILES IDX 46 68 39 69 41 70 42 71 43 72 44 73 68 74 69 75 77 76 70 77
REMARK SMILES IDX 72 78 78 79 71 80 73 81 74 82 75 83 76 84 53 85 54 86 62 87
REMARK SMILES IDX 55 88 57 89 63 90 56 91 58 92 59 93 60 94 61 95
REMARK H PARENT 19 5 9 17 24 29 83 48 51 59
REMARK Flexibility Score: inf
ROOT
ATOM      1  C   UNL A   1      31.639  27.458  22.711  1.00  0.00     0.116 C 
ENDROOT
BRANCH   1   2
ATOM      2  N   UNL A   1      32.104  26.855  21.474  1.00  0.00    -0.353 N 
ATOM      3  C   UNL A   1      32.810  25.702  21.300  1.00  0.00     0.243 C 
ATOM      4  O   UNL A   1      32.898  25.179  20.192  1.00  0.00    -0.270 OA
ATOM      5  H   UNL A   1      31.879  27.346  20.651  1.00  0.00     0.163 HD
BRANCH   3   6
ATOM      6  C   UNL A   1      33.408  25.013  22.466  1.00  0.00     0.072 C 
ATOM      7  C   UNL A   1      32.737  24.113  23.200  1.00  0.00     0.014 C 
BRANCH   7   8
ATOM      8  C   UNL A   1      33.343  23.429  24.350  1.00  0.00    -0.023 A 
ATOM      9  C   UNL A   1      33.430  21.457  25.774  1.00  0.00     0.041 A 
ATOM     10  C   UNL A   1      34.449  22.034  26.527  1.00  0.00     0.026 A 
ATOM     11  C   UNL A   1      32.836  22.182  24.740  1.00  0.00     0.034 A 
ATOM     12  C   UNL A   1      34.949  23.285  26.161  1.00  0.00     0.003 A 
ATOM     13  C   UNL A   1      34.409  23.974  25.069  1.00  0.00     0.008 A 
BRANCH   9  14
ATOM     14  N   UNL A   1      32.954  20.182  26.109  1.00  0.00    -0.326 N 
ATOM     15  C   UNL A   1      33.005  19.047  25.336  1.00  0.00     0.224 C 
ATOM     16  O   UNL A   1      32.161  18.165  25.487  1.00  0.00    -0.275 OA
ATOM     17  H   UNL A   1      32.538  20.089  26.996  1.00  0.00     0.169 HD
BRANCH  15  18
ATOM     18  C   UNL A   1      34.258  18.813  24.492  1.00  0.00     0.106 C 
BRANCH  18  19
ATOM     19  C   UNL A   1      34.632  17.346  24.218  1.00  0.00     0.021 C 
ATOM     20  C   UNL A   1      34.031  16.883  22.886  1.00  0.00     0.010 C 
BRANCH  19  21
ATOM     21  C   UNL A   1      34.200  16.454  25.395  1.00  0.00     0.163 C 
BRANCH  21  22
ATOM     22  O   UNL A   1      33.866  15.120  25.019  1.00  0.00    -0.384 OA
ATOM     23  C   UNL A   1      32.615  14.712  25.571  1.00  0.00     0.194 C 
ENDBRANCH  21  22
ENDBRANCH  19  21
ENDBRANCH  18  19
ENDBRANCH  15  18
ENDBRANCH   9  14
ENDBRANCH   7   8
ENDBRANCH   3   6
ENDBRANCH   1   2
BRANCH   1  24
ATOM     24  C   UNL A   1      32.534  28.585  23.215  1.00  0.00     0.023 C 
BRANCH  24  25
ATOM     25  C   UNL A   1      33.805  28.131  23.935  1.00  0.00     0.023 C 
BRANCH  25  26
ATOM     26  C   UNL A   1      34.045  28.747  25.315  1.00  0.00     0.116 C 
BRANCH  26  27
ATOM     27  N   UNL A   1      33.184  29.887  25.608  1.00  0.00    -0.352 N 
ATOM     28  C   UNL A   1      33.241  30.805  26.632  1.00  0.00     0.251 C 
ATOM     29  H   UNL A   1      32.445  30.021  24.972  1.00  0.00     0.163 HD
ATOM     30  O   UNL A   1      32.341  31.630  26.772  1.00  0.00    -0.269 OA
BRANCH  28  31
ATOM     31  C   UNL A   1      34.368  30.784  27.593  1.00  0.00     0.039 A 
ATOM     32  C   UNL A   1      34.552  29.655  28.397  1.00  0.00     0.014 A 
ATOM     33  C   UNL A   1      35.256  31.858  27.684  1.00  0.00     0.014 A 
ATOM     34  C   UNL A   1      35.696  29.551  29.195  1.00  0.00     0.010 A 
ATOM     35  C   UNL A   1      36.429  31.724  28.425  1.00  0.00     0.010 A 
ATOM     36  C   UNL A   1      36.677  30.556  29.162  1.00  0.00    -0.014 A 
BRANCH  36  37
ATOM     37  C   UNL A   1      38.010  30.361  29.794  1.00  0.00     0.031 A 
ATOM     38  C   UNL A   1      39.044  29.468  29.166  1.00  0.00     0.074 A 
ATOM     39  C   UNL A   1      38.237  30.893  31.014  1.00  0.00     0.049 A 
ATOM     40  N   UNL A   1      40.210  29.103  29.635  1.00  0.00    -0.248 NA
ATOM     41  C   UNL A   1      38.717  28.891  27.853  1.00  0.00     0.031 C 
ATOM     42  C   UNL A   1      37.285  31.709  31.773  1.00  0.00     0.029 A 
ATOM     43  N   UNL A   1      39.324  30.798  31.849  1.00  0.00    -0.354 N 
ATOM     44  C   UNL A   1      40.743  28.231  28.694  1.00  0.00     0.074 A 
ATOM     45  C   UNL A   1      39.763  28.102  27.637  1.00  0.00     0.031 C 
ATOM     46  C   UNL A   1      37.825  32.033  32.958  1.00  0.00     0.029 A 
ATOM     47  C   UNL A   1      39.145  31.422  33.062  1.00  0.00     0.049 A 
ATOM     48  H   UNL A   1      40.154  30.326  31.603  1.00  0.00     0.167 HD
ATOM     49  C   UNL A   1      41.950  27.616  28.696  1.00  0.00     0.034 A 
ATOM     50  C   UNL A   1      39.942  31.486  34.147  1.00  0.00     0.034 A 
ATOM     51  C   UNL A   1      42.943  27.776  29.726  1.00  0.00     0.049 A 
ATOM     52  C   UNL A   1      41.286  30.809  34.110  1.00  0.00     0.074 A 
ATOM     53  C   UNL A   1      44.232  27.273  29.764  1.00  0.00     0.029 A 
ATOM     54  N   UNL A   1      42.758  28.485  30.902  1.00  0.00    -0.354 N 
ATOM     55  N   UNL A   1      41.842  30.133  33.136  1.00  0.00    -0.248 NA
ATOM     56  C   UNL A   1      42.124  30.930  35.313  1.00  0.00     0.031 C 
ATOM     57  C   UNL A   1      44.820  27.662  30.971  1.00  0.00     0.029 A 
ATOM     58  C   UNL A   1      43.901  28.420  31.680  1.00  0.00     0.049 A 
ATOM     59  H   UNL A   1      41.934  28.965  31.149  1.00  0.00     0.167 HD
ATOM     60  C   UNL A   1      43.101  29.767  33.596  1.00  0.00     0.074 A 
ATOM     61  C   UNL A   1      43.238  30.324  34.926  1.00  0.00     0.031 C 
ATOM     62  C   UNL A   1      44.048  29.017  32.982  1.00  0.00     0.034 A 
BRANCH  49  63
ATOM     63  C   UNL A   1      42.301  26.757  27.510  1.00  0.00     0.023 A 
ATOM     64  C   UNL A   1      42.977  27.337  26.418  1.00  0.00     0.012 A 
ATOM     65  C   UNL A   1      42.043  25.372  27.508  1.00  0.00     0.148 A 
ATOM     66  C   UNL A   1      43.368  26.559  25.330  1.00  0.00     0.002 A 
ATOM     67  C   UNL A   1      42.469  24.595  26.435  1.00  0.00     0.091 A 
ATOM     68  F   UNL A   1      41.383  24.841  28.547  1.00  0.00    -0.205 F 
ATOM     69  C   UNL A   1      43.125  25.189  25.343  1.00  0.00     0.022 A 
BRANCH  67  70
ATOM     70  S   UNL A   1      42.268  22.811  26.386  1.00  0.00     0.127 S 
ATOM     71  O   UNL A   1      42.715  22.500  25.029  1.00  0.00    -0.237 OA
ATOM     72  O   UNL A   1      43.177  22.368  27.444  1.00  0.00    -0.237 OA
ATOM     73  O   UNL A   1      40.858  22.558  26.652  1.00  0.00    -0.744 OA
ENDBRANCH  67  70
ENDBRANCH  49  63
BRANCH  50  74
ATOM     74  C   UNL A   1      39.514  32.263  35.344  1.00  0.00     0.023 A 
ATOM     75  C   UNL A   1      39.820  33.636  35.418  1.00  0.00     0.012 A 
ATOM     76  C   UNL A   1      38.789  31.664  36.392  1.00  0.00     0.148 A 
ATOM     77  C   UNL A   1      39.439  34.391  36.527  1.00  0.00     0.002 A 
ATOM     78  C   UNL A   1      38.365  32.435  37.469  1.00  0.00     0.091 A 
ATOM     79  F   UNL A   1      38.523  30.352  36.315  1.00  0.00    -0.205 F 
ATOM     80  C   UNL A   1      38.703  33.794  37.547  1.00  0.00     0.022 A 
BRANCH  78  81
ATOM     81  S   UNL A   1      37.297  31.773  38.754  1.00  0.00     0.127 S 
ATOM     82  O   UNL A   1      38.119  31.949  39.947  1.00  0.00    -0.237 OA
ATOM     83  O   UNL A   1      36.133  32.656  38.671  1.00  0.00    -0.237 OA
ATOM     84  O   UNL A   1      37.027  30.397  38.359  1.00  0.00    -0.744 OA
ENDBRANCH  78  81
ENDBRANCH  50  74
BRANCH  62  85
ATOM     85  C   UNL A   1      45.326  28.757  33.735  1.00  0.00     0.023 A 
ATOM     86  C   UNL A   1      46.399  29.662  33.610  1.00  0.00     0.012 A 
ATOM     87  C   UNL A   1      45.444  27.662  34.614  1.00  0.00     0.148 A 
ATOM     88  C   UNL A   1      47.579  29.468  34.327  1.00  0.00     0.002 A 
ATOM     89  C   UNL A   1      46.607  27.500  35.359  1.00  0.00     0.091 A 
ATOM     90  F   UNL A   1      44.419  26.802  34.705  1.00  0.00    -0.205 F 
ATOM     91  C   UNL A   1      47.678  28.394  35.209  1.00  0.00     0.022 A 
BRANCH  89  92
ATOM     92  S   UNL A   1      46.792  26.198  36.584  1.00  0.00     0.127 S 
ATOM     93  O   UNL A   1      48.062  26.559  37.213  1.00  0.00    -0.237 OA
ATOM     94  O   UNL A   1      45.615  26.396  37.430  1.00  0.00    -0.237 OA
ATOM     95  O   UNL A   1      46.796  24.946  35.840  1.00  0.00    -0.744 OA
ENDBRANCH  89  92
ENDBRANCH  62  85
ENDBRANCH  36  37
ENDBRANCH  28  31
ENDBRANCH  26  27
ENDBRANCH  25  26
ENDBRANCH  24  25
ENDBRANCH   1  24
TORSDOF 20
ENDMDL
