MODEL 1
REMARK VINA RESULT:     -12.6      0.000      0.000
REMARK SMILES CC1=Nc2ncnn2[C@H](c2ccc(F)cc2)[C@@H]1C(=O)NCCCCNC(=O)c1ccc(-c2c3nc(c(-c4cccc(S(=O)(=O)[O-])c4F)c4ccc([nH]4)c(-c4cccc(S(=O)(=O)[O-])c4F)c4nc(c(-c5cccc(S(=O)(=O)[O-])c5F)c5ccc2[nH]5)C=C4)C=C3)cc1
REMARK SMILES IDX 23 1 22 2 21 3 20 4 18 5 19 6 17 8 1 9 2 10 3 11 4 12 9 13
REMARK SMILES IDX 5 14 8 15 6 16 7 17 10 18 11 19 16 20 12 21 15 22 13 23
REMARK SMILES IDX 14 24 24 25 25 26 26 27 27 29 28 30 29 31 90 32 30 33 89 34
REMARK SMILES IDX 31 35 32 36 33 37 83 38 34 39 88 40 82 41 84 42 35 43 87 44
REMARK SMILES IDX 81 45 80 46 36 48 68 49 48 50 67 51 49 52 52 53 66 54 85 55
REMARK SMILES IDX 50 56 51 57 65 59 86 60 53 61 37 62 38 63 46 64 39 65 41 66
REMARK SMILES IDX 47 67 40 68 42 69 43 70 44 71 45 72 69 73 70 74 78 75 71 76
REMARK SMILES IDX 73 77 79 78 72 79 74 80 75 81 76 82 77 83 54 84 55 85 63 86
REMARK SMILES IDX 56 87 58 88 64 89 57 90 59 91 60 92 61 93 62 94
REMARK H PARENT 20 7 25 28 84 47 52 58
REMARK Flexibility Score: inf
ROOT
ATOM      1  C   UNL A   1      38.167  19.644  24.824  1.00  0.00     0.023 C 
ENDROOT
BRANCH   1   2
ATOM      2  C   UNL A   1      36.861  20.452  24.921  1.00  0.00     0.023 C 
BRANCH   2   3
ATOM      3  C   UNL A   1      37.031  21.971  25.080  1.00  0.00     0.116 C 
BRANCH   3   4
ATOM      4  N   UNL A   1      36.115  22.684  24.208  1.00  0.00    -0.355 N 
ATOM      5  C   UNL A   1      34.761  22.581  24.137  1.00  0.00     0.231 C 
ATOM      6  O   UNL A   1      34.237  22.596  23.021  1.00  0.00    -0.274 OA
ATOM      7  H   UNL A   1      36.529  23.325  23.585  1.00  0.00     0.163 HD
BRANCH   5   8
ATOM      8  C   UNL A   1      33.925  22.403  25.382  1.00  0.00     0.152 C 
ATOM      9  C   UNL A   1      33.716  19.880  24.704  1.00  0.00     0.063 C 
ATOM     10  C   UNL A   1      33.050  21.163  25.168  1.00  0.00     0.034 C 
ATOM     11  N   UNL A   1      31.788  21.068  25.429  1.00  0.00    -0.220 NA
ATOM     12  C   UNL A   1      31.151  22.138  25.932  1.00  0.00     0.248 A 
ATOM     13  C   UNL A   1      33.158  23.688  25.867  1.00  0.00     0.159 C 
ATOM     14  N   UNL A   1      29.914  22.189  26.380  1.00  0.00    -0.198 NA
ATOM     15  N   UNL A   1      31.741  23.363  26.135  1.00  0.00    -0.221 N 
ATOM     16  C   UNL A   1      29.822  23.423  26.936  1.00  0.00     0.248 A 
ATOM     17  N   UNL A   1      30.937  24.146  26.894  1.00  0.00    -0.157 NA
BRANCH  13  18
ATOM     18  C   UNL A   1      33.303  25.113  25.259  1.00  0.00    -0.022 A 
ATOM     19  C   UNL A   1      33.917  26.125  26.044  1.00  0.00     0.009 A 
ATOM     20  C   UNL A   1      32.899  25.521  23.978  1.00  0.00     0.009 A 
ATOM     21  C   UNL A   1      34.018  27.458  25.619  1.00  0.00     0.039 A 
ATOM     22  C   UNL A   1      33.032  26.846  23.531  1.00  0.00     0.039 A 
ATOM     23  C   UNL A   1      33.558  27.810  24.367  1.00  0.00     0.123 A 
ATOM     24  F   UNL A   1      33.585  29.086  23.971  1.00  0.00    -0.207 F 
ENDBRANCH  13  18
ENDBRANCH   5   8
ENDBRANCH   3   4
ENDBRANCH   2   3
ENDBRANCH   1   2
BRANCH   1  25
ATOM     25  C   UNL A   1      39.197  20.001  25.887  1.00  0.00     0.116 C 
BRANCH  25  26
ATOM     26  N   UNL A   1      40.385  19.159  25.788  1.00  0.00    -0.352 N 
ATOM     27  C   UNL A   1      41.709  19.534  25.877  1.00  0.00     0.251 C 
ATOM     28  H   UNL A   1      40.219  18.200  25.639  1.00  0.00     0.163 HD
ATOM     29  O   UNL A   1      42.585  18.820  25.413  1.00  0.00    -0.269 OA
BRANCH  27  30
ATOM     30  C   UNL A   1      42.050  20.806  26.540  1.00  0.00     0.039 A 
ATOM     31  C   UNL A   1      42.423  21.918  25.782  1.00  0.00     0.014 A 
ATOM     32  C   UNL A   1      41.989  20.877  27.933  1.00  0.00     0.014 A 
ATOM     33  C   UNL A   1      42.660  23.126  26.430  1.00  0.00     0.010 A 
ATOM     34  C   UNL A   1      42.116  22.093  28.562  1.00  0.00     0.010 A 
ATOM     35  C   UNL A   1      42.483  23.212  27.820  1.00  0.00    -0.014 A 
BRANCH  35  36
ATOM     36  C   UNL A   1      42.524  24.512  28.481  1.00  0.00     0.031 A 
ATOM     37  C   UNL A   1      41.322  25.357  28.231  1.00  0.00     0.074 A 
ATOM     38  C   UNL A   1      43.444  24.840  29.413  1.00  0.00     0.049 A 
ATOM     39  N   UNL A   1      41.261  26.464  27.568  1.00  0.00    -0.248 NA
ATOM     40  C   UNL A   1      40.008  24.829  28.627  1.00  0.00     0.031 C 
ATOM     41  C   UNL A   1      44.478  23.974  29.993  1.00  0.00     0.029 A 
ATOM     42  N   UNL A   1      43.560  25.980  30.149  1.00  0.00    -0.354 N 
ATOM     43  C   UNL A   1      39.939  26.895  27.676  1.00  0.00     0.074 A 
ATOM     44  C   UNL A   1      39.187  25.760  28.136  1.00  0.00     0.031 C 
ATOM     45  C   UNL A   1      44.931  24.522  31.142  1.00  0.00     0.029 A 
ATOM     46  C   UNL A   1      44.352  25.843  31.287  1.00  0.00     0.049 A 
ATOM     47  H   UNL A   1      43.123  26.826  29.898  1.00  0.00     0.167 HD
ATOM     48  C   UNL A   1      39.624  28.219  27.633  1.00  0.00     0.034 A 
ATOM     49  C   UNL A   1      44.479  26.737  32.299  1.00  0.00     0.034 A 
ATOM     50  C   UNL A   1      40.734  28.994  27.134  1.00  0.00     0.049 A 
ATOM     51  C   UNL A   1      44.051  28.048  31.769  1.00  0.00     0.074 A 
ATOM     52  C   UNL A   1      41.460  29.033  25.963  1.00  0.00     0.029 A 
ATOM     53  N   UNL A   1      41.486  29.644  28.081  1.00  0.00    -0.354 N 
ATOM     54  N   UNL A   1      44.697  28.700  30.846  1.00  0.00    -0.248 NA
ATOM     55  C   UNL A   1      42.679  28.470  31.995  1.00  0.00     0.031 C 
ATOM     56  C   UNL A   1      42.797  29.317  26.369  1.00  0.00     0.029 A 
ATOM     57  C   UNL A   1      42.805  29.504  27.754  1.00  0.00     0.049 A 
ATOM     58  H   UNL A   1      41.134  30.130  28.862  1.00  0.00     0.167 HD
ATOM     59  C   UNL A   1      43.698  29.268  30.071  1.00  0.00     0.074 A 
ATOM     60  C   UNL A   1      42.499  29.217  30.904  1.00  0.00     0.031 C 
ATOM     61  C   UNL A   1      43.873  29.446  28.730  1.00  0.00     0.034 A 
BRANCH  48  62
ATOM     62  C   UNL A   1      38.490  28.888  28.388  1.00  0.00     0.023 A 
ATOM     63  C   UNL A   1      37.616  29.710  27.636  1.00  0.00     0.012 A 
ATOM     64  C   UNL A   1      38.388  28.982  29.795  1.00  0.00     0.148 A 
ATOM     65  C   UNL A   1      36.742  30.618  28.246  1.00  0.00     0.002 A 
ATOM     66  C   UNL A   1      37.457  29.824  30.398  1.00  0.00     0.091 A 
ATOM     67  F   UNL A   1      39.273  28.363  30.577  1.00  0.00    -0.205 F 
ATOM     68  C   UNL A   1      36.658  30.671  29.630  1.00  0.00     0.022 A 
BRANCH  66  69
ATOM     69  S   UNL A   1      37.257  29.882  32.184  1.00  0.00     0.127 S 
ATOM     70  O   UNL A   1      38.415  30.677  32.583  1.00  0.00    -0.237 OA
ATOM     71  O   UNL A   1      35.966  30.557  32.315  1.00  0.00    -0.237 OA
ATOM     72  O   UNL A   1      37.252  28.493  32.625  1.00  0.00    -0.744 OA
ENDBRANCH  66  69
ENDBRANCH  48  62
BRANCH  49  73
ATOM     73  C   UNL A   1      44.711  26.536  33.750  1.00  0.00     0.023 A 
ATOM     74  C   UNL A   1      45.948  26.925  34.308  1.00  0.00     0.012 A 
ATOM     75  C   UNL A   1      43.634  26.284  34.626  1.00  0.00     0.148 A 
ATOM     76  C   UNL A   1      46.089  27.119  35.687  1.00  0.00     0.002 A 
ATOM     77  C   UNL A   1      43.781  26.480  35.997  1.00  0.00     0.091 A 
ATOM     78  F   UNL A   1      42.446  25.949  34.109  1.00  0.00    -0.205 F 
ATOM     79  C   UNL A   1      45.002  26.914  36.529  1.00  0.00     0.022 A 
BRANCH  77  80
ATOM     80  S   UNL A   1      42.406  26.297  37.142  1.00  0.00     0.127 S 
ATOM     81  O   UNL A   1      41.959  24.931  36.862  1.00  0.00    -0.237 OA
ATOM     82  O   UNL A   1      43.072  26.474  38.428  1.00  0.00    -0.237 OA
ATOM     83  O   UNL A   1      41.445  27.329  36.772  1.00  0.00    -0.744 OA
ENDBRANCH  77  80
ENDBRANCH  49  73
BRANCH  61  84
ATOM     84  C   UNL A   1      45.269  29.320  28.168  1.00  0.00     0.023 A 
ATOM     85  C   UNL A   1      46.219  30.361  28.246  1.00  0.00     0.012 A 
ATOM     86  C   UNL A   1      45.686  28.049  27.743  1.00  0.00     0.148 A 
ATOM     87  C   UNL A   1      47.554  30.134  27.899  1.00  0.00     0.002 A 
ATOM     88  C   UNL A   1      47.024  27.813  27.459  1.00  0.00     0.091 A 
ATOM     89  F   UNL A   1      44.766  27.075  27.664  1.00  0.00    -0.205 F 
ATOM     90  C   UNL A   1      47.961  28.855  27.525  1.00  0.00     0.022 A 
BRANCH  88  91
ATOM     91  S   UNL A   1      47.629  26.155  27.134  1.00  0.00     0.127 S 
ATOM     92  O   UNL A   1      49.050  26.390  26.892  1.00  0.00    -0.237 OA
ATOM     93  O   UNL A   1      47.326  25.460  28.386  1.00  0.00    -0.237 OA
ATOM     94  O   UNL A   1      46.868  25.670  25.989  1.00  0.00    -0.744 OA
ENDBRANCH  88  91
ENDBRANCH  61  84
ENDBRANCH  35  36
ENDBRANCH  27  30
ENDBRANCH  25  26
ENDBRANCH   1  25
TORSDOF 15
ENDMDL
MODEL 2
REMARK VINA RESULT:     -12.4      1.950      3.036
REMARK SMILES CC1=Nc2ncnn2[C@H](c2ccc(F)cc2)[C@@H]1C(=O)NCCCCNC(=O)c1ccc(-c2c3nc(c(-c4cccc(S(=O)(=O)[O-])c4F)c4ccc([nH]4)c(-c4cccc(S(=O)(=O)[O-])c4F)c4nc(c(-c5cccc(S(=O)(=O)[O-])c5F)c5ccc2[nH]5)C=C4)C=C3)cc1
REMARK SMILES IDX 23 1 22 2 21 3 20 4 18 5 19 6 17 8 1 9 2 10 3 11 4 12 9 13
REMARK SMILES IDX 5 14 8 15 6 16 7 17 10 18 11 19 16 20 12 21 15 22 13 23
REMARK SMILES IDX 14 24 24 25 25 26 26 27 27 29 28 30 29 31 90 32 30 33 89 34
REMARK SMILES IDX 31 35 32 36 33 37 83 38 34 39 88 40 82 41 84 42 35 43 87 44
REMARK SMILES IDX 81 45 80 46 36 48 68 49 48 50 67 51 49 52 52 53 66 54 85 55
REMARK SMILES IDX 50 56 51 57 65 59 86 60 53 61 37 62 38 63 46 64 39 65 41 66
REMARK SMILES IDX 47 67 40 68 42 69 43 70 44 71 45 72 69 73 70 74 78 75 71 76
REMARK SMILES IDX 73 77 79 78 72 79 74 80 75 81 76 82 77 83 54 84 55 85 63 86
REMARK SMILES IDX 56 87 58 88 64 89 57 90 59 91 60 92 61 93 62 94
REMARK H PARENT 20 7 25 28 84 47 52 58
REMARK Flexibility Score: inf
ROOT
ATOM      1  C   UNL A   1      36.677  20.910  24.975  1.00  0.00     0.023 C 
ENDROOT
BRANCH   1   2
ATOM      2  C   UNL A   1      35.861  21.420  26.176  1.00  0.00     0.023 C 
BRANCH   2   3
ATOM      3  C   UNL A   1      35.257  22.824  26.018  1.00  0.00     0.116 C 
BRANCH   3   4
ATOM      4  N   UNL A   1      35.370  23.279  24.644  1.00  0.00    -0.355 N 
ATOM      5  C   UNL A   1      34.409  23.314  23.682  1.00  0.00     0.231 C 
ATOM      6  O   UNL A   1      34.728  22.991  22.536  1.00  0.00    -0.274 OA
ATOM      7  H   UNL A   1      36.259  23.606  24.373  1.00  0.00     0.163 HD
BRANCH   5   8
ATOM      8  C   UNL A   1      32.984  23.687  24.014  1.00  0.00     0.152 C 
ATOM      9  C   UNL A   1      33.933  25.989  24.835  1.00  0.00     0.063 C 
ATOM     10  C   UNL A   1      33.040  24.785  25.082  1.00  0.00     0.034 C 
ATOM     11  N   UNL A   1      32.324  24.839  26.156  1.00  0.00    -0.220 NA
ATOM     12  C   UNL A   1      31.443  23.854  26.394  1.00  0.00     0.248 A 
ATOM     13  C   UNL A   1      32.033  22.479  24.345  1.00  0.00     0.159 C 
ATOM     14  N   UNL A   1      30.543  23.806  27.355  1.00  0.00    -0.198 NA
ATOM     15  N   UNL A   1      31.288  22.747  25.594  1.00  0.00    -0.221 N 
ATOM     16  C   UNL A   1      29.800  22.714  27.048  1.00  0.00     0.248 A 
ATOM     17  N   UNL A   1      30.156  22.083  25.932  1.00  0.00    -0.157 NA
BRANCH  13  18
ATOM     18  C   UNL A   1      32.405  20.974  24.223  1.00  0.00    -0.022 A 
ATOM     19  C   UNL A   1      32.195  20.323  22.978  1.00  0.00     0.009 A 
ATOM     20  C   UNL A   1      32.955  20.164  25.228  1.00  0.00     0.009 A 
ATOM     21  C   UNL A   1      32.418  18.951  22.792  1.00  0.00     0.039 A 
ATOM     22  C   UNL A   1      33.218  18.797  25.038  1.00  0.00     0.039 A 
ATOM     23  C   UNL A   1      32.915  18.195  23.834  1.00  0.00     0.123 A 
ATOM     24  F   UNL A   1      33.072  16.875  23.696  1.00  0.00    -0.207 F 
ENDBRANCH  13  18
ENDBRANCH   5   8
ENDBRANCH   3   4
ENDBRANCH   2   3
ENDBRANCH   1   2
BRANCH   1  25
ATOM     25  C   UNL A   1      38.171  21.179  25.083  1.00  0.00     0.116 C 
BRANCH  25  26
ATOM     26  N   UNL A   1      38.918  19.960  25.378  1.00  0.00    -0.352 N 
ATOM     27  C   UNL A   1      40.213  19.839  25.835  1.00  0.00     0.251 C 
ATOM     28  H   UNL A   1      38.433  19.115  25.233  1.00  0.00     0.163 HD
ATOM     29  O   UNL A   1      40.826  18.794  25.685  1.00  0.00    -0.269 OA
BRANCH  27  30
ATOM     30  C   UNL A   1      40.845  20.989  26.508  1.00  0.00     0.039 A 
ATOM     31  C   UNL A   1      41.462  21.993  25.758  1.00  0.00     0.014 A 
ATOM     32  C   UNL A   1      40.811  21.055  27.902  1.00  0.00     0.014 A 
ATOM     33  C   UNL A   1      41.977  23.105  26.417  1.00  0.00     0.010 A 
ATOM     34  C   UNL A   1      41.222  22.201  28.543  1.00  0.00     0.010 A 
ATOM     35  C   UNL A   1      41.834  23.212  27.809  1.00  0.00    -0.014 A 
BRANCH  35  36
ATOM     36  C   UNL A   1      42.180  24.459  28.484  1.00  0.00     0.031 A 
ATOM     37  C   UNL A   1      41.186  25.551  28.286  1.00  0.00     0.074 A 
ATOM     38  C   UNL A   1      43.180  24.560  29.386  1.00  0.00     0.049 A 
ATOM     39  N   UNL A   1      41.347  26.657  27.639  1.00  0.00    -0.248 NA
ATOM     40  C   UNL A   1      39.801  25.316  28.723  1.00  0.00     0.031 C 
ATOM     41  C   UNL A   1      44.016  23.477  29.919  1.00  0.00     0.029 A 
ATOM     42  N   UNL A   1      43.567  25.633  30.130  1.00  0.00    -0.354 N 
ATOM     43  C   UNL A   1      40.156  27.365  27.800  1.00  0.00     0.074 A 
ATOM     44  C   UNL A   1      39.189  26.413  28.273  1.00  0.00     0.031 C 
ATOM     45  C   UNL A   1      44.616  23.891  31.057  1.00  0.00     0.029 A 
ATOM     46  C   UNL A   1      44.345  25.304  31.238  1.00  0.00     0.049 A 
ATOM     47  H   UNL A   1      43.318  26.559  29.905  1.00  0.00     0.167 HD
ATOM     48  C   UNL A   1      40.138  28.727  27.783  1.00  0.00     0.034 A 
ATOM     49  C   UNL A   1      44.699  26.128  32.255  1.00  0.00     0.034 A 
ATOM     50  C   UNL A   1      41.374  29.250  27.254  1.00  0.00     0.049 A 
ATOM     51  C   UNL A   1      44.551  27.512  31.756  1.00  0.00     0.074 A 
ATOM     52  C   UNL A   1      42.053  29.151  26.058  1.00  0.00     0.029 A 
ATOM     53  N   UNL A   1      42.280  29.701  28.181  1.00  0.00    -0.354 N 
ATOM     54  N   UNL A   1      45.294  28.025  30.818  1.00  0.00    -0.248 NA
ATOM     55  C   UNL A   1      43.313  28.219  32.036  1.00  0.00     0.031 C 
ATOM     56  C   UNL A   1      43.432  29.128  26.419  1.00  0.00     0.029 A 
ATOM     57  C   UNL A   1      43.525  29.282  27.805  1.00  0.00     0.049 A 
ATOM     58  H   UNL A   1      42.069  30.237  28.979  1.00  0.00     0.167 HD
ATOM     59  C   UNL A   1      44.420  28.812  30.086  1.00  0.00     0.074 A 
ATOM     60  C   UNL A   1      43.266  29.008  30.960  1.00  0.00     0.031 C 
ATOM     61  C   UNL A   1      44.586  28.972  28.741  1.00  0.00     0.034 A 
BRANCH  48  62
ATOM     62  C   UNL A   1      39.203  29.613  28.586  1.00  0.00     0.023 A 
ATOM     63  C   UNL A   1      39.419  29.672  29.984  1.00  0.00     0.012 A 
ATOM     64  C   UNL A   1      37.989  30.162  28.113  1.00  0.00     0.148 A 
ATOM     65  C   UNL A   1      38.457  30.184  30.863  1.00  0.00     0.002 A 
ATOM     66  C   UNL A   1      37.073  30.748  28.982  1.00  0.00     0.091 A 
ATOM     67  F   UNL A   1      37.635  30.012  26.836  1.00  0.00    -0.205 F 
ATOM     68  C   UNL A   1      37.285  30.730  30.361  1.00  0.00     0.022 A 
BRANCH  66  69
ATOM     69  S   UNL A   1      35.570  31.531  28.380  1.00  0.00     0.127 S 
ATOM     70  O   UNL A   1      34.911  30.418  27.703  1.00  0.00    -0.237 OA
ATOM     71  O   UNL A   1      34.940  31.960  29.628  1.00  0.00    -0.237 OA
ATOM     72  O   UNL A   1      36.012  32.628  27.527  1.00  0.00    -0.744 OA
ENDBRANCH  66  69
ENDBRANCH  48  62
BRANCH  49  73
ATOM     73  C   UNL A   1      44.927  25.855  33.694  1.00  0.00     0.023 A 
ATOM     74  C   UNL A   1      46.249  25.841  34.188  1.00  0.00     0.012 A 
ATOM     75  C   UNL A   1      43.869  25.936  34.623  1.00  0.00     0.148 A 
ATOM     76  C   UNL A   1      46.510  25.971  35.557  1.00  0.00     0.002 A 
ATOM     77  C   UNL A   1      44.134  26.067  35.984  1.00  0.00     0.091 A 
ATOM     78  F   UNL A   1      42.611  25.986  34.167  1.00  0.00    -0.205 F 
ATOM     79  C   UNL A   1      45.454  26.102  36.453  1.00  0.00     0.022 A 
BRANCH  77  80
ATOM     80  S   UNL A   1      42.827  26.304  37.195  1.00  0.00     0.127 S 
ATOM     81  O   UNL A   1      43.580  26.341  38.450  1.00  0.00    -0.237 OA
ATOM     82  O   UNL A   1      42.268  27.585  36.775  1.00  0.00    -0.237 OA
ATOM     83  O   UNL A   1      41.949  25.148  37.059  1.00  0.00    -0.744 OA
ENDBRANCH  77  80
ENDBRANCH  49  73
BRANCH  61  84
ATOM     84  C   UNL A   1      45.901  28.556  28.129  1.00  0.00     0.023 A 
ATOM     85  C   UNL A   1      47.062  29.356  28.195  1.00  0.00     0.012 A 
ATOM     86  C   UNL A   1      46.011  27.236  27.661  1.00  0.00     0.148 A 
ATOM     87  C   UNL A   1      48.301  28.847  27.797  1.00  0.00     0.002 A 
ATOM     88  C   UNL A   1      47.253  26.716  27.326  1.00  0.00     0.091 A 
ATOM     89  F   UNL A   1      44.895  26.494  27.594  1.00  0.00    -0.205 F 
ATOM     90  C   UNL A   1      48.400  27.521  27.382  1.00  0.00     0.022 A 
BRANCH  88  91
ATOM     91  S   UNL A   1      47.462  24.975  26.945  1.00  0.00     0.127 S 
ATOM     92  O   UNL A   1      46.914  24.891  25.594  1.00  0.00    -0.237 OA
ATOM     93  O   UNL A   1      48.914  24.809  27.029  1.00  0.00    -0.237 OA
ATOM     94  O   UNL A   1      46.722  24.250  27.970  1.00  0.00    -0.744 OA
ENDBRANCH  88  91
ENDBRANCH  61  84
ENDBRANCH  35  36
ENDBRANCH  27  30
ENDBRANCH  25  26
ENDBRANCH   1  25
TORSDOF 15
ENDMDL
MODEL 3
REMARK VINA RESULT:     -12.2      2.193      2.867
REMARK SMILES CC1=Nc2ncnn2[C@H](c2ccc(F)cc2)[C@@H]1C(=O)NCCCCNC(=O)c1ccc(-c2c3nc(c(-c4cccc(S(=O)(=O)[O-])c4F)c4ccc([nH]4)c(-c4cccc(S(=O)(=O)[O-])c4F)c4nc(c(-c5cccc(S(=O)(=O)[O-])c5F)c5ccc2[nH]5)C=C4)C=C3)cc1
REMARK SMILES IDX 23 1 22 2 21 3 20 4 18 5 19 6 17 8 1 9 2 10 3 11 4 12 9 13
REMARK SMILES IDX 5 14 8 15 6 16 7 17 10 18 11 19 16 20 12 21 15 22 13 23
REMARK SMILES IDX 14 24 24 25 25 26 26 27 27 29 28 30 29 31 90 32 30 33 89 34
REMARK SMILES IDX 31 35 32 36 33 37 83 38 34 39 88 40 82 41 84 42 35 43 87 44
REMARK SMILES IDX 81 45 80 46 36 48 68 49 48 50 67 51 49 52 52 53 66 54 85 55
REMARK SMILES IDX 50 56 51 57 65 59 86 60 53 61 37 62 38 63 46 64 39 65 41 66
REMARK SMILES IDX 47 67 40 68 42 69 43 70 44 71 45 72 69 73 70 74 78 75 71 76
REMARK SMILES IDX 73 77 79 78 72 79 74 80 75 81 76 82 77 83 54 84 55 85 63 86
REMARK SMILES IDX 56 87 58 88 64 89 57 90 59 91 60 92 61 93 62 94
REMARK H PARENT 20 7 25 28 84 47 52 58
REMARK Flexibility Score: inf
ROOT
ATOM      1  C   UNL A   1      35.792  21.134  25.035  1.00  0.00     0.023 C 
ENDROOT
BRANCH   1   2
ATOM      2  C   UNL A   1      35.540  21.881  26.356  1.00  0.00     0.023 C 
BRANCH   2   3
ATOM      3  C   UNL A   1      34.520  23.029  26.285  1.00  0.00     0.116 C 
BRANCH   3   4
ATOM      4  N   UNL A   1      33.283  22.656  26.946  1.00  0.00    -0.355 N 
ATOM      5  C   UNL A   1      32.017  23.075  26.675  1.00  0.00     0.231 C 
ATOM      6  O   UNL A   1      31.271  23.314  27.626  1.00  0.00    -0.274 OA
ATOM      7  H   UNL A   1      33.371  22.015  27.689  1.00  0.00     0.163 HD
BRANCH   5   8
ATOM      8  C   UNL A   1      31.554  23.290  25.254  1.00  0.00     0.152 C 
ATOM      9  C   UNL A   1      32.059  20.748  24.859  1.00  0.00     0.063 C 
ATOM     10  C   UNL A   1      32.190  22.189  24.397  1.00  0.00     0.034 C 
ATOM     11  N   UNL A   1      32.765  22.352  23.252  1.00  0.00    -0.220 NA
ATOM     12  C   UNL A   1      32.835  23.590  22.736  1.00  0.00     0.248 A 
ATOM     13  C   UNL A   1      31.732  24.753  24.703  1.00  0.00     0.159 C 
ATOM     14  N   UNL A   1      33.257  23.929  21.535  1.00  0.00    -0.198 NA
ATOM     15  N   UNL A   1      32.384  24.720  23.376  1.00  0.00    -0.221 N 
ATOM     16  C   UNL A   1      32.956  25.249  21.447  1.00  0.00     0.248 A 
ATOM     17  N   UNL A   1      32.340  25.760  22.508  1.00  0.00    -0.157 NA
BRANCH  13  18
ATOM     18  C   UNL A   1      32.204  25.981  25.532  1.00  0.00    -0.022 A 
ATOM     19  C   UNL A   1      31.233  26.724  26.255  1.00  0.00     0.009 A 
ATOM     20  C   UNL A   1      33.522  26.445  25.664  1.00  0.00     0.009 A 
ATOM     21  C   UNL A   1      31.544  27.894  26.962  1.00  0.00     0.039 A 
ATOM     22  C   UNL A   1      33.847  27.596  26.402  1.00  0.00     0.039 A 
ATOM     23  C   UNL A   1      32.852  28.329  27.016  1.00  0.00     0.123 A 
ATOM     24  F   UNL A   1      33.159  29.477  27.629  1.00  0.00    -0.207 F 
ENDBRANCH  13  18
ENDBRANCH   5   8
ENDBRANCH   3   4
ENDBRANCH   2   3
ENDBRANCH   1   2
BRANCH   1  25
ATOM     25  C   UNL A   1      37.243  21.158  24.576  1.00  0.00     0.116 C 
BRANCH  25  26
ATOM     26  N   UNL A   1      37.942  19.930  24.940  1.00  0.00    -0.352 N 
ATOM     27  C   UNL A   1      39.170  19.794  25.554  1.00  0.00     0.251 C 
ATOM     28  H   UNL A   1      37.477  19.090  24.720  1.00  0.00     0.163 HD
ATOM     29  O   UNL A   1      39.793  18.747  25.462  1.00  0.00    -0.269 OA
BRANCH  27  30
ATOM     30  C   UNL A   1      39.716  20.928  26.321  1.00  0.00     0.039 A 
ATOM     31  C   UNL A   1      40.738  20.723  27.252  1.00  0.00     0.014 A 
ATOM     32  C   UNL A   1      39.197  22.204  26.099  1.00  0.00     0.014 A 
ATOM     33  C   UNL A   1      41.288  21.823  27.900  1.00  0.00     0.010 A 
ATOM     34  C   UNL A   1      39.812  23.301  26.657  1.00  0.00     0.010 A 
ATOM     35  C   UNL A   1      40.835  23.113  27.582  1.00  0.00    -0.014 A 
BRANCH  35  36
ATOM     36  C   UNL A   1      41.541  24.282  28.096  1.00  0.00     0.031 A 
ATOM     37  C   UNL A   1      40.706  25.515  28.156  1.00  0.00     0.074 A 
ATOM     38  C   UNL A   1      42.758  24.215  28.675  1.00  0.00     0.049 A 
ATOM     39  N   UNL A   1      40.841  26.594  27.459  1.00  0.00    -0.248 NA
ATOM     40  C   UNL A   1      39.484  25.486  28.973  1.00  0.00     0.031 C 
ATOM     41  C   UNL A   1      43.540  23.011  28.979  1.00  0.00     0.029 A 
ATOM     42  N   UNL A   1      43.497  25.206  29.249  1.00  0.00    -0.354 N 
ATOM     43  C   UNL A   1      39.865  27.471  27.930  1.00  0.00     0.074 A 
ATOM     44  C   UNL A   1      38.940  26.670  28.684  1.00  0.00     0.031 C 
ATOM     45  C   UNL A   1      44.493  23.311  29.890  1.00  0.00     0.029 A 
ATOM     46  C   UNL A   1      44.499  24.746  30.099  1.00  0.00     0.049 A 
ATOM     47  H   UNL A   1      43.337  26.162  29.077  1.00  0.00     0.167 HD
ATOM     48  C   UNL A   1      40.047  28.820  27.880  1.00  0.00     0.034 A 
ATOM     49  C   UNL A   1      45.246  25.491  30.952  1.00  0.00     0.034 A 
ATOM     50  C   UNL A   1      41.146  29.158  27.009  1.00  0.00     0.049 A 
ATOM     51  C   UNL A   1      45.172  26.888  30.476  1.00  0.00     0.074 A 
ATOM     52  C   UNL A   1      41.434  28.976  25.673  1.00  0.00     0.029 A 
ATOM     53  N   UNL A   1      42.334  29.452  27.628  1.00  0.00    -0.354 N 
ATOM     54  N   UNL A   1      45.687  27.297  29.352  1.00  0.00    -0.248 NA
ATOM     55  C   UNL A   1      44.185  27.770  31.075  1.00  0.00     0.031 C 
ATOM     56  C   UNL A   1      42.840  28.739  25.630  1.00  0.00     0.029 A 
ATOM     57  C   UNL A   1      43.344  28.855  26.928  1.00  0.00     0.049 A 
ATOM     58  H   UNL A   1      42.441  30.001  28.439  1.00  0.00     0.167 HD
ATOM     59  C   UNL A   1      44.768  28.220  28.875  1.00  0.00     0.074 A 
ATOM     60  C   UNL A   1      43.953  28.574  30.034  1.00  0.00     0.031 C 
ATOM     61  C   UNL A   1      44.569  28.374  27.535  1.00  0.00     0.034 A 
BRANCH  48  62
ATOM     62  C   UNL A   1      39.522  29.825  28.890  1.00  0.00     0.023 A 
ATOM     63  C   UNL A   1      40.132  29.829  30.168  1.00  0.00     0.012 A 
ATOM     64  C   UNL A   1      38.320  30.559  28.764  1.00  0.00     0.148 A 
ATOM     65  C   UNL A   1      39.548  30.467  31.268  1.00  0.00     0.002 A 
ATOM     66  C   UNL A   1      37.787  31.264  29.839  1.00  0.00     0.091 A 
ATOM     67  F   UNL A   1      37.600  30.484  27.644  1.00  0.00    -0.205 F 
ATOM     68  C   UNL A   1      38.376  31.192  31.102  1.00  0.00     0.022 A 
BRANCH  66  69
ATOM     69  S   UNL A   1      36.310  32.274  29.665  1.00  0.00     0.127 S 
ATOM     70  O   UNL A   1      36.153  32.799  31.018  1.00  0.00    -0.237 OA
ATOM     71  O   UNL A   1      36.737  33.252  28.665  1.00  0.00    -0.237 OA
ATOM     72  O   UNL A   1      35.265  31.368  29.205  1.00  0.00    -0.744 OA
ENDBRANCH  66  69
ENDBRANCH  48  62
BRANCH  49  73
ATOM     73  C   UNL A   1      45.830  25.163  32.274  1.00  0.00     0.023 A 
ATOM     74  C   UNL A   1      47.077  25.720  32.631  1.00  0.00     0.012 A 
ATOM     75  C   UNL A   1      45.038  24.593  33.294  1.00  0.00     0.148 A 
ATOM     76  C   UNL A   1      47.492  25.766  33.967  1.00  0.00     0.002 A 
ATOM     77  C   UNL A   1      45.456  24.644  34.621  1.00  0.00     0.091 A 
ATOM     78  F   UNL A   1      43.838  24.093  32.976  1.00  0.00    -0.205 F 
ATOM     79  C   UNL A   1      46.674  25.245  34.964  1.00  0.00     0.022 A 
BRANCH  77  80
ATOM     80  S   UNL A   1      44.427  24.049  35.971  1.00  0.00     0.127 S 
ATOM     81  O   UNL A   1      44.455  22.601  35.757  1.00  0.00    -0.237 OA
ATOM     82  O   UNL A   1      45.176  24.512  37.135  1.00  0.00    -0.237 OA
ATOM     83  O   UNL A   1      43.119  24.658  35.768  1.00  0.00    -0.744 OA
ENDBRANCH  77  80
ENDBRANCH  49  73
BRANCH  61  84
ATOM     84  C   UNL A   1      45.578  27.772  26.587  1.00  0.00     0.023 A 
ATOM     85  C   UNL A   1      46.827  28.373  26.320  1.00  0.00     0.012 A 
ATOM     86  C   UNL A   1      45.338  26.468  26.124  1.00  0.00     0.148 A 
ATOM     87  C   UNL A   1      47.808  27.686  25.600  1.00  0.00     0.002 A 
ATOM     88  C   UNL A   1      46.338  25.767  25.465  1.00  0.00     0.091 A 
ATOM     89  F   UNL A   1      44.140  25.918  26.378  1.00  0.00    -0.205 F 
ATOM     90  C   UNL A   1      47.571  26.375  25.191  1.00  0.00     0.022 A 
BRANCH  88  91
ATOM     91  S   UNL A   1      46.146  24.029  25.062  1.00  0.00     0.127 S 
ATOM     92  O   UNL A   1      46.580  23.380  26.296  1.00  0.00    -0.237 OA
ATOM     93  O   UNL A   1      44.712  23.928  24.787  1.00  0.00    -0.237 OA
ATOM     94  O   UNL A   1      46.991  23.794  23.897  1.00  0.00    -0.744 OA
ENDBRANCH  88  91
ENDBRANCH  61  84
ENDBRANCH  35  36
ENDBRANCH  27  30
ENDBRANCH  25  26
ENDBRANCH   1  25
TORSDOF 15
ENDMDL
