MODEL 1
REMARK VINA RESULT:     -11.7      0.000      0.000
REMARK SMILES CC(C)(C)SCC(=O)N1CC(n2cc(C(=O)NCCCCNC(=O)c3ccc(-c4c5nc(c(-c6cccc(S(=O)(=O)[O-])c6F)c6ccc([nH]6)c(-c6cccc(S(=O)(=O)[O-])c6F)c6nc(c(-c7cccc(S(=O)(=O)[O-])c7F)c7ccc4[nH]7)C=C6)C=C5)cc3)nn2)C1
REMARK SMILES IDX 19 1 18 2 17 3 15 4 16 5 14 7 12 8 13 9 89 10 88 11 11 12
REMARK SMILES IDX 7 13 8 14 9 15 10 16 90 17 6 18 5 19 2 20 1 21 3 22 4 23
REMARK SMILES IDX 20 24 21 25 22 26 23 27 24 29 25 30 26 31 87 32 27 33 86 34
REMARK SMILES IDX 28 35 29 36 30 37 80 38 31 39 85 40 79 41 81 42 32 43 84 44
REMARK SMILES IDX 78 45 77 46 33 48 65 49 45 50 64 51 46 52 49 53 63 54 82 55
REMARK SMILES IDX 47 56 48 57 62 59 83 60 50 61 34 62 35 63 43 64 36 65 38 66
REMARK SMILES IDX 44 67 37 68 39 69 40 70 41 71 42 72 66 73 67 74 75 75 68 76
REMARK SMILES IDX 70 77 76 78 69 79 71 80 72 81 73 82 74 83 51 84 52 85 60 86
REMARK SMILES IDX 53 87 55 88 61 89 54 90 56 91 57 92 58 93 59 94
REMARK H PARENT 17 6 22 28 81 47 49 58
REMARK Flexibility Score: inf
ROOT
ATOM      1  C   UNL A   1      37.236  20.785  24.586  1.00  0.00     0.023 C 
ENDROOT
BRANCH   1   2
ATOM      2  C   UNL A   1      35.929  20.875  25.381  1.00  0.00     0.116 C 
BRANCH   2   3
ATOM      3  N   UNL A   1      34.929  19.952  24.879  1.00  0.00    -0.351 N 
ATOM      4  C   UNL A   1      33.577  20.080  24.641  1.00  0.00     0.273 C 
ATOM      5  O   UNL A   1      32.998  19.092  24.193  1.00  0.00    -0.267 OA
ATOM      6  H   UNL A   1      35.285  19.059  24.667  1.00  0.00     0.163 HD
BRANCH   4   7
ATOM      7  C   UNL A   1      32.856  21.322  24.915  1.00  0.00     0.170 A 
ATOM      8  N   UNL A   1      31.778  23.206  24.883  1.00  0.00    -0.245 N 
ATOM      9  C   UNL A   1      32.479  22.353  24.080  1.00  0.00     0.145 A 
ATOM     10  N   UNL A   1      31.790  22.806  26.157  1.00  0.00    -0.066 NA
ATOM     11  N   UNL A   1      32.466  21.664  26.199  1.00  0.00    -0.125 NA
BRANCH   8  12
ATOM     12  C   UNL A   1      31.128  24.371  24.386  1.00  0.00     0.148 C 
ATOM     13  C   UNL A   1      30.955  27.450  23.369  1.00  0.00     0.232 C 
ATOM     14  O   UNL A   1      30.459  27.536  22.239  1.00  0.00    -0.274 OA
ATOM     15  N   UNL A   1      31.490  26.274  23.805  1.00  0.00    -0.338 N 
ATOM     16  C   UNL A   1      31.666  25.004  23.099  1.00  0.00     0.148 C 
ATOM     17  C   UNL A   1      31.645  25.643  25.103  1.00  0.00     0.148 C 
BRANCH  13  18
ATOM     18  C   UNL A   1      31.126  28.703  24.210  1.00  0.00     0.170 C 
BRANCH  18  19
ATOM     19  S   UNL A   1      32.806  29.220  24.646  1.00  0.00    -0.146 SA
BRANCH  19  20
ATOM     20  C   UNL A   1      32.832  29.217  26.494  1.00  0.00     0.008 C 
ATOM     21  C   UNL A   1      32.724  30.700  26.898  1.00  0.00     0.022 C 
ATOM     22  C   UNL A   1      34.146  28.653  27.038  1.00  0.00     0.022 C 
ATOM     23  C   UNL A   1      31.634  28.458  27.075  1.00  0.00     0.022 C 
ENDBRANCH  19  20
ENDBRANCH  18  19
ENDBRANCH  13  18
ENDBRANCH   8  12
ENDBRANCH   4   7
ENDBRANCH   2   3
ENDBRANCH   1   2
BRANCH   1  24
ATOM     24  C   UNL A   1      38.203  19.673  25.032  1.00  0.00     0.023 C 
BRANCH  24  25
ATOM     25  C   UNL A   1      39.365  20.138  25.906  1.00  0.00     0.116 C 
BRANCH  25  26
ATOM     26  N   UNL A   1      40.520  19.238  25.850  1.00  0.00    -0.352 N 
ATOM     27  C   UNL A   1      41.865  19.575  25.909  1.00  0.00     0.251 C 
ATOM     28  H   UNL A   1      40.318  18.279  25.761  1.00  0.00     0.163 HD
ATOM     29  O   UNL A   1      42.719  18.828  25.466  1.00  0.00    -0.269 OA
BRANCH  27  30
ATOM     30  C   UNL A   1      42.235  20.854  26.543  1.00  0.00     0.039 A 
ATOM     31  C   UNL A   1      42.668  21.949  25.791  1.00  0.00     0.014 A 
ATOM     32  C   UNL A   1      42.088  20.947  27.923  1.00  0.00     0.014 A 
ATOM     33  C   UNL A   1      42.864  23.168  26.438  1.00  0.00     0.010 A 
ATOM     34  C   UNL A   1      42.127  22.176  28.528  1.00  0.00     0.010 A 
ATOM     35  C   UNL A   1      42.566  23.280  27.807  1.00  0.00    -0.014 A 
BRANCH  35  36
ATOM     36  C   UNL A   1      42.568  24.579  28.474  1.00  0.00     0.031 A 
ATOM     37  C   UNL A   1      41.355  25.401  28.210  1.00  0.00     0.074 A 
ATOM     38  C   UNL A   1      43.472  24.919  29.421  1.00  0.00     0.049 A 
ATOM     39  N   UNL A   1      41.279  26.485  27.511  1.00  0.00    -0.248 NA
ATOM     40  C   UNL A   1      40.045  24.872  28.626  1.00  0.00     0.031 C 
ATOM     41  C   UNL A   1      44.530  24.080  30.003  1.00  0.00     0.029 A 
ATOM     42  N   UNL A   1      43.546  26.048  30.177  1.00  0.00    -0.354 N 
ATOM     43  C   UNL A   1      39.959  26.916  27.633  1.00  0.00     0.074 A 
ATOM     44  C   UNL A   1      39.215  25.785  28.116  1.00  0.00     0.031 C 
ATOM     45  C   UNL A   1      44.944  24.618  31.170  1.00  0.00     0.029 A 
ATOM     46  C   UNL A   1      44.326  25.919  31.326  1.00  0.00     0.049 A 
ATOM     47  H   UNL A   1      43.087  26.885  29.934  1.00  0.00     0.167 HD
ATOM     48  C   UNL A   1      39.654  28.244  27.604  1.00  0.00     0.034 A 
ATOM     49  C   UNL A   1      44.426  26.805  32.347  1.00  0.00     0.034 A 
ATOM     50  C   UNL A   1      40.762  29.019  27.097  1.00  0.00     0.049 A 
ATOM     51  C   UNL A   1      43.986  28.115  31.822  1.00  0.00     0.074 A 
ATOM     52  C   UNL A   1      41.506  29.031  25.935  1.00  0.00     0.029 A 
ATOM     53  N   UNL A   1      41.508  29.699  28.029  1.00  0.00    -0.354 N 
ATOM     54  N   UNL A   1      44.639  28.777  30.910  1.00  0.00    -0.248 NA
ATOM     55  C   UNL A   1      42.594  28.489  31.999  1.00  0.00     0.031 C 
ATOM     56  C   UNL A   1      42.845  29.290  26.359  1.00  0.00     0.029 A 
ATOM     57  C   UNL A   1      42.830  29.498  27.739  1.00  0.00     0.049 A 
ATOM     58  H   UNL A   1      41.154  30.236  28.774  1.00  0.00     0.167 HD
ATOM     59  C   UNL A   1      43.645  29.281  30.084  1.00  0.00     0.074 A 
ATOM     60  C   UNL A   1      42.416  29.182  30.870  1.00  0.00     0.031 C 
ATOM     61  C   UNL A   1      43.868  29.446  28.746  1.00  0.00     0.034 A 
BRANCH  48  62
ATOM     62  C   UNL A   1      38.546  28.908  28.403  1.00  0.00     0.023 A 
ATOM     63  C   UNL A   1      37.684  29.782  27.697  1.00  0.00     0.012 A 
ATOM     64  C   UNL A   1      38.482  28.961  29.815  1.00  0.00     0.148 A 
ATOM     65  C   UNL A   1      36.871  30.711  28.357  1.00  0.00     0.002 A 
ATOM     66  C   UNL A   1      37.615  29.832  30.467  1.00  0.00     0.091 A 
ATOM     67  F   UNL A   1      39.345  28.266  30.555  1.00  0.00    -0.205 F 
ATOM     68  C   UNL A   1      36.834  30.735  29.744  1.00  0.00     0.022 A 
BRANCH  66  69
ATOM     69  S   UNL A   1      37.493  29.876  32.260  1.00  0.00     0.127 S 
ATOM     70  O   UNL A   1      36.374  30.793  32.453  1.00  0.00    -0.237 OA
ATOM     71  O   UNL A   1      37.210  28.475  32.573  1.00  0.00    -0.237 OA
ATOM     72  O   UNL A   1      38.791  30.342  32.731  1.00  0.00    -0.744 OA
ENDBRANCH  66  69
ENDBRANCH  48  62
BRANCH  49  73
ATOM     73  C   UNL A   1      44.636  26.593  33.798  1.00  0.00     0.023 A 
ATOM     74  C   UNL A   1      45.866  26.964  34.381  1.00  0.00     0.012 A 
ATOM     75  C   UNL A   1      43.543  26.341  34.653  1.00  0.00     0.148 A 
ATOM     76  C   UNL A   1      45.988  27.135  35.765  1.00  0.00     0.002 A 
ATOM     77  C   UNL A   1      43.669  26.514  36.029  1.00  0.00     0.091 A 
ATOM     78  F   UNL A   1      42.359  26.030  34.110  1.00  0.00    -0.205 F 
ATOM     79  C   UNL A   1      44.886  26.926  36.588  1.00  0.00     0.022 A 
BRANCH  77  80
ATOM     80  S   UNL A   1      42.280  26.304  37.150  1.00  0.00     0.127 S 
ATOM     81  O   UNL A   1      41.804  24.966  36.794  1.00  0.00    -0.237 OA
ATOM     82  O   UNL A   1      42.931  26.398  38.454  1.00  0.00    -0.237 OA
ATOM     83  O   UNL A   1      41.349  27.378  36.827  1.00  0.00    -0.744 OA
ENDBRANCH  77  80
ENDBRANCH  49  73
BRANCH  61  84
ATOM     84  C   UNL A   1      45.289  29.335  28.249  1.00  0.00     0.023 A 
ATOM     85  C   UNL A   1      46.209  30.403  28.309  1.00  0.00     0.012 A 
ATOM     86  C   UNL A   1      45.745  28.074  27.833  1.00  0.00     0.148 A 
ATOM     87  C   UNL A   1      47.544  30.225  27.930  1.00  0.00     0.002 A 
ATOM     88  C   UNL A   1      47.081  27.889  27.500  1.00  0.00     0.091 A 
ATOM     89  F   UNL A   1      44.862  27.065  27.784  1.00  0.00    -0.205 F 
ATOM     90  C   UNL A   1      47.982  28.964  27.535  1.00  0.00     0.022 A 
BRANCH  88  91
ATOM     91  S   UNL A   1      47.724  26.264  27.098  1.00  0.00     0.127 S 
ATOM     92  O   UNL A   1      47.404  25.502  28.303  1.00  0.00    -0.237 OA
ATOM     93  O   UNL A   1      46.941  25.899  25.916  1.00  0.00    -0.237 OA
ATOM     94  O   UNL A   1      49.146  26.452  26.831  1.00  0.00    -0.744 OA
ENDBRANCH  88  91
ENDBRANCH  61  84
ENDBRANCH  35  36
ENDBRANCH  27  30
ENDBRANCH  25  26
ENDBRANCH  24  25
ENDBRANCH   1  24
TORSDOF 18
ENDMDL
MODEL 2
REMARK VINA RESULT:     -11.2      1.682      2.331
REMARK SMILES CC(C)(C)SCC(=O)N1CC(n2cc(C(=O)NCCCCNC(=O)c3ccc(-c4c5nc(c(-c6cccc(S(=O)(=O)[O-])c6F)c6ccc([nH]6)c(-c6cccc(S(=O)(=O)[O-])c6F)c6nc(c(-c7cccc(S(=O)(=O)[O-])c7F)c7ccc4[nH]7)C=C6)C=C5)cc3)nn2)C1
REMARK SMILES IDX 19 1 18 2 17 3 15 4 16 5 14 7 12 8 13 9 89 10 88 11 11 12
REMARK SMILES IDX 7 13 8 14 9 15 10 16 90 17 6 18 5 19 2 20 1 21 3 22 4 23
REMARK SMILES IDX 20 24 21 25 22 26 23 27 24 29 25 30 26 31 87 32 27 33 86 34
REMARK SMILES IDX 28 35 29 36 30 37 80 38 31 39 85 40 79 41 81 42 32 43 84 44
REMARK SMILES IDX 78 45 77 46 33 48 65 49 45 50 64 51 46 52 49 53 63 54 82 55
REMARK SMILES IDX 47 56 48 57 62 59 83 60 50 61 34 62 35 63 43 64 36 65 38 66
REMARK SMILES IDX 44 67 37 68 39 69 40 70 41 71 42 72 66 73 67 74 75 75 68 76
REMARK SMILES IDX 70 77 76 78 69 79 71 80 72 81 73 82 74 83 51 84 52 85 60 86
REMARK SMILES IDX 53 87 55 88 61 89 54 90 56 91 57 92 58 93 59 94
REMARK H PARENT 17 6 22 28 81 47 49 58
REMARK Flexibility Score: inf
ROOT
ATOM      1  C   UNL A   1      36.988  19.278  24.641  1.00  0.00     0.023 C 
ENDROOT
BRANCH   1   2
ATOM      2  C   UNL A   1      35.888  20.284  24.998  1.00  0.00     0.116 C 
BRANCH   2   3
ATOM      3  N   UNL A   1      34.625  19.626  25.272  1.00  0.00    -0.351 N 
ATOM      4  C   UNL A   1      33.315  19.987  25.039  1.00  0.00     0.273 C 
ATOM      5  O   UNL A   1      32.450  19.186  25.389  1.00  0.00    -0.267 OA
ATOM      6  H   UNL A   1      34.722  18.752  25.714  1.00  0.00     0.163 HD
BRANCH   4   7
ATOM      7  C   UNL A   1      32.962  21.260  24.414  1.00  0.00     0.170 A 
ATOM      8  N   UNL A   1      32.603  23.327  23.854  1.00  0.00    -0.245 N 
ATOM      9  C   UNL A   1      32.963  22.546  24.914  1.00  0.00     0.145 A 
ATOM     10  N   UNL A   1      32.296  22.592  22.782  1.00  0.00    -0.066 NA
ATOM     11  N   UNL A   1      32.489  21.321  23.114  1.00  0.00    -0.125 NA
BRANCH   8  12
ATOM     12  C   UNL A   1      32.572  24.749  23.922  1.00  0.00     0.148 C 
ATOM     13  C   UNL A   1      31.162  27.662  24.190  1.00  0.00     0.232 C 
ATOM     14  O   UNL A   1      31.637  28.320  25.123  1.00  0.00    -0.274 OA
ATOM     15  N   UNL A   1      31.302  26.306  24.155  1.00  0.00    -0.338 N 
ATOM     16  C   UNL A   1      31.902  25.398  25.136  1.00  0.00     0.148 C 
ATOM     17  C   UNL A   1      31.389  25.316  23.097  1.00  0.00     0.148 C 
BRANCH  13  18
ATOM     18  C   UNL A   1      30.268  28.344  23.169  1.00  0.00     0.170 C 
BRANCH  18  19
ATOM     19  S   UNL A   1      29.771  30.059  23.474  1.00  0.00    -0.146 SA
BRANCH  19  20
ATOM     20  C   UNL A   1      28.052  30.174  22.807  1.00  0.00     0.008 C 
ATOM     21  C   UNL A   1      27.418  31.373  23.539  1.00  0.00     0.022 C 
ATOM     22  C   UNL A   1      27.239  28.917  23.125  1.00  0.00     0.022 C 
ATOM     23  C   UNL A   1      28.048  30.456  21.301  1.00  0.00     0.022 C 
ENDBRANCH  19  20
ENDBRANCH  18  19
ENDBRANCH  13  18
ENDBRANCH   8  12
ENDBRANCH   4   7
ENDBRANCH   2   3
ENDBRANCH   1   2
BRANCH   1  24
ATOM     24  C   UNL A   1      38.428  19.763  24.884  1.00  0.00     0.023 C 
BRANCH  24  25
ATOM     25  C   UNL A   1      39.122  19.150  26.098  1.00  0.00     0.116 C 
BRANCH  25  26
ATOM     26  N   UNL A   1      40.512  18.770  25.832  1.00  0.00    -0.352 N 
ATOM     27  C   UNL A   1      41.622  19.601  25.759  1.00  0.00     0.251 C 
ATOM     28  H   UNL A   1      40.680  17.811  25.689  1.00  0.00     0.163 HD
ATOM     29  O   UNL A   1      42.624  19.257  25.158  1.00  0.00    -0.269 OA
BRANCH  27  30
ATOM     30  C   UNL A   1      41.563  20.904  26.446  1.00  0.00     0.039 A 
ATOM     31  C   UNL A   1      41.104  21.024  27.759  1.00  0.00     0.014 A 
ATOM     32  C   UNL A   1      42.035  22.013  25.749  1.00  0.00     0.014 A 
ATOM     33  C   UNL A   1      41.210  22.260  28.394  1.00  0.00     0.010 A 
ATOM     34  C   UNL A   1      42.285  23.180  26.422  1.00  0.00     0.010 A 
ATOM     35  C   UNL A   1      41.826  23.331  27.725  1.00  0.00    -0.014 A 
BRANCH  35  36
ATOM     36  C   UNL A   1      42.134  24.577  28.422  1.00  0.00     0.031 A 
ATOM     37  C   UNL A   1      41.126  25.653  28.219  1.00  0.00     0.074 A 
ATOM     38  C   UNL A   1      43.117  24.680  29.345  1.00  0.00     0.049 A 
ATOM     39  N   UNL A   1      41.273  26.749  27.549  1.00  0.00    -0.248 NA
ATOM     40  C   UNL A   1      39.744  25.414  28.666  1.00  0.00     0.031 C 
ATOM     41  C   UNL A   1      43.979  23.611  29.871  1.00  0.00     0.029 A 
ATOM     42  N   UNL A   1      43.460  25.741  30.126  1.00  0.00    -0.354 N 
ATOM     43  C   UNL A   1      40.085  27.456  27.726  1.00  0.00     0.074 A 
ATOM     44  C   UNL A   1      39.123  26.502  28.207  1.00  0.00     0.031 C 
ATOM     45  C   UNL A   1      44.534  24.008  31.036  1.00  0.00     0.029 A 
ATOM     46  C   UNL A   1      44.224  25.408  31.243  1.00  0.00     0.049 A 
ATOM     47  H   UNL A   1      43.191  26.665  29.918  1.00  0.00     0.167 HD
ATOM     48  C   UNL A   1      40.080  28.819  27.738  1.00  0.00     0.034 A 
ATOM     49  C   UNL A   1      44.546  26.218  32.281  1.00  0.00     0.034 A 
ATOM     50  C   UNL A   1      41.318  29.346  27.213  1.00  0.00     0.049 A 
ATOM     51  C   UNL A   1      44.392  27.608  31.803  1.00  0.00     0.074 A 
ATOM     52  C   UNL A   1      42.014  29.229  26.026  1.00  0.00     0.029 A 
ATOM     53  N   UNL A   1      42.221  29.815  28.135  1.00  0.00    -0.354 N 
ATOM     54  N   UNL A   1      45.150  28.138  30.885  1.00  0.00    -0.248 NA
ATOM     55  C   UNL A   1      43.123  28.275  32.036  1.00  0.00     0.031 C 
ATOM     56  C   UNL A   1      43.388  29.173  26.411  1.00  0.00     0.029 A 
ATOM     57  C   UNL A   1      43.458  29.337  27.796  1.00  0.00     0.049 A 
ATOM     58  H   UNL A   1      42.016  30.395  28.904  1.00  0.00     0.167 HD
ATOM     59  C   UNL A   1      44.270  28.874  30.105  1.00  0.00     0.074 A 
ATOM     60  C   UNL A   1      43.071  29.024  30.931  1.00  0.00     0.031 C 
ATOM     61  C   UNL A   1      44.486  29.027  28.765  1.00  0.00     0.034 A 
BRANCH  48  62
ATOM     62  C   UNL A   1      39.169  29.686  28.590  1.00  0.00     0.023 A 
ATOM     63  C   UNL A   1      39.426  29.708  29.982  1.00  0.00     0.012 A 
ATOM     64  C   UNL A   1      37.934  30.228  28.166  1.00  0.00     0.148 A 
ATOM     65  C   UNL A   1      38.474  30.163  30.902  1.00  0.00     0.002 A 
ATOM     66  C   UNL A   1      37.023  30.751  29.078  1.00  0.00     0.091 A 
ATOM     67  F   UNL A   1      37.559  30.134  26.890  1.00  0.00    -0.205 F 
ATOM     68  C   UNL A   1      37.271  30.688  30.450  1.00  0.00     0.022 A 
BRANCH  66  69
ATOM     69  S   UNL A   1      35.469  31.483  28.547  1.00  0.00     0.127 S 
ATOM     70  O   UNL A   1      34.944  31.998  29.808  1.00  0.00    -0.237 OA
ATOM     71  O   UNL A   1      35.928  32.501  27.602  1.00  0.00    -0.237 OA
ATOM     72  O   UNL A   1      34.712  30.398  27.934  1.00  0.00    -0.744 OA
ENDBRANCH  66  69
ENDBRANCH  48  62
BRANCH  49  73
ATOM     73  C   UNL A   1      44.745  25.921  33.719  1.00  0.00     0.023 A 
ATOM     74  C   UNL A   1      46.054  25.879  34.243  1.00  0.00     0.012 A 
ATOM     75  C   UNL A   1      43.667  26.004  34.625  1.00  0.00     0.148 A 
ATOM     76  C   UNL A   1      46.285  25.974  35.620  1.00  0.00     0.002 A 
ATOM     77  C   UNL A   1      43.902  26.099  35.994  1.00  0.00     0.091 A 
ATOM     78  F   UNL A   1      42.422  26.088  34.140  1.00  0.00    -0.205 F 
ATOM     79  C   UNL A   1      45.210  26.100  36.495  1.00  0.00     0.022 A 
BRANCH  77  80
ATOM     80  S   UNL A   1      42.568  26.309  37.181  1.00  0.00     0.127 S 
ATOM     81  O   UNL A   1      41.807  25.072  37.001  1.00  0.00    -0.237 OA
ATOM     82  O   UNL A   1      43.301  26.402  38.441  1.00  0.00    -0.237 OA
ATOM     83  O   UNL A   1      41.861  27.514  36.768  1.00  0.00    -0.744 OA
ENDBRANCH  77  80
ENDBRANCH  49  73
BRANCH  61  84
ATOM     84  C   UNL A   1      45.833  28.620  28.218  1.00  0.00     0.023 A 
ATOM     85  C   UNL A   1      46.979  29.438  28.312  1.00  0.00     0.012 A 
ATOM     86  C   UNL A   1      45.974  27.317  27.712  1.00  0.00     0.148 A 
ATOM     87  C   UNL A   1      48.228  28.979  27.881  1.00  0.00     0.002 A 
ATOM     88  C   UNL A   1      47.223  26.848  27.328  1.00  0.00     0.091 A 
ATOM     89  F   UNL A   1      44.878  26.547  27.632  1.00  0.00    -0.205 F 
ATOM     90  C   UNL A   1      48.351  27.680  27.398  1.00  0.00     0.022 A 
BRANCH  88  91
ATOM     91  S   UNL A   1      47.460  25.148  26.808  1.00  0.00     0.127 S 
ATOM     92  O   UNL A   1      48.916  25.061  26.705  1.00  0.00    -0.237 OA
ATOM     93  O   UNL A   1      46.879  24.394  27.921  1.00  0.00    -0.237 OA
ATOM     94  O   UNL A   1      46.731  25.009  25.553  1.00  0.00    -0.744 OA
ENDBRANCH  88  91
ENDBRANCH  61  84
ENDBRANCH  35  36
ENDBRANCH  27  30
ENDBRANCH  25  26
ENDBRANCH  24  25
ENDBRANCH   1  24
TORSDOF 18
ENDMDL
MODEL 3
REMARK VINA RESULT:     -10.9      2.756      8.234
REMARK SMILES CC(C)(C)SCC(=O)N1CC(n2cc(C(=O)NCCCCNC(=O)c3ccc(-c4c5nc(c(-c6cccc(S(=O)(=O)[O-])c6F)c6ccc([nH]6)c(-c6cccc(S(=O)(=O)[O-])c6F)c6nc(c(-c7cccc(S(=O)(=O)[O-])c7F)c7ccc4[nH]7)C=C6)C=C5)cc3)nn2)C1
REMARK SMILES IDX 19 1 18 2 17 3 15 4 16 5 14 7 12 8 13 9 89 10 88 11 11 12
REMARK SMILES IDX 7 13 8 14 9 15 10 16 90 17 6 18 5 19 2 20 1 21 3 22 4 23
REMARK SMILES IDX 20 24 21 25 22 26 23 27 24 29 25 30 26 31 87 32 27 33 86 34
REMARK SMILES IDX 28 35 29 36 30 37 80 38 31 39 85 40 79 41 81 42 32 43 84 44
REMARK SMILES IDX 78 45 77 46 33 48 65 49 45 50 64 51 46 52 49 53 63 54 82 55
REMARK SMILES IDX 47 56 48 57 62 59 83 60 50 61 34 62 35 63 43 64 36 65 38 66
REMARK SMILES IDX 44 67 37 68 39 69 40 70 41 71 42 72 66 73 67 74 75 75 68 76
REMARK SMILES IDX 70 77 76 78 69 79 71 80 72 81 73 82 74 83 51 84 52 85 60 86
REMARK SMILES IDX 53 87 55 88 61 89 54 90 56 91 57 92 58 93 59 94
REMARK H PARENT 17 6 22 28 81 47 49 58
REMARK Flexibility Score: inf
ROOT
ATOM      1  C   UNL A   1      32.177  30.798  26.540  1.00  0.00     0.023 C 
ENDROOT
BRANCH   1   2
ATOM      2  C   UNL A   1      31.886  29.691  25.520  1.00  0.00     0.116 C 
BRANCH   2   3
ATOM      3  N   UNL A   1      30.799  30.051  24.630  1.00  0.00    -0.351 N 
ATOM      4  C   UNL A   1      30.173  29.378  23.602  1.00  0.00     0.273 C 
ATOM      5  O   UNL A   1      29.255  29.967  23.035  1.00  0.00    -0.267 OA
ATOM      6  H   UNL A   1      30.439  30.953  24.790  1.00  0.00     0.163 HD
BRANCH   4   7
ATOM      7  C   UNL A   1      30.579  28.034  23.196  1.00  0.00     0.170 A 
ATOM      8  N   UNL A   1      31.031  25.921  22.988  1.00  0.00    -0.245 N 
ATOM      9  C   UNL A   1      30.650  26.855  23.908  1.00  0.00     0.145 A 
ATOM     10  N   UNL A   1      31.284  26.474  21.800  1.00  0.00    -0.066 NA
ATOM     11  N   UNL A   1      31.033  27.773  21.914  1.00  0.00    -0.125 NA
BRANCH   8  12
ATOM     12  C   UNL A   1      31.134  24.535  23.296  1.00  0.00     0.148 C 
ATOM     13  C   UNL A   1      32.415  21.915  24.725  1.00  0.00     0.232 C 
ATOM     14  O   UNL A   1      31.573  21.287  25.379  1.00  0.00    -0.274 OA
ATOM     15  N   UNL A   1      32.208  23.223  24.399  1.00  0.00    -0.338 N 
ATOM     16  C   UNL A   1      31.112  24.121  24.771  1.00  0.00     0.148 C 
ATOM     17  C   UNL A   1      32.614  24.077  23.298  1.00  0.00     0.148 C 
BRANCH  13  18
ATOM     18  C   UNL A   1      33.764  21.280  24.433  1.00  0.00     0.170 C 
BRANCH  18  19
ATOM     19  S   UNL A   1      35.078  21.453  25.666  1.00  0.00    -0.146 SA
BRANCH  19  20
ATOM     20  C   UNL A   1      36.206  22.740  24.969  1.00  0.00     0.008 C 
ATOM     21  C   UNL A   1      37.619  22.321  25.420  1.00  0.00     0.022 C 
ATOM     22  C   UNL A   1      35.899  24.127  25.539  1.00  0.00     0.022 C 
ATOM     23  C   UNL A   1      36.163  22.761  23.438  1.00  0.00     0.022 C 
ENDBRANCH  19  20
ENDBRANCH  18  19
ENDBRANCH  13  18
ENDBRANCH   8  12
ENDBRANCH   4   7
ENDBRANCH   2   3
ENDBRANCH   1   2
BRANCH   1  24
ATOM     24  C   UNL A   1      33.404  30.560  27.438  1.00  0.00     0.023 C 
BRANCH  24  25
ATOM     25  C   UNL A   1      34.330  31.763  27.601  1.00  0.00     0.116 C 
BRANCH  25  26
ATOM     26  N   UNL A   1      34.247  32.374  28.930  1.00  0.00    -0.352 N 
ATOM     27  C   UNL A   1      34.986  32.056  30.061  1.00  0.00     0.251 C 
ATOM     28  H   UNL A   1      33.588  33.098  29.035  1.00  0.00     0.163 HD
ATOM     29  O   UNL A   1      34.578  32.331  31.175  1.00  0.00    -0.269 OA
BRANCH  27  30
ATOM     30  C   UNL A   1      36.291  31.393  29.876  1.00  0.00     0.039 A 
ATOM     31  C   UNL A   1      37.438  32.110  29.532  1.00  0.00     0.014 A 
ATOM     32  C   UNL A   1      36.347  30.022  30.111  1.00  0.00     0.014 A 
ATOM     33  C   UNL A   1      38.663  31.444  29.515  1.00  0.00     0.010 A 
ATOM     34  C   UNL A   1      37.564  29.408  30.248  1.00  0.00     0.010 A 
ATOM     35  C   UNL A   1      38.721  30.094  29.900  1.00  0.00    -0.014 A 
BRANCH  35  36
ATOM     36  C   UNL A   1      40.002  29.419  30.086  1.00  0.00     0.031 A 
ATOM     37  C   UNL A   1      40.482  29.401  31.495  1.00  0.00     0.074 A 
ATOM     38  C   UNL A   1      40.593  28.681  29.117  1.00  0.00     0.049 A 
ATOM     39  N   UNL A   1      41.487  30.047  31.989  1.00  0.00    -0.248 NA
ATOM     40  C   UNL A   1      39.657  28.725  32.509  1.00  0.00     0.031 C 
ATOM     41  C   UNL A   1      40.068  28.355  27.784  1.00  0.00     0.029 A 
ATOM     42  N   UNL A   1      41.731  27.937  29.173  1.00  0.00    -0.354 N 
ATOM     43  C   UNL A   1      41.577  29.638  33.318  1.00  0.00     0.074 A 
ATOM     44  C   UNL A   1      40.313  29.027  33.631  1.00  0.00     0.031 C 
ATOM     45  C   UNL A   1      40.735  27.294  27.281  1.00  0.00     0.029 A 
ATOM     46  C   UNL A   1      41.844  26.985  28.161  1.00  0.00     0.049 A 
ATOM     47  H   UNL A   1      42.416  28.061  29.870  1.00  0.00     0.167 HD
ATOM     48  C   UNL A   1      42.783  29.576  33.949  1.00  0.00     0.034 A 
ATOM     49  C   UNL A   1      42.763  25.993  28.075  1.00  0.00     0.034 A 
ATOM     50  C   UNL A   1      43.793  30.293  33.206  1.00  0.00     0.049 A 
ATOM     51  C   UNL A   1      43.900  26.386  28.933  1.00  0.00     0.074 A 
ATOM     52  C   UNL A   1      43.949  31.588  32.753  1.00  0.00     0.029 A 
ATOM     53  N   UNL A   1      44.672  29.530  32.477  1.00  0.00    -0.354 N 
ATOM     54  N   UNL A   1      44.672  27.404  28.677  1.00  0.00    -0.248 NA
ATOM     55  C   UNL A   1      43.919  25.909  30.304  1.00  0.00     0.031 C 
ATOM     56  C   UNL A   1      44.551  31.455  31.465  1.00  0.00     0.029 A 
ATOM     57  C   UNL A   1      44.799  30.100  31.240  1.00  0.00     0.049 A 
ATOM     58  H   UNL A   1      45.130  28.717  32.789  1.00  0.00     0.167 HD
ATOM     59  C   UNL A   1      44.879  27.989  29.918  1.00  0.00     0.074 A 
ATOM     60  C   UNL A   1      44.503  26.960  30.887  1.00  0.00     0.031 C 
ATOM     61  C   UNL A   1      45.046  29.340  30.033  1.00  0.00     0.034 A 
BRANCH  48  62
ATOM     62  C   UNL A   1      43.177  28.546  34.993  1.00  0.00     0.023 A 
ATOM     63  C   UNL A   1      43.842  29.026  36.146  1.00  0.00     0.012 A 
ATOM     64  C   UNL A   1      43.201  27.147  34.786  1.00  0.00     0.148 A 
ATOM     65  C   UNL A   1      44.561  28.175  36.994  1.00  0.00     0.002 A 
ATOM     66  C   UNL A   1      43.851  26.295  35.674  1.00  0.00     0.091 A 
ATOM     67  F   UNL A   1      42.710  26.623  33.663  1.00  0.00    -0.205 F 
ATOM     68  C   UNL A   1      44.564  26.807  36.760  1.00  0.00     0.022 A 
BRANCH  66  69
ATOM     69  S   UNL A   1      43.851  24.512  35.445  1.00  0.00     0.127 S 
ATOM     70  O   UNL A   1      42.422  24.216  35.468  1.00  0.00    -0.237 OA
ATOM     71  O   UNL A   1      44.493  24.382  34.137  1.00  0.00    -0.237 OA
ATOM     72  O   UNL A   1      44.634  23.974  36.551  1.00  0.00    -0.744 OA
ENDBRANCH  66  69
ENDBRANCH  48  62
BRANCH  49  73
ATOM     73  C   UNL A   1      42.664  24.625  27.515  1.00  0.00     0.023 A 
ATOM     74  C   UNL A   1      41.401  24.002  27.427  1.00  0.00     0.012 A 
ATOM     75  C   UNL A   1      43.732  24.071  26.779  1.00  0.00     0.148 A 
ATOM     76  C   UNL A   1      41.195  22.899  26.589  1.00  0.00     0.002 A 
ATOM     77  C   UNL A   1      43.522  22.974  25.947  1.00  0.00     0.091 A 
ATOM     78  F   UNL A   1      44.925  24.677  26.819  1.00  0.00    -0.205 F 
ATOM     79  C   UNL A   1      42.251  22.395  25.837  1.00  0.00     0.022 A 
BRANCH  77  80
ATOM     80  S   UNL A   1      44.826  22.296  24.912  1.00  0.00     0.127 S 
ATOM     81  O   UNL A   1      44.198  21.080  24.393  1.00  0.00    -0.237 OA
ATOM     82  O   UNL A   1      45.011  23.360  23.929  1.00  0.00    -0.237 OA
ATOM     83  O   UNL A   1      45.951  22.056  25.806  1.00  0.00    -0.744 OA
ENDBRANCH  77  80
ENDBRANCH  49  73
BRANCH  61  84
ATOM     84  C   UNL A   1      45.277  30.132  28.769  1.00  0.00     0.023 A 
ATOM     85  C   UNL A   1      44.227  30.575  27.937  1.00  0.00     0.012 A 
ATOM     86  C   UNL A   1      46.586  30.554  28.484  1.00  0.00     0.148 A 
ATOM     87  C   UNL A   1      44.480  31.391  26.830  1.00  0.00     0.002 A 
ATOM     88  C   UNL A   1      46.829  31.402  27.411  1.00  0.00     0.091 A 
ATOM     89  F   UNL A   1      47.576  30.130  29.285  1.00  0.00    -0.205 F 
ATOM     90  C   UNL A   1      45.782  31.813  26.573  1.00  0.00     0.022 A 
BRANCH  88  91
ATOM     91  S   UNL A   1      48.466  32.068  27.103  1.00  0.00     0.127 S 
ATOM     92  O   UNL A   1      48.811  32.640  28.403  1.00  0.00    -0.237 OA
ATOM     93  O   UNL A   1      49.229  30.874  26.737  1.00  0.00    -0.237 OA
ATOM     94  O   UNL A   1      48.308  33.027  26.016  1.00  0.00    -0.744 OA
ENDBRANCH  88  91
ENDBRANCH  61  84
ENDBRANCH  35  36
ENDBRANCH  27  30
ENDBRANCH  25  26
ENDBRANCH  24  25
ENDBRANCH   1  24
TORSDOF 18
ENDMDL
