MODEL 1
REMARK VINA RESULT:     -12.0      0.000      0.000
REMARK SMILES C[C@@H](C(=O)NCCCCNC(=O)c1ccc(-c2c3nc(c(-c4cccc(S(=O)(=O)[O-])c4F)c4ccc([nH]4)c(-c4cccc(S(=O)(=O)[O-])c4F)c4nc(c(-c5cccc(S(=O)(=O)[O-])c5F)c5ccc2[nH]5)C=C4)C=C3)cc1)c1ccc(Cc2cccs2)cc1F
REMARK SMILES IDX 7 1 6 2 5 3 3 4 4 5 2 7 1 8 76 9 77 10 87 11 78 12 86 13
REMARK SMILES IDX 88 14 79 15 80 16 81 17 82 18 85 19 83 20 84 21 8 22 9 23
REMARK SMILES IDX 10 24 11 25 12 27 13 28 14 29 75 30 15 31 74 32 16 33 17 34
REMARK SMILES IDX 18 35 68 36 19 37 73 38 67 39 69 40 20 41 72 42 66 43 65 44
REMARK SMILES IDX 21 46 53 47 33 48 52 49 34 50 37 51 51 52 70 53 35 54 36 55
REMARK SMILES IDX 50 57 71 58 38 59 22 60 23 61 31 62 24 63 26 64 32 65 25 66
REMARK SMILES IDX 27 67 28 68 29 69 30 70 54 71 55 72 63 73 56 74 58 75 64 76
REMARK SMILES IDX 57 77 59 78 60 79 61 80 62 81 39 82 40 83 48 84 41 85 43 86
REMARK SMILES IDX 49 87 42 88 44 89 45 90 46 91 47 92
REMARK H PARENT 5 6 10 26 69 45 37 56
REMARK Flexibility Score: inf
ROOT
ATOM      1  C   UNL A   1      31.626  28.617  25.284  1.00  0.00     0.023 C 
ENDROOT
BRANCH   1   2
ATOM      2  C   UNL A   1      32.192  27.701  26.375  1.00  0.00     0.116 C 
BRANCH   2   3
ATOM      3  N   UNL A   1      31.195  26.734  26.790  1.00  0.00    -0.356 N 
ATOM      4  C   UNL A   1      30.536  25.797  26.038  1.00  0.00     0.227 C 
ATOM      5  O   UNL A   1      29.456  25.388  26.468  1.00  0.00    -0.274 OA
ATOM      6  H   UNL A   1      30.958  26.752  27.746  1.00  0.00     0.163 HD
BRANCH   4   7
ATOM      7  C   UNL A   1      31.149  25.334  24.703  1.00  0.00     0.108 C 
ATOM      8  C   UNL A   1      30.030  25.358  23.648  1.00  0.00     0.023 C 
BRANCH   7   9
ATOM      9  C   UNL A   1      31.841  23.967  24.763  1.00  0.00    -0.000 A 
ATOM     10  C   UNL A   1      31.194  22.852  25.320  1.00  0.00     0.008 A 
ATOM     11  C   UNL A   1      33.123  23.752  24.240  1.00  0.00     0.127 A 
ATOM     12  C   UNL A   1      31.848  21.627  25.465  1.00  0.00     0.004 A 
ATOM     13  C   UNL A   1      33.803  22.544  24.429  1.00  0.00     0.043 A 
ATOM     14  F   UNL A   1      33.731  24.705  23.521  1.00  0.00    -0.207 F 
ATOM     15  C   UNL A   1      33.184  21.475  25.084  1.00  0.00    -0.040 A 
BRANCH  15  16
ATOM     16  C   UNL A   1      33.917  20.179  25.354  1.00  0.00     0.082 C 
BRANCH  16  17
ATOM     17  C   UNL A   1      33.588  19.065  24.386  1.00  0.00     0.009 A 
ATOM     18  C   UNL A   1      32.603  19.009  23.414  1.00  0.00     0.016 A 
ATOM     19  S   UNL A   1      34.544  17.637  24.365  1.00  0.00    -0.149 S 
ATOM     20  C   UNL A   1      32.622  17.793  22.673  1.00  0.00     0.012 A 
ATOM     21  C   UNL A   1      33.639  16.961  23.081  1.00  0.00     0.065 A 
ENDBRANCH  16  17
ENDBRANCH  15  16
ENDBRANCH   7   9
ENDBRANCH   4   7
ENDBRANCH   2   3
ENDBRANCH   1   2
BRANCH   1  22
ATOM     22  C   UNL A   1      31.710  30.114  25.596  1.00  0.00     0.023 C 
BRANCH  22  23
ATOM     23  C   UNL A   1      32.748  30.495  26.641  1.00  0.00     0.116 C 
BRANCH  23  24
ATOM     24  N   UNL A   1      32.767  31.923  26.914  1.00  0.00    -0.352 N 
ATOM     25  C   UNL A   1      33.660  32.653  27.655  1.00  0.00     0.251 C 
ATOM     26  H   UNL A   1      32.034  32.440  26.507  1.00  0.00     0.163 HD
ATOM     27  O   UNL A   1      33.421  33.836  27.896  1.00  0.00    -0.269 OA
BRANCH  25  28
ATOM     28  C   UNL A   1      34.885  32.018  28.186  1.00  0.00     0.039 A 
ATOM     29  C   UNL A   1      36.067  32.761  28.200  1.00  0.00     0.014 A 
ATOM     30  C   UNL A   1      34.878  30.705  28.665  1.00  0.00     0.014 A 
ATOM     31  C   UNL A   1      37.226  32.206  28.744  1.00  0.00     0.010 A 
ATOM     32  C   UNL A   1      36.014  30.181  29.277  1.00  0.00     0.010 A 
ATOM     33  C   UNL A   1      37.202  30.923  29.319  1.00  0.00    -0.014 A 
BRANCH  33  34
ATOM     34  C   UNL A   1      38.409  30.375  29.989  1.00  0.00     0.031 A 
ATOM     35  C   UNL A   1      38.797  30.824  31.372  1.00  0.00     0.074 A 
ATOM     36  C   UNL A   1      39.186  29.497  29.324  1.00  0.00     0.049 A 
ATOM     37  N   UNL A   1      39.800  30.427  32.114  1.00  0.00    -0.248 NA
ATOM     38  C   UNL A   1      37.968  31.866  32.000  1.00  0.00     0.031 C 
ATOM     39  C   UNL A   1      38.974  29.059  27.941  1.00  0.00     0.029 A 
ATOM     40  N   UNL A   1      40.320  28.828  29.710  1.00  0.00    -0.354 N 
ATOM     41  C   UNL A   1      39.734  31.177  33.281  1.00  0.00     0.074 A 
ATOM     42  C   UNL A   1      38.619  32.087  33.134  1.00  0.00     0.031 C 
ATOM     43  C   UNL A   1      39.936  28.187  27.603  1.00  0.00     0.029 A 
ATOM     44  C   UNL A   1      40.847  28.021  28.730  1.00  0.00     0.049 A 
ATOM     45  H   UNL A   1      40.718  28.917  30.607  1.00  0.00     0.167 HD
ATOM     46  C   UNL A   1      40.506  31.092  34.391  1.00  0.00     0.034 A 
ATOM     47  C   UNL A   1      41.942  27.236  28.735  1.00  0.00     0.034 A 
ATOM     48  C   UNL A   1      41.600  30.169  34.546  1.00  0.00     0.049 A 
ATOM     49  C   UNL A   1      42.753  27.128  29.996  1.00  0.00     0.074 A 
ATOM     50  C   UNL A   1      42.399  29.961  35.656  1.00  0.00     0.029 A 
ATOM     51  N   UNL A   1      42.053  29.305  33.561  1.00  0.00    -0.354 N 
ATOM     52  N   UNL A   1      42.572  27.725  31.149  1.00  0.00    -0.248 NA
ATOM     53  C   UNL A   1      43.896  26.204  29.973  1.00  0.00     0.031 C 
ATOM     54  C   UNL A   1      43.350  28.985  35.335  1.00  0.00     0.029 A 
ATOM     55  C   UNL A   1      43.123  28.565  34.035  1.00  0.00     0.049 A 
ATOM     56  H   UNL A   1      41.670  29.230  32.657  1.00  0.00     0.167 HD
ATOM     57  C   UNL A   1      43.558  27.229  31.994  1.00  0.00     0.074 A 
ATOM     58  C   UNL A   1      44.308  26.254  31.231  1.00  0.00     0.031 C 
ATOM     59  C   UNL A   1      43.834  27.567  33.278  1.00  0.00     0.034 A 
BRANCH  46  60
ATOM     60  C   UNL A   1      40.157  31.978  35.560  1.00  0.00     0.023 A 
ATOM     61  C   UNL A   1      40.884  33.170  35.764  1.00  0.00     0.012 A 
ATOM     62  C   UNL A   1      39.067  31.681  36.403  1.00  0.00     0.148 A 
ATOM     63  C   UNL A   1      40.553  34.038  36.803  1.00  0.00     0.002 A 
ATOM     64  C   UNL A   1      38.715  32.575  37.409  1.00  0.00     0.091 A 
ATOM     65  F   UNL A   1      38.398  30.538  36.205  1.00  0.00    -0.205 F 
ATOM     66  C   UNL A   1      39.461  33.746  37.618  1.00  0.00     0.022 A 
BRANCH  64  67
ATOM     67  S   UNL A   1      37.280  32.337  38.465  1.00  0.00     0.127 S 
ATOM     68  O   UNL A   1      37.191  30.879  38.517  1.00  0.00    -0.237 OA
ATOM     69  O   UNL A   1      37.712  32.965  39.713  1.00  0.00    -0.237 OA
ATOM     70  O   UNL A   1      36.172  33.004  37.796  1.00  0.00    -0.744 OA
ENDBRANCH  64  67
ENDBRANCH  46  60
BRANCH  47  71
ATOM     71  C   UNL A   1      42.305  26.448  27.523  1.00  0.00     0.023 A 
ATOM     72  C   UNL A   1      42.978  27.075  26.457  1.00  0.00     0.012 A 
ATOM     73  C   UNL A   1      41.990  25.079  27.424  1.00  0.00     0.148 A 
ATOM     74  C   UNL A   1      43.291  26.365  25.297  1.00  0.00     0.002 A 
ATOM     75  C   UNL A   1      42.360  24.363  26.292  1.00  0.00     0.091 A 
ATOM     76  F   UNL A   1      41.338  24.502  28.443  1.00  0.00    -0.205 F 
ATOM     77  C   UNL A   1      42.992  25.008  25.219  1.00  0.00     0.022 A 
BRANCH  75  78
ATOM     78  S   UNL A   1      42.138  22.586  26.172  1.00  0.00     0.127 S 
ATOM     79  O   UNL A   1      42.832  22.115  27.367  1.00  0.00    -0.237 OA
ATOM     80  O   UNL A   1      40.681  22.458  26.215  1.00  0.00    -0.237 OA
ATOM     81  O   UNL A   1      42.732  22.204  24.898  1.00  0.00    -0.744 OA
ENDBRANCH  75  78
ENDBRANCH  47  71
BRANCH  59  82
ATOM     82  C   UNL A   1      44.984  26.855  33.947  1.00  0.00     0.023 A 
ATOM     83  C   UNL A   1      46.275  27.420  33.906  1.00  0.00     0.012 A 
ATOM     84  C   UNL A   1      44.780  25.647  34.641  1.00  0.00     0.148 A 
ATOM     85  C   UNL A   1      47.354  26.767  34.501  1.00  0.00     0.002 A 
ATOM     86  C   UNL A   1      45.850  25.029  35.277  1.00  0.00     0.091 A 
ATOM     87  F   UNL A   1      43.549  25.114  34.654  1.00  0.00    -0.205 F 
ATOM     88  C   UNL A   1      47.140  25.578  35.194  1.00  0.00     0.022 A 
BRANCH  86  89
ATOM     89  S   UNL A   1      45.650  23.546  36.271  1.00  0.00     0.127 S 
ATOM     90  O   UNL A   1      45.299  24.106  37.575  1.00  0.00    -0.237 OA
ATOM     91  O   UNL A   1      44.554  22.858  35.588  1.00  0.00    -0.237 OA
ATOM     92  O   UNL A   1      46.929  22.850  36.211  1.00  0.00    -0.744 OA
ENDBRANCH  86  89
ENDBRANCH  59  82
ENDBRANCH  33  34
ENDBRANCH  25  28
ENDBRANCH  23  24
ENDBRANCH  22  23
ENDBRANCH   1  22
TORSDOF 17
ENDMDL
MODEL 2
REMARK VINA RESULT:     -12.0      5.410     10.643
REMARK SMILES C[C@@H](C(=O)NCCCCNC(=O)c1ccc(-c2c3nc(c(-c4cccc(S(=O)(=O)[O-])c4F)c4ccc([nH]4)c(-c4cccc(S(=O)(=O)[O-])c4F)c4nc(c(-c5cccc(S(=O)(=O)[O-])c5F)c5ccc2[nH]5)C=C4)C=C3)cc1)c1ccc(Cc2cccs2)cc1F
REMARK SMILES IDX 7 1 6 2 5 3 3 4 4 5 2 7 1 8 76 9 77 10 87 11 78 12 86 13
REMARK SMILES IDX 88 14 79 15 80 16 81 17 82 18 85 19 83 20 84 21 8 22 9 23
REMARK SMILES IDX 10 24 11 25 12 27 13 28 14 29 75 30 15 31 74 32 16 33 17 34
REMARK SMILES IDX 18 35 68 36 19 37 73 38 67 39 69 40 20 41 72 42 66 43 65 44
REMARK SMILES IDX 21 46 53 47 33 48 52 49 34 50 37 51 51 52 70 53 35 54 36 55
REMARK SMILES IDX 50 57 71 58 38 59 22 60 23 61 31 62 24 63 26 64 32 65 25 66
REMARK SMILES IDX 27 67 28 68 29 69 30 70 54 71 55 72 63 73 56 74 58 75 64 76
REMARK SMILES IDX 57 77 59 78 60 79 61 80 62 81 39 82 40 83 48 84 41 85 43 86
REMARK SMILES IDX 49 87 42 88 44 89 45 90 46 91 47 92
REMARK H PARENT 5 6 10 26 69 45 37 56
REMARK Flexibility Score: inf
ROOT
ATOM      1  C   UNL A   1      35.592  20.610  25.292  1.00  0.00     0.023 C 
ENDROOT
BRANCH   1   2
ATOM      2  C   UNL A   1      34.116  20.594  24.877  1.00  0.00     0.116 C 
BRANCH   2   3
ATOM      3  N   UNL A   1      33.284  21.105  25.948  1.00  0.00    -0.356 N 
ATOM      4  C   UNL A   1      33.030  22.406  26.297  1.00  0.00     0.227 C 
ATOM      5  O   UNL A   1      32.667  22.617  27.455  1.00  0.00    -0.274 OA
ATOM      6  H   UNL A   1      32.839  20.424  26.503  1.00  0.00     0.163 HD
BRANCH   4   7
ATOM      7  C   UNL A   1      33.235  23.521  25.254  1.00  0.00     0.108 C 
ATOM      8  C   UNL A   1      34.345  24.447  25.781  1.00  0.00     0.023 C 
BRANCH   7   9
ATOM      9  C   UNL A   1      31.964  24.303  24.904  1.00  0.00    -0.000 A 
ATOM     10  C   UNL A   1      31.263  24.050  23.713  1.00  0.00     0.008 A 
ATOM     11  C   UNL A   1      31.420  25.271  25.758  1.00  0.00     0.127 A 
ATOM     12  C   UNL A   1      30.160  24.819  23.339  1.00  0.00     0.004 A 
ATOM     13  C   UNL A   1      30.347  26.080  25.367  1.00  0.00     0.043 A 
ATOM     14  F   UNL A   1      31.908  25.437  26.994  1.00  0.00    -0.207 F 
ATOM     15  C   UNL A   1      29.728  25.889  24.127  1.00  0.00    -0.040 A 
BRANCH  15  16
ATOM     16  C   UNL A   1      28.605  26.788  23.656  1.00  0.00     0.082 C 
BRANCH  16  17
ATOM     17  C   UNL A   1      29.065  28.095  23.052  1.00  0.00     0.009 A 
ATOM     18  C   UNL A   1      30.284  28.415  22.474  1.00  0.00     0.016 A 
ATOM     19  S   UNL A   1      27.986  29.429  22.970  1.00  0.00    -0.149 S 
ATOM     20  C   UNL A   1      30.334  29.751  21.987  1.00  0.00     0.012 A 
ATOM     21  C   UNL A   1      29.143  30.411  22.182  1.00  0.00     0.065 A 
ENDBRANCH  16  17
ENDBRANCH  15  16
ENDBRANCH   7   9
ENDBRANCH   4   7
ENDBRANCH   2   3
ENDBRANCH   1   2
BRANCH   1  22
ATOM     22  C   UNL A   1      36.483  21.534  24.458  1.00  0.00     0.023 C 
BRANCH  22  23
ATOM     23  C   UNL A   1      37.644  22.161  25.215  1.00  0.00     0.116 C 
BRANCH  23  24
ATOM     24  N   UNL A   1      38.575  21.170  25.731  1.00  0.00    -0.352 N 
ATOM     25  C   UNL A   1      39.748  21.355  26.414  1.00  0.00     0.251 C 
ATOM     26  H   UNL A   1      38.326  20.232  25.567  1.00  0.00     0.163 HD
ATOM     27  O   UNL A   1      40.477  20.388  26.637  1.00  0.00    -0.269 OA
BRANCH  25  28
ATOM     28  C   UNL A   1      40.150  22.707  26.856  1.00  0.00     0.039 A 
ATOM     29  C   UNL A   1      41.037  22.822  27.929  1.00  0.00     0.014 A 
ATOM     30  C   UNL A   1      39.662  23.856  26.226  1.00  0.00     0.014 A 
ATOM     31  C   UNL A   1      41.475  24.083  28.333  1.00  0.00     0.010 A 
ATOM     32  C   UNL A   1      40.160  25.108  26.580  1.00  0.00     0.010 A 
ATOM     33  C   UNL A   1      41.067  25.237  27.640  1.00  0.00    -0.014 A 
BRANCH  33  34
ATOM     34  C   UNL A   1      41.615  26.568  28.006  1.00  0.00     0.031 A 
ATOM     35  C   UNL A   1      43.042  26.930  27.696  1.00  0.00     0.074 A 
ATOM     36  C   UNL A   1      40.826  27.443  28.663  1.00  0.00     0.049 A 
ATOM     37  N   UNL A   1      43.672  28.056  27.918  1.00  0.00    -0.248 NA
ATOM     38  C   UNL A   1      43.881  25.891  27.075  1.00  0.00     0.031 C 
ATOM     39  C   UNL A   1      39.456  27.175  29.110  1.00  0.00     0.029 A 
ATOM     40  N   UNL A   1      41.066  28.725  29.087  1.00  0.00    -0.354 N 
ATOM     41  C   UNL A   1      44.976  27.858  27.484  1.00  0.00     0.074 A 
ATOM     42  C   UNL A   1      45.063  26.489  27.025  1.00  0.00     0.031 C 
ATOM     43  C   UNL A   1      38.975  28.262  29.732  1.00  0.00     0.029 A 
ATOM     44  C   UNL A   1      40.006  29.294  29.752  1.00  0.00     0.049 A 
ATOM     45  H   UNL A   1      41.918  29.194  28.930  1.00  0.00     0.167 HD
ATOM     46  C   UNL A   1      45.999  28.744  27.435  1.00  0.00     0.034 A 
ATOM     47  C   UNL A   1      39.876  30.511  30.315  1.00  0.00     0.034 A 
ATOM     48  C   UNL A   1      45.903  30.113  27.869  1.00  0.00     0.049 A 
ATOM     49  C   UNL A   1      41.013  31.489  30.206  1.00  0.00     0.074 A 
ATOM     50  C   UNL A   1      46.864  31.107  27.798  1.00  0.00     0.029 A 
ATOM     51  N   UNL A   1      44.785  30.681  28.459  1.00  0.00    -0.354 N 
ATOM     52  N   UNL A   1      42.185  31.333  29.639  1.00  0.00    -0.248 NA
ATOM     53  C   UNL A   1      40.795  32.827  30.775  1.00  0.00     0.031 C 
ATOM     54  C   UNL A   1      46.333  32.271  28.365  1.00  0.00     0.029 A 
ATOM     55  C   UNL A   1      45.032  32.010  28.762  1.00  0.00     0.049 A 
ATOM     56  H   UNL A   1      43.940  30.209  28.638  1.00  0.00     0.167 HD
ATOM     57  C   UNL A   1      42.831  32.558  29.757  1.00  0.00     0.074 A 
ATOM     58  C   UNL A   1      41.904  33.456  30.416  1.00  0.00     0.031 C 
ATOM     59  C   UNL A   1      44.086  32.904  29.379  1.00  0.00     0.034 A 
BRANCH  46  60
ATOM     60  C   UNL A   1      47.301  28.282  26.829  1.00  0.00     0.023 A 
ATOM     61  C   UNL A   1      48.374  27.942  27.679  1.00  0.00     0.012 A 
ATOM     62  C   UNL A   1      47.439  28.106  25.438  1.00  0.00     0.148 A 
ATOM     63  C   UNL A   1      49.573  27.461  27.155  1.00  0.00     0.002 A 
ATOM     64  C   UNL A   1      48.622  27.584  24.927  1.00  0.00     0.091 A 
ATOM     65  F   UNL A   1      46.415  28.450  24.645  1.00  0.00    -0.205 F 
ATOM     66  C   UNL A   1      49.693  27.271  25.781  1.00  0.00     0.022 A 
BRANCH  64  67
ATOM     67  S   UNL A   1      48.855  27.224  23.181  1.00  0.00     0.127 S 
ATOM     68  O   UNL A   1      50.312  27.222  23.072  1.00  0.00    -0.237 OA
ATOM     69  O   UNL A   1      48.232  25.907  23.055  1.00  0.00    -0.237 OA
ATOM     70  O   UNL A   1      48.180  28.292  22.456  1.00  0.00    -0.744 OA
ENDBRANCH  64  67
ENDBRANCH  46  60
BRANCH  47  71
ATOM     71  C   UNL A   1      38.602  30.893  30.988  1.00  0.00     0.023 A 
ATOM     72  C   UNL A   1      38.424  30.618  32.358  1.00  0.00     0.012 A 
ATOM     73  C   UNL A   1      37.567  31.533  30.278  1.00  0.00     0.148 A 
ATOM     74  C   UNL A   1      37.224  30.931  32.997  1.00  0.00     0.002 A 
ATOM     75  C   UNL A   1      36.399  31.898  30.935  1.00  0.00     0.091 A 
ATOM     76  F   UNL A   1      37.749  31.776  28.972  1.00  0.00    -0.205 F 
ATOM     77  C   UNL A   1      36.216  31.580  32.289  1.00  0.00     0.022 A 
BRANCH  75  78
ATOM     78  S   UNL A   1      35.113  32.860  30.132  1.00  0.00     0.127 S 
ATOM     79  O   UNL A   1      35.867  34.003  29.624  1.00  0.00    -0.237 OA
ATOM     80  O   UNL A   1      34.635  31.932  29.107  1.00  0.00    -0.237 OA
ATOM     81  O   UNL A   1      34.137  33.152  31.173  1.00  0.00    -0.744 OA
ENDBRANCH  75  78
ENDBRANCH  47  71
BRANCH  59  82
ATOM     82  C   UNL A   1      44.521  34.323  29.646  1.00  0.00     0.023 A 
ATOM     83  C   UNL A   1      45.055  34.667  30.905  1.00  0.00     0.012 A 
ATOM     84  C   UNL A   1      44.432  35.307  28.642  1.00  0.00     0.148 A 
ATOM     85  C   UNL A   1      45.444  35.978  31.176  1.00  0.00     0.002 A 
ATOM     86  C   UNL A   1      44.871  36.599  28.903  1.00  0.00     0.091 A 
ATOM     87  F   UNL A   1      43.904  34.967  27.456  1.00  0.00    -0.205 F 
ATOM     88  C   UNL A   1      45.361  36.941  30.174  1.00  0.00     0.022 A 
BRANCH  86  89
ATOM     89  S   UNL A   1      44.890  37.880  27.644  1.00  0.00     0.127 S 
ATOM     90  O   UNL A   1      45.802  37.311  26.653  1.00  0.00    -0.237 OA
ATOM     91  O   UNL A   1      43.489  37.927  27.225  1.00  0.00    -0.237 OA
ATOM     92  O   UNL A   1      45.360  39.088  28.310  1.00  0.00    -0.744 OA
ENDBRANCH  86  89
ENDBRANCH  59  82
ENDBRANCH  33  34
ENDBRANCH  25  28
ENDBRANCH  23  24
ENDBRANCH  22  23
ENDBRANCH   1  22
TORSDOF 17
ENDMDL
MODEL 3
REMARK VINA RESULT:     -11.9      2.533      8.239
REMARK SMILES C[C@@H](C(=O)NCCCCNC(=O)c1ccc(-c2c3nc(c(-c4cccc(S(=O)(=O)[O-])c4F)c4ccc([nH]4)c(-c4cccc(S(=O)(=O)[O-])c4F)c4nc(c(-c5cccc(S(=O)(=O)[O-])c5F)c5ccc2[nH]5)C=C4)C=C3)cc1)c1ccc(Cc2cccs2)cc1F
REMARK SMILES IDX 7 1 6 2 5 3 3 4 4 5 2 7 1 8 76 9 77 10 87 11 78 12 86 13
REMARK SMILES IDX 88 14 79 15 80 16 81 17 82 18 85 19 83 20 84 21 8 22 9 23
REMARK SMILES IDX 10 24 11 25 12 27 13 28 14 29 75 30 15 31 74 32 16 33 17 34
REMARK SMILES IDX 18 35 68 36 19 37 73 38 67 39 69 40 20 41 72 42 66 43 65 44
REMARK SMILES IDX 21 46 53 47 33 48 52 49 34 50 37 51 51 52 70 53 35 54 36 55
REMARK SMILES IDX 50 57 71 58 38 59 22 60 23 61 31 62 24 63 26 64 32 65 25 66
REMARK SMILES IDX 27 67 28 68 29 69 30 70 54 71 55 72 63 73 56 74 58 75 64 76
REMARK SMILES IDX 57 77 59 78 60 79 61 80 62 81 39 82 40 83 48 84 41 85 43 86
REMARK SMILES IDX 49 87 42 88 44 89 45 90 46 91 47 92
REMARK H PARENT 5 6 10 26 69 45 37 56
REMARK Flexibility Score: inf
ROOT
ATOM      1  C   UNL A   1      31.549  30.788  25.656  1.00  0.00     0.023 C 
ENDROOT
BRANCH   1   2
ATOM      2  C   UNL A   1      31.447  29.262  25.753  1.00  0.00     0.116 C 
BRANCH   2   3
ATOM      3  N   UNL A   1      31.027  28.701  24.483  1.00  0.00    -0.356 N 
ATOM      4  C   UNL A   1      31.790  28.355  23.399  1.00  0.00     0.227 C 
ATOM      5  O   UNL A   1      31.227  28.311  22.305  1.00  0.00    -0.274 OA
ATOM      6  H   UNL A   1      30.059  28.548  24.386  1.00  0.00     0.163 HD
BRANCH   4   7
ATOM      7  C   UNL A   1      33.293  28.073  23.593  1.00  0.00     0.108 C 
ATOM      8  C   UNL A   1      34.015  28.521  22.310  1.00  0.00     0.023 C 
BRANCH   7   9
ATOM      9  C   UNL A   1      33.625  26.621  23.952  1.00  0.00    -0.000 A 
ATOM     10  C   UNL A   1      33.674  25.623  22.965  1.00  0.00     0.008 A 
ATOM     11  C   UNL A   1      33.929  26.223  25.261  1.00  0.00     0.127 A 
ATOM     12  C   UNL A   1      33.882  24.283  23.293  1.00  0.00     0.004 A 
ATOM     13  C   UNL A   1      34.087  24.876  25.604  1.00  0.00     0.043 A 
ATOM     14  F   UNL A   1      34.097  27.137  26.226  1.00  0.00    -0.207 F 
ATOM     15  C   UNL A   1      34.024  23.881  24.624  1.00  0.00    -0.040 A 
BRANCH  15  16
ATOM     16  C   UNL A   1      34.132  22.413  24.976  1.00  0.00     0.082 C 
BRANCH  16  17
ATOM     17  C   UNL A   1      35.545  21.874  24.972  1.00  0.00     0.009 A 
ATOM     18  C   UNL A   1      36.747  22.563  24.973  1.00  0.00     0.016 A 
ATOM     19  S   UNL A   1      35.817  20.179  25.028  1.00  0.00    -0.149 S 
ATOM     20  C   UNL A   1      37.880  21.702  24.998  1.00  0.00     0.012 A 
ATOM     21  C   UNL A   1      37.515  20.377  25.043  1.00  0.00     0.065 A 
ENDBRANCH  16  17
ENDBRANCH  15  16
ENDBRANCH   7   9
ENDBRANCH   4   7
ENDBRANCH   2   3
ENDBRANCH   1   2
BRANCH   1  22
ATOM     22  C   UNL A   1      31.677  31.509  27.001  1.00  0.00     0.023 C 
BRANCH  22  23
ATOM     23  C   UNL A   1      32.932  32.356  27.158  1.00  0.00     0.116 C 
BRANCH  23  24
ATOM     24  N   UNL A   1      32.634  33.734  27.513  1.00  0.00    -0.352 N 
ATOM     25  C   UNL A   1      33.174  34.511  28.504  1.00  0.00     0.251 C 
ATOM     26  H   UNL A   1      31.946  34.172  26.961  1.00  0.00     0.163 HD
ATOM     27  O   UNL A   1      32.681  35.613  28.746  1.00  0.00    -0.269 OA
BRANCH  25  28
ATOM     28  C   UNL A   1      34.321  34.019  29.297  1.00  0.00     0.039 A 
ATOM     29  C   UNL A   1      34.064  33.261  30.442  1.00  0.00     0.014 A 
ATOM     30  C   UNL A   1      35.639  34.298  28.924  1.00  0.00     0.014 A 
ATOM     31  C   UNL A   1      35.127  32.740  31.179  1.00  0.00     0.010 A 
ATOM     32  C   UNL A   1      36.697  33.712  29.616  1.00  0.00     0.010 A 
ATOM     33  C   UNL A   1      36.454  32.932  30.753  1.00  0.00    -0.014 A 
BRANCH  33  34
ATOM     34  C   UNL A   1      37.578  32.289  31.481  1.00  0.00     0.031 A 
ATOM     35  C   UNL A   1      38.341  31.144  30.872  1.00  0.00     0.074 A 
ATOM     36  C   UNL A   1      37.884  32.717  32.723  1.00  0.00     0.049 A 
ATOM     37  N   UNL A   1      39.366  30.490  31.355  1.00  0.00    -0.248 NA
ATOM     38  C   UNL A   1      37.886  30.654  29.559  1.00  0.00     0.031 C 
ATOM     39  C   UNL A   1      37.156  33.751  33.464  1.00  0.00     0.029 A 
ATOM     40  N   UNL A   1      38.873  32.325  33.589  1.00  0.00    -0.354 N 
ATOM     41  C   UNL A   1      39.667  29.506  30.422  1.00  0.00     0.074 A 
ATOM     42  C   UNL A   1      38.689  29.618  29.362  1.00  0.00     0.031 C 
ATOM     43  C   UNL A   1      37.732  33.920  34.664  1.00  0.00     0.029 A 
ATOM     44  C   UNL A   1      38.851  32.992  34.791  1.00  0.00     0.049 A 
ATOM     45  H   UNL A   1      39.538  31.632  33.370  1.00  0.00     0.167 HD
ATOM     46  C   UNL A   1      40.687  28.614  30.426  1.00  0.00     0.034 A 
ATOM     47  C   UNL A   1      39.641  32.871  35.875  1.00  0.00     0.034 A 
ATOM     48  C   UNL A   1      41.674  28.521  31.469  1.00  0.00     0.049 A 
ATOM     49  C   UNL A   1      40.792  31.905  35.833  1.00  0.00     0.074 A 
ATOM     50  C   UNL A   1      42.783  27.696  31.532  1.00  0.00     0.029 A 
ATOM     51  N   UNL A   1      41.669  29.272  32.634  1.00  0.00    -0.354 N 
ATOM     52  N   UNL A   1      41.158  31.098  34.866  1.00  0.00    -0.248 NA
ATOM     53  C   UNL A   1      41.666  31.862  37.014  1.00  0.00     0.031 C 
ATOM     54  C   UNL A   1      43.438  27.933  32.746  1.00  0.00     0.029 A 
ATOM     55  C   UNL A   1      42.753  28.927  33.425  1.00  0.00     0.049 A 
ATOM     56  H   UNL A   1      40.994  29.949  32.866  1.00  0.00     0.167 HD
ATOM     57  C   UNL A   1      42.319  30.475  35.310  1.00  0.00     0.074 A 
ATOM     58  C   UNL A   1      42.614  31.026  36.616  1.00  0.00     0.031 C 
ATOM     59  C   UNL A   1      43.060  29.515  34.704  1.00  0.00     0.034 A 
BRANCH  46  60
ATOM     60  C   UNL A   1      40.831  27.705  29.231  1.00  0.00     0.023 A 
ATOM     61  C   UNL A   1      40.041  26.539  29.152  1.00  0.00     0.012 A 
ATOM     62  C   UNL A   1      41.678  28.039  28.155  1.00  0.00     0.148 A 
ATOM     63  C   UNL A   1      40.110  25.705  28.038  1.00  0.00     0.002 A 
ATOM     64  C   UNL A   1      41.708  27.226  27.027  1.00  0.00     0.091 A 
ATOM     65  F   UNL A   1      42.433  29.142  28.254  1.00  0.00    -0.205 F 
ATOM     66  C   UNL A   1      40.934  26.055  26.971  1.00  0.00     0.022 A 
BRANCH  64  67
ATOM     67  S   UNL A   1      42.673  27.624  25.564  1.00  0.00     0.127 S 
ATOM     68  O   UNL A   1      42.058  28.880  25.139  1.00  0.00    -0.237 OA
ATOM     69  O   UNL A   1      44.020  27.762  26.116  1.00  0.00    -0.237 OA
ATOM     70  O   UNL A   1      42.498  26.505  24.649  1.00  0.00    -0.744 OA
ENDBRANCH  64  67
ENDBRANCH  46  60
BRANCH  47  71
ATOM     71  C   UNL A   1      39.404  33.725  37.074  1.00  0.00     0.023 A 
ATOM     72  C   UNL A   1      39.845  35.063  37.079  1.00  0.00     0.012 A 
ATOM     73  C   UNL A   1      38.739  33.219  38.208  1.00  0.00     0.148 A 
ATOM     74  C   UNL A   1      39.668  35.866  38.206  1.00  0.00     0.002 A 
ATOM     75  C   UNL A   1      38.510  34.043  39.303  1.00  0.00     0.091 A 
ATOM     76  F   UNL A   1      38.338  31.940  38.190  1.00  0.00    -0.205 F 
ATOM     77  C   UNL A   1      38.992  35.361  39.313  1.00  0.00     0.022 A 
BRANCH  75  78
ATOM     78  S   UNL A   1      37.527  33.513  40.708  1.00  0.00     0.127 S 
ATOM     79  O   UNL A   1      38.394  32.508  41.318  1.00  0.00    -0.237 OA
ATOM     80  O   UNL A   1      37.394  34.755  41.471  1.00  0.00    -0.237 OA
ATOM     81  O   UNL A   1      36.277  33.022  40.146  1.00  0.00    -0.744 OA
ENDBRANCH  75  78
ENDBRANCH  47  71
BRANCH  59  82
ATOM     82  C   UNL A   1      44.279  29.017  35.439  1.00  0.00     0.023 A 
ATOM     83  C   UNL A   1      45.523  29.650  35.238  1.00  0.00     0.012 A 
ATOM     84  C   UNL A   1      44.188  27.947  36.349  1.00  0.00     0.148 A 
ATOM     85  C   UNL A   1      46.666  29.192  35.893  1.00  0.00     0.002 A 
ATOM     86  C   UNL A   1      45.320  27.530  37.038  1.00  0.00     0.091 A 
ATOM     87  F   UNL A   1      43.001  27.345  36.514  1.00  0.00    -0.205 F 
ATOM     88  C   UNL A   1      46.563  28.139  36.799  1.00  0.00     0.022 A 
BRANCH  86  89
ATOM     89  S   UNL A   1      45.263  26.246  38.293  1.00  0.00     0.127 S 
ATOM     90  O   UNL A   1      46.609  26.322  38.860  1.00  0.00    -0.237 OA
ATOM     91  O   UNL A   1      44.201  26.723  39.179  1.00  0.00    -0.237 OA
ATOM     92  O   UNL A   1      44.949  25.011  37.587  1.00  0.00    -0.744 OA
ENDBRANCH  86  89
ENDBRANCH  59  82
ENDBRANCH  33  34
ENDBRANCH  25  28
ENDBRANCH  23  24
ENDBRANCH  22  23
ENDBRANCH   1  22
TORSDOF 17
ENDMDL
