MODEL 1
REMARK VINA RESULT:     -12.9      0.000      0.000
REMARK SMILES CC1(C)S[C@@H]2[C@H]([NH2+]Cn3nnc4ccccc43)C(=O)N2[C@@H]1C(=O)NCCCCNC(=O)c1ccc(-c2c3nc(c(-c4cccc(S(=O)(=O)[O-])c4F)c4ccc([nH]4)c(-c4cccc(S(=O)(=O)[O-])c4F)c4nc(c(-c5cccc(S(=O)(=O)[O-])c5F)c5ccc2[nH]5)C=C4)C=C3)cc1
REMARK SMILES IDX 26 1 25 2 24 3 22 4 23 5 21 7 1 8 2 9 3 10 4 11 5 12 20 13
REMARK SMILES IDX 6 14 18 15 19 16 7 17 8 20 9 21 10 22 17 23 11 24 12 25
REMARK SMILES IDX 16 26 13 27 15 28 14 29 27 30 28 31 29 32 30 33 31 35 32 36
REMARK SMILES IDX 33 37 94 38 34 39 93 40 35 41 36 42 37 43 87 44 38 45 92 46
REMARK SMILES IDX 86 47 88 48 39 49 91 50 85 51 84 52 40 54 72 55 52 56 71 57
REMARK SMILES IDX 53 58 56 59 70 60 89 61 54 62 55 63 69 65 90 66 57 67 41 68
REMARK SMILES IDX 42 69 50 70 43 71 45 72 51 73 44 74 46 75 47 76 48 77 49 78
REMARK SMILES IDX 73 79 74 80 82 81 75 82 77 83 83 84 76 85 78 86 79 87 80 88
REMARK SMILES IDX 81 89 58 90 59 91 67 92 60 93 62 94 68 95 61 96 63 97 64 98
REMARK SMILES IDX 65 99 66 100
REMARK H PARENT 24 6 7 18 7 19 29 34 88 53 56 64
REMARK Flexibility Score: inf
ROOT
ATOM      1  C   UNL A   1      35.400  24.408  25.101  1.00  0.00     0.023 C 
ENDROOT
BRANCH   1   2
ATOM      2  C   UNL A   1      34.000  24.514  24.508  1.00  0.00     0.116 C 
BRANCH   2   3
ATOM      3  N   UNL A   1      33.973  24.792  23.087  1.00  0.00    -0.354 N 
ATOM      4  C   UNL A   1      33.279  25.739  22.389  1.00  0.00     0.244 C 
ATOM      5  O   UNL A   1      33.700  26.013  21.257  1.00  0.00    -0.273 OA
ATOM      6  H   UNL A   1      34.545  24.207  22.539  1.00  0.00     0.163 HD
BRANCH   4   7
ATOM      7  C   UNL A   1      32.127  26.588  22.986  1.00  0.00     0.191 C 
ATOM      8  C   UNL A   1      34.089  28.068  23.912  1.00  0.00     0.026 C 
ATOM      9  C   UNL A   1      32.575  27.884  23.742  1.00  0.00     0.042 C 
ATOM     10  C   UNL A   1      31.991  29.156  23.111  1.00  0.00     0.026 C 
ATOM     11  S   UNL A   1      31.761  27.836  25.449  1.00  0.00    -0.121 SA
ATOM     12  C   UNL A   1      30.529  26.609  24.934  1.00  0.00     0.213 C 
ATOM     13  N   UNL A   1      31.295  25.892  23.936  1.00  0.00    -0.306 N 
ATOM     14  C   UNL A   1      30.163  25.202  25.526  1.00  0.00     0.307 C 
ATOM     15  C   UNL A   1      30.666  24.721  24.080  1.00  0.00     0.285 C 
ATOM     16  O   UNL A   1      30.651  23.740  23.376  1.00  0.00    -0.268 OA
BRANCH  14  17
ATOM     17  N   UNL A   1      30.896  24.604  26.676  1.00  0.00    -0.315 N 
ATOM     18  H   UNL A   1      30.589  25.080  27.524  1.00  0.00     0.348 HD
ATOM     19  H   UNL A   1      31.887  24.725  26.467  1.00  0.00     0.348 HD
BRANCH  17  20
ATOM     20  C   UNL A   1      30.710  23.185  26.874  1.00  0.00     0.415 C 
BRANCH  20  21
ATOM     21  N   UNL A   1      31.939  22.405  26.998  1.00  0.00    -0.194 N 
ATOM     22  N   UNL A   1      32.815  22.549  28.002  1.00  0.00    -0.061 NA
ATOM     23  C   UNL A   1      32.417  21.572  26.009  1.00  0.00     0.095 A 
ATOM     24  N   UNL A   1      33.890  21.827  27.693  1.00  0.00    -0.130 NA
ATOM     25  C   UNL A   1      33.678  21.231  26.475  1.00  0.00     0.113 A 
ATOM     26  C   UNL A   1      31.885  21.099  24.800  1.00  0.00     0.030 A 
ATOM     27  C   UNL A   1      34.477  20.377  25.701  1.00  0.00     0.032 A 
ATOM     28  C   UNL A   1      32.678  20.217  24.063  1.00  0.00     0.002 A 
ATOM     29  C   UNL A   1      33.953  19.861  24.503  1.00  0.00     0.002 A 
ENDBRANCH  20  21
ENDBRANCH  17  20
ENDBRANCH  14  17
ENDBRANCH   4   7
ENDBRANCH   2   3
ENDBRANCH   1   2
BRANCH   1  30
ATOM     30  C   UNL A   1      36.284  23.333  24.467  1.00  0.00     0.023 C 
BRANCH  30  31
ATOM     31  C   UNL A   1      37.044  22.457  25.467  1.00  0.00     0.116 C 
BRANCH  31  32
ATOM     32  N   UNL A   1      38.480  22.549  25.334  1.00  0.00    -0.352 N 
ATOM     33  C   UNL A   1      39.306  22.426  26.429  1.00  0.00     0.251 C 
ATOM     34  H   UNL A   1      38.876  22.703  24.446  1.00  0.00     0.163 HD
ATOM     35  O   UNL A   1      39.891  21.387  26.702  1.00  0.00    -0.269 OA
BRANCH  33  36
ATOM     36  C   UNL A   1      39.618  23.686  27.116  1.00  0.00     0.039 A 
ATOM     37  C   UNL A   1      38.862  24.829  26.861  1.00  0.00     0.014 A 
ATOM     38  C   UNL A   1      40.781  23.734  27.900  1.00  0.00     0.014 A 
ATOM     39  C   UNL A   1      39.335  26.044  27.280  1.00  0.00     0.010 A 
ATOM     40  C   UNL A   1      41.244  24.956  28.349  1.00  0.00     0.010 A 
ATOM     41  C   UNL A   1      40.538  26.100  27.994  1.00  0.00    -0.014 A 
BRANCH  41  42
ATOM     42  C   UNL A   1      40.873  27.396  28.538  1.00  0.00     0.031 A 
ATOM     43  C   UNL A   1      42.207  27.848  28.068  1.00  0.00     0.074 A 
ATOM     44  C   UNL A   1      40.079  28.085  29.369  1.00  0.00     0.049 A 
ATOM     45  N   UNL A   1      43.304  27.851  28.752  1.00  0.00    -0.248 NA
ATOM     46  C   UNL A   1      42.394  28.064  26.624  1.00  0.00     0.031 C 
ATOM     47  C   UNL A   1      38.676  27.853  29.705  1.00  0.00     0.029 A 
ATOM     48  N   UNL A   1      40.363  29.245  30.014  1.00  0.00    -0.354 N 
ATOM     49  C   UNL A   1      44.281  28.295  27.872  1.00  0.00     0.074 A 
ATOM     50  C   UNL A   1      43.718  28.205  26.549  1.00  0.00     0.031 C 
ATOM     51  C   UNL A   1      38.172  28.977  30.266  1.00  0.00     0.029 A 
ATOM     52  C   UNL A   1      39.243  29.944  30.441  1.00  0.00     0.049 A 
ATOM     53  H   UNL A   1      41.282  29.562  30.165  1.00  0.00     0.167 HD
ATOM     54  C   UNL A   1      45.381  28.956  28.318  1.00  0.00     0.034 A 
ATOM     55  C   UNL A   1      39.227  31.255  30.793  1.00  0.00     0.034 A 
ATOM     56  C   UNL A   1      45.572  28.787  29.731  1.00  0.00     0.049 A 
ATOM     57  C   UNL A   1      40.625  31.606  31.167  1.00  0.00     0.074 A 
ATOM     58  C   UNL A   1      45.795  27.702  30.554  1.00  0.00     0.029 A 
ATOM     59  N   UNL A   1      45.103  29.797  30.540  1.00  0.00    -0.354 N 
ATOM     60  N   UNL A   1      41.242  31.087  32.193  1.00  0.00    -0.248 NA
ATOM     61  C   UNL A   1      41.488  32.171  30.139  1.00  0.00     0.031 C 
ATOM     62  C   UNL A   1      45.014  27.960  31.717  1.00  0.00     0.029 A 
ATOM     63  C   UNL A   1      44.415  29.213  31.569  1.00  0.00     0.049 A 
ATOM     64  H   UNL A   1      45.238  30.762  30.403  1.00  0.00     0.167 HD
ATOM     65  C   UNL A   1      42.533  30.850  31.736  1.00  0.00     0.074 A 
ATOM     66  C   UNL A   1      42.652  31.626  30.504  1.00  0.00     0.031 C 
ATOM     67  C   UNL A   1      43.277  29.817  32.228  1.00  0.00     0.034 A 
BRANCH  54  68
ATOM     68  C   UNL A   1      46.038  30.068  27.552  1.00  0.00     0.023 A 
ATOM     69  C   UNL A   1      47.442  30.169  27.602  1.00  0.00     0.012 A 
ATOM     70  C   UNL A   1      45.323  31.167  27.022  1.00  0.00     0.148 A 
ATOM     71  C   UNL A   1      48.100  31.320  27.157  1.00  0.00     0.002 A 
ATOM     72  C   UNL A   1      45.983  32.272  26.510  1.00  0.00     0.091 A 
ATOM     73  F   UNL A   1      43.993  31.216  27.142  1.00  0.00    -0.205 F 
ATOM     74  C   UNL A   1      47.372  32.366  26.597  1.00  0.00     0.022 A 
BRANCH  72  75
ATOM     75  S   UNL A   1      45.081  33.631  25.760  1.00  0.00     0.127 S 
ATOM     76  O   UNL A   1      44.296  34.119  26.889  1.00  0.00    -0.237 OA
ATOM     77  O   UNL A   1      46.168  34.511  25.331  1.00  0.00    -0.237 OA
ATOM     78  O   UNL A   1      44.327  33.039  24.662  1.00  0.00    -0.744 OA
ENDBRANCH  72  75
ENDBRANCH  54  68
BRANCH  55  79
ATOM     79  C   UNL A   1      38.201  32.291  30.498  1.00  0.00     0.023 A 
ATOM     80  C   UNL A   1      38.013  32.712  29.163  1.00  0.00     0.012 A 
ATOM     81  C   UNL A   1      37.220  32.664  31.445  1.00  0.00     0.148 A 
ATOM     82  C   UNL A   1      36.868  33.424  28.778  1.00  0.00     0.002 A 
ATOM     83  C   UNL A   1      36.091  33.385  31.061  1.00  0.00     0.091 A 
ATOM     84  F   UNL A   1      37.332  32.232  32.706  1.00  0.00    -0.205 F 
ATOM     85  C   UNL A   1      35.903  33.752  29.724  1.00  0.00     0.022 A 
BRANCH  83  86
ATOM     86  S   UNL A   1      34.806  33.837  32.237  1.00  0.00     0.127 S 
ATOM     87  O   UNL A   1      34.075  34.875  31.508  1.00  0.00    -0.237 OA
ATOM     88  O   UNL A   1      34.084  32.578  32.395  1.00  0.00    -0.237 OA
ATOM     89  O   UNL A   1      35.504  34.321  33.421  1.00  0.00    -0.744 OA
ENDBRANCH  83  86
ENDBRANCH  55  79
BRANCH  67  90
ATOM     90  C   UNL A   1      42.754  29.064  33.424  1.00  0.00     0.023 A 
ATOM     91  C   UNL A   1      41.761  28.068  33.306  1.00  0.00     0.012 A 
ATOM     92  C   UNL A   1      43.463  29.185  34.629  1.00  0.00     0.148 A 
ATOM     93  C   UNL A   1      41.492  27.201  34.369  1.00  0.00     0.002 A 
ATOM     94  C   UNL A   1      43.223  28.296  35.667  1.00  0.00     0.091 A 
ATOM     95  F   UNL A   1      44.414  30.129  34.706  1.00  0.00    -0.205 F 
ATOM     96  C   UNL A   1      42.236  27.303  35.543  1.00  0.00     0.022 A 
BRANCH  94  97
ATOM     97  S   UNL A   1      44.226  28.289  37.154  1.00  0.00     0.127 S 
ATOM     98  O   UNL A   1      43.684  27.143  37.882  1.00  0.00    -0.237 OA
ATOM     99  O   UNL A   1      45.573  28.091  36.616  1.00  0.00    -0.237 OA
ATOM    100  O   UNL A   1      44.018  29.581  37.794  1.00  0.00    -0.744 OA
ENDBRANCH  94  97
ENDBRANCH  67  90
ENDBRANCH  41  42
ENDBRANCH  33  36
ENDBRANCH  31  32
ENDBRANCH  30  31
ENDBRANCH   1  30
TORSDOF 17
ENDMDL
MODEL 2
REMARK VINA RESULT:     -12.8      1.350      3.559
REMARK SMILES CC1(C)S[C@@H]2[C@H]([NH2+]Cn3nnc4ccccc43)C(=O)N2[C@@H]1C(=O)NCCCCNC(=O)c1ccc(-c2c3nc(c(-c4cccc(S(=O)(=O)[O-])c4F)c4ccc([nH]4)c(-c4cccc(S(=O)(=O)[O-])c4F)c4nc(c(-c5cccc(S(=O)(=O)[O-])c5F)c5ccc2[nH]5)C=C4)C=C3)cc1
REMARK SMILES IDX 26 1 25 2 24 3 22 4 23 5 21 7 1 8 2 9 3 10 4 11 5 12 20 13
REMARK SMILES IDX 6 14 18 15 19 16 7 17 8 20 9 21 10 22 17 23 11 24 12 25
REMARK SMILES IDX 16 26 13 27 15 28 14 29 27 30 28 31 29 32 30 33 31 35 32 36
REMARK SMILES IDX 33 37 94 38 34 39 93 40 35 41 36 42 37 43 87 44 38 45 92 46
REMARK SMILES IDX 86 47 88 48 39 49 91 50 85 51 84 52 40 54 72 55 52 56 71 57
REMARK SMILES IDX 53 58 56 59 70 60 89 61 54 62 55 63 69 65 90 66 57 67 41 68
REMARK SMILES IDX 42 69 50 70 43 71 45 72 51 73 44 74 46 75 47 76 48 77 49 78
REMARK SMILES IDX 73 79 74 80 82 81 75 82 77 83 83 84 76 85 78 86 79 87 80 88
REMARK SMILES IDX 81 89 58 90 59 91 67 92 60 93 62 94 68 95 61 96 63 97 64 98
REMARK SMILES IDX 65 99 66 100
REMARK H PARENT 24 6 7 18 7 19 29 34 88 53 56 64
REMARK Flexibility Score: inf
ROOT
ATOM      1  C   UNL A   1      35.346  20.710  25.572  1.00  0.00     0.023 C 
ENDROOT
BRANCH   1   2
ATOM      2  C   UNL A   1      34.517  19.679  24.814  1.00  0.00     0.116 C 
BRANCH   2   3
ATOM      3  N   UNL A   1      33.372  20.230  24.121  1.00  0.00    -0.354 N 
ATOM      4  C   UNL A   1      32.861  21.497  24.133  1.00  0.00     0.244 C 
ATOM      5  O   UNL A   1      32.118  21.806  23.191  1.00  0.00    -0.273 OA
ATOM      6  H   UNL A   1      32.884  19.591  23.552  1.00  0.00     0.163 HD
BRANCH   4   7
ATOM      7  C   UNL A   1      33.286  22.594  25.144  1.00  0.00     0.191 C 
ATOM      8  C   UNL A   1      30.792  22.409  25.947  1.00  0.00     0.026 C 
ATOM      9  C   UNL A   1      32.180  23.024  26.167  1.00  0.00     0.042 C 
ATOM     10  C   UNL A   1      32.606  22.773  27.621  1.00  0.00     0.026 C 
ATOM     11  S   UNL A   1      32.046  24.908  26.075  1.00  0.00    -0.121 SA
ATOM     12  C   UNL A   1      33.665  25.081  25.276  1.00  0.00     0.213 C 
ATOM     13  N   UNL A   1      33.715  23.832  24.545  1.00  0.00    -0.306 N 
ATOM     14  C   UNL A   1      34.083  25.776  23.932  1.00  0.00     0.307 C 
ATOM     15  C   UNL A   1      34.501  24.272  23.556  1.00  0.00     0.285 C 
ATOM     16  O   UNL A   1      35.132  23.670  22.721  1.00  0.00    -0.268 OA
BRANCH  14  17
ATOM     17  N   UNL A   1      33.092  26.400  23.012  1.00  0.00    -0.315 N 
ATOM     18  H   UNL A   1      32.160  26.171  23.355  1.00  0.00     0.348 HD
ATOM     19  H   UNL A   1      33.299  26.025  22.087  1.00  0.00     0.348 HD
BRANCH  17  20
ATOM     20  C   UNL A   1      33.173  27.836  22.878  1.00  0.00     0.415 C 
BRANCH  20  21
ATOM     21  N   UNL A   1      32.364  28.599  23.825  1.00  0.00    -0.194 N 
ATOM     22  N   UNL A   1      31.129  29.047  23.559  1.00  0.00    -0.061 NA
ATOM     23  C   UNL A   1      32.848  29.093  25.017  1.00  0.00     0.095 A 
ATOM     24  N   UNL A   1      30.778  29.851  24.560  1.00  0.00    -0.130 NA
ATOM     25  C   UNL A   1      31.815  29.907  25.457  1.00  0.00     0.113 A 
ATOM     26  C   UNL A   1      34.044  28.909  25.728  1.00  0.00     0.030 A 
ATOM     27  C   UNL A   1      31.965  30.595  26.669  1.00  0.00     0.032 A 
ATOM     28  C   UNL A   1      34.159  29.569  26.953  1.00  0.00     0.002 A 
ATOM     29  C   UNL A   1      33.139  30.399  27.417  1.00  0.00     0.002 A 
ENDBRANCH  20  21
ENDBRANCH  17  20
ENDBRANCH  14  17
ENDBRANCH   4   7
ENDBRANCH   2   3
ENDBRANCH   1   2
BRANCH   1  30
ATOM     30  C   UNL A   1      36.748  20.943  25.009  1.00  0.00     0.023 C 
BRANCH  30  31
ATOM     31  C   UNL A   1      37.323  22.337  25.276  1.00  0.00     0.116 C 
BRANCH  31  32
ATOM     32  N   UNL A   1      38.767  22.358  25.348  1.00  0.00    -0.352 N 
ATOM     33  C   UNL A   1      39.421  22.241  26.554  1.00  0.00     0.251 C 
ATOM     34  H   UNL A   1      39.292  22.458  24.522  1.00  0.00     0.163 HD
ATOM     35  O   UNL A   1      39.909  21.189  26.941  1.00  0.00    -0.269 OA
BRANCH  33  36
ATOM     36  C   UNL A   1      39.696  23.512  27.237  1.00  0.00     0.039 A 
ATOM     37  C   UNL A   1      38.865  24.611  27.032  1.00  0.00     0.014 A 
ATOM     38  C   UNL A   1      40.893  23.620  27.962  1.00  0.00     0.014 A 
ATOM     39  C   UNL A   1      39.290  25.849  27.438  1.00  0.00     0.010 A 
ATOM     40  C   UNL A   1      41.309  24.863  28.400  1.00  0.00     0.010 A 
ATOM     41  C   UNL A   1      40.522  25.967  28.091  1.00  0.00    -0.014 A 
BRANCH  41  42
ATOM     42  C   UNL A   1      40.811  27.277  28.631  1.00  0.00     0.031 A 
ATOM     43  C   UNL A   1      42.105  27.796  28.120  1.00  0.00     0.074 A 
ATOM     44  C   UNL A   1      40.011  27.923  29.491  1.00  0.00     0.049 A 
ATOM     45  N   UNL A   1      43.222  27.850  28.768  1.00  0.00    -0.248 NA
ATOM     46  C   UNL A   1      42.233  28.026  26.672  1.00  0.00     0.031 C 
ATOM     47  C   UNL A   1      38.633  27.621  29.872  1.00  0.00     0.029 A 
ATOM     48  N   UNL A   1      40.259  29.093  30.132  1.00  0.00    -0.354 N 
ATOM     49  C   UNL A   1      44.146  28.345  27.859  1.00  0.00     0.074 A 
ATOM     50  C   UNL A   1      43.545  28.232  26.555  1.00  0.00     0.031 C 
ATOM     51  C   UNL A   1      38.093  28.716  30.455  1.00  0.00     0.029 A 
ATOM     52  C   UNL A   1      39.120  29.734  30.600  1.00  0.00     0.049 A 
ATOM     53  H   UNL A   1      41.166  29.454  30.255  1.00  0.00     0.167 HD
ATOM     54  C   UNL A   1      45.226  29.058  28.272  1.00  0.00     0.034 A 
ATOM     55  C   UNL A   1      39.052  31.041  30.959  1.00  0.00     0.034 A 
ATOM     56  C   UNL A   1      45.471  28.894  29.678  1.00  0.00     0.049 A 
ATOM     57  C   UNL A   1      40.441  31.460  31.289  1.00  0.00     0.074 A 
ATOM     58  C   UNL A   1      45.775  27.818  30.487  1.00  0.00     0.029 A 
ATOM     59  N   UNL A   1      44.980  29.876  30.506  1.00  0.00    -0.354 N 
ATOM     60  N   UNL A   1      41.117  30.968  32.292  1.00  0.00    -0.248 NA
ATOM     61  C   UNL A   1      41.242  32.071  30.236  1.00  0.00     0.031 C 
ATOM     62  C   UNL A   1      45.021  28.033  31.676  1.00  0.00     0.029 A 
ATOM     63  C   UNL A   1      44.356  29.255  31.555  1.00  0.00     0.049 A 
ATOM     64  H   UNL A   1      45.064  30.848  30.370  1.00  0.00     0.167 HD
ATOM     65  C   UNL A   1      42.402  30.797  31.792  1.00  0.00     0.074 A 
ATOM     66  C   UNL A   1      42.443  31.582  30.560  1.00  0.00     0.031 C 
ATOM     67  C   UNL A   1      43.213  29.800  32.253  1.00  0.00     0.034 A 
BRANCH  54  68
ATOM     68  C   UNL A   1      45.802  30.204  27.491  1.00  0.00     0.023 A 
ATOM     69  C   UNL A   1      47.203  30.345  27.456  1.00  0.00     0.012 A 
ATOM     70  C   UNL A   1      45.025  31.291  27.031  1.00  0.00     0.148 A 
ATOM     71  C   UNL A   1      47.799  31.524  26.995  1.00  0.00     0.002 A 
ATOM     72  C   UNL A   1      45.620  32.426  26.503  1.00  0.00     0.091 A 
ATOM     73  F   UNL A   1      43.704  31.299  27.235  1.00  0.00    -0.205 F 
ATOM     74  C   UNL A   1      47.009  32.559  26.505  1.00  0.00     0.022 A 
BRANCH  72  75
ATOM     75  S   UNL A   1      44.635  33.773  25.841  1.00  0.00     0.127 S 
ATOM     76  O   UNL A   1      43.836  33.082  24.833  1.00  0.00    -0.237 OA
ATOM     77  O   UNL A   1      43.898  34.214  27.024  1.00  0.00    -0.237 OA
ATOM     78  O   UNL A   1      45.596  34.749  25.340  1.00  0.00    -0.744 OA
ENDBRANCH  72  75
ENDBRANCH  54  68
BRANCH  55  79
ATOM     79  C   UNL A   1      37.967  32.027  30.703  1.00  0.00     0.023 A 
ATOM     80  C   UNL A   1      37.452  32.158  29.395  1.00  0.00     0.012 A 
ATOM     81  C   UNL A   1      37.239  32.629  31.755  1.00  0.00     0.148 A 
ATOM     82  C   UNL A   1      36.235  32.812  29.153  1.00  0.00     0.002 A 
ATOM     83  C   UNL A   1      36.038  33.292  31.508  1.00  0.00     0.091 A 
ATOM     84  F   UNL A   1      37.663  32.474  33.014  1.00  0.00    -0.205 F 
ATOM     85  C   UNL A   1      35.524  33.370  30.209  1.00  0.00     0.022 A 
BRANCH  83  86
ATOM     86  S   UNL A   1      35.070  34.030  32.832  1.00  0.00     0.127 S 
ATOM     87  O   UNL A   1      35.897  35.176  33.214  1.00  0.00    -0.237 OA
ATOM     88  O   UNL A   1      33.828  34.375  32.145  1.00  0.00    -0.237 OA
ATOM     89  O   UNL A   1      34.962  33.006  33.864  1.00  0.00    -0.744 OA
ENDBRANCH  83  86
ENDBRANCH  55  79
BRANCH  67  90
ATOM     90  C   UNL A   1      42.766  29.017  33.462  1.00  0.00     0.023 A 
ATOM     91  C   UNL A   1      41.854  27.945  33.365  1.00  0.00     0.012 A 
ATOM     92  C   UNL A   1      43.480  29.204  34.656  1.00  0.00     0.148 A 
ATOM     93  C   UNL A   1      41.669  27.069  34.437  1.00  0.00     0.002 A 
ATOM     94  C   UNL A   1      43.325  28.308  35.703  1.00  0.00     0.091 A 
ATOM     95  F   UNL A   1      44.354  30.221  34.713  1.00  0.00    -0.205 F 
ATOM     96  C   UNL A   1      42.418  27.239  35.601  1.00  0.00     0.022 A 
BRANCH  94  97
ATOM     97  S   UNL A   1      44.345  28.391  37.176  1.00  0.00     0.127 S 
ATOM     98  O   UNL A   1      43.850  27.258  37.955  1.00  0.00    -0.237 OA
ATOM     99  O   UNL A   1      45.691  28.218  36.629  1.00  0.00    -0.237 OA
ATOM    100  O   UNL A   1      44.101  29.700  37.769  1.00  0.00    -0.744 OA
ENDBRANCH  94  97
ENDBRANCH  67  90
ENDBRANCH  41  42
ENDBRANCH  33  36
ENDBRANCH  31  32
ENDBRANCH  30  31
ENDBRANCH   1  30
TORSDOF 17
ENDMDL
MODEL 3
REMARK VINA RESULT:     -12.8      3.041      8.061
REMARK SMILES CC1(C)S[C@@H]2[C@H]([NH2+]Cn3nnc4ccccc43)C(=O)N2[C@@H]1C(=O)NCCCCNC(=O)c1ccc(-c2c3nc(c(-c4cccc(S(=O)(=O)[O-])c4F)c4ccc([nH]4)c(-c4cccc(S(=O)(=O)[O-])c4F)c4nc(c(-c5cccc(S(=O)(=O)[O-])c5F)c5ccc2[nH]5)C=C4)C=C3)cc1
REMARK SMILES IDX 26 1 25 2 24 3 22 4 23 5 21 7 1 8 2 9 3 10 4 11 5 12 20 13
REMARK SMILES IDX 6 14 18 15 19 16 7 17 8 20 9 21 10 22 17 23 11 24 12 25
REMARK SMILES IDX 16 26 13 27 15 28 14 29 27 30 28 31 29 32 30 33 31 35 32 36
REMARK SMILES IDX 33 37 94 38 34 39 93 40 35 41 36 42 37 43 87 44 38 45 92 46
REMARK SMILES IDX 86 47 88 48 39 49 91 50 85 51 84 52 40 54 72 55 52 56 71 57
REMARK SMILES IDX 53 58 56 59 70 60 89 61 54 62 55 63 69 65 90 66 57 67 41 68
REMARK SMILES IDX 42 69 50 70 43 71 45 72 51 73 44 74 46 75 47 76 48 77 49 78
REMARK SMILES IDX 73 79 74 80 82 81 75 82 77 83 83 84 76 85 78 86 79 87 80 88
REMARK SMILES IDX 81 89 58 90 59 91 67 92 60 93 62 94 68 95 61 96 63 97 64 98
REMARK SMILES IDX 65 99 66 100
REMARK H PARENT 24 6 7 18 7 19 29 34 88 53 56 64
REMARK Flexibility Score: inf
ROOT
ATOM      1  C   UNL A   1      32.292  29.515  27.370  1.00  0.00     0.023 C 
ENDROOT
BRANCH   1   2
ATOM      2  C   UNL A   1      32.943  28.217  26.905  1.00  0.00     0.116 C 
BRANCH   2   3
ATOM      3  N   UNL A   1      32.042  27.086  26.847  1.00  0.00    -0.354 N 
ATOM      4  C   UNL A   1      31.963  26.069  25.937  1.00  0.00     0.244 C 
ATOM      5  O   UNL A   1      31.370  25.045  26.299  1.00  0.00    -0.273 OA
ATOM      6  H   UNL A   1      31.382  27.042  27.577  1.00  0.00     0.163 HD
BRANCH   4   7
ATOM      7  C   UNL A   1      32.704  26.064  24.574  1.00  0.00     0.191 C 
ATOM      8  C   UNL A   1      30.580  27.367  23.745  1.00  0.00     0.026 C 
ATOM      9  C   UNL A   1      31.981  26.834  23.418  1.00  0.00     0.042 C 
ATOM     10  C   UNL A   1      32.832  27.987  22.867  1.00  0.00     0.026 C 
ATOM     11  S   UNL A   1      31.865  25.644  21.953  1.00  0.00    -0.121 SA
ATOM     12  C   UNL A   1      33.159  24.555  22.609  1.00  0.00     0.213 C 
ATOM     13  N   UNL A   1      32.953  24.754  24.029  1.00  0.00    -0.306 N 
ATOM     14  C   UNL A   1      33.154  23.017  22.919  1.00  0.00     0.307 C 
ATOM     15  C   UNL A   1      33.402  23.554  24.412  1.00  0.00     0.285 C 
ATOM     16  O   UNL A   1      33.730  23.143  25.499  1.00  0.00    -0.268 OA
BRANCH  14  17
ATOM     17  N   UNL A   1      31.940  22.171  22.751  1.00  0.00    -0.315 N 
ATOM     18  H   UNL A   1      31.413  22.535  21.957  1.00  0.00     0.348 HD
ATOM     19  H   UNL A   1      31.442  22.221  23.639  1.00  0.00     0.348 HD
BRANCH  17  20
ATOM     20  C   UNL A   1      32.178  20.765  22.516  1.00  0.00     0.415 C 
BRANCH  20  21
ATOM     21  N   UNL A   1      32.240  19.933  23.714  1.00  0.00    -0.194 N 
ATOM     22  N   UNL A   1      31.935  20.373  24.943  1.00  0.00    -0.061 NA
ATOM     23  C   UNL A   1      32.789  18.670  23.739  1.00  0.00     0.095 A 
ATOM     24  N   UNL A   1      32.284  19.417  25.801  1.00  0.00    -0.130 NA
ATOM     25  C   UNL A   1      32.821  18.372  25.093  1.00  0.00     0.113 A 
ATOM     26  C   UNL A   1      33.239  17.790  22.743  1.00  0.00     0.030 A 
ATOM     27  C   UNL A   1      33.338  17.134  25.501  1.00  0.00     0.032 A 
ATOM     28  C   UNL A   1      33.711  16.545  23.164  1.00  0.00     0.002 A 
ATOM     29  C   UNL A   1      33.762  16.221  24.520  1.00  0.00     0.002 A 
ENDBRANCH  20  21
ENDBRANCH  17  20
ENDBRANCH  14  17
ENDBRANCH   4   7
ENDBRANCH   2   3
ENDBRANCH   1   2
BRANCH   1  30
ATOM     30  C   UNL A   1      32.724  30.760  26.595  1.00  0.00     0.023 C 
BRANCH  30  31
ATOM     31  C   UNL A   1      33.836  31.576  27.262  1.00  0.00     0.116 C 
BRANCH  31  32
ATOM     32  N   UNL A   1      34.128  31.152  28.612  1.00  0.00    -0.352 N 
ATOM     33  C   UNL A   1      35.173  31.703  29.320  1.00  0.00     0.251 C 
ATOM     34  H   UNL A   1      33.571  30.458  29.034  1.00  0.00     0.163 HD
ATOM     35  O   UNL A   1      35.014  32.582  30.156  1.00  0.00    -0.269 OA
BRANCH  33  36
ATOM     36  C   UNL A   1      36.457  31.005  29.175  1.00  0.00     0.039 A 
ATOM     37  C   UNL A   1      36.489  29.618  29.047  1.00  0.00     0.014 A 
ATOM     38  C   UNL A   1      37.632  31.757  29.326  1.00  0.00     0.014 A 
ATOM     39  C   UNL A   1      37.684  28.965  29.200  1.00  0.00     0.010 A 
ATOM     40  C   UNL A   1      38.843  31.103  29.451  1.00  0.00     0.010 A 
ATOM     41  C   UNL A   1      38.845  29.713  29.431  1.00  0.00    -0.014 A 
BRANCH  41  42
ATOM     42  C   UNL A   1      40.078  28.958  29.414  1.00  0.00     0.031 A 
ATOM     43  C   UNL A   1      40.629  28.795  30.783  1.00  0.00     0.074 A 
ATOM     44  C   UNL A   1      40.647  28.484  28.296  1.00  0.00     0.049 A 
ATOM     45  N   UNL A   1      41.630  29.434  31.291  1.00  0.00    -0.248 NA
ATOM     46  C   UNL A   1      39.827  28.047  31.764  1.00  0.00     0.031 C 
ATOM     47  C   UNL A   1      40.088  28.383  26.950  1.00  0.00     0.029 A 
ATOM     48  N   UNL A   1      41.853  27.873  28.177  1.00  0.00    -0.354 N 
ATOM     49  C   UNL A   1      41.720  28.987  32.602  1.00  0.00     0.074 A 
ATOM     50  C   UNL A   1      40.482  28.314  32.895  1.00  0.00     0.031 C 
ATOM     51  C   UNL A   1      40.840  27.516  26.231  1.00  0.00     0.029 A 
ATOM     52  C   UNL A   1      41.990  27.114  27.023  1.00  0.00     0.049 A 
ATOM     53  H   UNL A   1      42.566  27.961  28.849  1.00  0.00     0.167 HD
ATOM     54  C   UNL A   1      42.910  28.969  33.257  1.00  0.00     0.034 A 
ATOM     55  C   UNL A   1      42.929  26.153  26.828  1.00  0.00     0.034 A 
ATOM     56  C   UNL A   1      43.896  29.782  32.603  1.00  0.00     0.049 A 
ATOM     57  C   UNL A   1      44.045  26.459  27.764  1.00  0.00     0.074 A 
ATOM     58  C   UNL A   1      43.996  31.125  32.301  1.00  0.00     0.029 A 
ATOM     59  N   UNL A   1      44.776  29.130  31.771  1.00  0.00    -0.354 N 
ATOM     60  N   UNL A   1      44.778  27.536  27.677  1.00  0.00    -0.248 NA
ATOM     61  C   UNL A   1      44.042  25.810  29.069  1.00  0.00     0.031 C 
ATOM     62  C   UNL A   1      44.572  31.163  30.999  1.00  0.00     0.029 A 
ATOM     63  C   UNL A   1      44.854  29.851  30.610  1.00  0.00     0.049 A 
ATOM     64  H   UNL A   1      45.262  28.298  31.974  1.00  0.00     0.167 HD
ATOM     65  C   UNL A   1      44.948  27.947  28.993  1.00  0.00     0.074 A 
ATOM     66  C   UNL A   1      44.560  26.796  29.807  1.00  0.00     0.031 C 
ATOM     67  C   UNL A   1      45.093  29.266  29.308  1.00  0.00     0.034 A 
BRANCH  54  68
ATOM     68  C   UNL A   1      43.284  27.906  34.250  1.00  0.00     0.023 A 
ATOM     69  C   UNL A   1      43.651  28.310  35.549  1.00  0.00     0.012 A 
ATOM     70  C   UNL A   1      43.557  26.569  33.882  1.00  0.00     0.148 A 
ATOM     71  C   UNL A   1      44.273  27.423  36.433  1.00  0.00     0.002 A 
ATOM     72  C   UNL A   1      44.102  25.672  34.787  1.00  0.00     0.091 A 
ATOM     73  F   UNL A   1      43.427  26.189  32.607  1.00  0.00    -0.205 F 
ATOM     74  C   UNL A   1      44.486  26.100  36.058  1.00  0.00     0.022 A 
BRANCH  72  75
ATOM     75  S   UNL A   1      44.371  23.952  34.348  1.00  0.00     0.127 S 
ATOM     76  O   UNL A   1      43.014  23.418  34.416  1.00  0.00    -0.237 OA
ATOM     77  O   UNL A   1      44.927  24.071  33.001  1.00  0.00    -0.237 OA
ATOM     78  O   UNL A   1      45.313  23.440  35.337  1.00  0.00    -0.744 OA
ENDBRANCH  72  75
ENDBRANCH  54  68
BRANCH  55  79
ATOM     79  C   UNL A   1      42.788  24.826  26.169  1.00  0.00     0.023 A 
ATOM     80  C   UNL A   1      43.810  24.377  25.304  1.00  0.00     0.012 A 
ATOM     81  C   UNL A   1      41.824  23.882  26.587  1.00  0.00     0.148 A 
ATOM     82  C   UNL A   1      43.899  23.031  24.918  1.00  0.00     0.002 A 
ATOM     83  C   UNL A   1      41.906  22.549  26.189  1.00  0.00     0.091 A 
ATOM     84  F   UNL A   1      40.877  24.255  27.455  1.00  0.00    -0.205 F 
ATOM     85  C   UNL A   1      42.954  22.116  25.368  1.00  0.00     0.022 A 
BRANCH  83  86
ATOM     86  S   UNL A   1      40.717  21.316  26.739  1.00  0.00     0.127 S 
ATOM     87  O   UNL A   1      39.467  21.818  26.165  1.00  0.00    -0.237 OA
ATOM     88  O   UNL A   1      41.230  20.099  26.117  1.00  0.00    -0.237 OA
ATOM     89  O   UNL A   1      40.757  21.349  28.196  1.00  0.00    -0.744 OA
ENDBRANCH  83  86
ENDBRANCH  55  79
BRANCH  67  90
ATOM     90  C   UNL A   1      45.274  30.254  28.184  1.00  0.00     0.023 A 
ATOM     91  C   UNL A   1      44.182  30.920  27.590  1.00  0.00     0.012 A 
ATOM     92  C   UNL A   1      46.578  30.700  27.916  1.00  0.00     0.148 A 
ATOM     93  C   UNL A   1      44.389  32.020  26.752  1.00  0.00     0.002 A 
ATOM     94  C   UNL A   1      46.777  31.818  27.118  1.00  0.00     0.091 A 
ATOM     95  F   UNL A   1      47.596  30.059  28.510  1.00  0.00    -0.205 F 
ATOM     96  C   UNL A   1      45.686  32.481  26.531  1.00  0.00     0.022 A 
BRANCH  94  97
ATOM     97  S   UNL A   1      48.404  32.539  26.894  1.00  0.00     0.127 S 
ATOM     98  O   UNL A   1      49.216  31.367  26.571  1.00  0.00    -0.237 OA
ATOM     99  O   UNL A   1      48.182  33.457  25.776  1.00  0.00    -0.237 OA
ATOM    100  O   UNL A   1      48.738  33.194  28.152  1.00  0.00    -0.744 OA
ENDBRANCH  94  97
ENDBRANCH  67  90
ENDBRANCH  41  42
ENDBRANCH  33  36
ENDBRANCH  31  32
ENDBRANCH  30  31
ENDBRANCH   1  30
TORSDOF 17
ENDMDL
