MODEL 1
REMARK VINA RESULT:     -10.4      0.000      0.000
REMARK SMILES C=CCS(=O)(=O)N[C@H](CC(N)=O)C(=O)NCCCCNC(=O)c1ccc(-c2c3nc(c(-c4cccc(S(=O)(=O)[O-])c4F)c4ccc([nH]4)c(-c4cccc(S(=O)(=O)[O-])c4F)c4nc(c(-c5cccc(S(=O)(=O)[O-])c5F)c5ccc2[nH]5)C=C4)C=C3)cc1
REMARK SMILES IDX 17 1 16 2 15 3 13 4 14 5 8 7 7 8 4 10 5 11 6 12 3 13 2 14
REMARK SMILES IDX 1 15 9 16 10 17 11 18 12 19 18 22 19 23 20 24 21 25 22 27
REMARK SMILES IDX 23 28 24 29 85 30 25 31 84 32 26 33 27 34 28 35 78 36 29 37
REMARK SMILES IDX 83 38 77 39 79 40 30 41 82 42 76 43 75 44 31 46 63 47 43 48
REMARK SMILES IDX 62 49 44 50 47 51 61 52 80 53 45 54 46 55 60 57 81 58 48 59
REMARK SMILES IDX 32 60 33 61 41 62 34 63 36 64 42 65 35 66 37 67 38 68 39 69
REMARK SMILES IDX 40 70 64 71 65 72 73 73 66 74 68 75 74 76 67 77 69 78 70 79
REMARK SMILES IDX 71 80 72 81 49 82 50 83 58 84 51 85 53 86 59 87 52 88 54 89
REMARK SMILES IDX 55 90 56 91 57 92
REMARK H PARENT 15 6 7 9 11 20 11 21 20 26 79 45 47 56
REMARK Flexibility Score: inf
ROOT
ATOM      1  C   UNL A   1      37.178  21.918  24.703  1.00  0.00     0.023 C 
ENDROOT
BRANCH   1   2
ATOM      2  C   UNL A   1      35.758  22.056  25.240  1.00  0.00     0.116 C 
BRANCH   2   3
ATOM      3  N   UNL A   1      34.801  22.218  24.162  1.00  0.00    -0.355 N 
ATOM      4  C   UNL A   1      33.450  22.141  24.047  1.00  0.00     0.238 C 
ATOM      5  O   UNL A   1      33.034  22.373  22.905  1.00  0.00    -0.273 OA
ATOM      6  H   UNL A   1      35.236  22.436  23.307  1.00  0.00     0.163 HD
BRANCH   4   7
ATOM      7  C   UNL A   1      32.452  21.842  25.194  1.00  0.00     0.168 C 
BRANCH   7   8
ATOM      8  N   UNL A   1      32.142  20.402  25.378  1.00  0.00    -0.202 NA
ATOM      9  H   UNL A   1      32.575  20.162  26.270  1.00  0.00     0.141 HD
BRANCH   8  10
ATOM     10  S   UNL A   1      32.503  19.117  24.384  1.00  0.00     0.215 S 
ATOM     11  O   UNL A   1      32.235  19.460  23.007  1.00  0.00    -0.212 OA
ATOM     12  O   UNL A   1      31.786  18.018  25.002  1.00  0.00    -0.212 OA
BRANCH  10  13
ATOM     13  C   UNL A   1      34.263  18.778  24.632  1.00  0.00     0.180 C 
BRANCH  13  14
ATOM     14  C   UNL A   1      34.675  17.394  24.219  1.00  0.00    -0.017 C 
ATOM     15  C   UNL A   1      34.825  16.324  25.014  1.00  0.00     0.005 C 
ENDBRANCH  13  14
ENDBRANCH  10  13
ENDBRANCH   8  10
ENDBRANCH   7   8
BRANCH   7  16
ATOM     16  C   UNL A   1      31.223  22.743  25.140  1.00  0.00     0.129 C 
BRANCH  16  17
ATOM     17  C   UNL A   1      30.555  23.029  26.462  1.00  0.00     0.219 C 
ATOM     18  N   UNL A   1      29.509  22.202  26.759  1.00  0.00    -0.370 N 
ATOM     19  O   UNL A   1      30.961  23.868  27.255  1.00  0.00    -0.275 OA
ATOM     20  H   UNL A   1      29.205  21.536  26.100  1.00  0.00     0.159 HD
ATOM     21  H   UNL A   1      29.059  22.272  27.632  1.00  0.00     0.159 HD
ENDBRANCH  16  17
ENDBRANCH   7  16
ENDBRANCH   4   7
ENDBRANCH   2   3
ENDBRANCH   1   2
BRANCH   1  22
ATOM     22  C   UNL A   1      37.867  20.601  25.023  1.00  0.00     0.023 C 
BRANCH  22  23
ATOM     23  C   UNL A   1      38.968  20.741  26.059  1.00  0.00     0.116 C 
BRANCH  23  24
ATOM     24  N   UNL A   1      39.866  19.587  26.084  1.00  0.00    -0.352 N 
ATOM     25  C   UNL A   1      41.240  19.565  26.142  1.00  0.00     0.251 C 
ATOM     26  H   UNL A   1      39.428  18.706  26.055  1.00  0.00     0.163 HD
ATOM     27  O   UNL A   1      41.857  18.518  25.979  1.00  0.00    -0.269 OA
BRANCH  25  28
ATOM     28  C   UNL A   1      41.953  20.832  26.385  1.00  0.00     0.039 A 
ATOM     29  C   UNL A   1      42.256  21.675  25.314  1.00  0.00     0.014 A 
ATOM     30  C   UNL A   1      42.235  21.214  27.698  1.00  0.00     0.014 A 
ATOM     31  C   UNL A   1      42.772  22.945  25.573  1.00  0.00     0.010 A 
ATOM     32  C   UNL A   1      42.631  22.515  27.955  1.00  0.00     0.010 A 
ATOM     33  C   UNL A   1      42.920  23.388  26.897  1.00  0.00    -0.014 A 
BRANCH  33  34
ATOM     34  C   UNL A   1      43.394  24.754  27.227  1.00  0.00     0.031 A 
ATOM     35  C   UNL A   1      42.434  25.731  27.850  1.00  0.00     0.074 A 
ATOM     36  C   UNL A   1      44.625  25.147  26.848  1.00  0.00     0.049 A 
ATOM     37  N   UNL A   1      42.588  27.007  28.080  1.00  0.00    -0.248 NA
ATOM     38  C   UNL A   1      41.102  25.214  28.215  1.00  0.00     0.031 C 
ATOM     39  C   UNL A   1      45.607  24.311  26.151  1.00  0.00     0.029 A 
ATOM     40  N   UNL A   1      45.251  26.361  26.965  1.00  0.00    -0.354 N 
ATOM     41  C   UNL A   1      41.363  27.453  28.561  1.00  0.00     0.074 A 
ATOM     42  C   UNL A   1      40.461  26.326  28.540  1.00  0.00     0.031 C 
ATOM     43  C   UNL A   1      46.716  25.033  25.918  1.00  0.00     0.029 A 
ATOM     44  C   UNL A   1      46.511  26.389  26.416  1.00  0.00     0.049 A 
ATOM     45  H   UNL A   1      44.836  27.139  27.403  1.00  0.00     0.167 HD
ATOM     46  C   UNL A   1      41.030  28.682  29.020  1.00  0.00     0.034 A 
ATOM     47  C   UNL A   1      47.400  27.398  26.324  1.00  0.00     0.034 A 
ATOM     48  C   UNL A   1      41.958  29.773  29.109  1.00  0.00     0.049 A 
ATOM     49  C   UNL A   1      47.031  28.736  26.909  1.00  0.00     0.074 A 
ATOM     50  C   UNL A   1      41.765  31.027  29.654  1.00  0.00     0.029 A 
ATOM     51  N   UNL A   1      43.265  29.730  28.645  1.00  0.00    -0.354 N 
ATOM     52  N   UNL A   1      45.918  29.099  27.500  1.00  0.00    -0.248 NA
ATOM     53  C   UNL A   1      48.050  29.793  26.844  1.00  0.00     0.031 C 
ATOM     54  C   UNL A   1      42.955  31.750  29.512  1.00  0.00     0.029 A 
ATOM     55  C   UNL A   1      43.893  30.938  28.891  1.00  0.00     0.049 A 
ATOM     56  H   UNL A   1      43.684  28.956  28.205  1.00  0.00     0.167 HD
ATOM     57  C   UNL A   1      46.113  30.412  27.910  1.00  0.00     0.074 A 
ATOM     58  C   UNL A   1      47.460  30.774  27.515  1.00  0.00     0.031 C 
ATOM     59  C   UNL A   1      45.254  31.250  28.540  1.00  0.00     0.034 A 
BRANCH  46  60
ATOM     60  C   UNL A   1      39.625  28.877  29.528  1.00  0.00     0.023 A 
ATOM     61  C   UNL A   1      39.316  28.537  30.862  1.00  0.00     0.012 A 
ATOM     62  C   UNL A   1      38.618  29.415  28.703  1.00  0.00     0.148 A 
ATOM     63  C   UNL A   1      38.021  28.685  31.353  1.00  0.00     0.002 A 
ATOM     64  C   UNL A   1      37.339  29.604  29.215  1.00  0.00     0.091 A 
ATOM     65  F   UNL A   1      38.921  29.708  27.430  1.00  0.00    -0.205 F 
ATOM     66  C   UNL A   1      37.035  29.227  30.533  1.00  0.00     0.022 A 
BRANCH  64  67
ATOM     67  S   UNL A   1      36.019  30.367  28.264  1.00  0.00     0.127 S 
ATOM     68  O   UNL A   1      34.839  29.703  28.815  1.00  0.00    -0.237 OA
ATOM     69  O   UNL A   1      36.152  31.778  28.629  1.00  0.00    -0.237 OA
ATOM     70  O   UNL A   1      36.311  30.072  26.869  1.00  0.00    -0.744 OA
ENDBRANCH  64  67
ENDBRANCH  46  60
BRANCH  47  71
ATOM     71  C   UNL A   1      48.751  27.155  25.743  1.00  0.00     0.023 A 
ATOM     72  C   UNL A   1      49.743  26.561  26.547  1.00  0.00     0.012 A 
ATOM     73  C   UNL A   1      49.048  27.460  24.401  1.00  0.00     0.148 A 
ATOM     74  C   UNL A   1      51.016  26.305  26.037  1.00  0.00     0.002 A 
ATOM     75  C   UNL A   1      50.302  27.152  23.883  1.00  0.00     0.091 A 
ATOM     76  F   UNL A   1      48.094  28.031  23.653  1.00  0.00    -0.205 F 
ATOM     77  C   UNL A   1      51.292  26.590  24.703  1.00  0.00     0.022 A 
BRANCH  75  78
ATOM     78  S   UNL A   1      50.703  27.360  22.143  1.00  0.00     0.127 S 
ATOM     79  O   UNL A   1      49.632  26.605  21.498  1.00  0.00    -0.237 OA
ATOM     80  O   UNL A   1      50.617  28.812  21.983  1.00  0.00    -0.237 OA
ATOM     81  O   UNL A   1      52.046  26.820  21.984  1.00  0.00    -0.744 OA
ENDBRANCH  75  78
ENDBRANCH  47  71
BRANCH  59  82
ATOM     82  C   UNL A   1      45.748  32.631  28.874  1.00  0.00     0.023 A 
ATOM     83  C   UNL A   1      46.366  32.870  30.117  1.00  0.00     0.012 A 
ATOM     84  C   UNL A   1      45.685  33.664  27.919  1.00  0.00     0.148 A 
ATOM     85  C   UNL A   1      46.891  34.125  30.414  1.00  0.00     0.002 A 
ATOM     86  C   UNL A   1      46.254  34.898  28.204  1.00  0.00     0.091 A 
ATOM     87  F   UNL A   1      45.078  33.418  26.749  1.00  0.00    -0.205 F 
ATOM     88  C   UNL A   1      46.848  35.134  29.455  1.00  0.00     0.022 A 
BRANCH  86  89
ATOM     89  S   UNL A   1      46.333  36.224  26.994  1.00  0.00     0.127 S 
ATOM     90  O   UNL A   1      46.713  35.498  25.783  1.00  0.00    -0.237 OA
ATOM     91  O   UNL A   1      44.960  36.730  26.998  1.00  0.00    -0.237 OA
ATOM     92  O   UNL A   1      47.325  37.165  27.496  1.00  0.00    -0.744 OA
ENDBRANCH  86  89
ENDBRANCH  59  82
ENDBRANCH  33  34
ENDBRANCH  25  28
ENDBRANCH  23  24
ENDBRANCH  22  23
ENDBRANCH   1  22
TORSDOF 20
ENDMDL
MODEL 2
REMARK VINA RESULT:     -10.3      2.512      8.653
REMARK SMILES C=CCS(=O)(=O)N[C@H](CC(N)=O)C(=O)NCCCCNC(=O)c1ccc(-c2c3nc(c(-c4cccc(S(=O)(=O)[O-])c4F)c4ccc([nH]4)c(-c4cccc(S(=O)(=O)[O-])c4F)c4nc(c(-c5cccc(S(=O)(=O)[O-])c5F)c5ccc2[nH]5)C=C4)C=C3)cc1
REMARK SMILES IDX 17 1 16 2 15 3 13 4 14 5 8 7 7 8 4 10 5 11 6 12 3 13 2 14
REMARK SMILES IDX 1 15 9 16 10 17 11 18 12 19 18 22 19 23 20 24 21 25 22 27
REMARK SMILES IDX 23 28 24 29 85 30 25 31 84 32 26 33 27 34 28 35 78 36 29 37
REMARK SMILES IDX 83 38 77 39 79 40 30 41 82 42 76 43 75 44 31 46 63 47 43 48
REMARK SMILES IDX 62 49 44 50 47 51 61 52 80 53 45 54 46 55 60 57 81 58 48 59
REMARK SMILES IDX 32 60 33 61 41 62 34 63 36 64 42 65 35 66 37 67 38 68 39 69
REMARK SMILES IDX 40 70 64 71 65 72 73 73 66 74 68 75 74 76 67 77 69 78 70 79
REMARK SMILES IDX 71 80 72 81 49 82 50 83 58 84 51 85 53 86 59 87 52 88 54 89
REMARK SMILES IDX 55 90 56 91 57 92
REMARK H PARENT 15 6 7 9 11 20 11 21 20 26 79 45 47 56
REMARK Flexibility Score: inf
ROOT
ATOM      1  C   UNL A   1      34.547  21.656  24.883  1.00  0.00     0.023 C 
ENDROOT
BRANCH   1   2
ATOM      2  C   UNL A   1      33.589  22.764  24.461  1.00  0.00     0.116 C 
BRANCH   2   3
ATOM      3  N   UNL A   1      32.724  23.157  25.558  1.00  0.00    -0.355 N 
ATOM      4  C   UNL A   1      32.120  24.308  25.950  1.00  0.00     0.238 C 
ATOM      5  O   UNL A   1      31.437  24.188  26.975  1.00  0.00    -0.273 OA
ATOM      6  H   UNL A   1      32.529  22.408  26.166  1.00  0.00     0.163 HD
BRANCH   4   7
ATOM      7  C   UNL A   1      32.191  25.672  25.217  1.00  0.00     0.168 C 
BRANCH   7   8
ATOM      8  N   UNL A   1      31.389  26.750  25.846  1.00  0.00    -0.202 NA
ATOM      9  H   UNL A   1      30.849  27.147  25.077  1.00  0.00     0.141 HD
BRANCH   8  10
ATOM     10  S   UNL A   1      31.909  28.074  26.711  1.00  0.00     0.215 S 
ATOM     11  O   UNL A   1      31.423  28.003  28.071  1.00  0.00    -0.212 OA
ATOM     12  O   UNL A   1      31.518  29.186  25.868  1.00  0.00    -0.212 OA
BRANCH  10  13
ATOM     13  C   UNL A   1      33.716  28.014  26.670  1.00  0.00     0.180 C 
BRANCH  13  14
ATOM     14  C   UNL A   1      34.372  29.275  27.155  1.00  0.00    -0.017 C 
ATOM     15  C   UNL A   1      35.643  29.422  27.559  1.00  0.00     0.005 C 
ENDBRANCH  13  14
ENDBRANCH  10  13
ENDBRANCH   8  10
ENDBRANCH   7   8
BRANCH   7  16
ATOM     16  C   UNL A   1      31.979  25.530  23.713  1.00  0.00     0.129 C 
BRANCH  16  17
ATOM     17  C   UNL A   1      30.902  26.401  23.114  1.00  0.00     0.219 C 
ATOM     18  N   UNL A   1      31.274  27.061  21.978  1.00  0.00    -0.370 N 
ATOM     19  O   UNL A   1      29.758  26.452  23.546  1.00  0.00    -0.275 OA
ATOM     20  H   UNL A   1      32.203  27.000  21.654  1.00  0.00     0.159 HD
ATOM     21  H   UNL A   1      30.614  27.596  21.481  1.00  0.00     0.159 HD
ENDBRANCH  16  17
ENDBRANCH   7  16
ENDBRANCH   4   7
ENDBRANCH   2   3
ENDBRANCH   1   2
BRANCH   1  22
ATOM     22  C   UNL A   1      35.618  22.070  25.880  1.00  0.00     0.023 C 
BRANCH  22  23
ATOM     23  C   UNL A   1      36.968  22.327  25.233  1.00  0.00     0.116 C 
BRANCH  23  24
ATOM     24  N   UNL A   1      37.942  21.279  25.532  1.00  0.00    -0.352 N 
ATOM     25  C   UNL A   1      39.193  21.399  26.094  1.00  0.00     0.251 C 
ATOM     26  H   UNL A   1      37.667  20.363  25.301  1.00  0.00     0.163 HD
ATOM     27  O   UNL A   1      39.961  20.444  26.120  1.00  0.00    -0.269 OA
BRANCH  25  28
ATOM     28  C   UNL A   1      39.592  22.707  26.644  1.00  0.00     0.039 A 
ATOM     29  C   UNL A   1      40.581  22.774  27.627  1.00  0.00     0.014 A 
ATOM     30  C   UNL A   1      39.037  23.870  26.108  1.00  0.00     0.014 A 
ATOM     31  C   UNL A   1      41.073  24.021  28.013  1.00  0.00     0.010 A 
ATOM     32  C   UNL A   1      39.610  25.094  26.405  1.00  0.00     0.010 A 
ATOM     33  C   UNL A   1      40.621  25.185  27.372  1.00  0.00    -0.014 A 
BRANCH  33  34
ATOM     34  C   UNL A   1      41.162  26.528  27.692  1.00  0.00     0.031 A 
ATOM     35  C   UNL A   1      42.592  26.844  27.343  1.00  0.00     0.074 A 
ATOM     36  C   UNL A   1      40.421  27.397  28.407  1.00  0.00     0.049 A 
ATOM     37  N   UNL A   1      43.309  27.887  27.663  1.00  0.00    -0.248 NA
ATOM     38  C   UNL A   1      43.330  25.823  26.576  1.00  0.00     0.031 C 
ATOM     39  C   UNL A   1      39.055  27.160  28.881  1.00  0.00     0.029 A 
ATOM     40  N   UNL A   1      40.725  28.645  28.887  1.00  0.00    -0.354 N 
ATOM     41  C   UNL A   1      44.588  27.624  27.187  1.00  0.00     0.074 A 
ATOM     42  C   UNL A   1      44.563  26.303  26.605  1.00  0.00     0.031 C 
ATOM     43  C   UNL A   1      38.635  28.233  29.571  1.00  0.00     0.029 A 
ATOM     44  C   UNL A   1      39.710  29.218  29.617  1.00  0.00     0.049 A 
ATOM     45  H   UNL A   1      41.588  29.089  28.724  1.00  0.00     0.167 HD
ATOM     46  C   UNL A   1      45.677  28.428  27.196  1.00  0.00     0.034 A 
ATOM     47  C   UNL A   1      39.656  30.405  30.252  1.00  0.00     0.034 A 
ATOM     48  C   UNL A   1      45.666  29.769  27.707  1.00  0.00     0.049 A 
ATOM     49  C   UNL A   1      40.856  31.312  30.184  1.00  0.00     0.074 A 
ATOM     50  C   UNL A   1      46.675  30.713  27.673  1.00  0.00     0.029 A 
ATOM     51  N   UNL A   1      44.582  30.360  28.340  1.00  0.00    -0.354 N 
ATOM     52  N   UNL A   1      42.011  31.109  29.595  1.00  0.00    -0.248 NA
ATOM     53  C   UNL A   1      40.737  32.623  30.837  1.00  0.00     0.031 C 
ATOM     54  C   UNL A   1      46.203  31.874  28.295  1.00  0.00     0.029 A 
ATOM     55  C   UNL A   1      44.896  31.657  28.702  1.00  0.00     0.049 A 
ATOM     56  H   UNL A   1      43.717  29.920  28.508  1.00  0.00     0.167 HD
ATOM     57  C   UNL A   1      42.743  32.277  29.775  1.00  0.00     0.074 A 
ATOM     58  C   UNL A   1      41.892  33.190  30.512  1.00  0.00     0.031 C 
ATOM     59  C   UNL A   1      44.008  32.564  29.382  1.00  0.00     0.034 A 
BRANCH  46  60
ATOM     60  C   UNL A   1      46.938  27.897  26.565  1.00  0.00     0.023 A 
ATOM     61  C   UNL A   1      47.917  27.289  27.378  1.00  0.00     0.012 A 
ATOM     62  C   UNL A   1      47.148  27.975  25.175  1.00  0.00     0.148 A 
ATOM     63  C   UNL A   1      49.103  26.809  26.827  1.00  0.00     0.002 A 
ATOM     64  C   UNL A   1      48.313  27.451  24.626  1.00  0.00     0.091 A 
ATOM     65  F   UNL A   1      46.220  28.580  24.420  1.00  0.00    -0.205 F 
ATOM     66  C   UNL A   1      49.297  26.881  25.451  1.00  0.00     0.022 A 
BRANCH  64  67
ATOM     67  S   UNL A   1      48.623  27.424  22.857  1.00  0.00     0.127 S 
ATOM     68  O   UNL A   1      47.475  28.173  22.346  1.00  0.00    -0.237 OA
ATOM     69  O   UNL A   1      49.902  28.126  22.756  1.00  0.00    -0.237 OA
ATOM     70  O   UNL A   1      48.670  26.018  22.482  1.00  0.00    -0.744 OA
ENDBRANCH  64  67
ENDBRANCH  46  60
BRANCH  47  71
ATOM     71  C   UNL A   1      38.397  30.840  30.920  1.00  0.00     0.023 A 
ATOM     72  C   UNL A   1      38.218  30.559  32.289  1.00  0.00     0.012 A 
ATOM     73  C   UNL A   1      37.402  31.560  30.233  1.00  0.00     0.148 A 
ATOM     74  C   UNL A   1      37.060  30.961  32.955  1.00  0.00     0.002 A 
ATOM     75  C   UNL A   1      36.273  32.004  30.915  1.00  0.00     0.091 A 
ATOM     76  F   UNL A   1      37.584  31.811  28.929  1.00  0.00    -0.205 F 
ATOM     77  C   UNL A   1      36.092  31.692  32.272  1.00  0.00     0.022 A 
BRANCH  75  78
ATOM     78  S   UNL A   1      35.041  33.066  30.151  1.00  0.00     0.127 S 
ATOM     79  O   UNL A   1      35.876  34.070  29.496  1.00  0.00    -0.237 OA
ATOM     80  O   UNL A   1      34.363  32.140  29.242  1.00  0.00    -0.237 OA
ATOM     81  O   UNL A   1      34.206  33.547  31.244  1.00  0.00    -0.744 OA
ENDBRANCH  75  78
ENDBRANCH  47  71
BRANCH  59  82
ATOM     82  C   UNL A   1      44.544  33.931  29.709  1.00  0.00     0.023 A 
ATOM     83  C   UNL A   1      45.354  34.109  30.847  1.00  0.00     0.012 A 
ATOM     84  C   UNL A   1      44.321  35.015  28.838  1.00  0.00     0.148 A 
ATOM     85  C   UNL A   1      45.916  35.353  31.126  1.00  0.00     0.002 A 
ATOM     86  C   UNL A   1      44.924  36.239  29.096  1.00  0.00     0.091 A 
ATOM     87  F   UNL A   1      43.532  34.826  27.770  1.00  0.00    -0.205 F 
ATOM     88  C   UNL A   1      45.713  36.413  30.246  1.00  0.00     0.022 A 
BRANCH  86  89
ATOM     89  S   UNL A   1      44.799  37.630  27.968  1.00  0.00     0.127 S 
ATOM     90  O   UNL A   1      45.418  37.089  26.759  1.00  0.00    -0.237 OA
ATOM     91  O   UNL A   1      43.351  37.827  27.876  1.00  0.00    -0.237 OA
ATOM     92  O   UNL A   1      45.519  38.726  28.602  1.00  0.00    -0.744 OA
ENDBRANCH  86  89
ENDBRANCH  59  82
ENDBRANCH  33  34
ENDBRANCH  25  28
ENDBRANCH  23  24
ENDBRANCH  22  23
ENDBRANCH   1  22
TORSDOF 20
ENDMDL
MODEL 3
REMARK VINA RESULT:     -10.2      3.847      9.315
REMARK SMILES C=CCS(=O)(=O)N[C@H](CC(N)=O)C(=O)NCCCCNC(=O)c1ccc(-c2c3nc(c(-c4cccc(S(=O)(=O)[O-])c4F)c4ccc([nH]4)c(-c4cccc(S(=O)(=O)[O-])c4F)c4nc(c(-c5cccc(S(=O)(=O)[O-])c5F)c5ccc2[nH]5)C=C4)C=C3)cc1
REMARK SMILES IDX 17 1 16 2 15 3 13 4 14 5 8 7 7 8 4 10 5 11 6 12 3 13 2 14
REMARK SMILES IDX 1 15 9 16 10 17 11 18 12 19 18 22 19 23 20 24 21 25 22 27
REMARK SMILES IDX 23 28 24 29 85 30 25 31 84 32 26 33 27 34 28 35 78 36 29 37
REMARK SMILES IDX 83 38 77 39 79 40 30 41 82 42 76 43 75 44 31 46 63 47 43 48
REMARK SMILES IDX 62 49 44 50 47 51 61 52 80 53 45 54 46 55 60 57 81 58 48 59
REMARK SMILES IDX 32 60 33 61 41 62 34 63 36 64 42 65 35 66 37 67 38 68 39 69
REMARK SMILES IDX 40 70 64 71 65 72 73 73 66 74 68 75 74 76 67 77 69 78 70 79
REMARK SMILES IDX 71 80 72 81 49 82 50 83 58 84 51 85 53 86 59 87 52 88 54 89
REMARK SMILES IDX 55 90 56 91 57 92
REMARK H PARENT 15 6 7 9 11 20 11 21 20 26 79 45 47 56
REMARK Flexibility Score: inf
ROOT
ATOM      1  C   UNL A   1      34.391  23.746  26.212  1.00  0.00     0.023 C 
ENDROOT
BRANCH   1   2
ATOM      2  C   UNL A   1      33.637  25.036  25.912  1.00  0.00     0.116 C 
BRANCH   2   3
ATOM      3  N   UNL A   1      32.227  24.907  26.227  1.00  0.00    -0.355 N 
ATOM      4  C   UNL A   1      31.145  25.727  26.182  1.00  0.00     0.238 C 
ATOM      5  O   UNL A   1      30.094  25.183  26.543  1.00  0.00    -0.273 OA
ATOM      6  H   UNL A   1      31.999  24.006  26.554  1.00  0.00     0.163 HD
BRANCH   4   7
ATOM      7  C   UNL A   1      31.135  27.199  25.698  1.00  0.00     0.168 C 
BRANCH   7   8
ATOM      8  N   UNL A   1      31.111  27.360  24.223  1.00  0.00    -0.202 NA
ATOM      9  H   UNL A   1      31.924  27.940  24.018  1.00  0.00     0.141 HD
BRANCH   8  10
ATOM     10  S   UNL A   1      29.905  27.980  23.257  1.00  0.00     0.215 S 
ATOM     11  O   UNL A   1      28.655  27.306  23.524  1.00  0.00    -0.212 OA
ATOM     12  O   UNL A   1      30.487  27.913  21.930  1.00  0.00    -0.212 OA
BRANCH  10  13
ATOM     13  C   UNL A   1      29.792  29.736  23.674  1.00  0.00     0.180 C 
BRANCH  13  14
ATOM     14  C   UNL A   1      28.701  30.461  22.937  1.00  0.00    -0.017 C 
ATOM     15  C   UNL A   1      28.170  31.654  23.247  1.00  0.00     0.005 C 
ENDBRANCH  13  14
ENDBRANCH  10  13
ENDBRANCH   8  10
ENDBRANCH   7   8
BRANCH   7  16
ATOM     16  C   UNL A   1      32.191  28.045  26.402  1.00  0.00     0.129 C 
BRANCH  16  17
ATOM     17  C   UNL A   1      32.939  29.025  25.533  1.00  0.00     0.219 C 
ATOM     18  N   UNL A   1      33.802  28.449  24.643  1.00  0.00    -0.370 N 
ATOM     19  O   UNL A   1      32.735  30.232  25.547  1.00  0.00    -0.275 OA
ATOM     20  H   UNL A   1      33.946  27.475  24.656  1.00  0.00     0.159 HD
ATOM     21  H   UNL A   1      34.280  29.009  23.989  1.00  0.00     0.159 HD
ENDBRANCH  16  17
ENDBRANCH   7  16
ENDBRANCH   4   7
ENDBRANCH   2   3
ENDBRANCH   1   2
BRANCH   1  22
ATOM     22  C   UNL A   1      35.646  23.521  25.381  1.00  0.00     0.023 C 
BRANCH  22  23
ATOM     23  C   UNL A   1      36.924  23.857  26.130  1.00  0.00     0.116 C 
BRANCH  23  24
ATOM     24  N   UNL A   1      37.864  22.737  26.166  1.00  0.00    -0.352 N 
ATOM     25  C   UNL A   1      39.217  22.755  26.416  1.00  0.00     0.251 C 
ATOM     26  H   UNL A   1      37.476  21.851  25.987  1.00  0.00     0.163 HD
ATOM     27  O   UNL A   1      39.899  21.752  26.237  1.00  0.00    -0.269 OA
BRANCH  25  28
ATOM     28  C   UNL A   1      39.828  24.013  26.884  1.00  0.00     0.039 A 
ATOM     29  C   UNL A   1      40.182  24.997  25.960  1.00  0.00     0.014 A 
ATOM     30  C   UNL A   1      39.961  24.237  28.255  1.00  0.00     0.014 A 
ATOM     31  C   UNL A   1      40.595  26.247  26.423  1.00  0.00     0.010 A 
ATOM     32  C   UNL A   1      40.254  25.510  28.708  1.00  0.00     0.010 A 
ATOM     33  C   UNL A   1      40.590  26.524  27.799  1.00  0.00    -0.014 A 
BRANCH  33  34
ATOM     34  C   UNL A   1      40.950  27.856  28.341  1.00  0.00     0.031 A 
ATOM     35  C   UNL A   1      42.403  28.197  28.543  1.00  0.00     0.074 A 
ATOM     36  C   UNL A   1      39.983  28.691  28.769  1.00  0.00     0.049 A 
ATOM     37  N   UNL A   1      42.933  29.231  29.137  1.00  0.00    -0.248 NA
ATOM     38  C   UNL A   1      43.389  27.213  28.058  1.00  0.00     0.031 C 
ATOM     39  C   UNL A   1      38.543  28.425  28.709  1.00  0.00     0.029 A 
ATOM     40  N   UNL A   1      40.066  29.921  29.370  1.00  0.00    -0.354 N 
ATOM     41  C   UNL A   1      44.303  28.997  29.146  1.00  0.00     0.074 A 
ATOM     42  C   UNL A   1      44.518  27.700  28.548  1.00  0.00     0.031 C 
ATOM     43  C   UNL A   1      37.879  29.466  29.238  1.00  0.00     0.029 A 
ATOM     44  C   UNL A   1      38.844  30.456  29.703  1.00  0.00     0.049 A 
ATOM     45  H   UNL A   1      40.921  30.377  29.546  1.00  0.00     0.167 HD
ATOM     46  C   UNL A   1      45.298  29.808  29.575  1.00  0.00     0.034 A 
ATOM     47  C   UNL A   1      38.540  31.617  30.318  1.00  0.00     0.034 A 
ATOM     48  C   UNL A   1      45.075  31.127  30.095  1.00  0.00     0.049 A 
ATOM     49  C   UNL A   1      39.664  32.534  30.720  1.00  0.00     0.074 A 
ATOM     50  C   UNL A   1      46.008  32.079  30.461  1.00  0.00     0.029 A 
ATOM     51  N   UNL A   1      43.823  31.684  30.314  1.00  0.00    -0.354 N 
ATOM     52  N   UNL A   1      40.958  32.363  30.581  1.00  0.00    -0.248 NA
ATOM     53  C   UNL A   1      39.290  33.817  31.331  1.00  0.00     0.031 C 
ATOM     54  C   UNL A   1      45.319  33.211  30.910  1.00  0.00     0.029 A 
ATOM     55  C   UNL A   1      43.958  32.968  30.810  1.00  0.00     0.049 A 
ATOM     56  H   UNL A   1      42.966  31.232  30.142  1.00  0.00     0.167 HD
ATOM     57  C   UNL A   1      41.550  33.528  31.054  1.00  0.00     0.074 A 
ATOM     58  C   UNL A   1      40.472  34.404  31.465  1.00  0.00     0.031 C 
ATOM     59  C   UNL A   1      42.865  33.840  31.155  1.00  0.00     0.034 A 
BRANCH  46  60
ATOM     60  C   UNL A   1      46.713  29.313  29.425  1.00  0.00     0.023 A 
ATOM     61  C   UNL A   1      47.334  28.649  30.503  1.00  0.00     0.012 A 
ATOM     62  C   UNL A   1      47.420  29.478  28.218  1.00  0.00     0.148 A 
ATOM     63  C   UNL A   1      48.648  28.199  30.401  1.00  0.00     0.002 A 
ATOM     64  C   UNL A   1      48.715  28.984  28.108  1.00  0.00     0.091 A 
ATOM     65  F   UNL A   1      46.825  30.134  27.211  1.00  0.00    -0.205 F 
ATOM     66  C   UNL A   1      49.335  28.357  29.202  1.00  0.00     0.022 A 
BRANCH  64  67
ATOM     67  S   UNL A   1      49.657  29.068  26.580  1.00  0.00     0.127 S 
ATOM     68  O   UNL A   1      49.843  30.511  26.429  1.00  0.00    -0.237 OA
ATOM     69  O   UNL A   1      50.871  28.329  26.924  1.00  0.00    -0.237 OA
ATOM     70  O   UNL A   1      48.827  28.434  25.565  1.00  0.00    -0.744 OA
ENDBRANCH  64  67
ENDBRANCH  46  60
BRANCH  47  71
ATOM     71  C   UNL A   1      37.115  32.014  30.501  1.00  0.00     0.023 A 
ATOM     72  C   UNL A   1      36.503  31.805  31.752  1.00  0.00     0.012 A 
ATOM     73  C   UNL A   1      36.379  32.633  29.473  1.00  0.00     0.148 A 
ATOM     74  C   UNL A   1      35.176  32.176  31.968  1.00  0.00     0.002 A 
ATOM     75  C   UNL A   1      35.072  33.049  29.711  1.00  0.00     0.091 A 
ATOM     76  F   UNL A   1      36.974  32.816  28.286  1.00  0.00    -0.205 F 
ATOM     77  C   UNL A   1      34.464  32.807  30.953  1.00  0.00     0.022 A 
BRANCH  75  78
ATOM     78  S   UNL A   1      34.126  33.988  28.507  1.00  0.00     0.127 S 
ATOM     79  O   UNL A   1      32.894  34.263  29.243  1.00  0.00    -0.237 OA
ATOM     80  O   UNL A   1      34.985  35.152  28.286  1.00  0.00    -0.237 OA
ATOM     81  O   UNL A   1      33.992  33.116  27.347  1.00  0.00    -0.744 OA
ENDBRANCH  75  78
ENDBRANCH  47  71
BRANCH  59  82
ATOM     82  C   UNL A   1      43.218  35.197  31.701  1.00  0.00     0.023 A 
ATOM     83  C   UNL A   1      43.359  35.374  33.091  1.00  0.00     0.012 A 
ATOM     84  C   UNL A   1      43.501  36.267  30.831  1.00  0.00     0.148 A 
ATOM     85  C   UNL A   1      43.753  36.606  33.609  1.00  0.00     0.002 A 
ATOM     86  C   UNL A   1      43.939  37.478  31.352  1.00  0.00     0.091 A 
ATOM     87  F   UNL A   1      43.343  36.080  29.513  1.00  0.00    -0.205 F 
ATOM     88  C   UNL A   1      44.056  37.652  32.741  1.00  0.00     0.022 A 
BRANCH  86  89
ATOM     89  S   UNL A   1      44.447  38.847  30.307  1.00  0.00     0.127 S 
ATOM     90  O   UNL A   1      45.522  38.241  29.523  1.00  0.00    -0.237 OA
ATOM     91  O   UNL A   1      43.226  39.131  29.552  1.00  0.00    -0.237 OA
ATOM     92  O   UNL A   1      44.858  39.911  31.213  1.00  0.00    -0.744 OA
ENDBRANCH  86  89
ENDBRANCH  59  82
ENDBRANCH  33  34
ENDBRANCH  25  28
ENDBRANCH  23  24
ENDBRANCH  22  23
ENDBRANCH   1  22
TORSDOF 20
ENDMDL
