MODEL 1
REMARK VINA RESULT:     -11.8      0.000      0.000
REMARK SMILES O=C(CNC(=O)c1ccc(Cl)cc1Cl)NCCCCNC(=O)c1ccc(-c2c3nc(c(-c4cccc(S(=O)(=O)[O-])c4F)c4ccc([nH]4)c(-c4cccc(S(=O)(=O)[O-])c4F)c4nc(c(-c5cccc(S(=O)(=O)[O-])c5F)c5ccc2[nH]5)C=C4)C=C3)cc1
REMARK SMILES IDX 18 1 17 2 16 3 15 4 1 5 2 6 3 8 4 9 5 10 6 12 7 13 8 14
REMARK SMILES IDX 13 15 9 16 12 17 14 18 10 19 11 20 19 21 20 22 21 23 22 25
REMARK SMILES IDX 23 26 24 27 85 28 25 29 84 30 26 31 27 32 28 33 78 34 29 35
REMARK SMILES IDX 83 36 77 37 79 38 30 39 82 40 76 41 75 42 31 44 63 45 43 46
REMARK SMILES IDX 62 47 44 48 47 49 61 50 80 51 45 52 46 53 60 55 81 56 48 57
REMARK SMILES IDX 32 58 33 59 41 60 34 61 36 62 42 63 35 64 37 65 38 66 39 67
REMARK SMILES IDX 40 68 64 69 65 70 73 71 66 72 68 73 74 74 67 75 69 76 70 77
REMARK SMILES IDX 71 78 72 79 49 80 50 81 58 82 51 83 53 84 59 85 52 86 54 87
REMARK SMILES IDX 55 88 56 89 57 90
REMARK H PARENT 15 7 4 11 20 24 79 43 47 54
REMARK Flexibility Score: inf
ROOT
ATOM      1  C   UNL A   1      31.783  29.948  25.156  1.00  0.00     0.023 C 
ENDROOT
BRANCH   1   2
ATOM      2  C   UNL A   1      32.781  28.905  24.642  1.00  0.00     0.023 C 
BRANCH   2   3
ATOM      3  C   UNL A   1      33.176  27.833  25.658  1.00  0.00     0.116 C 
BRANCH   3   4
ATOM      4  N   UNL A   1      32.482  26.581  25.435  1.00  0.00    -0.355 N 
ATOM      5  O   UNL A   1      30.858  26.941  27.019  1.00  0.00    -0.273 OA
ATOM      6  C   UNL A   1      31.353  26.233  26.145  1.00  0.00     0.239 C 
ATOM      7  H   UNL A   1      32.827  25.959  24.755  1.00  0.00     0.163 HD
BRANCH   6   8
ATOM      8  C   UNL A   1      30.889  24.795  25.924  1.00  0.00     0.216 C 
BRANCH   8   9
ATOM      9  N   UNL A   1      31.259  23.889  27.005  1.00  0.00    -0.343 N 
ATOM     10  C   UNL A   1      32.389  23.141  27.197  1.00  0.00     0.253 C 
ATOM     11  H   UNL A   1      30.582  23.799  27.714  1.00  0.00     0.164 HD
ATOM     12  O   UNL A   1      32.524  22.522  28.251  1.00  0.00    -0.269 OA
BRANCH  10  13
ATOM     13  C   UNL A   1      33.444  23.085  26.164  1.00  0.00     0.058 A 
ATOM     14  C   UNL A   1      34.537  23.958  26.253  1.00  0.00     0.017 A 
ATOM     15  C   UNL A   1      33.389  22.139  25.128  1.00  0.00     0.055 A 
ATOM     16  C   UNL A   1      35.533  23.930  25.277  1.00  0.00     0.021 A 
ATOM     17  C   UNL A   1      34.407  22.094  24.169  1.00  0.00     0.041 A 
ATOM     18  Cl  UNL A   1      32.062  21.049  24.936  1.00  0.00    -0.083 Cl
ATOM     19  C   UNL A   1      35.465  22.998  24.242  1.00  0.00     0.042 A 
ATOM     20  Cl  UNL A   1      36.700  22.979  23.047  1.00  0.00    -0.084 Cl
ENDBRANCH  10  13
ENDBRANCH   8   9
ENDBRANCH   6   8
ENDBRANCH   3   4
ENDBRANCH   2   3
ENDBRANCH   1   2
BRANCH   1  21
ATOM     21  C   UNL A   1      31.965  30.372  26.610  1.00  0.00     0.116 C 
BRANCH  21  22
ATOM     22  N   UNL A   1      31.964  31.817  26.788  1.00  0.00    -0.352 N 
ATOM     23  C   UNL A   1      32.875  32.616  27.440  1.00  0.00     0.251 C 
ATOM     24  H   UNL A   1      31.202  32.291  26.383  1.00  0.00     0.163 HD
ATOM     25  O   UNL A   1      32.635  33.811  27.591  1.00  0.00    -0.269 OA
BRANCH  23  26
ATOM     26  C   UNL A   1      34.124  32.035  27.986  1.00  0.00     0.039 A 
ATOM     27  C   UNL A   1      35.168  32.895  28.337  1.00  0.00     0.014 A 
ATOM     28  C   UNL A   1      34.268  30.656  28.159  1.00  0.00     0.014 A 
ATOM     29  C   UNL A   1      36.326  32.379  28.927  1.00  0.00     0.010 A 
ATOM     30  C   UNL A   1      35.388  30.153  28.817  1.00  0.00     0.010 A 
ATOM     31  C   UNL A   1      36.430  31.006  29.208  1.00  0.00    -0.014 A 
BRANCH  31  32
ATOM     32  C   UNL A   1      37.607  30.453  29.931  1.00  0.00     0.031 A 
ATOM     33  C   UNL A   1      37.924  30.902  31.333  1.00  0.00     0.074 A 
ATOM     34  C   UNL A   1      38.444  29.609  29.294  1.00  0.00     0.049 A 
ATOM     35  N   UNL A   1      38.935  30.573  32.096  1.00  0.00    -0.248 NA
ATOM     36  C   UNL A   1      36.999  31.868  31.950  1.00  0.00     0.031 C 
ATOM     37  C   UNL A   1      38.293  29.153  27.910  1.00  0.00     0.029 A 
ATOM     38  N   UNL A   1      39.603  29.005  29.716  1.00  0.00    -0.354 N 
ATOM     39  C   UNL A   1      38.789  31.314  33.263  1.00  0.00     0.074 A 
ATOM     40  C   UNL A   1      37.608  32.133  33.096  1.00  0.00     0.031 C 
ATOM     41  C   UNL A   1      39.316  28.340  27.600  1.00  0.00     0.029 A 
ATOM     42  C   UNL A   1      40.214  28.244  28.746  1.00  0.00     0.049 A 
ATOM     43  H   UNL A   1      39.963  29.108  30.627  1.00  0.00     0.167 HD
ATOM     44  C   UNL A   1      39.551  31.295  34.383  1.00  0.00     0.034 A 
ATOM     45  C   UNL A   1      41.373  27.555  28.771  1.00  0.00     0.034 A 
ATOM     46  C   UNL A   1      40.704  30.454  34.561  1.00  0.00     0.049 A 
ATOM     47  C   UNL A   1      42.186  27.531  30.036  1.00  0.00     0.074 A 
ATOM     48  C   UNL A   1      41.488  30.298  35.691  1.00  0.00     0.029 A 
ATOM     49  N   UNL A   1      41.249  29.638  33.583  1.00  0.00    -0.354 N 
ATOM     50  N   UNL A   1      41.944  28.114  31.185  1.00  0.00    -0.248 NA
ATOM     51  C   UNL A   1      43.417  26.727  30.020  1.00  0.00     0.031 C 
ATOM     52  C   UNL A   1      42.528  29.415  35.385  1.00  0.00     0.029 A 
ATOM     53  C   UNL A   1      42.368  28.988  34.076  1.00  0.00     0.049 A 
ATOM     54  H   UNL A   1      40.893  29.535  32.670  1.00  0.00     0.167 HD
ATOM     55  C   UNL A   1      42.966  27.716  32.038  1.00  0.00     0.074 A 
ATOM     56  C   UNL A   1      43.821  26.826  31.280  1.00  0.00     0.031 C 
ATOM     57  C   UNL A   1      43.184  28.065  33.329  1.00  0.00     0.034 A 
BRANCH  44  58
ATOM     58  C   UNL A   1      39.138  32.184  35.529  1.00  0.00     0.023 A 
ATOM     59  C   UNL A   1      38.263  31.689  36.517  1.00  0.00     0.012 A 
ATOM     60  C   UNL A   1      39.664  33.484  35.662  1.00  0.00     0.148 A 
ATOM     61  C   UNL A   1      37.888  32.484  37.598  1.00  0.00     0.002 A 
ATOM     62  C   UNL A   1      39.323  34.254  36.768  1.00  0.00     0.091 A 
ATOM     63  F   UNL A   1      40.481  33.946  34.705  1.00  0.00    -0.205 F 
ATOM     64  C   UNL A   1      38.426  33.761  37.730  1.00  0.00     0.022 A 
BRANCH  62  65
ATOM     65  S   UNL A   1      40.027  35.878  37.075  1.00  0.00     0.127 S 
ATOM     66  O   UNL A   1      41.450  35.565  37.198  1.00  0.00    -0.237 OA
ATOM     67  O   UNL A   1      39.667  36.604  35.857  1.00  0.00    -0.237 OA
ATOM     68  O   UNL A   1      39.389  36.371  38.287  1.00  0.00    -0.744 OA
ENDBRANCH  62  65
ENDBRANCH  44  58
BRANCH  45  69
ATOM     69  C   UNL A   1      41.807  26.784  27.571  1.00  0.00     0.023 A 
ATOM     70  C   UNL A   1      42.418  27.459  26.496  1.00  0.00     0.012 A 
ATOM     71  C   UNL A   1      41.633  25.388  27.495  1.00  0.00     0.148 A 
ATOM     72  C   UNL A   1      42.816  26.764  25.352  1.00  0.00     0.002 A 
ATOM     73  C   UNL A   1      42.084  24.694  26.379  1.00  0.00     0.091 A 
ATOM     74  F   UNL A   1      41.041  24.766  28.524  1.00  0.00    -0.205 F 
ATOM     75  C   UNL A   1      42.657  25.382  25.298  1.00  0.00     0.022 A 
BRANCH  73  76
ATOM     76  S   UNL A   1      42.043  22.901  26.279  1.00  0.00     0.127 S 
ATOM     77  O   UNL A   1      42.828  22.519  27.450  1.00  0.00    -0.237 OA
ATOM     78  O   UNL A   1      40.609  22.628  26.383  1.00  0.00    -0.237 OA
ATOM     79  O   UNL A   1      42.627  22.565  24.988  1.00  0.00    -0.744 OA
ENDBRANCH  73  76
ENDBRANCH  45  69
BRANCH  57  80
ATOM     80  C   UNL A   1      44.368  27.452  34.032  1.00  0.00     0.023 A 
ATOM     81  C   UNL A   1      45.610  28.118  34.036  1.00  0.00     0.012 A 
ATOM     82  C   UNL A   1      44.229  26.248  34.751  1.00  0.00     0.148 A 
ATOM     83  C   UNL A   1      46.703  27.578  34.713  1.00  0.00     0.002 A 
ATOM     84  C   UNL A   1      45.306  25.742  35.466  1.00  0.00     0.091 A 
ATOM     85  F   UNL A   1      43.045  25.618  34.721  1.00  0.00    -0.205 F 
ATOM     86  C   UNL A   1      46.548  26.398  35.438  1.00  0.00     0.022 A 
BRANCH  84  87
ATOM     87  S   UNL A   1      45.175  24.284  36.507  1.00  0.00     0.127 S 
ATOM     88  O   UNL A   1      44.365  23.396  35.674  1.00  0.00    -0.237 OA
ATOM     89  O   UNL A   1      46.574  23.878  36.650  1.00  0.00    -0.237 OA
ATOM     90  O   UNL A   1      44.545  24.726  37.743  1.00  0.00    -0.744 OA
ENDBRANCH  84  87
ENDBRANCH  57  80
ENDBRANCH  31  32
ENDBRANCH  23  26
ENDBRANCH  21  22
ENDBRANCH   1  21
TORSDOF 16
ENDMDL
MODEL 2
REMARK VINA RESULT:     -11.8      5.520     11.123
REMARK SMILES O=C(CNC(=O)c1ccc(Cl)cc1Cl)NCCCCNC(=O)c1ccc(-c2c3nc(c(-c4cccc(S(=O)(=O)[O-])c4F)c4ccc([nH]4)c(-c4cccc(S(=O)(=O)[O-])c4F)c4nc(c(-c5cccc(S(=O)(=O)[O-])c5F)c5ccc2[nH]5)C=C4)C=C3)cc1
REMARK SMILES IDX 18 1 17 2 16 3 15 4 1 5 2 6 3 8 4 9 5 10 6 12 7 13 8 14
REMARK SMILES IDX 13 15 9 16 12 17 14 18 10 19 11 20 19 21 20 22 21 23 22 25
REMARK SMILES IDX 23 26 24 27 85 28 25 29 84 30 26 31 27 32 28 33 78 34 29 35
REMARK SMILES IDX 83 36 77 37 79 38 30 39 82 40 76 41 75 42 31 44 63 45 43 46
REMARK SMILES IDX 62 47 44 48 47 49 61 50 80 51 45 52 46 53 60 55 81 56 48 57
REMARK SMILES IDX 32 58 33 59 41 60 34 61 36 62 42 63 35 64 37 65 38 66 39 67
REMARK SMILES IDX 40 68 64 69 65 70 73 71 66 72 68 73 74 74 67 75 69 76 70 77
REMARK SMILES IDX 71 78 72 79 49 80 50 81 58 82 51 83 53 84 59 85 52 86 54 87
REMARK SMILES IDX 55 88 56 89 57 90
REMARK H PARENT 15 7 4 11 20 24 79 43 47 54
REMARK Flexibility Score: inf
ROOT
ATOM      1  C   UNL A   1      41.611  20.847  26.128  1.00  0.00     0.023 C 
ENDROOT
BRANCH   1   2
ATOM      2  C   UNL A   1      42.138  19.421  26.312  1.00  0.00     0.023 C 
BRANCH   2   3
ATOM      3  C   UNL A   1      43.451  19.118  25.588  1.00  0.00     0.116 C 
BRANCH   3   4
ATOM      4  N   UNL A   1      44.389  20.219  25.669  1.00  0.00    -0.355 N 
ATOM      5  O   UNL A   1      44.564  20.531  23.400  1.00  0.00    -0.273 OA
ATOM      6  C   UNL A   1      44.875  20.851  24.545  1.00  0.00     0.239 C 
ATOM      7  H   UNL A   1      44.690  20.525  26.555  1.00  0.00     0.163 HD
BRANCH   6   8
ATOM      8  C   UNL A   1      46.008  21.839  24.817  1.00  0.00     0.216 C 
BRANCH   8   9
ATOM      9  N   UNL A   1      45.683  23.214  24.457  1.00  0.00    -0.343 N 
ATOM     10  C   UNL A   1      45.237  24.258  25.222  1.00  0.00     0.253 C 
ATOM     11  H   UNL A   1      45.802  23.427  23.503  1.00  0.00     0.164 HD
ATOM     12  O   UNL A   1      45.129  25.371  24.710  1.00  0.00    -0.269 OA
BRANCH  10  13
ATOM     13  C   UNL A   1      44.903  24.062  26.648  1.00  0.00     0.058 A 
ATOM     14  C   UNL A   1      43.636  23.570  26.992  1.00  0.00     0.017 A 
ATOM     15  C   UNL A   1      45.849  24.316  27.652  1.00  0.00     0.055 A 
ATOM     16  C   UNL A   1      43.297  23.395  28.335  1.00  0.00     0.021 A 
ATOM     17  C   UNL A   1      45.515  24.110  28.995  1.00  0.00     0.041 A 
ATOM     18  Cl  UNL A   1      47.420  24.950  27.309  1.00  0.00    -0.083 Cl
ATOM     19  C   UNL A   1      44.238  23.663  29.329  1.00  0.00     0.042 A 
ATOM     20  Cl  UNL A   1      43.803  23.445  30.977  1.00  0.00    -0.084 Cl
ENDBRANCH  10  13
ENDBRANCH   8   9
ENDBRANCH   6   8
ENDBRANCH   3   4
ENDBRANCH   2   3
ENDBRANCH   1   2
BRANCH   1  21
ATOM     21  C   UNL A   1      40.505  21.270  27.089  1.00  0.00     0.116 C 
BRANCH  21  22
ATOM     22  N   UNL A   1      39.250  21.575  26.418  1.00  0.00    -0.352 N 
ATOM     23  C   UNL A   1      38.589  22.776  26.308  1.00  0.00     0.251 C 
ATOM     24  H   UNL A   1      38.810  20.811  25.979  1.00  0.00     0.163 HD
ATOM     25  O   UNL A   1      37.469  22.810  25.804  1.00  0.00    -0.269 OA
BRANCH  23  26
ATOM     26  C   UNL A   1      39.208  24.020  26.823  1.00  0.00     0.039 A 
ATOM     27  C   UNL A   1      39.952  24.815  25.947  1.00  0.00     0.014 A 
ATOM     28  C   UNL A   1      39.054  24.409  28.157  1.00  0.00     0.014 A 
ATOM     29  C   UNL A   1      40.479  26.032  26.389  1.00  0.00     0.010 A 
ATOM     30  C   UNL A   1      39.513  25.656  28.573  1.00  0.00     0.010 A 
ATOM     31  C   UNL A   1      40.231  26.482  27.696  1.00  0.00    -0.014 A 
BRANCH  31  32
ATOM     32  C   UNL A   1      40.692  27.821  28.152  1.00  0.00     0.031 A 
ATOM     33  C   UNL A   1      42.161  28.152  28.191  1.00  0.00     0.074 A 
ATOM     34  C   UNL A   1      39.793  28.714  28.616  1.00  0.00     0.049 A 
ATOM     35  N   UNL A   1      42.750  29.243  28.610  1.00  0.00    -0.248 NA
ATOM     36  C   UNL A   1      43.092  27.112  27.722  1.00  0.00     0.031 C 
ATOM     37  C   UNL A   1      38.348  28.491  28.703  1.00  0.00     0.029 A 
ATOM     38  N   UNL A   1      39.963  29.977  29.126  1.00  0.00    -0.354 N 
ATOM     39  C   UNL A   1      44.115  29.010  28.490  1.00  0.00     0.074 A 
ATOM     40  C   UNL A   1      44.269  27.661  27.988  1.00  0.00     0.031 C 
ATOM     41  C   UNL A   1      37.765  29.579  29.230  1.00  0.00     0.029 A 
ATOM     42  C   UNL A   1      38.794  30.564  29.552  1.00  0.00     0.049 A 
ATOM     43  H   UNL A   1      40.841  30.422  29.184  1.00  0.00     0.167 HD
ATOM     44  C   UNL A   1      45.147  29.848  28.748  1.00  0.00     0.034 A 
ATOM     45  C   UNL A   1      38.573  31.754  30.145  1.00  0.00     0.034 A 
ATOM     46  C   UNL A   1      44.992  31.200  29.213  1.00  0.00     0.049 A 
ATOM     47  C   UNL A   1      39.735  32.676  30.397  1.00  0.00     0.074 A 
ATOM     48  C   UNL A   1      45.972  32.156  29.418  1.00  0.00     0.029 A 
ATOM     49  N   UNL A   1      43.785  31.786  29.561  1.00  0.00    -0.354 N 
ATOM     50  N   UNL A   1      41.005  32.497  30.126  1.00  0.00    -0.248 NA
ATOM     51  C   UNL A   1      39.429  33.979  31.004  1.00  0.00     0.031 C 
ATOM     52  C   UNL A   1      45.361  33.308  29.923  1.00  0.00     0.029 A 
ATOM     53  C   UNL A   1      43.995  33.084  29.994  1.00  0.00     0.049 A 
ATOM     54  H   UNL A   1      42.907  31.344  29.508  1.00  0.00     0.167 HD
ATOM     55  C   UNL A   1      41.644  33.676  30.492  1.00  0.00     0.074 A 
ATOM     56  C   UNL A   1      40.617  34.570  30.986  1.00  0.00     0.031 C 
ATOM     57  C   UNL A   1      42.962  33.985  30.436  1.00  0.00     0.034 A 
BRANCH  44  58
ATOM     58  C   UNL A   1      46.544  29.342  28.491  1.00  0.00     0.023 A 
ATOM     59  C   UNL A   1      47.162  29.596  27.249  1.00  0.00     0.012 A 
ATOM     60  C   UNL A   1      47.268  28.673  29.498  1.00  0.00     0.148 A 
ATOM     61  C   UNL A   1      48.462  29.160  26.999  1.00  0.00     0.002 A 
ATOM     62  C   UNL A   1      48.581  28.285  29.258  1.00  0.00     0.091 A 
ATOM     63  F   UNL A   1      46.660  28.425  30.666  1.00  0.00    -0.205 F 
ATOM     64  C   UNL A   1      49.175  28.515  28.006  1.00  0.00     0.022 A 
BRANCH  62  65
ATOM     65  S   UNL A   1      49.614  27.523  30.515  1.00  0.00     0.127 S 
ATOM     66  O   UNL A   1      49.099  26.155  30.531  1.00  0.00    -0.237 OA
ATOM     67  O   UNL A   1      50.952  27.663  29.939  1.00  0.00    -0.237 OA
ATOM     68  O   UNL A   1      49.394  28.288  31.734  1.00  0.00    -0.744 OA
ENDBRANCH  62  65
ENDBRANCH  44  58
BRANCH  45  69
ATOM     69  C   UNL A   1      37.183  32.166  30.494  1.00  0.00     0.023 A 
ATOM     70  C   UNL A   1      36.709  31.969  31.806  1.00  0.00     0.012 A 
ATOM     71  C   UNL A   1      36.337  32.765  29.542  1.00  0.00     0.148 A 
ATOM     72  C   UNL A   1      35.406  32.327  32.154  1.00  0.00     0.002 A 
ATOM     73  C   UNL A   1      35.060  33.174  29.910  1.00  0.00     0.091 A 
ATOM     74  F   UNL A   1      36.802  32.936  28.296  1.00  0.00    -0.205 F 
ATOM     75  C   UNL A   1      34.586  32.937  31.209  1.00  0.00     0.022 A 
BRANCH  73  76
ATOM     76  S   UNL A   1      33.983  34.086  28.799  1.00  0.00     0.127 S 
ATOM     77  O   UNL A   1      34.866  35.154  28.339  1.00  0.00    -0.237 OA
ATOM     78  O   UNL A   1      33.664  33.073  27.792  1.00  0.00    -0.237 OA
ATOM     79  O   UNL A   1      32.848  34.507  29.608  1.00  0.00    -0.744 OA
ENDBRANCH  73  76
ENDBRANCH  45  69
BRANCH  57  80
ATOM     80  C   UNL A   1      43.378  35.366  30.875  1.00  0.00     0.023 A 
ATOM     81  C   UNL A   1      43.771  35.595  32.208  1.00  0.00     0.012 A 
ATOM     82  C   UNL A   1      43.448  36.421  29.943  1.00  0.00     0.148 A 
ATOM     83  C   UNL A   1      44.192  36.860  32.616  1.00  0.00     0.002 A 
ATOM     84  C   UNL A   1      43.918  37.666  30.344  1.00  0.00     0.091 A 
ATOM     85  F   UNL A   1      43.053  36.190  28.683  1.00  0.00    -0.205 F 
ATOM     86  C   UNL A   1      44.278  37.891  31.683  1.00  0.00     0.022 A 
BRANCH  84  87
ATOM     87  S   UNL A   1      44.157  39.024  29.193  1.00  0.00     0.127 S 
ATOM     88  O   UNL A   1      43.113  39.956  29.613  1.00  0.00    -0.237 OA
ATOM     89  O   UNL A   1      45.521  39.455  29.501  1.00  0.00    -0.237 OA
ATOM     90  O   UNL A   1      43.990  38.457  27.861  1.00  0.00    -0.744 OA
ENDBRANCH  84  87
ENDBRANCH  57  80
ENDBRANCH  31  32
ENDBRANCH  23  26
ENDBRANCH  21  22
ENDBRANCH   1  21
TORSDOF 16
ENDMDL
MODEL 3
REMARK VINA RESULT:     -11.7      1.345      1.626
REMARK SMILES O=C(CNC(=O)c1ccc(Cl)cc1Cl)NCCCCNC(=O)c1ccc(-c2c3nc(c(-c4cccc(S(=O)(=O)[O-])c4F)c4ccc([nH]4)c(-c4cccc(S(=O)(=O)[O-])c4F)c4nc(c(-c5cccc(S(=O)(=O)[O-])c5F)c5ccc2[nH]5)C=C4)C=C3)cc1
REMARK SMILES IDX 18 1 17 2 16 3 15 4 1 5 2 6 3 8 4 9 5 10 6 12 7 13 8 14
REMARK SMILES IDX 13 15 9 16 12 17 14 18 10 19 11 20 19 21 20 22 21 23 22 25
REMARK SMILES IDX 23 26 24 27 85 28 25 29 84 30 26 31 27 32 28 33 78 34 29 35
REMARK SMILES IDX 83 36 77 37 79 38 30 39 82 40 76 41 75 42 31 44 63 45 43 46
REMARK SMILES IDX 62 47 44 48 47 49 61 50 80 51 45 52 46 53 60 55 81 56 48 57
REMARK SMILES IDX 32 58 33 59 41 60 34 61 36 62 42 63 35 64 37 65 38 66 39 67
REMARK SMILES IDX 40 68 64 69 65 70 73 71 66 72 68 73 74 74 67 75 69 76 70 77
REMARK SMILES IDX 71 78 72 79 49 80 50 81 58 82 51 83 53 84 59 85 52 86 54 87
REMARK SMILES IDX 55 88 56 89 57 90
REMARK H PARENT 15 7 4 11 20 24 79 43 47 54
REMARK Flexibility Score: inf
ROOT
ATOM      1  C   UNL A   1      31.813  30.456  26.005  1.00  0.00     0.023 C 
ENDROOT
BRANCH   1   2
ATOM      2  C   UNL A   1      32.592  29.531  25.066  1.00  0.00     0.023 C 
BRANCH   2   3
ATOM      3  C   UNL A   1      33.215  28.305  25.736  1.00  0.00     0.116 C 
BRANCH   3   4
ATOM      4  N   UNL A   1      32.495  27.085  25.429  1.00  0.00    -0.355 N 
ATOM      5  O   UNL A   1      31.112  27.175  27.261  1.00  0.00    -0.273 OA
ATOM      6  C   UNL A   1      31.479  26.613  26.231  1.00  0.00     0.239 C 
ATOM      7  H   UNL A   1      32.741  26.577  24.623  1.00  0.00     0.163 HD
BRANCH   6   8
ATOM      8  C   UNL A   1      30.987  25.214  25.866  1.00  0.00     0.216 C 
BRANCH   8   9
ATOM      9  N   UNL A   1      31.236  24.219  26.903  1.00  0.00    -0.343 N 
ATOM     10  C   UNL A   1      32.273  23.342  27.070  1.00  0.00     0.253 C 
ATOM     11  H   UNL A   1      30.540  24.168  27.598  1.00  0.00     0.164 HD
ATOM     12  O   UNL A   1      32.320  22.660  28.092  1.00  0.00    -0.269 OA
BRANCH  10  13
ATOM     13  C   UNL A   1      33.334  23.222  26.049  1.00  0.00     0.058 A 
ATOM     14  C   UNL A   1      34.401  24.131  26.061  1.00  0.00     0.017 A 
ATOM     15  C   UNL A   1      33.312  22.184  25.105  1.00  0.00     0.055 A 
ATOM     16  C   UNL A   1      35.404  24.043  25.094  1.00  0.00     0.021 A 
ATOM     17  C   UNL A   1      34.336  22.081  24.156  1.00  0.00     0.041 A 
ATOM     18  Cl  UNL A   1      32.018  21.043  25.010  1.00  0.00    -0.083 Cl
ATOM     19  C   UNL A   1      35.368  23.018  24.149  1.00  0.00     0.042 A 
ATOM     20  Cl  UNL A   1      36.609  22.925  22.963  1.00  0.00    -0.084 Cl
ENDBRANCH  10  13
ENDBRANCH   8   9
ENDBRANCH   6   8
ENDBRANCH   3   4
ENDBRANCH   2   3
ENDBRANCH   1   2
BRANCH   1  21
ATOM     21  C   UNL A   1      32.569  30.923  27.245  1.00  0.00     0.116 C 
BRANCH  21  22
ATOM     22  N   UNL A   1      32.818  32.357  27.257  1.00  0.00    -0.352 N 
ATOM     23  C   UNL A   1      33.903  33.050  27.742  1.00  0.00     0.251 C 
ATOM     24  H   UNL A   1      32.107  32.912  26.862  1.00  0.00     0.163 HD
ATOM     25  O   UNL A   1      33.875  34.278  27.775  1.00  0.00    -0.269 OA
BRANCH  23  26
ATOM     26  C   UNL A   1      35.088  32.322  28.252  1.00  0.00     0.039 A 
ATOM     27  C   UNL A   1      36.315  32.990  28.310  1.00  0.00     0.014 A 
ATOM     28  C   UNL A   1      34.998  30.994  28.677  1.00  0.00     0.014 A 
ATOM     29  C   UNL A   1      37.430  32.351  28.861  1.00  0.00     0.010 A 
ATOM     30  C   UNL A   1      36.089  30.387  29.295  1.00  0.00     0.010 A 
ATOM     31  C   UNL A   1      37.317  31.057  29.394  1.00  0.00    -0.014 A 
BRANCH  31  32
ATOM     32  C   UNL A   1      38.463  30.401  30.079  1.00  0.00     0.031 A 
ATOM     33  C   UNL A   1      38.865  30.819  31.469  1.00  0.00     0.074 A 
ATOM     34  C   UNL A   1      39.201  29.486  29.416  1.00  0.00     0.049 A 
ATOM     35  N   UNL A   1      39.867  30.401  32.199  1.00  0.00    -0.248 NA
ATOM     36  C   UNL A   1      38.049  31.861  32.115  1.00  0.00     0.031 C 
ATOM     37  C   UNL A   1      38.965  29.047  28.039  1.00  0.00     0.029 A 
ATOM     38  N   UNL A   1      40.315  28.782  29.801  1.00  0.00    -0.354 N 
ATOM     39  C   UNL A   1      39.826  31.149  33.369  1.00  0.00     0.074 A 
ATOM     40  C   UNL A   1      38.717  32.070  33.240  1.00  0.00     0.031 C 
ATOM     41  C   UNL A   1      39.901  28.148  27.697  1.00  0.00     0.029 A 
ATOM     42  C   UNL A   1      40.825  27.971  28.813  1.00  0.00     0.049 A 
ATOM     43  H   UNL A   1      40.713  28.851  30.699  1.00  0.00     0.167 HD
ATOM     44  C   UNL A   1      40.620  31.063  34.463  1.00  0.00     0.034 A 
ATOM     45  C   UNL A   1      41.918  27.182  28.801  1.00  0.00     0.034 A 
ATOM     46  C   UNL A   1      41.699  30.122  34.605  1.00  0.00     0.049 A 
ATOM     47  C   UNL A   1      42.768  27.085  30.039  1.00  0.00     0.074 A 
ATOM     48  C   UNL A   1      42.502  29.897  35.709  1.00  0.00     0.029 A 
ATOM     49  N   UNL A   1      42.137  29.262  33.611  1.00  0.00    -0.354 N 
ATOM     50  N   UNL A   1      42.615  27.686  31.194  1.00  0.00    -0.248 NA
ATOM     51  C   UNL A   1      43.921  26.175  29.984  1.00  0.00     0.031 C 
ATOM     52  C   UNL A   1      43.450  28.925  35.370  1.00  0.00     0.029 A 
ATOM     53  C   UNL A   1      43.210  28.516  34.068  1.00  0.00     0.049 A 
ATOM     54  H   UNL A   1      41.744  29.192  32.711  1.00  0.00     0.167 HD
ATOM     55  C   UNL A   1      43.626  27.198  32.014  1.00  0.00     0.074 A 
ATOM     56  C   UNL A   1      44.373  26.237  31.230  1.00  0.00     0.031 C 
ATOM     57  C   UNL A   1      43.916  27.525  33.297  1.00  0.00     0.034 A 
BRANCH  44  58
ATOM     58  C   UNL A   1      40.324  31.983  35.620  1.00  0.00     0.023 A 
ATOM     59  C   UNL A   1      41.127  33.124  35.829  1.00  0.00     0.012 A 
ATOM     60  C   UNL A   1      39.217  31.757  36.461  1.00  0.00     0.148 A 
ATOM     61  C   UNL A   1      40.857  34.002  36.876  1.00  0.00     0.002 A 
ATOM     62  C   UNL A   1      38.925  32.663  37.473  1.00  0.00     0.091 A 
ATOM     63  F   UNL A   1      38.474  30.659  36.260  1.00  0.00    -0.205 F 
ATOM     64  C   UNL A   1      39.751  33.779  37.691  1.00  0.00     0.022 A 
BRANCH  62  65
ATOM     65  S   UNL A   1      37.475  32.513  38.524  1.00  0.00     0.127 S 
ATOM     66  O   UNL A   1      36.415  32.980  37.632  1.00  0.00    -0.237 OA
ATOM     67  O   UNL A   1      37.447  31.077  38.803  1.00  0.00    -0.237 OA
ATOM     68  O   UNL A   1      37.730  33.352  39.685  1.00  0.00    -0.744 OA
ENDBRANCH  62  65
ENDBRANCH  44  58
BRANCH  45  69
ATOM     69  C   UNL A   1      42.243  26.377  27.589  1.00  0.00     0.023 A 
ATOM     70  C   UNL A   1      42.910  26.987  26.508  1.00  0.00     0.012 A 
ATOM     71  C   UNL A   1      41.910  25.011  27.507  1.00  0.00     0.148 A 
ATOM     72  C   UNL A   1      43.208  26.261  25.354  1.00  0.00     0.002 A 
ATOM     73  C   UNL A   1      42.261  24.280  26.378  1.00  0.00     0.091 A 
ATOM     74  F   UNL A   1      41.266  24.451  28.541  1.00  0.00    -0.205 F 
ATOM     75  C   UNL A   1      42.892  24.907  25.293  1.00  0.00     0.022 A 
BRANCH  73  76
ATOM     76  S   UNL A   1      42.014  22.504  26.267  1.00  0.00     0.127 S 
ATOM     77  O   UNL A   1      40.557  22.406  26.244  1.00  0.00    -0.237 OA
ATOM     78  O   UNL A   1      42.673  22.188  24.999  1.00  0.00    -0.237 OA
ATOM     79  O   UNL A   1      42.668  21.941  27.440  1.00  0.00    -0.744 OA
ENDBRANCH  73  76
ENDBRANCH  45  69
BRANCH  57  80
ATOM     80  C   UNL A   1      45.064  26.809  33.962  1.00  0.00     0.023 A 
ATOM     81  C   UNL A   1      46.371  27.326  33.864  1.00  0.00     0.012 A 
ATOM     82  C   UNL A   1      44.833  25.659  34.744  1.00  0.00     0.148 A 
ATOM     83  C   UNL A   1      47.435  26.691  34.505  1.00  0.00     0.002 A 
ATOM     84  C   UNL A   1      45.888  25.062  35.422  1.00  0.00     0.091 A 
ATOM     85  F   UNL A   1      43.586  25.171  34.810  1.00  0.00    -0.205 F 
ATOM     86  C   UNL A   1      47.192  25.568  35.293  1.00  0.00     0.022 A 
BRANCH  84  87
ATOM     87  S   UNL A   1      45.656  23.674  36.538  1.00  0.00     0.127 S 
ATOM     88  O   UNL A   1      44.967  22.713  35.678  1.00  0.00    -0.237 OA
ATOM     89  O   UNL A   1      47.034  23.313  36.874  1.00  0.00    -0.237 OA
ATOM     90  O   UNL A   1      44.875  24.182  37.657  1.00  0.00    -0.744 OA
ENDBRANCH  84  87
ENDBRANCH  57  80
ENDBRANCH  31  32
ENDBRANCH  23  26
ENDBRANCH  21  22
ENDBRANCH   1  21
TORSDOF 16
ENDMDL
