MODEL 1
REMARK VINA RESULT:     -10.7      0.000      0.000
REMARK SMILES C=CCSc1ccccc1C(=O)NCCCCNC(=O)c1ccc(-c2c3nc(c(-c4cccc(S(=O)(=O)[O-])c4F)c4ccc([nH]4)c(-c4cccc(S(=O)(=O)[O-])c4F)c4nc(c(-c5cccc(S(=O)(=O)[O-])c5F)c5ccc2[nH]5)C=C4)C=C3)cc1
REMARK SMILES IDX 15 1 14 2 13 3 11 4 12 5 10 7 5 8 6 9 7 10 9 11 8 12 4 13
REMARK SMILES IDX 3 14 2 15 1 16 16 17 17 18 18 19 19 20 20 22 21 23 22 24
REMARK SMILES IDX 83 25 23 26 82 27 24 28 25 29 26 30 76 31 27 32 81 33 75 34
REMARK SMILES IDX 77 35 28 36 80 37 74 38 73 39 29 41 61 42 41 43 60 44 42 45
REMARK SMILES IDX 45 46 59 47 78 48 43 49 44 50 58 52 79 53 46 54 30 55 31 56
REMARK SMILES IDX 39 57 32 58 34 59 40 60 33 61 35 62 36 63 37 64 38 65 62 66
REMARK SMILES IDX 63 67 71 68 64 69 66 70 72 71 65 72 67 73 68 74 69 75 70 76
REMARK SMILES IDX 47 77 48 78 56 79 49 80 51 81 57 82 50 83 52 84 53 85 54 86
REMARK SMILES IDX 55 87
REMARK H PARENT 13 6 18 21 77 40 45 51
REMARK Flexibility Score: inf
ROOT
ATOM      1  C   UNL A   1      32.197  27.508  26.243  1.00  0.00     0.023 C 
ENDROOT
BRANCH   1   2
ATOM      2  C   UNL A   1      33.588  27.315  25.631  1.00  0.00     0.116 C 
BRANCH   2   3
ATOM      3  N   UNL A   1      33.432  27.125  24.207  1.00  0.00    -0.352 N 
ATOM      4  C   UNL A   1      33.603  26.044  23.387  1.00  0.00     0.252 C 
ATOM      5  O   UNL A   1      33.699  26.296  22.179  1.00  0.00    -0.269 OA
ATOM      6  H   UNL A   1      33.146  27.938  23.731  1.00  0.00     0.163 HD
BRANCH   4   7
ATOM      7  C   UNL A   1      33.543  24.603  23.777  1.00  0.00     0.053 A 
ATOM      8  C   UNL A   1      32.540  23.864  24.434  1.00  0.00     0.020 A 
ATOM      9  C   UNL A   1      32.799  22.512  24.767  1.00  0.00     0.016 A 
ATOM     10  C   UNL A   1      34.025  21.903  24.506  1.00  0.00     0.001 A 
ATOM     11  C   UNL A   1      34.777  23.951  23.516  1.00  0.00     0.015 A 
ATOM     12  C   UNL A   1      35.021  22.627  23.880  1.00  0.00     0.001 A 
BRANCH   8  13
ATOM     13  S   UNL A   1      30.901  24.360  24.937  1.00  0.00    -0.121 SA
BRANCH  13  14
ATOM     14  C   UNL A   1      30.332  25.297  23.490  1.00  0.00     0.101 C 
BRANCH  14  15
ATOM     15  C   UNL A   1      29.756  26.609  23.913  1.00  0.00    -0.024 C 
ATOM     16  C   UNL A   1      29.705  27.684  23.116  1.00  0.00     0.005 C 
ENDBRANCH  14  15
ENDBRANCH  13  14
ENDBRANCH   8  13
ENDBRANCH   4   7
ENDBRANCH   2   3
ENDBRANCH   1   2
BRANCH   1  17
ATOM     17  C   UNL A   1      31.837  28.934  26.630  1.00  0.00     0.023 C 
BRANCH  17  18
ATOM     18  C   UNL A   1      32.741  29.985  26.011  1.00  0.00     0.116 C 
BRANCH  18  19
ATOM     19  N   UNL A   1      32.502  31.336  26.510  1.00  0.00    -0.352 N 
ATOM     20  C   UNL A   1      33.291  32.093  27.348  1.00  0.00     0.251 C 
ATOM     21  H   UNL A   1      31.667  31.762  26.209  1.00  0.00     0.163 HD
ATOM     22  O   UNL A   1      32.916  33.190  27.739  1.00  0.00    -0.269 OA
BRANCH  20  23
ATOM     23  C   UNL A   1      34.577  31.528  27.799  1.00  0.00     0.039 A 
ATOM     24  C   UNL A   1      35.666  32.382  27.982  1.00  0.00     0.014 A 
ATOM     25  C   UNL A   1      34.661  30.178  28.146  1.00  0.00     0.014 A 
ATOM     26  C   UNL A   1      36.817  31.896  28.602  1.00  0.00     0.010 A 
ATOM     27  C   UNL A   1      35.762  29.728  28.856  1.00  0.00     0.010 A 
ATOM     28  C   UNL A   1      36.854  30.578  29.089  1.00  0.00    -0.014 A 
BRANCH  28  29
ATOM     29  C   UNL A   1      38.017  30.056  29.850  1.00  0.00     0.031 A 
ATOM     30  C   UNL A   1      38.251  30.526  31.261  1.00  0.00     0.074 A 
ATOM     31  C   UNL A   1      38.922  29.269  29.234  1.00  0.00     0.049 A 
ATOM     32  N   UNL A   1      39.264  30.286  32.051  1.00  0.00    -0.248 NA
ATOM     33  C   UNL A   1      37.238  31.425  31.844  1.00  0.00     0.031 C 
ATOM     34  C   UNL A   1      38.863  28.837  27.835  1.00  0.00     0.029 A 
ATOM     35  N   UNL A   1      40.088  28.716  29.701  1.00  0.00    -0.354 N 
ATOM     36  C   UNL A   1      39.041  31.046  33.191  1.00  0.00     0.074 A 
ATOM     37  C   UNL A   1      37.817  31.785  32.980  1.00  0.00     0.031 C 
ATOM     38  C   UNL A   1      39.940  28.081  27.561  1.00  0.00     0.029 A 
ATOM     39  C   UNL A   1      40.775  27.991  28.753  1.00  0.00     0.049 A 
ATOM     40  H   UNL A   1      40.405  28.828  30.625  1.00  0.00     0.167 HD
ATOM     41  C   UNL A   1      39.767  31.096  34.332  1.00  0.00     0.034 A 
ATOM     42  C   UNL A   1      41.945  27.327  28.841  1.00  0.00     0.034 A 
ATOM     43  C   UNL A   1      40.926  30.284  34.575  1.00  0.00     0.049 A 
ATOM     44  C   UNL A   1      42.666  27.302  30.161  1.00  0.00     0.074 A 
ATOM     45  C   UNL A   1      41.660  30.160  35.740  1.00  0.00     0.029 A 
ATOM     46  N   UNL A   1      41.509  29.443  33.640  1.00  0.00    -0.354 N 
ATOM     47  N   UNL A   1      42.341  27.886  31.289  1.00  0.00    -0.248 NA
ATOM     48  C   UNL A   1      43.891  26.493  30.237  1.00  0.00     0.031 C 
ATOM     49  C   UNL A   1      42.689  29.242  35.509  1.00  0.00     0.029 A 
ATOM     50  C   UNL A   1      42.590  28.791  34.202  1.00  0.00     0.049 A 
ATOM     51  H   UNL A   1      41.198  29.328  32.712  1.00  0.00     0.167 HD
ATOM     52  C   UNL A   1      43.300  27.489  32.214  1.00  0.00     0.074 A 
ATOM     53  C   UNL A   1      44.203  26.594  31.522  1.00  0.00     0.031 C 
ATOM     54  C   UNL A   1      43.433  27.848  33.514  1.00  0.00     0.034 A 
BRANCH  41  55
ATOM     55  C   UNL A   1      39.279  31.994  35.436  1.00  0.00     0.023 A 
ATOM     56  C   UNL A   1      38.343  31.498  36.367  1.00  0.00     0.012 A 
ATOM     57  C   UNL A   1      39.783  33.300  35.589  1.00  0.00     0.148 A 
ATOM     58  C   UNL A   1      37.891  32.297  37.415  1.00  0.00     0.002 A 
ATOM     59  C   UNL A   1      39.358  34.077  36.661  1.00  0.00     0.091 A 
ATOM     60  F   UNL A   1      40.653  33.761  34.681  1.00  0.00    -0.205 F 
ATOM     61  C   UNL A   1      38.406  33.581  37.568  1.00  0.00     0.022 A 
BRANCH  59  62
ATOM     62  S   UNL A   1      40.014  35.716  36.991  1.00  0.00     0.127 S 
ATOM     63  O   UNL A   1      41.444  35.439  37.130  1.00  0.00    -0.237 OA
ATOM     64  O   UNL A   1      39.650  36.445  35.776  1.00  0.00    -0.237 OA
ATOM     65  O   UNL A   1      39.348  36.180  38.200  1.00  0.00    -0.744 OA
ENDBRANCH  59  62
ENDBRANCH  41  55
BRANCH  42  66
ATOM     66  C   UNL A   1      42.454  26.552  27.674  1.00  0.00     0.023 A 
ATOM     67  C   UNL A   1      43.314  27.184  26.755  1.00  0.00     0.012 A 
ATOM     68  C   UNL A   1      42.118  25.199  27.477  1.00  0.00     0.148 A 
ATOM     69  C   UNL A   1      43.801  26.497  25.643  1.00  0.00     0.002 A 
ATOM     70  C   UNL A   1      42.648  24.504  26.394  1.00  0.00     0.091 A 
ATOM     71  F   UNL A   1      41.287  24.615  28.352  1.00  0.00    -0.205 F 
ATOM     72  C   UNL A   1      43.476  25.155  25.467  1.00  0.00     0.022 A 
BRANCH  70  73
ATOM     73  S   UNL A   1      42.380  22.741  26.175  1.00  0.00     0.127 S 
ATOM     74  O   UNL A   1      42.981  22.193  27.387  1.00  0.00    -0.237 OA
ATOM     75  O   UNL A   1      40.921  22.654  26.117  1.00  0.00    -0.237 OA
ATOM     76  O   UNL A   1      43.044  22.408  24.921  1.00  0.00    -0.744 OA
ENDBRANCH  70  73
ENDBRANCH  42  66
BRANCH  54  77
ATOM     77  C   UNL A   1      44.575  27.252  34.291  1.00  0.00     0.023 A 
ATOM     78  C   UNL A   1      45.816  27.916  34.318  1.00  0.00     0.012 A 
ATOM     79  C   UNL A   1      44.389  26.092  35.069  1.00  0.00     0.148 A 
ATOM     80  C   UNL A   1      46.866  27.420  35.089  1.00  0.00     0.002 A 
ATOM     81  C   UNL A   1      45.425  25.628  35.869  1.00  0.00     0.091 A 
ATOM     82  F   UNL A   1      43.205  25.466  35.011  1.00  0.00    -0.205 F 
ATOM     83  C   UNL A   1      46.667  26.285  35.874  1.00  0.00     0.022 A 
BRANCH  81  84
ATOM     84  S   UNL A   1      45.221  24.232  36.980  1.00  0.00     0.127 S 
ATOM     85  O   UNL A   1      46.551  24.127  37.576  1.00  0.00    -0.237 OA
ATOM     86  O   UNL A   1      44.180  24.706  37.893  1.00  0.00    -0.237 OA
ATOM     87  O   UNL A   1      44.817  23.113  36.139  1.00  0.00    -0.744 OA
ENDBRANCH  81  84
ENDBRANCH  54  77
ENDBRANCH  28  29
ENDBRANCH  20  23
ENDBRANCH  18  19
ENDBRANCH  17  18
ENDBRANCH   1  17
TORSDOF 17
ENDMDL
MODEL 2
REMARK VINA RESULT:     -10.6      5.509     11.601
REMARK SMILES C=CCSc1ccccc1C(=O)NCCCCNC(=O)c1ccc(-c2c3nc(c(-c4cccc(S(=O)(=O)[O-])c4F)c4ccc([nH]4)c(-c4cccc(S(=O)(=O)[O-])c4F)c4nc(c(-c5cccc(S(=O)(=O)[O-])c5F)c5ccc2[nH]5)C=C4)C=C3)cc1
REMARK SMILES IDX 15 1 14 2 13 3 11 4 12 5 10 7 5 8 6 9 7 10 9 11 8 12 4 13
REMARK SMILES IDX 3 14 2 15 1 16 16 17 17 18 18 19 19 20 20 22 21 23 22 24
REMARK SMILES IDX 83 25 23 26 82 27 24 28 25 29 26 30 76 31 27 32 81 33 75 34
REMARK SMILES IDX 77 35 28 36 80 37 74 38 73 39 29 41 61 42 41 43 60 44 42 45
REMARK SMILES IDX 45 46 59 47 78 48 43 49 44 50 58 52 79 53 46 54 30 55 31 56
REMARK SMILES IDX 39 57 32 58 34 59 40 60 33 61 35 62 36 63 37 64 38 65 62 66
REMARK SMILES IDX 63 67 71 68 64 69 66 70 72 71 65 72 67 73 68 74 69 75 70 76
REMARK SMILES IDX 47 77 48 78 56 79 49 80 51 81 57 82 50 83 52 84 53 85 54 86
REMARK SMILES IDX 55 87
REMARK H PARENT 13 6 18 21 77 40 45 51
REMARK Flexibility Score: inf
ROOT
ATOM      1  C   UNL A   1      42.675  18.876  25.968  1.00  0.00     0.023 C 
ENDROOT
BRANCH   1   2
ATOM      2  C   UNL A   1      43.827  19.817  25.601  1.00  0.00     0.116 C 
BRANCH   2   3
ATOM      3  N   UNL A   1      43.266  21.004  25.000  1.00  0.00    -0.352 N 
ATOM      4  C   UNL A   1      43.546  22.336  25.129  1.00  0.00     0.252 C 
ATOM      5  O   UNL A   1      42.673  23.111  24.721  1.00  0.00    -0.269 OA
ATOM      6  H   UNL A   1      42.531  20.817  24.370  1.00  0.00     0.163 HD
BRANCH   4   7
ATOM      7  C   UNL A   1      44.838  22.942  25.572  1.00  0.00     0.053 A 
ATOM      8  C   UNL A   1      45.313  23.267  26.858  1.00  0.00     0.020 A 
ATOM      9  C   UNL A   1      46.558  23.932  26.975  1.00  0.00     0.016 A 
ATOM     10  C   UNL A   1      47.305  24.314  25.863  1.00  0.00     0.001 A 
ATOM     11  C   UNL A   1      45.627  23.335  24.460  1.00  0.00     0.015 A 
ATOM     12  C   UNL A   1      46.837  24.016  24.597  1.00  0.00     0.001 A 
BRANCH   8  13
ATOM     13  S   UNL A   1      44.584  22.956  28.457  1.00  0.00    -0.121 SA
BRANCH  13  14
ATOM     14  C   UNL A   1      45.111  24.415  29.400  1.00  0.00     0.101 C 
BRANCH  14  15
ATOM     15  C   UNL A   1      44.126  24.719  30.482  1.00  0.00    -0.024 C 
ATOM     16  C   UNL A   1      44.152  24.138  31.687  1.00  0.00     0.005 C 
ENDBRANCH  14  15
ENDBRANCH  13  14
ENDBRANCH   8  13
ENDBRANCH   4   7
ENDBRANCH   2   3
ENDBRANCH   1   2
BRANCH   1  17
ATOM     17  C   UNL A   1      42.056  19.093  27.340  1.00  0.00     0.023 C 
BRANCH  17  18
ATOM     18  C   UNL A   1      41.218  20.355  27.443  1.00  0.00     0.116 C 
BRANCH  18  19
ATOM     19  N   UNL A   1      40.080  20.383  26.529  1.00  0.00    -0.352 N 
ATOM     20  C   UNL A   1      39.294  21.455  26.171  1.00  0.00     0.251 C 
ATOM     21  H   UNL A   1      39.843  19.522  26.114  1.00  0.00     0.163 HD
ATOM     22  O   UNL A   1      38.322  21.304  25.443  1.00  0.00    -0.269 OA
BRANCH  20  23
ATOM     23  C   UNL A   1      39.624  22.782  26.725  1.00  0.00     0.039 A 
ATOM     24  C   UNL A   1      40.633  22.885  27.685  1.00  0.00     0.014 A 
ATOM     25  C   UNL A   1      39.012  23.926  26.207  1.00  0.00     0.014 A 
ATOM     26  C   UNL A   1      41.092  24.148  28.060  1.00  0.00     0.010 A 
ATOM     27  C   UNL A   1      39.542  25.172  26.500  1.00  0.00     0.010 A 
ATOM     28  C   UNL A   1      40.584  25.299  27.432  1.00  0.00    -0.014 A 
BRANCH  28  29
ATOM     29  C   UNL A   1      41.122  26.651  27.723  1.00  0.00     0.031 A 
ATOM     30  C   UNL A   1      42.502  27.019  27.248  1.00  0.00     0.074 A 
ATOM     31  C   UNL A   1      40.427  27.492  28.515  1.00  0.00     0.049 A 
ATOM     32  N   UNL A   1      43.199  28.096  27.497  1.00  0.00    -0.248 NA
ATOM     33  C   UNL A   1      43.215  26.022  26.427  1.00  0.00     0.031 C 
ATOM     34  C   UNL A   1      39.128  27.206  29.129  1.00  0.00     0.029 A 
ATOM     35  N   UNL A   1      40.734  28.752  28.966  1.00  0.00    -0.354 N 
ATOM     36  C   UNL A   1      44.443  27.882  26.918  1.00  0.00     0.074 A 
ATOM     37  C   UNL A   1      44.422  26.559  26.336  1.00  0.00     0.031 C 
ATOM     38  C   UNL A   1      38.746  28.262  29.868  1.00  0.00     0.029 A 
ATOM     39  C   UNL A   1      39.779  29.289  29.800  1.00  0.00     0.049 A 
ATOM     40  H   UNL A   1      41.559  29.226  28.718  1.00  0.00     0.167 HD
ATOM     41  C   UNL A   1      45.497  28.727  26.840  1.00  0.00     0.034 A 
ATOM     42  C   UNL A   1      39.743  30.478  30.434  1.00  0.00     0.034 A 
ATOM     43  C   UNL A   1      45.476  30.076  27.330  1.00  0.00     0.049 A 
ATOM     44  C   UNL A   1      40.878  31.444  30.226  1.00  0.00     0.074 A 
ATOM     45  C   UNL A   1      46.440  31.057  27.190  1.00  0.00     0.029 A 
ATOM     46  N   UNL A   1      44.428  30.639  28.042  1.00  0.00    -0.354 N 
ATOM     47  N   UNL A   1      41.973  31.291  29.522  1.00  0.00    -0.248 NA
ATOM     48  C   UNL A   1      40.756  32.764  30.863  1.00  0.00     0.031 C 
ATOM     49  C   UNL A   1      45.973  32.216  27.818  1.00  0.00     0.029 A 
ATOM     50  C   UNL A   1      44.717  31.957  28.343  1.00  0.00     0.049 A 
ATOM     51  H   UNL A   1      43.600  30.169  28.295  1.00  0.00     0.167 HD
ATOM     52  C   UNL A   1      42.652  32.501  29.603  1.00  0.00     0.074 A 
ATOM     53  C   UNL A   1      41.833  33.386  30.404  1.00  0.00     0.031 C 
ATOM     54  C   UNL A   1      43.855  32.842  29.080  1.00  0.00     0.034 A 
BRANCH  41  55
ATOM     55  C   UNL A   1      46.729  28.246  26.123  1.00  0.00     0.023 A 
ATOM     56  C   UNL A   1      46.743  28.221  24.713  1.00  0.00     0.012 A 
ATOM     57  C   UNL A   1      47.888  27.875  26.833  1.00  0.00     0.148 A 
ATOM     58  C   UNL A   1      47.878  27.805  24.020  1.00  0.00     0.002 A 
ATOM     59  C   UNL A   1      49.030  27.501  26.134  1.00  0.00     0.091 A 
ATOM     60  F   UNL A   1      47.848  27.883  28.172  1.00  0.00    -0.205 F 
ATOM     61  C   UNL A   1      49.023  27.456  24.729  1.00  0.00     0.022 A 
BRANCH  59  62
ATOM     62  S   UNL A   1      50.580  27.104  26.949  1.00  0.00     0.127 S 
ATOM     63  O   UNL A   1      51.499  27.023  25.814  1.00  0.00    -0.237 OA
ATOM     64  O   UNL A   1      50.781  28.268  27.813  1.00  0.00    -0.237 OA
ATOM     65  O   UNL A   1      50.352  25.854  27.659  1.00  0.00    -0.744 OA
ENDBRANCH  59  62
ENDBRANCH  41  55
BRANCH  42  66
ATOM     66  C   UNL A   1      38.549  30.860  31.241  1.00  0.00     0.023 A 
ATOM     67  C   UNL A   1      38.554  30.613  32.628  1.00  0.00     0.012 A 
ATOM     68  C   UNL A   1      37.427  31.479  30.660  1.00  0.00     0.148 A 
ATOM     69  C   UNL A   1      37.451  30.944  33.415  1.00  0.00     0.002 A 
ATOM     70  C   UNL A   1      36.351  31.853  31.459  1.00  0.00     0.091 A 
ATOM     71  F   UNL A   1      37.431  31.694  29.337  1.00  0.00    -0.205 F 
ATOM     72  C   UNL A   1      36.353  31.571  32.833  1.00  0.00     0.022 A 
BRANCH  70  73
ATOM     73  S   UNL A   1      34.959  32.782  30.804  1.00  0.00     0.127 S 
ATOM     74  O   UNL A   1      34.033  32.772  31.933  1.00  0.00    -0.237 OA
ATOM     75  O   UNL A   1      35.564  34.083  30.515  1.00  0.00    -0.237 OA
ATOM     76  O   UNL A   1      34.535  32.049  29.618  1.00  0.00    -0.744 OA
ENDBRANCH  70  73
ENDBRANCH  42  66
BRANCH  54  77
ATOM     77  C   UNL A   1      44.350  34.242  29.322  1.00  0.00     0.023 A 
ATOM     78  C   UNL A   1      45.019  34.541  30.525  1.00  0.00     0.012 A 
ATOM     79  C   UNL A   1      44.240  35.228  28.323  1.00  0.00     0.148 A 
ATOM     80  C   UNL A   1      45.550  35.812  30.740  1.00  0.00     0.002 A 
ATOM     81  C   UNL A   1      44.810  36.478  28.526  1.00  0.00     0.091 A 
ATOM     82  F   UNL A   1      43.582  34.926  27.194  1.00  0.00    -0.205 F 
ATOM     83  C   UNL A   1      45.458  36.775  29.737  1.00  0.00     0.022 A 
BRANCH  81  84
ATOM     84  S   UNL A   1      44.819  37.742  27.249  1.00  0.00     0.127 S 
ATOM     85  O   UNL A   1      43.394  37.885  26.960  1.00  0.00    -0.237 OA
ATOM     86  O   UNL A   1      45.418  38.884  27.941  1.00  0.00    -0.237 OA
ATOM     87  O   UNL A   1      45.632  37.204  26.167  1.00  0.00    -0.744 OA
ENDBRANCH  81  84
ENDBRANCH  54  77
ENDBRANCH  28  29
ENDBRANCH  20  23
ENDBRANCH  18  19
ENDBRANCH  17  18
ENDBRANCH   1  17
TORSDOF 17
ENDMDL
MODEL 3
REMARK VINA RESULT:     -10.5      1.682      7.978
REMARK SMILES C=CCSc1ccccc1C(=O)NCCCCNC(=O)c1ccc(-c2c3nc(c(-c4cccc(S(=O)(=O)[O-])c4F)c4ccc([nH]4)c(-c4cccc(S(=O)(=O)[O-])c4F)c4nc(c(-c5cccc(S(=O)(=O)[O-])c5F)c5ccc2[nH]5)C=C4)C=C3)cc1
REMARK SMILES IDX 15 1 14 2 13 3 11 4 12 5 10 7 5 8 6 9 7 10 9 11 8 12 4 13
REMARK SMILES IDX 3 14 2 15 1 16 16 17 17 18 18 19 19 20 20 22 21 23 22 24
REMARK SMILES IDX 83 25 23 26 82 27 24 28 25 29 26 30 76 31 27 32 81 33 75 34
REMARK SMILES IDX 77 35 28 36 80 37 74 38 73 39 29 41 61 42 41 43 60 44 42 45
REMARK SMILES IDX 45 46 59 47 78 48 43 49 44 50 58 52 79 53 46 54 30 55 31 56
REMARK SMILES IDX 39 57 32 58 34 59 40 60 33 61 35 62 36 63 37 64 38 65 62 66
REMARK SMILES IDX 63 67 71 68 64 69 66 70 72 71 65 72 67 73 68 74 69 75 70 76
REMARK SMILES IDX 47 77 48 78 56 79 49 80 51 81 57 82 50 83 52 84 53 85 54 86
REMARK SMILES IDX 55 87
REMARK H PARENT 13 6 18 21 77 40 45 51
REMARK Flexibility Score: inf
ROOT
ATOM      1  C   UNL A   1      32.877  29.319  24.294  1.00  0.00     0.023 C 
ENDROOT
BRANCH   1   2
ATOM      2  C   UNL A   1      34.147  28.574  23.871  1.00  0.00     0.116 C 
BRANCH   2   3
ATOM      3  N   UNL A   1      33.806  27.680  22.788  1.00  0.00    -0.352 N 
ATOM      4  C   UNL A   1      33.622  26.327  22.719  1.00  0.00     0.252 C 
ATOM      5  O   UNL A   1      33.655  25.838  21.583  1.00  0.00    -0.269 OA
ATOM      6  H   UNL A   1      33.682  28.138  21.924  1.00  0.00     0.163 HD
BRANCH   4   7
ATOM      7  C   UNL A   1      33.251  25.414  23.842  1.00  0.00     0.053 A 
ATOM      8  C   UNL A   1      32.026  24.799  24.166  1.00  0.00     0.020 A 
ATOM      9  C   UNL A   1      31.938  24.049  25.365  1.00  0.00     0.016 A 
ATOM     10  C   UNL A   1      33.006  23.936  26.252  1.00  0.00     0.001 A 
ATOM     11  C   UNL A   1      34.324  25.272  24.761  1.00  0.00     0.015 A 
ATOM     12  C   UNL A   1      34.206  24.554  25.951  1.00  0.00     0.001 A 
BRANCH   8  13
ATOM     13  S   UNL A   1      30.482  24.788  23.272  1.00  0.00    -0.121 SA
BRANCH  13  14
ATOM     14  C   UNL A   1      29.681  26.297  23.887  1.00  0.00     0.101 C 
BRANCH  14  15
ATOM     15  C   UNL A   1      29.929  27.435  22.952  1.00  0.00    -0.024 C 
ATOM     16  C   UNL A   1      29.332  28.628  23.067  1.00  0.00     0.005 C 
ENDBRANCH  14  15
ENDBRANCH  13  14
ENDBRANCH   8  13
ENDBRANCH   4   7
ENDBRANCH   2   3
ENDBRANCH   1   2
BRANCH   1  17
ATOM     17  C   UNL A   1      32.105  28.705  25.453  1.00  0.00     0.023 C 
BRANCH  17  18
ATOM     18  C   UNL A   1      32.389  29.357  26.794  1.00  0.00     0.116 C 
BRANCH  18  19
ATOM     19  N   UNL A   1      32.147  30.796  26.813  1.00  0.00    -0.352 N 
ATOM     20  C   UNL A   1      32.988  31.802  27.235  1.00  0.00     0.251 C 
ATOM     21  H   UNL A   1      31.267  31.086  26.482  1.00  0.00     0.163 HD
ATOM     22  O   UNL A   1      32.610  32.966  27.258  1.00  0.00    -0.269 OA
BRANCH  20  23
ATOM     23  C   UNL A   1      34.338  31.436  27.702  1.00  0.00     0.039 A 
ATOM     24  C   UNL A   1      35.268  32.449  27.949  1.00  0.00     0.014 A 
ATOM     25  C   UNL A   1      34.636  30.105  28.000  1.00  0.00     0.014 A 
ATOM     26  C   UNL A   1      36.469  32.131  28.583  1.00  0.00     0.010 A 
ATOM     27  C   UNL A   1      35.780  29.811  28.725  1.00  0.00     0.010 A 
ATOM     28  C   UNL A   1      36.711  30.818  29.021  1.00  0.00    -0.014 A 
BRANCH  28  29
ATOM     29  C   UNL A   1      37.926  30.462  29.796  1.00  0.00     0.031 A 
ATOM     30  C   UNL A   1      38.931  29.509  29.204  1.00  0.00     0.074 A 
ATOM     31  C   UNL A   1      38.060  30.890  31.067  1.00  0.00     0.049 A 
ATOM     32  N   UNL A   1      39.990  28.981  29.758  1.00  0.00    -0.248 NA
ATOM     33  C   UNL A   1      38.686  29.049  27.825  1.00  0.00     0.031 C 
ATOM     34  C   UNL A   1      37.097  31.726  31.790  1.00  0.00     0.029 A 
ATOM     35  N   UNL A   1      39.048  30.653  31.990  1.00  0.00    -0.354 N 
ATOM     36  C   UNL A   1      40.498  28.089  28.823  1.00  0.00     0.074 A 
ATOM     37  C   UNL A   1      39.614  28.116  27.680  1.00  0.00     0.031 C 
ATOM     38  C   UNL A   1      37.547  31.938  33.038  1.00  0.00     0.029 A 
ATOM     39  C   UNL A   1      38.814  31.238  33.214  1.00  0.00     0.049 A 
ATOM     40  H   UNL A   1      39.848  30.115  31.796  1.00  0.00     0.167 HD
ATOM     41  C   UNL A   1      41.625  27.341  28.891  1.00  0.00     0.034 A 
ATOM     42  C   UNL A   1      39.545  31.215  34.347  1.00  0.00     0.034 A 
ATOM     43  C   UNL A   1      42.552  27.394  29.985  1.00  0.00     0.049 A 
ATOM     44  C   UNL A   1      40.854  30.473  34.349  1.00  0.00     0.074 A 
ATOM     45  C   UNL A   1      43.785  26.778  30.099  1.00  0.00     0.029 A 
ATOM     46  N   UNL A   1      42.355  28.119  31.150  1.00  0.00    -0.354 N 
ATOM     47  N   UNL A   1      41.409  29.777  33.386  1.00  0.00    -0.248 NA
ATOM     48  C   UNL A   1      41.661  30.547  35.576  1.00  0.00     0.031 C 
ATOM     49  C   UNL A   1      44.334  27.133  31.335  1.00  0.00     0.029 A 
ATOM     50  C   UNL A   1      43.446  27.973  31.986  1.00  0.00     0.049 A 
ATOM     51  H   UNL A   1      41.556  28.659  31.351  1.00  0.00     0.167 HD
ATOM     52  C   UNL A   1      42.640  29.360  33.877  1.00  0.00     0.074 A 
ATOM     53  C   UNL A   1      42.761  29.902  35.214  1.00  0.00     0.031 C 
ATOM     54  C   UNL A   1      43.578  28.581  33.284  1.00  0.00     0.034 A 
BRANCH  41  55
ATOM     55  C   UNL A   1      41.960  26.470  27.711  1.00  0.00     0.023 A 
ATOM     56  C   UNL A   1      42.655  27.026  26.617  1.00  0.00     0.012 A 
ATOM     57  C   UNL A   1      41.644  25.098  27.705  1.00  0.00     0.148 A 
ATOM     58  C   UNL A   1      43.002  26.240  25.520  1.00  0.00     0.002 A 
ATOM     59  C   UNL A   1      42.030  24.310  26.626  1.00  0.00     0.091 A 
ATOM     60  F   UNL A   1      40.963  24.593  28.742  1.00  0.00    -0.205 F 
ATOM     61  C   UNL A   1      42.699  24.881  25.530  1.00  0.00     0.022 A 
BRANCH  59  62
ATOM     62  S   UNL A   1      41.755  22.536  26.572  1.00  0.00     0.127 S 
ATOM     63  O   UNL A   1      42.299  22.192  25.259  1.00  0.00    -0.237 OA
ATOM     64  O   UNL A   1      42.553  22.066  27.705  1.00  0.00    -0.237 OA
ATOM     65  O   UNL A   1      40.319  22.347  26.722  1.00  0.00    -0.744 OA
ENDBRANCH  59  62
ENDBRANCH  41  55
BRANCH  42  66
ATOM     66  C   UNL A   1      39.104  31.995  35.538  1.00  0.00     0.023 A 
ATOM     67  C   UNL A   1      39.382  33.375  35.593  1.00  0.00     0.012 A 
ATOM     68  C   UNL A   1      38.398  31.397  36.598  1.00  0.00     0.148 A 
ATOM     69  C   UNL A   1      38.998  34.137  36.696  1.00  0.00     0.002 A 
ATOM     70  C   UNL A   1      37.973  32.172  37.672  1.00  0.00     0.091 A 
ATOM     71  F   UNL A   1      38.154  30.080  36.539  1.00  0.00    -0.205 F 
ATOM     72  C   UNL A   1      38.285  33.538  37.732  1.00  0.00     0.022 A 
BRANCH  70  73
ATOM     73  S   UNL A   1      36.938  31.499  38.979  1.00  0.00     0.127 S 
ATOM     74  O   UNL A   1      35.786  32.395  38.940  1.00  0.00    -0.237 OA
ATOM     75  O   UNL A   1      36.680  30.141  38.500  1.00  0.00    -0.237 OA
ATOM     76  O   UNL A   1      37.758  31.558  40.182  1.00  0.00    -0.744 OA
ENDBRANCH  70  73
ENDBRANCH  42  66
BRANCH  54  77
ATOM     77  C   UNL A   1      44.836  28.292  34.055  1.00  0.00     0.023 A 
ATOM     78  C   UNL A   1      45.923  29.182  33.965  1.00  0.00     0.012 A 
ATOM     79  C   UNL A   1      44.905  27.197  34.938  1.00  0.00     0.148 A 
ATOM     80  C   UNL A   1      47.073  28.972  34.726  1.00  0.00     0.002 A 
ATOM     81  C   UNL A   1      46.035  27.019  35.725  1.00  0.00     0.091 A 
ATOM     82  F   UNL A   1      43.865  26.351  34.991  1.00  0.00    -0.205 F 
ATOM     83  C   UNL A   1      47.124  27.900  35.614  1.00  0.00     0.022 A 
BRANCH  81  84
ATOM     84  S   UNL A   1      46.142  25.720  36.962  1.00  0.00     0.127 S 
ATOM     85  O   UNL A   1      45.961  24.519  36.150  1.00  0.00    -0.237 OA
ATOM     86  O   UNL A   1      47.494  25.900  37.491  1.00  0.00    -0.237 OA
ATOM     87  O   UNL A   1      45.081  25.999  37.920  1.00  0.00    -0.744 OA
ENDBRANCH  81  84
ENDBRANCH  54  77
ENDBRANCH  28  29
ENDBRANCH  20  23
ENDBRANCH  18  19
ENDBRANCH  17  18
ENDBRANCH   1  17
TORSDOF 17
ENDMDL
