MODEL 1
REMARK VINA RESULT:     -12.9      0.000      0.000
REMARK SMILES C[C@@H]1C[N@H+]2CCC[C@@H]2CN1C(=O)N1CC(C(=O)NCCCCNC(=O)c2ccc(-c3c4nc(c(-c5cccc(S(=O)(=O)[O-])c5F)c5ccc([nH]5)c(-c5cccc(S(=O)(=O)[O-])c5F)c5nc(c(-c6cccc(S(=O)(=O)[O-])c6F)c6ccc3[nH]6)C=C5)C=C4)cc2)C1
REMARK SMILES IDX 21 1 20 2 19 3 18 4 16 5 17 6 15 8 11 9 12 10 13 11 14 12
REMARK SMILES IDX 89 13 10 14 1 15 2 16 3 17 4 18 9 19 5 20 8 21 6 23 7 24
REMARK SMILES IDX 22 25 23 26 24 27 25 29 26 30 27 31 88 32 28 33 87 34 29 35
REMARK SMILES IDX 30 36 31 37 81 38 32 39 86 40 80 41 82 42 33 43 85 44 79 45
REMARK SMILES IDX 78 46 34 48 66 49 46 50 65 51 47 52 50 53 64 54 83 55 48 56
REMARK SMILES IDX 49 57 63 59 84 60 51 61 35 62 36 63 44 64 37 65 39 66 45 67
REMARK SMILES IDX 38 68 40 69 41 70 42 71 43 72 67 73 68 74 76 75 69 76 71 77
REMARK SMILES IDX 77 78 70 79 72 80 73 81 74 82 75 83 52 84 53 85 61 86 54 87
REMARK SMILES IDX 56 88 62 89 55 90 57 91 58 92 59 93 60 94
REMARK H PARENT 18 7 4 22 23 28 82 47 50 58
REMARK Flexibility Score: inf
ROOT
ATOM      1  C   UNL A   1      35.910  21.403  24.984  1.00  0.00     0.023 C 
ENDROOT
BRANCH   1   2
ATOM      2  C   UNL A   1      35.159  22.635  25.499  1.00  0.00     0.023 C 
BRANCH   2   3
ATOM      3  C   UNL A   1      33.663  22.426  25.729  1.00  0.00     0.116 C 
BRANCH   3   4
ATOM      4  N   UNL A   1      33.158  21.289  24.984  1.00  0.00    -0.356 N 
ATOM      5  C   UNL A   1      32.534  21.211  23.763  1.00  0.00     0.226 C 
ATOM      6  O   UNL A   1      32.226  20.070  23.388  1.00  0.00    -0.275 OA
ATOM      7  H   UNL A   1      33.285  20.422  25.432  1.00  0.00     0.163 HD
BRANCH   5   8
ATOM      8  C   UNL A   1      32.247  22.437  22.895  1.00  0.00     0.117 C 
ATOM      9  C   UNL A   1      32.898  25.628  22.110  1.00  0.00     0.320 C 
ATOM     10  O   UNL A   1      33.337  25.736  20.964  1.00  0.00    -0.248 OA
ATOM     11  N   UNL A   1      32.862  24.409  22.729  1.00  0.00    -0.323 N 
ATOM     12  C   UNL A   1      33.405  23.160  22.210  1.00  0.00     0.136 C 
ATOM     13  C   UNL A   1      31.798  23.770  23.495  1.00  0.00     0.136 C 
BRANCH   9  14
ATOM     14  N   UNL A   1      32.448  26.721  22.826  1.00  0.00    -0.310 N 
ATOM     15  C   UNL A   1      30.601  28.323  22.412  1.00  0.00     0.037 C 
ATOM     16  C   UNL A   1      31.020  27.024  23.104  1.00  0.00     0.139 C 
ATOM     17  C   UNL A   1      30.728  27.064  24.644  1.00  0.00     0.287 C 
ATOM     18  N   UNL A   1      31.719  27.871  25.368  1.00  0.00    -0.329 N 
ATOM     19  C   UNL A   1      33.419  27.484  23.629  1.00  0.00     0.186 C 
ATOM     20  C   UNL A   1      31.576  27.898  26.819  1.00  0.00     0.262 C 
ATOM     21  C   UNL A   1      33.072  27.341  25.110  1.00  0.00     0.204 C 
ATOM     22  H   UNL A   1      31.567  28.817  25.019  1.00  0.00     0.348 HD
ATOM     23  C   UNL A   1      32.995  28.190  27.324  1.00  0.00     0.068 C 
ATOM     24  C   UNL A   1      33.886  28.172  26.081  1.00  0.00     0.073 C 
ENDBRANCH   9  14
ENDBRANCH   5   8
ENDBRANCH   3   4
ENDBRANCH   2   3
ENDBRANCH   1   2
BRANCH   1  25
ATOM     25  C   UNL A   1      37.393  21.607  24.685  1.00  0.00     0.116 C 
BRANCH  25  26
ATOM     26  N   UNL A   1      38.232  20.529  25.189  1.00  0.00    -0.352 N 
ATOM     27  C   UNL A   1      39.352  20.591  25.985  1.00  0.00     0.251 C 
ATOM     28  H   UNL A   1      37.959  19.622  24.919  1.00  0.00     0.163 HD
ATOM     29  O   UNL A   1      40.001  19.570  26.202  1.00  0.00    -0.269 OA
BRANCH  27  30
ATOM     30  C   UNL A   1      39.795  21.885  26.546  1.00  0.00     0.039 A 
ATOM     31  C   UNL A   1      40.838  21.894  27.476  1.00  0.00     0.014 A 
ATOM     32  C   UNL A   1      39.205  23.087  26.142  1.00  0.00     0.014 A 
ATOM     33  C   UNL A   1      41.351  23.112  27.931  1.00  0.00     0.010 A 
ATOM     34  C   UNL A   1      39.759  24.300  26.547  1.00  0.00     0.010 A 
ATOM     35  C   UNL A   1      40.849  24.325  27.431  1.00  0.00    -0.014 A 
BRANCH  35  36
ATOM     36  C   UNL A   1      41.499  25.622  27.760  1.00  0.00     0.031 A 
ATOM     37  C   UNL A   1      40.739  26.706  28.474  1.00  0.00     0.074 A 
ATOM     38  C   UNL A   1      42.752  25.858  27.320  1.00  0.00     0.049 A 
ATOM     39  N   UNL A   1      41.126  27.918  28.778  1.00  0.00    -0.248 NA
ATOM     40  C   UNL A   1      39.359  26.398  28.883  1.00  0.00     0.031 C 
ATOM     41  C   UNL A   1      43.566  24.919  26.543  1.00  0.00     0.029 A 
ATOM     42  N   UNL A   1      43.549  26.971  27.432  1.00  0.00    -0.354 N 
ATOM     43  C   UNL A   1      40.035  28.527  29.387  1.00  0.00     0.074 A 
ATOM     44  C   UNL A   1      38.958  27.558  29.385  1.00  0.00     0.031 C 
ATOM     45  C   UNL A   1      44.741  25.495  26.246  1.00  0.00     0.029 A 
ATOM     46  C   UNL A   1      44.756  26.852  26.781  1.00  0.00     0.049 A 
ATOM     47  H   UNL A   1      43.282  27.776  27.931  1.00  0.00     0.167 HD
ATOM     48  C   UNL A   1      39.946  29.766  29.925  1.00  0.00     0.034 A 
ATOM     49  C   UNL A   1      45.757  27.740  26.619  1.00  0.00     0.034 A 
ATOM     50  C   UNL A   1      41.028  30.715  29.959  1.00  0.00     0.049 A 
ATOM     51  C   UNL A   1      45.639  29.101  27.249  1.00  0.00     0.074 A 
ATOM     52  C   UNL A   1      41.058  31.962  30.559  1.00  0.00     0.029 A 
ATOM     53  N   UNL A   1      42.266  30.528  29.364  1.00  0.00    -0.354 N 
ATOM     54  N   UNL A   1      44.661  29.594  27.970  1.00  0.00    -0.248 NA
ATOM     55  C   UNL A   1      46.775  30.017  27.073  1.00  0.00     0.031 C 
ATOM     56  C   UNL A   1      42.309  32.538  30.309  1.00  0.00     0.029 A 
ATOM     57  C   UNL A   1      43.063  31.641  29.571  1.00  0.00     0.049 A 
ATOM     58  H   UNL A   1      42.538  29.723  28.867  1.00  0.00     0.167 HD
ATOM     59  C   UNL A   1      45.074  30.863  28.355  1.00  0.00     0.074 A 
ATOM     60  C   UNL A   1      46.405  31.052  27.815  1.00  0.00     0.031 C 
ATOM     61  C   UNL A   1      44.405  31.798  29.074  1.00  0.00     0.034 A 
BRANCH  48  62
ATOM     62  C   UNL A   1      38.650  30.154  30.588  1.00  0.00     0.023 A 
ATOM     63  C   UNL A   1      38.460  29.857  31.953  1.00  0.00     0.012 A 
ATOM     64  C   UNL A   1      37.665  30.885  29.895  1.00  0.00     0.148 A 
ATOM     65  C   UNL A   1      37.300  30.259  32.614  1.00  0.00     0.002 A 
ATOM     66  C   UNL A   1      36.529  31.317  30.571  1.00  0.00     0.091 A 
ATOM     67  F   UNL A   1      37.857  31.142  28.594  1.00  0.00    -0.205 F 
ATOM     68  C   UNL A   1      36.341  30.998  31.926  1.00  0.00     0.022 A 
BRANCH  66  69
ATOM     69  S   UNL A   1      35.268  32.337  29.799  1.00  0.00     0.127 S 
ATOM     70  O   UNL A   1      34.349  32.563  30.914  1.00  0.00    -0.237 OA
ATOM     71  O   UNL A   1      36.034  33.516  29.392  1.00  0.00    -0.237 OA
ATOM     72  O   UNL A   1      34.730  31.550  28.699  1.00  0.00    -0.744 OA
ENDBRANCH  66  69
ENDBRANCH  48  62
BRANCH  49  73
ATOM     73  C   UNL A   1      46.986  27.353  25.869  1.00  0.00     0.023 A 
ATOM     74  C   UNL A   1      47.990  26.611  26.521  1.00  0.00     0.012 A 
ATOM     75  C   UNL A   1      47.161  27.702  24.516  1.00  0.00     0.148 A 
ATOM     76  C   UNL A   1      49.160  26.255  25.851  1.00  0.00     0.002 A 
ATOM     77  C   UNL A   1      48.304  27.295  23.838  1.00  0.00     0.091 A 
ATOM     78  F   UNL A   1      46.203  28.424  23.914  1.00  0.00    -0.205 F 
ATOM     79  C   UNL A   1      49.314  26.587  24.508  1.00  0.00     0.022 A 
BRANCH  77  80
ATOM     80  S   UNL A   1      48.512  27.560  22.073  1.00  0.00     0.127 S 
ATOM     81  O   UNL A   1      48.755  26.203  21.592  1.00  0.00    -0.237 OA
ATOM     82  O   UNL A   1      47.218  28.126  21.693  1.00  0.00    -0.237 OA
ATOM     83  O   UNL A   1      49.627  28.491  21.952  1.00  0.00    -0.744 OA
ENDBRANCH  77  80
ENDBRANCH  49  73
BRANCH  61  84
ATOM     84  C   UNL A   1      45.103  33.106  29.339  1.00  0.00     0.023 A 
ATOM     85  C   UNL A   1      45.912  33.244  30.485  1.00  0.00     0.012 A 
ATOM     86  C   UNL A   1      45.015  34.172  28.422  1.00  0.00     0.148 A 
ATOM     87  C   UNL A   1      46.596  34.433  30.731  1.00  0.00     0.002 A 
ATOM     88  C   UNL A   1      45.737  35.338  28.650  1.00  0.00     0.091 A 
ATOM     89  F   UNL A   1      44.227  34.029  27.347  1.00  0.00    -0.205 F 
ATOM     90  C   UNL A   1      46.518  35.475  29.809  1.00  0.00     0.022 A 
BRANCH  88  91
ATOM     91  S   UNL A   1      45.770  36.697  27.475  1.00  0.00     0.127 S 
ATOM     92  O   UNL A   1      44.346  36.988  27.317  1.00  0.00    -0.237 OA
ATOM     93  O   UNL A   1      46.525  37.718  28.202  1.00  0.00    -0.237 OA
ATOM     94  O   UNL A   1      46.439  36.184  26.287  1.00  0.00    -0.744 OA
ENDBRANCH  88  91
ENDBRANCH  61  84
ENDBRANCH  35  36
ENDBRANCH  27  30
ENDBRANCH  25  26
ENDBRANCH   1  25
TORSDOF 15
ENDMDL
MODEL 2
REMARK VINA RESULT:     -12.9      5.783     11.092
REMARK SMILES C[C@@H]1C[N@H+]2CCC[C@@H]2CN1C(=O)N1CC(C(=O)NCCCCNC(=O)c2ccc(-c3c4nc(c(-c5cccc(S(=O)(=O)[O-])c5F)c5ccc([nH]5)c(-c5cccc(S(=O)(=O)[O-])c5F)c5nc(c(-c6cccc(S(=O)(=O)[O-])c6F)c6ccc3[nH]6)C=C5)C=C4)cc2)C1
REMARK SMILES IDX 21 1 20 2 19 3 18 4 16 5 17 6 15 8 11 9 12 10 13 11 14 12
REMARK SMILES IDX 89 13 10 14 1 15 2 16 3 17 4 18 9 19 5 20 8 21 6 23 7 24
REMARK SMILES IDX 22 25 23 26 24 27 25 29 26 30 27 31 88 32 28 33 87 34 29 35
REMARK SMILES IDX 30 36 31 37 81 38 32 39 86 40 80 41 82 42 33 43 85 44 79 45
REMARK SMILES IDX 78 46 34 48 66 49 46 50 65 51 47 52 50 53 64 54 83 55 48 56
REMARK SMILES IDX 49 57 63 59 84 60 51 61 35 62 36 63 44 64 37 65 39 66 45 67
REMARK SMILES IDX 38 68 40 69 41 70 42 71 43 72 67 73 68 74 76 75 69 76 71 77
REMARK SMILES IDX 77 78 70 79 72 80 73 81 74 82 75 83 52 84 53 85 61 86 54 87
REMARK SMILES IDX 56 88 62 89 55 90 57 91 58 92 59 93 60 94
REMARK H PARENT 18 7 4 22 23 28 82 47 50 58
REMARK Flexibility Score: inf
ROOT
ATOM      1  C   UNL A   1      31.797  31.554  26.833  1.00  0.00     0.023 C 
ENDROOT
BRANCH   1   2
ATOM      2  C   UNL A   1      32.093  30.059  26.683  1.00  0.00     0.023 C 
BRANCH   2   3
ATOM      3  C   UNL A   1      32.738  29.660  25.357  1.00  0.00     0.116 C 
BRANCH   3   4
ATOM      4  N   UNL A   1      31.769  29.618  24.279  1.00  0.00    -0.356 N 
ATOM      5  C   UNL A   1      31.684  28.815  23.168  1.00  0.00     0.226 C 
ATOM      6  O   UNL A   1      30.713  29.025  22.425  1.00  0.00    -0.275 OA
ATOM      7  H   UNL A   1      31.045  30.281  24.358  1.00  0.00     0.163 HD
BRANCH   5   8
ATOM      8  C   UNL A   1      32.699  27.714  22.857  1.00  0.00     0.117 C 
ATOM      9  C   UNL A   1      33.506  24.462  22.834  1.00  0.00     0.320 C 
ATOM     10  O   UNL A   1      33.690  24.046  21.690  1.00  0.00    -0.248 OA
ATOM     11  N   UNL A   1      32.875  25.658  23.046  1.00  0.00    -0.323 N 
ATOM     12  C   UNL A   1      32.266  26.506  22.030  1.00  0.00     0.136 C 
ATOM     13  C   UNL A   1      33.220  26.762  23.935  1.00  0.00     0.136 C 
BRANCH   9  14
ATOM     14  N   UNL A   1      33.900  23.742  23.945  1.00  0.00    -0.310 N 
ATOM     15  C   UNL A   1      32.687  23.080  26.004  1.00  0.00     0.037 C 
ATOM     16  C   UNL A   1      33.099  22.669  24.589  1.00  0.00     0.139 C 
ATOM     17  C   UNL A   1      33.860  21.298  24.580  1.00  0.00     0.287 C 
ATOM     18  N   UNL A   1      35.248  21.439  25.037  1.00  0.00    -0.329 N 
ATOM     19  C   UNL A   1      35.312  23.805  24.359  1.00  0.00     0.186 C 
ATOM     20  C   UNL A   1      36.059  20.229  24.984  1.00  0.00     0.262 C 
ATOM     21  C   UNL A   1      35.948  22.426  24.193  1.00  0.00     0.204 C 
ATOM     22  H   UNL A   1      35.157  21.714  26.015  1.00  0.00     0.348 HD
ATOM     23  C   UNL A   1      37.495  20.752  24.852  1.00  0.00     0.068 C 
ATOM     24  C   UNL A   1      37.367  22.268  24.701  1.00  0.00     0.073 C 
ENDBRANCH   9  14
ENDBRANCH   5   8
ENDBRANCH   3   4
ENDBRANCH   2   3
ENDBRANCH   1   2
BRANCH   1  25
ATOM     25  C   UNL A   1      32.951  32.410  27.352  1.00  0.00     0.116 C 
BRANCH  25  26
ATOM     26  N   UNL A   1      32.566  33.789  27.616  1.00  0.00    -0.352 N 
ATOM     27  C   UNL A   1      33.081  34.682  28.526  1.00  0.00     0.251 C 
ATOM     28  H   UNL A   1      31.827  34.133  27.063  1.00  0.00     0.163 HD
ATOM     29  O   UNL A   1      32.533  35.771  28.687  1.00  0.00    -0.269 OA
BRANCH  27  30
ATOM     30  C   UNL A   1      34.266  34.321  29.334  1.00  0.00     0.039 A 
ATOM     31  C   UNL A   1      34.072  33.741  30.590  1.00  0.00     0.014 A 
ATOM     32  C   UNL A   1      35.561  34.530  28.850  1.00  0.00     0.014 A 
ATOM     33  C   UNL A   1      35.174  33.285  31.321  1.00  0.00     0.010 A 
ATOM     34  C   UNL A   1      36.652  34.017  29.549  1.00  0.00     0.010 A 
ATOM     35  C   UNL A   1      36.468  33.374  30.783  1.00  0.00    -0.014 A 
BRANCH  35  36
ATOM     36  C   UNL A   1      37.628  32.733  31.458  1.00  0.00     0.031 A 
ATOM     37  C   UNL A   1      38.324  31.553  30.840  1.00  0.00     0.074 A 
ATOM     38  C   UNL A   1      37.988  33.158  32.687  1.00  0.00     0.049 A 
ATOM     39  N   UNL A   1      39.303  30.831  31.321  1.00  0.00    -0.248 NA
ATOM     40  C   UNL A   1      37.847  31.111  29.519  1.00  0.00     0.031 C 
ATOM     41  C   UNL A   1      37.339  34.240  33.431  1.00  0.00     0.029 A 
ATOM     42  N   UNL A   1      38.967  32.711  33.541  1.00  0.00    -0.354 N 
ATOM     43  C   UNL A   1      39.543  29.835  30.380  1.00  0.00     0.074 A 
ATOM     44  C   UNL A   1      38.587  30.030  29.310  1.00  0.00     0.031 C 
ATOM     45  C   UNL A   1      37.931  34.369  34.629  1.00  0.00     0.029 A 
ATOM     46  C   UNL A   1      38.980  33.363  34.753  1.00  0.00     0.049 A 
ATOM     47  H   UNL A   1      39.598  31.992  33.308  1.00  0.00     0.167 HD
ATOM     48  C   UNL A   1      40.491  28.868  30.391  1.00  0.00     0.034 A 
ATOM     49  C   UNL A   1      39.741  33.165  35.848  1.00  0.00     0.034 A 
ATOM     50  C   UNL A   1      41.465  28.699  31.438  1.00  0.00     0.049 A 
ATOM     51  C   UNL A   1      40.802  32.098  35.821  1.00  0.00     0.074 A 
ATOM     52  C   UNL A   1      42.518  27.802  31.494  1.00  0.00     0.029 A 
ATOM     53  N   UNL A   1      41.503  29.434  32.612  1.00  0.00    -0.354 N 
ATOM     54  N   UNL A   1      41.123  31.280  34.849  1.00  0.00    -0.248 NA
ATOM     55  C   UNL A   1      41.627  31.950  37.028  1.00  0.00     0.031 C 
ATOM     56  C   UNL A   1      43.180  27.981  32.713  1.00  0.00     0.029 A 
ATOM     57  C   UNL A   1      42.552  29.003  33.406  1.00  0.00     0.049 A 
ATOM     58  H   UNL A   1      40.875  30.155  32.848  1.00  0.00     0.167 HD
ATOM     59  C   UNL A   1      42.202  30.540  35.315  1.00  0.00     0.074 A 
ATOM     60  C   UNL A   1      42.501  31.029  36.645  1.00  0.00     0.031 C 
ATOM     61  C   UNL A   1      42.874  29.531  34.707  1.00  0.00     0.034 A 
BRANCH  48  62
ATOM     62  C   UNL A   1      40.573  27.949  29.200  1.00  0.00     0.023 A 
ATOM     63  C   UNL A   1      39.676  26.865  29.106  1.00  0.00     0.012 A 
ATOM     64  C   UNL A   1      41.465  28.204  28.141  1.00  0.00     0.148 A 
ATOM     65  C   UNL A   1      39.682  26.033  27.988  1.00  0.00     0.002 A 
ATOM     66  C   UNL A   1      41.437  27.393  27.010  1.00  0.00     0.091 A 
ATOM     67  F   UNL A   1      42.320  29.229  28.257  1.00  0.00    -0.205 F 
ATOM     68  C   UNL A   1      40.553  26.305  26.936  1.00  0.00     0.022 A 
BRANCH  66  69
ATOM     69  S   UNL A   1      42.465  27.699  25.569  1.00  0.00     0.127 S 
ATOM     70  O   UNL A   1      43.800  27.742  26.165  1.00  0.00    -0.237 OA
ATOM     71  O   UNL A   1      42.201  26.518  24.747  1.00  0.00    -0.237 OA
ATOM     72  O   UNL A   1      41.998  28.955  24.999  1.00  0.00    -0.744 OA
ENDBRANCH  66  69
ENDBRANCH  48  62
BRANCH  49  73
ATOM     73  C   UNL A   1      39.564  34.031  37.049  1.00  0.00     0.023 A 
ATOM     74  C   UNL A   1      39.983  35.374  37.000  1.00  0.00     0.012 A 
ATOM     75  C   UNL A   1      38.972  33.539  38.229  1.00  0.00     0.148 A 
ATOM     76  C   UNL A   1      39.851  36.202  38.116  1.00  0.00     0.002 A 
ATOM     77  C   UNL A   1      38.792  34.384  39.317  1.00  0.00     0.091 A 
ATOM     78  F   UNL A   1      38.595  32.253  38.264  1.00  0.00    -0.205 F 
ATOM     79  C   UNL A   1      39.247  35.711  39.270  1.00  0.00     0.022 A 
BRANCH  77  80
ATOM     80  S   UNL A   1      37.896  33.869  40.787  1.00  0.00     0.127 S 
ATOM     81  O   UNL A   1      37.671  35.144  41.463  1.00  0.00    -0.237 OA
ATOM     82  O   UNL A   1      36.697  33.254  40.216  1.00  0.00    -0.237 OA
ATOM     83  O   UNL A   1      38.779  32.931  41.467  1.00  0.00    -0.744 OA
ENDBRANCH  77  80
ENDBRANCH  49  73
BRANCH  61  84
ATOM     84  C   UNL A   1      44.012  28.897  35.460  1.00  0.00     0.023 A 
ATOM     85  C   UNL A   1      45.306  29.447  35.360  1.00  0.00     0.012 A 
ATOM     86  C   UNL A   1      43.792  27.801  36.318  1.00  0.00     0.148 A 
ATOM     87  C   UNL A   1      46.368  28.898  36.077  1.00  0.00     0.002 A 
ATOM     88  C   UNL A   1      44.845  27.288  37.065  1.00  0.00     0.091 A 
ATOM     89  F   UNL A   1      42.558  27.280  36.386  1.00  0.00    -0.205 F 
ATOM     90  C   UNL A   1      46.136  27.827  36.937  1.00  0.00     0.022 A 
BRANCH  88  91
ATOM     91  S   UNL A   1      44.624  25.970  38.266  1.00  0.00     0.127 S 
ATOM     92  O   UNL A   1      43.608  26.541  39.149  1.00  0.00    -0.237 OA
ATOM     93  O   UNL A   1      44.155  24.865  37.431  1.00  0.00    -0.237 OA
ATOM     94  O   UNL A   1      45.931  25.757  38.873  1.00  0.00    -0.744 OA
ENDBRANCH  88  91
ENDBRANCH  61  84
ENDBRANCH  35  36
ENDBRANCH  27  30
ENDBRANCH  25  26
ENDBRANCH   1  25
TORSDOF 15
ENDMDL
MODEL 3
REMARK VINA RESULT:     -12.9      5.103     10.064
REMARK SMILES C[C@@H]1C[N@H+]2CCC[C@@H]2CN1C(=O)N1CC(C(=O)NCCCCNC(=O)c2ccc(-c3c4nc(c(-c5cccc(S(=O)(=O)[O-])c5F)c5ccc([nH]5)c(-c5cccc(S(=O)(=O)[O-])c5F)c5nc(c(-c6cccc(S(=O)(=O)[O-])c6F)c6ccc3[nH]6)C=C5)C=C4)cc2)C1
REMARK SMILES IDX 21 1 20 2 19 3 18 4 16 5 17 6 15 8 11 9 12 10 13 11 14 12
REMARK SMILES IDX 89 13 10 14 1 15 2 16 3 17 4 18 9 19 5 20 8 21 6 23 7 24
REMARK SMILES IDX 22 25 23 26 24 27 25 29 26 30 27 31 88 32 28 33 87 34 29 35
REMARK SMILES IDX 30 36 31 37 81 38 32 39 86 40 80 41 82 42 33 43 85 44 79 45
REMARK SMILES IDX 78 46 34 48 66 49 46 50 65 51 47 52 50 53 64 54 83 55 48 56
REMARK SMILES IDX 49 57 63 59 84 60 51 61 35 62 36 63 44 64 37 65 39 66 45 67
REMARK SMILES IDX 38 68 40 69 41 70 42 71 43 72 67 73 68 74 76 75 69 76 71 77
REMARK SMILES IDX 77 78 70 79 72 80 73 81 74 82 75 83 52 84 53 85 61 86 54 87
REMARK SMILES IDX 56 88 62 89 55 90 57 91 58 92 59 93 60 94
REMARK H PARENT 18 7 4 22 23 28 82 47 50 58
REMARK Flexibility Score: inf
ROOT
ATOM      1  C   UNL A   1      33.155  29.456  24.685  1.00  0.00     0.023 C 
ENDROOT
BRANCH   1   2
ATOM      2  C   UNL A   1      33.656  28.054  24.324  1.00  0.00     0.023 C 
BRANCH   2   3
ATOM      3  C   UNL A   1      33.387  27.627  22.882  1.00  0.00     0.116 C 
BRANCH   3   4
ATOM      4  N   UNL A   1      32.117  28.133  22.400  1.00  0.00    -0.356 N 
ATOM      5  C   UNL A   1      30.839  27.646  22.529  1.00  0.00     0.226 C 
ATOM      6  O   UNL A   1      29.947  28.327  22.001  1.00  0.00    -0.275 OA
ATOM      7  H   UNL A   1      32.182  28.973  21.890  1.00  0.00     0.163 HD
BRANCH   5   8
ATOM      8  C   UNL A   1      30.512  26.360  23.290  1.00  0.00     0.117 C 
ATOM      9  C   UNL A   1      31.259  24.183  25.724  1.00  0.00     0.320 C 
ATOM     10  O   UNL A   1      30.376  24.137  26.582  1.00  0.00    -0.248 OA
ATOM     11  N   UNL A   1      31.300  25.213  24.825  1.00  0.00    -0.323 N 
ATOM     12  C   UNL A   1      30.440  26.388  24.816  1.00  0.00     0.136 C 
ATOM     13  C   UNL A   1      31.499  25.196  23.379  1.00  0.00     0.136 C 
BRANCH   9  14
ATOM     14  N   UNL A   1      32.250  23.224  25.644  1.00  0.00    -0.310 N 
ATOM     15  C   UNL A   1      32.153  20.769  25.308  1.00  0.00     0.037 C 
ATOM     16  C   UNL A   1      32.298  22.135  24.634  1.00  0.00     0.139 C 
ATOM     17  C   UNL A   1      33.595  22.218  23.758  1.00  0.00     0.287 C 
ATOM     18  N   UNL A   1      34.799  22.399  24.579  1.00  0.00    -0.329 N 
ATOM     19  C   UNL A   1      33.500  23.440  26.393  1.00  0.00     0.186 C 
ATOM     20  C   UNL A   1      36.047  22.569  23.845  1.00  0.00     0.262 C 
ATOM     21  C   UNL A   1      34.655  23.611  25.408  1.00  0.00     0.204 C 
ATOM     22  H   UNL A   1      34.864  21.533  25.113  1.00  0.00     0.348 HD
ATOM     23  C   UNL A   1      36.937  23.364  24.809  1.00  0.00     0.068 C 
ATOM     24  C   UNL A   1      36.045  23.708  26.003  1.00  0.00     0.073 C 
ENDBRANCH   9  14
ENDBRANCH   5   8
ENDBRANCH   3   4
ENDBRANCH   2   3
ENDBRANCH   1   2
BRANCH   1  25
ATOM     25  C   UNL A   1      32.522  29.599  26.068  1.00  0.00     0.116 C 
BRANCH  25  26
ATOM     26  N   UNL A   1      32.290  30.985  26.450  1.00  0.00    -0.352 N 
ATOM     27  C   UNL A   1      33.061  31.820  27.224  1.00  0.00     0.251 C 
ATOM     28  H   UNL A   1      31.458  31.383  26.104  1.00  0.00     0.163 HD
ATOM     29  O   UNL A   1      32.630  32.927  27.540  1.00  0.00    -0.269 OA
BRANCH  27  30
ATOM     30  C   UNL A   1      34.386  31.374  27.707  1.00  0.00     0.039 A 
ATOM     31  C   UNL A   1      35.396  32.324  27.876  1.00  0.00     0.014 A 
ATOM     32  C   UNL A   1      34.627  30.031  28.015  1.00  0.00     0.014 A 
ATOM     33  C   UNL A   1      36.617  31.945  28.441  1.00  0.00     0.010 A 
ATOM     34  C   UNL A   1      35.820  29.668  28.637  1.00  0.00     0.010 A 
ATOM     35  C   UNL A   1      36.820  30.624  28.873  1.00  0.00    -0.014 A 
BRANCH  35  36
ATOM     36  C   UNL A   1      38.037  30.243  29.639  1.00  0.00     0.031 A 
ATOM     37  C   UNL A   1      39.007  29.233  29.093  1.00  0.00     0.074 A 
ATOM     38  C   UNL A   1      38.210  30.738  30.882  1.00  0.00     0.049 A 
ATOM     39  N   UNL A   1      40.077  28.734  29.654  1.00  0.00    -0.248 NA
ATOM     40  C   UNL A   1      38.730  28.696  27.750  1.00  0.00     0.031 C 
ATOM     41  C   UNL A   1      37.297  31.662  31.559  1.00  0.00     0.029 A 
ATOM     42  N   UNL A   1      39.196  30.509  31.811  1.00  0.00    -0.354 N 
ATOM     43  C   UNL A   1      40.587  27.807  28.752  1.00  0.00     0.074 A 
ATOM     44  C   UNL A   1      39.692  27.793  27.614  1.00  0.00     0.031 C 
ATOM     45  C   UNL A   1      37.761  31.916  32.793  1.00  0.00     0.029 A 
ATOM     46  C   UNL A   1      38.985  31.153  33.009  1.00  0.00     0.049 A 
ATOM     47  H   UNL A   1      39.979  29.938  31.636  1.00  0.00     0.167 HD
ATOM     48  C   UNL A   1      41.714  27.061  28.847  1.00  0.00     0.034 A 
ATOM     49  C   UNL A   1      39.689  31.123  34.158  1.00  0.00     0.034 A 
ATOM     50  C   UNL A   1      42.623  27.103  29.962  1.00  0.00     0.049 A 
ATOM     51  C   UNL A   1      40.948  30.302  34.224  1.00  0.00     0.074 A 
ATOM     52  C   UNL A   1      43.833  26.448  30.108  1.00  0.00     0.029 A 
ATOM     53  N   UNL A   1      42.421  27.833  31.123  1.00  0.00    -0.354 N 
ATOM     54  N   UNL A   1      41.503  29.566  33.292  1.00  0.00    -0.248 NA
ATOM     55  C   UNL A   1      41.697  30.334  35.489  1.00  0.00     0.031 C 
ATOM     56  C   UNL A   1      44.353  26.766  31.367  1.00  0.00     0.029 A 
ATOM     57  C   UNL A   1      43.477  27.635  31.996  1.00  0.00     0.049 A 
ATOM     58  H   UNL A   1      41.641  28.408  31.300  1.00  0.00     0.167 HD
ATOM     59  C   UNL A   1      42.677  29.071  33.847  1.00  0.00     0.074 A 
ATOM     60  C   UNL A   1      42.770  29.616  35.185  1.00  0.00     0.031 C 
ATOM     61  C   UNL A   1      43.586  28.223  33.305  1.00  0.00     0.034 A 
BRANCH  48  62
ATOM     62  C   UNL A   1      42.071  26.176  27.682  1.00  0.00     0.023 A 
ATOM     63  C   UNL A   1      42.886  26.690  26.652  1.00  0.00     0.012 A 
ATOM     64  C   UNL A   1      41.682  24.823  27.646  1.00  0.00     0.148 A 
ATOM     65  C   UNL A   1      43.289  25.879  25.592  1.00  0.00     0.002 A 
ATOM     66  C   UNL A   1      42.122  24.010  26.606  1.00  0.00     0.091 A 
ATOM     67  F   UNL A   1      40.894  24.358  28.625  1.00  0.00    -0.205 F 
ATOM     68  C   UNL A   1      42.916  24.537  25.576  1.00  0.00     0.022 A 
BRANCH  66  69
ATOM     69  S   UNL A   1      41.761  22.251  26.529  1.00  0.00     0.127 S 
ATOM     70  O   UNL A   1      42.561  21.837  25.376  1.00  0.00    -0.237 OA
ATOM     71  O   UNL A   1      42.261  21.778  27.820  1.00  0.00    -0.237 OA
ATOM     72  O   UNL A   1      40.319  22.142  26.357  1.00  0.00    -0.744 OA
ENDBRANCH  66  69
ENDBRANCH  48  62
BRANCH  49  73
ATOM     73  C   UNL A   1      39.248  31.936  35.327  1.00  0.00     0.023 A 
ATOM     74  C   UNL A   1      38.352  31.377  36.259  1.00  0.00     0.012 A 
ATOM     75  C   UNL A   1      39.718  33.248  35.529  1.00  0.00     0.148 A 
ATOM     76  C   UNL A   1      37.904  32.123  37.350  1.00  0.00     0.002 A 
ATOM     77  C   UNL A   1      39.313  33.964  36.648  1.00  0.00     0.091 A 
ATOM     78  F   UNL A   1      40.557  33.771  34.622  1.00  0.00    -0.205 F 
ATOM     79  C   UNL A   1      38.391  33.412  37.551  1.00  0.00     0.022 A 
BRANCH  77  80
ATOM     80  S   UNL A   1      40.002  35.574  37.053  1.00  0.00     0.127 S 
ATOM     81  O   UNL A   1      41.423  35.265  37.189  1.00  0.00    -0.237 OA
ATOM     82  O   UNL A   1      39.653  36.363  35.871  1.00  0.00    -0.237 OA
ATOM     83  O   UNL A   1      39.318  35.991  38.270  1.00  0.00    -0.744 OA
ENDBRANCH  77  80
ENDBRANCH  49  73
BRANCH  61  84
ATOM     84  C   UNL A   1      44.775  27.845  34.148  1.00  0.00     0.023 A 
ATOM     85  C   UNL A   1      45.929  28.654  34.129  1.00  0.00     0.012 A 
ATOM     86  C   UNL A   1      44.727  26.729  35.008  1.00  0.00     0.148 A 
ATOM     87  C   UNL A   1      47.027  28.342  34.929  1.00  0.00     0.002 A 
ATOM     88  C   UNL A   1      45.807  26.451  35.837  1.00  0.00     0.091 A 
ATOM     89  F   UNL A   1      43.628  25.961  34.999  1.00  0.00    -0.205 F 
ATOM     90  C   UNL A   1      46.962  27.249  35.790  1.00  0.00     0.022 A 
BRANCH  88  91
ATOM     91  S   UNL A   1      45.780  25.120  37.043  1.00  0.00     0.127 S 
ATOM     92  O   UNL A   1      47.090  25.266  37.677  1.00  0.00    -0.237 OA
ATOM     93  O   UNL A   1      44.648  25.492  37.891  1.00  0.00    -0.237 OA
ATOM     94  O   UNL A   1      45.587  23.893  36.282  1.00  0.00    -0.744 OA
ENDBRANCH  88  91
ENDBRANCH  61  84
ENDBRANCH  35  36
ENDBRANCH  27  30
ENDBRANCH  25  26
ENDBRANCH   1  25
TORSDOF 15
ENDMDL
