MODEL 1
REMARK VINA RESULT:     -13.2      0.000      0.000
REMARK SMILES Cc1c(C(=O)NCCCCNC(=O)c2ccc(-c3c4nc(c(-c5cccc(S(=O)(=O)[O-])c5F)c5ccc([nH]5)c(-c5cccc(S(=O)(=O)[O-])c5F)c5nc(c(-c6cccc(S(=O)(=O)[O-])c6F)c6ccc3[nH]6)C=C5)C=C4)cc2)ccc2c1N[C@@H](c1ccc(S(=O)(=O)N3CCOCC3)cc1)[C@@H]1CC=C[C@H]21
REMARK SMILES IDX 8 1 7 2 6 3 4 4 5 5 3 7 1 8 2 9 80 10 77 11 79 12 81 13
REMARK SMILES IDX 78 14 102 15 82 16 98 18 101 19 99 20 100 21 83 22 84 23
REMARK SMILES IDX 97 24 85 25 96 26 86 27 87 28 88 29 89 30 90 31 91 32 95 33
REMARK SMILES IDX 92 34 94 35 93 36 9 37 10 38 11 39 12 40 13 42 14 43 15 44
REMARK SMILES IDX 76 45 16 46 75 47 17 48 18 49 19 50 69 51 20 52 74 53 68 54
REMARK SMILES IDX 70 55 21 56 73 57 67 58 66 59 22 61 54 62 34 63 53 64 35 65
REMARK SMILES IDX 38 66 52 67 71 68 36 69 37 70 51 72 72 73 39 74 23 75 24 76
REMARK SMILES IDX 32 77 25 78 27 79 33 80 26 81 28 82 29 83 30 84 31 85 55 86
REMARK SMILES IDX 56 87 64 88 57 89 59 90 65 91 58 92 60 93 61 94 62 95 63 96
REMARK SMILES IDX 40 97 41 98 49 99 42 100 44 101 50 102 43 103 45 104 46 105
REMARK SMILES IDX 47 106 48 107
REMARK H PARENT 6 6 81 17 11 41 70 60 38 71
REMARK Flexibility Score: inf
ROOT
ATOM      1  C   UNL A   1      32.395  30.039  26.892  1.00  0.00     0.023 C 
ENDROOT
BRANCH   1   2
ATOM      2  C   UNL A   1      31.676  29.208  25.838  1.00  0.00     0.116 C 
BRANCH   2   3
ATOM      3  N   UNL A   1      32.131  29.389  24.471  1.00  0.00    -0.352 N 
ATOM      4  C   UNL A   1      32.515  28.434  23.552  1.00  0.00     0.251 C 
ATOM      5  O   UNL A   1      32.836  28.770  22.416  1.00  0.00    -0.269 OA
ATOM      6  H   UNL A   1      32.170  30.321  24.157  1.00  0.00     0.163 HD
BRANCH   4   7
ATOM      7  C   UNL A   1      32.637  27.005  23.945  1.00  0.00     0.044 A 
ATOM      8  C   UNL A   1      34.775  27.295  25.312  1.00  0.00     0.047 C 
ATOM      9  C   UNL A   1      33.764  26.457  24.569  1.00  0.00    -0.015 A 
ATOM     10  C   UNL A   1      33.908  25.058  24.592  1.00  0.00     0.042 A 
ATOM     11  C   UNL A   1      31.543  26.178  23.653  1.00  0.00     0.014 A 
ATOM     12  C   UNL A   1      32.792  24.240  24.388  1.00  0.00    -0.017 A 
ATOM     13  N   UNL A   1      35.141  24.511  24.902  1.00  0.00    -0.377 N 
ATOM     14  C   UNL A   1      31.600  24.812  23.929  1.00  0.00     0.007 A 
ATOM     15  C   UNL A   1      32.854  22.780  24.755  1.00  0.00     0.049 C 
ATOM     16  C   UNL A   1      35.371  23.083  24.754  1.00  0.00     0.114 C 
ATOM     17  H   UNL A   1      35.868  25.093  25.224  1.00  0.00     0.161 HD
ATOM     18  C   UNL A   1      34.192  22.310  25.392  1.00  0.00     0.031 C 
ATOM     19  C   UNL A   1      32.699  21.817  23.608  1.00  0.00    -0.023 C 
ATOM     20  C   UNL A   1      34.178  20.797  25.099  1.00  0.00     0.034 C 
ATOM     21  C   UNL A   1      33.428  20.711  23.808  1.00  0.00    -0.030 C 
BRANCH  16  22
ATOM     22  C   UNL A   1      36.752  22.780  25.337  1.00  0.00    -0.025 A 
ATOM     23  C   UNL A   1      37.425  21.555  25.133  1.00  0.00     0.007 A 
ATOM     24  C   UNL A   1      37.352  23.719  26.178  1.00  0.00     0.007 A 
ATOM     25  C   UNL A   1      38.648  21.280  25.755  1.00  0.00     0.022 A 
ATOM     26  C   UNL A   1      38.592  23.466  26.754  1.00  0.00     0.022 A 
ATOM     27  C   UNL A   1      39.237  22.250  26.560  1.00  0.00     0.082 A 
BRANCH  27  28
ATOM     28  S   UNL A   1      40.811  21.907  27.311  1.00  0.00     0.243 S 
ATOM     29  O   UNL A   1      41.219  23.126  27.983  1.00  0.00    -0.207 OA
ATOM     30  O   UNL A   1      40.664  20.657  28.019  1.00  0.00    -0.207 OA
BRANCH  28  31
ATOM     31  N   UNL A   1      41.860  21.647  26.030  1.00  0.00    -0.193 NA
ATOM     32  C   UNL A   1      42.298  20.296  25.627  1.00  0.00     0.131 C 
ATOM     33  C   UNL A   1      42.458  22.763  25.280  1.00  0.00     0.131 C 
ATOM     34  C   UNL A   1      43.819  20.229  25.413  1.00  0.00     0.177 C 
ATOM     35  C   UNL A   1      43.975  22.588  25.183  1.00  0.00     0.177 C 
ATOM     36  O   UNL A   1      44.319  21.314  24.619  1.00  0.00    -0.379 OA
ENDBRANCH  28  31
ENDBRANCH  27  28
ENDBRANCH  16  22
ENDBRANCH   4   7
ENDBRANCH   2   3
ENDBRANCH   1   2
BRANCH   1  37
ATOM     37  C   UNL A   1      32.094  31.538  26.882  1.00  0.00     0.023 C 
BRANCH  37  38
ATOM     38  C   UNL A   1      33.179  32.457  27.437  1.00  0.00     0.116 C 
BRANCH  38  39
ATOM     39  N   UNL A   1      32.704  33.793  27.783  1.00  0.00    -0.352 N 
ATOM     40  C   UNL A   1      33.174  34.670  28.735  1.00  0.00     0.251 C 
ATOM     41  H   UNL A   1      31.934  34.114  27.259  1.00  0.00     0.163 HD
ATOM     42  O   UNL A   1      32.602  35.735  28.938  1.00  0.00    -0.269 OA
BRANCH  40  43
ATOM     43  C   UNL A   1      34.348  34.289  29.545  1.00  0.00     0.039 A 
ATOM     44  C   UNL A   1      34.146  33.561  30.720  1.00  0.00     0.014 A 
ATOM     45  C   UNL A   1      35.641  34.578  29.101  1.00  0.00     0.014 A 
ATOM     46  C   UNL A   1      35.247  33.026  31.392  1.00  0.00     0.010 A 
ATOM     47  C   UNL A   1      36.729  33.983  29.730  1.00  0.00     0.010 A 
ATOM     48  C   UNL A   1      36.541  33.189  30.871  1.00  0.00    -0.014 A 
BRANCH  48  49
ATOM     49  C   UNL A   1      37.706  32.510  31.492  1.00  0.00     0.031 A 
ATOM     50  C   UNL A   1      38.215  32.959  32.832  1.00  0.00     0.074 A 
ATOM     51  C   UNL A   1      38.349  31.537  30.814  1.00  0.00     0.049 A 
ATOM     52  N   UNL A   1      39.228  32.500  33.519  1.00  0.00    -0.248 NA
ATOM     53  C   UNL A   1      37.510  34.080  33.477  1.00  0.00     0.031 C 
ATOM     54  C   UNL A   1      38.000  31.067  29.471  1.00  0.00     0.029 A 
ATOM     55  N   UNL A   1      39.441  30.778  31.157  1.00  0.00    -0.354 N 
ATOM     56  C   UNL A   1      39.298  33.288  34.659  1.00  0.00     0.074 A 
ATOM     57  C   UNL A   1      38.247  34.276  34.560  1.00  0.00     0.031 C 
ATOM     58  C   UNL A   1      38.848  30.089  29.113  1.00  0.00     0.029 A 
ATOM     59  C   UNL A   1      39.811  29.872  30.190  1.00  0.00     0.049 A 
ATOM     60  H   UNL A   1      39.915  30.874  32.014  1.00  0.00     0.167 HD
ATOM     61  C   UNL A   1      40.134  33.172  35.715  1.00  0.00     0.034 A 
ATOM     62  C   UNL A   1      40.803  28.960  30.177  1.00  0.00     0.034 A 
ATOM     63  C   UNL A   1      41.136  32.153  35.843  1.00  0.00     0.049 A 
ATOM     64  C   UNL A   1      41.693  28.823  31.382  1.00  0.00     0.074 A 
ATOM     65  C   UNL A   1      41.972  31.904  36.917  1.00  0.00     0.029 A 
ATOM     66  N   UNL A   1      41.435  31.213  34.871  1.00  0.00    -0.354 N 
ATOM     67  N   UNL A   1      41.650  29.487  32.511  1.00  0.00    -0.248 NA
ATOM     68  C   UNL A   1      42.744  27.797  31.326  1.00  0.00     0.031 C 
ATOM     69  C   UNL A   1      42.778  30.810  36.593  1.00  0.00     0.029 A 
ATOM     70  C   UNL A   1      42.442  30.380  35.320  1.00  0.00     0.049 A 
ATOM     71  H   UNL A   1      40.996  31.149  33.992  1.00  0.00     0.167 HD
ATOM     72  C   UNL A   1      42.648  28.942  33.310  1.00  0.00     0.074 A 
ATOM     73  C   UNL A   1      43.275  27.888  32.541  1.00  0.00     0.031 C 
ATOM     74  C   UNL A   1      43.017  29.296  34.564  1.00  0.00     0.034 A 
BRANCH  61  75
ATOM     75  C   UNL A   1      39.941  34.119  36.865  1.00  0.00     0.023 A 
ATOM     76  C   UNL A   1      40.280  35.476  36.690  1.00  0.00     0.012 A 
ATOM     77  C   UNL A   1      39.360  33.694  38.073  1.00  0.00     0.148 A 
ATOM     78  C   UNL A   1      40.057  36.397  37.710  1.00  0.00     0.002 A 
ATOM     79  C   UNL A   1      39.113  34.624  39.075  1.00  0.00     0.091 A 
ATOM     80  F   UNL A   1      39.061  32.395  38.217  1.00  0.00    -0.205 F 
ATOM     81  C   UNL A   1      39.466  35.974  38.898  1.00  0.00     0.022 A 
BRANCH  79  82
ATOM     82  S   UNL A   1      38.312  34.198  40.625  1.00  0.00     0.127 S 
ATOM     83  O   UNL A   1      38.015  35.520  41.177  1.00  0.00    -0.237 OA
ATOM     84  O   UNL A   1      37.141  33.451  40.168  1.00  0.00    -0.237 OA
ATOM     85  O   UNL A   1      39.281  33.417  41.380  1.00  0.00    -0.744 OA
ENDBRANCH  79  82
ENDBRANCH  61  75
BRANCH  62  86
ATOM     86  C   UNL A   1      40.935  28.037  29.017  1.00  0.00     0.023 A 
ATOM     87  C   UNL A   1      40.128  26.883  28.971  1.00  0.00     0.012 A 
ATOM     88  C   UNL A   1      41.798  28.320  27.941  1.00  0.00     0.148 A 
ATOM     89  C   UNL A   1      40.185  26.020  27.878  1.00  0.00     0.002 A 
ATOM     90  C   UNL A   1      41.825  27.473  26.839  1.00  0.00     0.091 A 
ATOM     91  F   UNL A   1      42.555  29.423  28.010  1.00  0.00    -0.205 F 
ATOM     92  C   UNL A   1      41.027  26.317  26.809  1.00  0.00     0.022 A 
BRANCH  90  93
ATOM     93  S   UNL A   1      42.802  27.815  25.370  1.00  0.00     0.127 S 
ATOM     94  O   UNL A   1      42.611  26.593  24.592  1.00  0.00    -0.237 OA
ATOM     95  O   UNL A   1      42.127  28.998  24.833  1.00  0.00    -0.237 OA
ATOM     96  O   UNL A   1      44.158  28.051  25.842  1.00  0.00    -0.744 OA
ENDBRANCH  90  93
ENDBRANCH  62  86
BRANCH  74  97
ATOM     97  C   UNL A   1      44.142  28.545  35.218  1.00  0.00     0.023 A 
ATOM     98  C   UNL A   1      45.467  28.959  34.987  1.00  0.00     0.012 A 
ATOM     99  C   UNL A   1      43.876  27.553  36.182  1.00  0.00     0.148 A 
ATOM    100  C   UNL A   1      46.517  28.397  35.712  1.00  0.00     0.002 A 
ATOM    101  C   UNL A   1      44.924  27.020  36.923  1.00  0.00     0.091 A 
ATOM    102  F   UNL A   1      42.604  27.178  36.377  1.00  0.00    -0.205 F 
ATOM    103  C   UNL A   1      46.244  27.440  36.687  1.00  0.00     0.022 A 
BRANCH 101 104
ATOM    104  S   UNL A   1      44.670  25.845  38.257  1.00  0.00     0.127 S 
ATOM    105  O   UNL A   1      43.801  26.602  39.158  1.00  0.00    -0.237 OA
ATOM    106  O   UNL A   1      44.014  24.734  37.569  1.00  0.00    -0.237 OA
ATOM    107  O   UNL A   1      45.991  25.540  38.788  1.00  0.00    -0.744 OA
ENDBRANCH 101 104
ENDBRANCH  74  97
ENDBRANCH  48  49
ENDBRANCH  40  43
ENDBRANCH  38  39
ENDBRANCH  37  38
ENDBRANCH   1  37
TORSDOF 17
ENDMDL
MODEL 2
REMARK VINA RESULT:     -11.6      6.458     13.524
REMARK SMILES Cc1c(C(=O)NCCCCNC(=O)c2ccc(-c3c4nc(c(-c5cccc(S(=O)(=O)[O-])c5F)c5ccc([nH]5)c(-c5cccc(S(=O)(=O)[O-])c5F)c5nc(c(-c6cccc(S(=O)(=O)[O-])c6F)c6ccc3[nH]6)C=C5)C=C4)cc2)ccc2c1N[C@@H](c1ccc(S(=O)(=O)N3CCOCC3)cc1)[C@@H]1CC=C[C@H]21
REMARK SMILES IDX 8 1 7 2 6 3 4 4 5 5 3 7 1 8 2 9 80 10 77 11 79 12 81 13
REMARK SMILES IDX 78 14 102 15 82 16 98 18 101 19 99 20 100 21 83 22 84 23
REMARK SMILES IDX 97 24 85 25 96 26 86 27 87 28 88 29 89 30 90 31 91 32 95 33
REMARK SMILES IDX 92 34 94 35 93 36 9 37 10 38 11 39 12 40 13 42 14 43 15 44
REMARK SMILES IDX 76 45 16 46 75 47 17 48 18 49 19 50 69 51 20 52 74 53 68 54
REMARK SMILES IDX 70 55 21 56 73 57 67 58 66 59 22 61 54 62 34 63 53 64 35 65
REMARK SMILES IDX 38 66 52 67 71 68 36 69 37 70 51 72 72 73 39 74 23 75 24 76
REMARK SMILES IDX 32 77 25 78 27 79 33 80 26 81 28 82 29 83 30 84 31 85 55 86
REMARK SMILES IDX 56 87 64 88 57 89 59 90 65 91 58 92 60 93 61 94 62 95 63 96
REMARK SMILES IDX 40 97 41 98 49 99 42 100 44 101 50 102 43 103 45 104 46 105
REMARK SMILES IDX 47 106 48 107
REMARK H PARENT 6 6 81 17 11 41 70 60 38 71
REMARK Flexibility Score: inf
ROOT
ATOM      1  C   UNL A   1      44.615  38.436  32.750  1.00  0.00     0.023 C 
ENDROOT
BRANCH   1   2
ATOM      2  C   UNL A   1      43.491  39.213  32.077  1.00  0.00     0.116 C 
BRANCH   2   3
ATOM      3  N   UNL A   1      43.904  40.211  31.107  1.00  0.00    -0.352 N 
ATOM      4  C   UNL A   1      44.110  40.068  29.750  1.00  0.00     0.251 C 
ATOM      5  O   UNL A   1      44.423  41.042  29.071  1.00  0.00    -0.269 OA
ATOM      6  H   UNL A   1      44.057  41.114  31.467  1.00  0.00     0.163 HD
BRANCH   4   7
ATOM      7  C   UNL A   1      44.052  38.728  29.109  1.00  0.00     0.044 A 
ATOM      8  C   UNL A   1      46.476  38.098  29.604  1.00  0.00     0.047 C 
ATOM      9  C   UNL A   1      45.173  37.925  28.865  1.00  0.00    -0.015 A 
ATOM     10  C   UNL A   1      45.049  36.848  27.970  1.00  0.00     0.042 A 
ATOM     11  C   UNL A   1      42.783  38.269  28.727  1.00  0.00     0.014 A 
ATOM     12  C   UNL A   1      43.782  36.339  27.664  1.00  0.00    -0.017 A 
ATOM     13  N   UNL A   1      46.193  36.251  27.468  1.00  0.00    -0.377 N 
ATOM     14  C   UNL A   1      42.645  37.052  28.061  1.00  0.00     0.007 A 
ATOM     15  C   UNL A   1      43.654  34.991  27.003  1.00  0.00     0.049 C 
ATOM     16  C   UNL A   1      46.102  35.264  26.404  1.00  0.00     0.114 C 
ATOM     17  H   UNL A   1      47.074  36.497  27.834  1.00  0.00     0.161 HD
ATOM     18  C   UNL A   1      44.994  34.243  26.752  1.00  0.00     0.031 C 
ATOM     19  C   UNL A   1      43.038  34.999  25.629  1.00  0.00    -0.023 C 
ATOM     20  C   UNL A   1      44.619  33.281  25.608  1.00  0.00     0.034 C 
ATOM     21  C   UNL A   1      43.570  34.041  24.860  1.00  0.00    -0.030 C 
BRANCH  16  22
ATOM     22  C   UNL A   1      47.500  34.679  26.205  1.00  0.00    -0.025 A 
ATOM     23  C   UNL A   1      48.479  35.279  25.383  1.00  0.00     0.007 A 
ATOM     24  C   UNL A   1      47.810  33.451  26.794  1.00  0.00     0.007 A 
ATOM     25  C   UNL A   1      49.718  34.668  25.154  1.00  0.00     0.022 A 
ATOM     26  C   UNL A   1      49.059  32.870  26.608  1.00  0.00     0.022 A 
ATOM     27  C   UNL A   1      50.009  33.461  25.784  1.00  0.00     0.082 A 
BRANCH  27  28
ATOM     28  S   UNL A   1      51.600  32.714  25.520  1.00  0.00     0.243 S 
ATOM     29  O   UNL A   1      51.527  32.032  24.243  1.00  0.00    -0.207 OA
ATOM     30  O   UNL A   1      52.584  33.739  25.783  1.00  0.00    -0.207 OA
BRANCH  28  31
ATOM     31  N   UNL A   1      51.742  31.553  26.720  1.00  0.00    -0.193 NA
ATOM     32  C   UNL A   1      52.400  31.825  28.013  1.00  0.00     0.131 C 
ATOM     33  C   UNL A   1      51.278  30.170  26.518  1.00  0.00     0.131 C 
ATOM     34  C   UNL A   1      53.394  30.716  28.394  1.00  0.00     0.177 C 
ATOM     35  C   UNL A   1      52.380  29.178  26.894  1.00  0.00     0.177 C 
ATOM     36  O   UNL A   1      52.849  29.399  28.233  1.00  0.00    -0.379 OA
ENDBRANCH  28  31
ENDBRANCH  27  28
ENDBRANCH  16  22
ENDBRANCH   4   7
ENDBRANCH   2   3
ENDBRANCH   1   2
BRANCH   1  37
ATOM     37  C   UNL A   1      44.505  36.912  32.687  1.00  0.00     0.023 C 
BRANCH  37  38
ATOM     38  C   UNL A   1      45.486  36.121  33.549  1.00  0.00     0.116 C 
BRANCH  38  39
ATOM     39  N   UNL A   1      46.887  36.348  33.212  1.00  0.00    -0.352 N 
ATOM     40  C   UNL A   1      47.718  35.622  32.389  1.00  0.00     0.251 C 
ATOM     41  H   UNL A   1      47.299  37.136  33.636  1.00  0.00     0.163 HD
ATOM     42  O   UNL A   1      48.902  35.922  32.275  1.00  0.00    -0.269 OA
BRANCH  40  43
ATOM     43  C   UNL A   1      47.179  34.443  31.682  1.00  0.00     0.039 A 
ATOM     44  C   UNL A   1      47.334  33.182  32.262  1.00  0.00     0.014 A 
ATOM     45  C   UNL A   1      46.454  34.597  30.498  1.00  0.00     0.014 A 
ATOM     46  C   UNL A   1      46.664  32.087  31.711  1.00  0.00     0.010 A 
ATOM     47  C   UNL A   1      45.729  33.521  29.995  1.00  0.00     0.010 A 
ATOM     48  C   UNL A   1      45.816  32.261  30.606  1.00  0.00    -0.014 A 
BRANCH  48  49
ATOM     49  C   UNL A   1      44.988  31.140  30.095  1.00  0.00     0.031 A 
ATOM     50  C   UNL A   1      45.557  30.178  29.092  1.00  0.00     0.074 A 
ATOM     51  C   UNL A   1      43.699  31.034  30.480  1.00  0.00     0.049 A 
ATOM     52  N   UNL A   1      44.979  29.154  28.520  1.00  0.00    -0.248 NA
ATOM     53  C   UNL A   1      46.946  30.404  28.659  1.00  0.00     0.031 C 
ATOM     54  C   UNL A   1      43.007  31.953  31.387  1.00  0.00     0.029 A 
ATOM     55  N   UNL A   1      42.737  30.114  30.145  1.00  0.00    -0.354 N 
ATOM     56  C   UNL A   1      45.921  28.630  27.646  1.00  0.00     0.074 A 
ATOM     57  C   UNL A   1      47.097  29.466  27.734  1.00  0.00     0.031 C 
ATOM     58  C   UNL A   1      41.740  31.539  31.551  1.00  0.00     0.029 A 
ATOM     59  C   UNL A   1      41.522  30.338  30.750  1.00  0.00     0.049 A 
ATOM     60  H   UNL A   1      42.901  29.363  29.530  1.00  0.00     0.167 HD
ATOM     61  C   UNL A   1      45.831  27.527  26.870  1.00  0.00     0.034 A 
ATOM     62  C   UNL A   1      40.367  29.646  30.680  1.00  0.00     0.034 A 
ATOM     63  C   UNL A   1      44.687  26.661  26.829  1.00  0.00     0.049 A 
ATOM     64  C   UNL A   1      40.306  28.398  29.843  1.00  0.00     0.074 A 
ATOM     65  C   UNL A   1      44.539  25.471  26.138  1.00  0.00     0.029 A 
ATOM     66  N   UNL A   1      43.501  26.886  27.507  1.00  0.00    -0.354 N 
ATOM     67  N   UNL A   1      41.256  27.841  29.132  1.00  0.00    -0.248 NA
ATOM     68  C   UNL A   1      39.030  27.668  29.819  1.00  0.00     0.031 C 
ATOM     69  C   UNL A   1      43.259  24.976  26.401  1.00  0.00     0.029 A 
ATOM     70  C   UNL A   1      42.614  25.857  27.253  1.00  0.00     0.049 A 
ATOM     71  H   UNL A   1      43.317  27.664  28.082  1.00  0.00     0.167 HD
ATOM     72  C   UNL A   1      40.703  26.682  28.600  1.00  0.00     0.074 A 
ATOM     73  C   UNL A   1      39.338  26.611  29.075  1.00  0.00     0.031 C 
ATOM     74  C   UNL A   1      41.276  25.770  27.781  1.00  0.00     0.034 A 
BRANCH  61  75
ATOM     75  C   UNL A   1      47.039  27.137  26.068  1.00  0.00     0.023 A 
ATOM     76  C   UNL A   1      47.999  26.289  26.655  1.00  0.00     0.012 A 
ATOM     77  C   UNL A   1      47.186  27.536  24.727  1.00  0.00     0.148 A 
ATOM     78  C   UNL A   1      49.100  25.854  25.922  1.00  0.00     0.002 A 
ATOM     79  C   UNL A   1      48.272  27.074  23.993  1.00  0.00     0.091 A 
ATOM     80  F   UNL A   1      46.265  28.355  24.198  1.00  0.00    -0.205 F 
ATOM     81  C   UNL A   1      49.232  26.238  24.591  1.00  0.00     0.022 A 
BRANCH  79  82
ATOM     82  S   UNL A   1      48.514  27.467  22.258  1.00  0.00     0.127 S 
ATOM     83  O   UNL A   1      49.765  28.224  22.298  1.00  0.00    -0.237 OA
ATOM     84  O   UNL A   1      48.625  26.138  21.657  1.00  0.00    -0.237 OA
ATOM     85  O   UNL A   1      47.343  28.229  21.848  1.00  0.00    -0.744 OA
ENDBRANCH  79  82
ENDBRANCH  61  75
BRANCH  62  86
ATOM     86  C   UNL A   1      39.208  30.069  31.511  1.00  0.00     0.023 A 
ATOM     87  C   UNL A   1      39.177  29.707  32.872  1.00  0.00     0.012 A 
ATOM     88  C   UNL A   1      38.176  30.873  30.988  1.00  0.00     0.148 A 
ATOM     89  C   UNL A   1      38.134  30.126  33.697  1.00  0.00     0.002 A 
ATOM     90  C   UNL A   1      37.157  31.316  31.824  1.00  0.00     0.091 A 
ATOM     91  F   UNL A   1      38.228  31.204  29.691  1.00  0.00    -0.205 F 
ATOM     92  C   UNL A   1      37.129  30.936  33.176  1.00  0.00     0.022 A 
BRANCH  90  93
ATOM     93  S   UNL A   1      35.867  32.440  31.275  1.00  0.00     0.127 S 
ATOM     94  O   UNL A   1      35.340  31.742  30.104  1.00  0.00    -0.237 OA
ATOM     95  O   UNL A   1      34.975  32.458  32.435  1.00  0.00    -0.237 OA
ATOM     96  O   UNL A   1      36.532  33.705  31.001  1.00  0.00    -0.744 OA
ENDBRANCH  90  93
ENDBRANCH  62  86
BRANCH  74  97
ATOM     97  C   UNL A   1      40.456  24.592  27.337  1.00  0.00     0.023 A 
ATOM     98  C   UNL A   1      39.288  24.815  26.585  1.00  0.00     0.012 A 
ATOM     99  C   UNL A   1      40.932  23.278  27.517  1.00  0.00     0.148 A 
ATOM    100  C   UNL A   1      38.603  23.744  26.014  1.00  0.00     0.002 A 
ATOM    101  C   UNL A   1      40.263  22.219  26.918  1.00  0.00     0.091 A 
ATOM    102  F   UNL A   1      42.046  23.097  28.241  1.00  0.00    -0.205 F 
ATOM    103  C   UNL A   1      39.097  22.451  26.168  1.00  0.00     0.022 A 
BRANCH 101 104
ATOM    104  S   UNL A   1      40.864  20.527  26.986  1.00  0.00     0.127 S 
ATOM    105  O   UNL A   1      39.856  19.822  26.194  1.00  0.00    -0.237 OA
ATOM    106  O   UNL A   1      42.174  20.640  26.345  1.00  0.00    -0.237 OA
ATOM    107  O   UNL A   1      40.903  20.167  28.396  1.00  0.00    -0.744 OA
ENDBRANCH 101 104
ENDBRANCH  74  97
ENDBRANCH  48  49
ENDBRANCH  40  43
ENDBRANCH  38  39
ENDBRANCH  37  38
ENDBRANCH   1  37
TORSDOF 17
ENDMDL
MODEL 3
REMARK VINA RESULT:     -11.5      4.145     11.363
REMARK SMILES Cc1c(C(=O)NCCCCNC(=O)c2ccc(-c3c4nc(c(-c5cccc(S(=O)(=O)[O-])c5F)c5ccc([nH]5)c(-c5cccc(S(=O)(=O)[O-])c5F)c5nc(c(-c6cccc(S(=O)(=O)[O-])c6F)c6ccc3[nH]6)C=C5)C=C4)cc2)ccc2c1N[C@@H](c1ccc(S(=O)(=O)N3CCOCC3)cc1)[C@@H]1CC=C[C@H]21
REMARK SMILES IDX 8 1 7 2 6 3 4 4 5 5 3 7 1 8 2 9 80 10 77 11 79 12 81 13
REMARK SMILES IDX 78 14 102 15 82 16 98 18 101 19 99 20 100 21 83 22 84 23
REMARK SMILES IDX 97 24 85 25 96 26 86 27 87 28 88 29 89 30 90 31 91 32 95 33
REMARK SMILES IDX 92 34 94 35 93 36 9 37 10 38 11 39 12 40 13 42 14 43 15 44
REMARK SMILES IDX 76 45 16 46 75 47 17 48 18 49 19 50 69 51 20 52 74 53 68 54
REMARK SMILES IDX 70 55 21 56 73 57 67 58 66 59 22 61 54 62 34 63 53 64 35 65
REMARK SMILES IDX 38 66 52 67 71 68 36 69 37 70 51 72 72 73 39 74 23 75 24 76
REMARK SMILES IDX 32 77 25 78 27 79 33 80 26 81 28 82 29 83 30 84 31 85 55 86
REMARK SMILES IDX 56 87 64 88 57 89 59 90 65 91 58 92 60 93 61 94 62 95 63 96
REMARK SMILES IDX 40 97 41 98 49 99 42 100 44 101 50 102 43 103 45 104 46 105
REMARK SMILES IDX 47 106 48 107
REMARK H PARENT 6 6 81 17 11 41 70 60 38 71
REMARK Flexibility Score: inf
ROOT
ATOM      1  C   UNL A   1      41.989  35.297  39.647  1.00  0.00     0.023 C 
ENDROOT
BRANCH   1   2
ATOM      2  C   UNL A   1      42.750  35.102  38.343  1.00  0.00     0.116 C 
BRANCH   2   3
ATOM      3  N   UNL A   1      43.295  36.306  37.741  1.00  0.00    -0.352 N 
ATOM      4  C   UNL A   1      43.114  36.795  36.463  1.00  0.00     0.251 C 
ATOM      5  O   UNL A   1      43.626  37.862  36.136  1.00  0.00    -0.269 OA
ATOM      6  H   UNL A   1      43.873  36.848  38.325  1.00  0.00     0.163 HD
BRANCH   4   7
ATOM      7  C   UNL A   1      42.382  36.001  35.441  1.00  0.00     0.044 A 
ATOM      8  C   UNL A   1      44.454  35.304  34.122  1.00  0.00     0.047 C 
ATOM      9  C   UNL A   1      42.967  35.498  34.273  1.00  0.00    -0.015 A 
ATOM     10  C   UNL A   1      42.126  35.058  33.234  1.00  0.00     0.042 A 
ATOM     11  C   UNL A   1      41.022  35.763  35.686  1.00  0.00     0.014 A 
ATOM     12  C   UNL A   1      40.792  34.738  33.506  1.00  0.00    -0.017 A 
ATOM     13  N   UNL A   1      42.658  34.868  31.970  1.00  0.00    -0.377 N 
ATOM     14  C   UNL A   1      40.246  35.083  34.748  1.00  0.00     0.007 A 
ATOM     15  C   UNL A   1      39.991  33.945  32.507  1.00  0.00     0.049 C 
ATOM     16  C   UNL A   1      41.786  34.596  30.838  1.00  0.00     0.114 C 
ATOM     17  H   UNL A   1      43.633  34.918  31.836  1.00  0.00     0.161 HD
ATOM     18  C   UNL A   1      40.767  33.501  31.234  1.00  0.00     0.031 C 
ATOM     19  C   UNL A   1      38.804  34.658  31.916  1.00  0.00    -0.023 C 
ATOM     20  C   UNL A   1      39.628  33.281  30.219  1.00  0.00     0.034 C 
ATOM     21  C   UNL A   1      38.599  34.279  30.647  1.00  0.00    -0.030 C 
BRANCH  16  22
ATOM     22  C   UNL A   1      42.680  34.265  29.643  1.00  0.00    -0.025 A 
ATOM     23  C   UNL A   1      43.521  33.131  29.597  1.00  0.00     0.007 A 
ATOM     24  C   UNL A   1      42.735  35.159  28.572  1.00  0.00     0.007 A 
ATOM     25  C   UNL A   1      44.391  32.909  28.523  1.00  0.00     0.022 A 
ATOM     26  C   UNL A   1      43.561  34.910  27.481  1.00  0.00     0.022 A 
ATOM     27  C   UNL A   1      44.398  33.800  27.455  1.00  0.00     0.082 A 
BRANCH  27  28
ATOM     28  S   UNL A   1      45.475  33.485  26.077  1.00  0.00     0.243 S 
ATOM     29  O   UNL A   1      44.988  32.275  25.443  1.00  0.00    -0.207 OA
ATOM     30  O   UNL A   1      45.593  34.731  25.355  1.00  0.00    -0.207 OA
BRANCH  28  31
ATOM     31  N   UNL A   1      46.969  33.148  26.757  1.00  0.00    -0.193 NA
ATOM     32  C   UNL A   1      47.439  31.768  26.994  1.00  0.00     0.131 C 
ATOM     33  C   UNL A   1      47.867  34.217  27.223  1.00  0.00     0.131 C 
ATOM     34  C   UNL A   1      48.019  31.597  28.407  1.00  0.00     0.177 C 
ATOM     35  C   UNL A   1      48.330  33.938  28.654  1.00  0.00     0.177 C 
ATOM     36  O   UNL A   1      48.935  32.641  28.765  1.00  0.00    -0.379 OA
ENDBRANCH  28  31
ENDBRANCH  27  28
ENDBRANCH  16  22
ENDBRANCH   4   7
ENDBRANCH   2   3
ENDBRANCH   1   2
BRANCH   1  37
ATOM     37  C   UNL A   1      40.848  34.314  39.909  1.00  0.00     0.023 C 
BRANCH  37  38
ATOM     38  C   UNL A   1      39.586  34.492  39.069  1.00  0.00     0.116 C 
BRANCH  38  39
ATOM     39  N   UNL A   1      38.368  34.027  39.724  1.00  0.00    -0.352 N 
ATOM     40  C   UNL A   1      37.409  33.150  39.269  1.00  0.00     0.251 C 
ATOM     41  H   UNL A   1      38.207  34.395  40.624  1.00  0.00     0.163 HD
ATOM     42  O   UNL A   1      36.403  32.924  39.933  1.00  0.00    -0.269 OA
BRANCH  40  43
ATOM     43  C   UNL A   1      37.582  32.521  37.944  1.00  0.00     0.039 A 
ATOM     44  C   UNL A   1      37.830  33.338  36.839  1.00  0.00     0.014 A 
ATOM     45  C   UNL A   1      37.580  31.130  37.814  1.00  0.00     0.014 A 
ATOM     46  C   UNL A   1      38.189  32.754  35.622  1.00  0.00     0.010 A 
ATOM     47  C   UNL A   1      38.009  30.554  36.623  1.00  0.00     0.010 A 
ATOM     48  C   UNL A   1      38.333  31.361  35.522  1.00  0.00    -0.014 A 
BRANCH  48  49
ATOM     49  C   UNL A   1      38.849  30.733  34.280  1.00  0.00     0.031 A 
ATOM     50  C   UNL A   1      40.204  30.088  34.268  1.00  0.00     0.074 A 
ATOM     51  C   UNL A   1      38.125  30.810  33.144  1.00  0.00     0.049 A 
ATOM     52  N   UNL A   1      40.827  29.509  33.275  1.00  0.00    -0.248 NA
ATOM     53  C   UNL A   1      40.971  30.112  35.526  1.00  0.00     0.031 C 
ATOM     54  C   UNL A   1      36.830  31.481  33.008  1.00  0.00     0.029 A 
ATOM     55  N   UNL A   1      38.383  30.332  31.883  1.00  0.00    -0.354 N 
ATOM     56  C   UNL A   1      42.062  29.123  33.778  1.00  0.00     0.074 A 
ATOM     57  C   UNL A   1      42.118  29.562  35.155  1.00  0.00     0.031 C 
ATOM     58  C   UNL A   1      36.399  31.354  31.742  1.00  0.00     0.029 A 
ATOM     59  C   UNL A   1      37.392  30.610  30.972  1.00  0.00     0.049 A 
ATOM     60  H   UNL A   1      39.202  29.837  31.653  1.00  0.00     0.167 HD
ATOM     61  C   UNL A   1      43.044  28.428  33.163  1.00  0.00     0.034 A 
ATOM     62  C   UNL A   1      37.286  30.290  29.666  1.00  0.00     0.034 A 
ATOM     63  C   UNL A   1      42.965  27.938  31.816  1.00  0.00     0.049 A 
ATOM     64  C   UNL A   1      38.373  29.480  29.016  1.00  0.00     0.074 A 
ATOM     65  C   UNL A   1      43.876  27.149  31.137  1.00  0.00     0.029 A 
ATOM     66  N   UNL A   1      41.915  28.184  30.948  1.00  0.00    -0.354 N 
ATOM     67  N   UNL A   1      39.471  29.004  29.551  1.00  0.00    -0.248 NA
ATOM     68  C   UNL A   1      38.198  29.138  27.598  1.00  0.00     0.031 C 
ATOM     69  C   UNL A   1      43.374  26.917  29.854  1.00  0.00     0.029 A 
ATOM     70  C   UNL A   1      42.153  27.561  29.737  1.00  0.00     0.049 A 
ATOM     71  H   UNL A   1      41.119  28.723  31.160  1.00  0.00     0.167 HD
ATOM     72  C   UNL A   1      40.103  28.283  28.545  1.00  0.00     0.074 A 
ATOM     73  C   UNL A   1      39.264  28.378  27.370  1.00  0.00     0.031 C 
ATOM     74  C   UNL A   1      41.280  27.616  28.593  1.00  0.00     0.034 A 
BRANCH  61  75
ATOM     75  C   UNL A   1      44.260  28.074  33.971  1.00  0.00     0.023 A 
ATOM     76  C   UNL A   1      45.350  28.966  33.984  1.00  0.00     0.012 A 
ATOM     77  C   UNL A   1      44.295  26.916  34.769  1.00  0.00     0.148 A 
ATOM     78  C   UNL A   1      46.469  28.704  34.771  1.00  0.00     0.002 A 
ATOM     79  C   UNL A   1      45.402  26.676  35.574  1.00  0.00     0.091 A 
ATOM     80  F   UNL A   1      43.251  26.077  34.726  1.00  0.00    -0.205 F 
ATOM     81  C   UNL A   1      46.491  27.566  35.571  1.00  0.00     0.022 A 
BRANCH  79  82
ATOM     82  S   UNL A   1      45.516  25.267  36.680  1.00  0.00     0.127 S 
ATOM     83  O   UNL A   1      44.876  24.217  35.887  1.00  0.00    -0.237 OA
ATOM     84  O   UNL A   1      46.962  25.116  36.836  1.00  0.00    -0.237 OA
ATOM     85  O   UNL A   1      44.805  25.645  37.893  1.00  0.00    -0.744 OA
ENDBRANCH  79  82
ENDBRANCH  61  75
BRANCH  62  86
ATOM     86  C   UNL A   1      36.050  30.654  28.920  1.00  0.00     0.023 A 
ATOM     87  C   UNL A   1      35.313  29.633  28.288  1.00  0.00     0.012 A 
ATOM     88  C   UNL A   1      35.570  31.977  28.884  1.00  0.00     0.148 A 
ATOM     89  C   UNL A   1      34.123  29.925  27.622  1.00  0.00     0.002 A 
ATOM     90  C   UNL A   1      34.365  32.255  28.248  1.00  0.00     0.091 A 
ATOM     91  F   UNL A   1      36.290  32.929  29.494  1.00  0.00    -0.205 F 
ATOM     92  C   UNL A   1      33.645  31.233  27.608  1.00  0.00     0.022 A 
BRANCH  90  93
ATOM     93  S   UNL A   1      33.615  33.887  28.254  1.00  0.00     0.127 S 
ATOM     94  O   UNL A   1      33.520  34.168  29.685  1.00  0.00    -0.237 OA
ATOM     95  O   UNL A   1      34.616  34.677  27.536  1.00  0.00    -0.237 OA
ATOM     96  O   UNL A   1      32.344  33.743  27.560  1.00  0.00    -0.744 OA
ENDBRANCH  90  93
ENDBRANCH  62  86
BRANCH  74  97
ATOM     97  C   UNL A   1      41.753  26.910  27.354  1.00  0.00     0.023 A 
ATOM     98  C   UNL A   1      42.416  27.649  26.356  1.00  0.00     0.012 A 
ATOM     99  C   UNL A   1      41.693  25.506  27.261  1.00  0.00     0.148 A 
ATOM    100  C   UNL A   1      43.018  26.998  25.280  1.00  0.00     0.002 A 
ATOM    101  C   UNL A   1      42.322  24.862  26.203  1.00  0.00     0.091 A 
ATOM    102  F   UNL A   1      41.052  24.830  28.225  1.00  0.00    -0.205 F 
ATOM    103  C   UNL A   1      42.983  25.607  25.211  1.00  0.00     0.022 A 
BRANCH 101 104
ATOM    104  S   UNL A   1      42.407  23.073  26.068  1.00  0.00     0.127 S 
ATOM    105  O   UNL A   1      40.994  22.702  26.138  1.00  0.00    -0.237 OA
ATOM    106  O   UNL A   1      43.020  22.891  24.752  1.00  0.00    -0.237 OA
ATOM    107  O   UNL A   1      43.220  22.619  27.188  1.00  0.00    -0.744 OA
ENDBRANCH 101 104
ENDBRANCH  74  97
ENDBRANCH  48  49
ENDBRANCH  40  43
ENDBRANCH  38  39
ENDBRANCH  37  38
ENDBRANCH   1  37
TORSDOF 17
ENDMDL
