MODEL 1
REMARK VINA RESULT:     -11.8      0.000      0.000
REMARK SMILES C[NH+]1CCC([N@@H+](CC(=O)NCCCCNC(=O)c2ccc(-c3c4nc(c(-c5cccc(S(=O)(=O)[O-])c5F)c5ccc([nH]5)c(-c5cccc(S(=O)(=O)[O-])c5F)c5nc(c(-c6cccc(S(=O)(=O)[O-])c6F)c6ccc3[nH]6)C=C5)C=C4)cc2)C(C)(C)C)CC1
REMARK SMILES IDX 13 1 12 2 11 3 10 4 8 5 9 6 7 8 6 9 5 11 1 12 2 13 3 14
REMARK SMILES IDX 86 15 4 17 85 18 81 19 82 20 83 21 84 22 14 23 15 24 16 25
REMARK SMILES IDX 17 27 18 28 19 29 80 30 20 31 79 32 21 33 22 34 23 35 73 36
REMARK SMILES IDX 24 37 78 38 72 39 74 40 25 41 77 42 71 43 70 44 26 46 58 47
REMARK SMILES IDX 38 48 57 49 39 50 42 51 56 52 75 53 40 54 41 55 55 57 76 58
REMARK SMILES IDX 43 59 27 60 28 61 36 62 29 63 31 64 37 65 30 66 32 67 33 68
REMARK SMILES IDX 34 69 35 70 59 71 60 72 68 73 61 74 63 75 69 76 62 77 64 78
REMARK SMILES IDX 65 79 66 80 67 81 44 82 45 83 53 84 46 85 48 86 54 87 47 88
REMARK SMILES IDX 49 89 50 90 51 91 52 92
REMARK H PARENT 10 7 6 10 2 16 15 26 74 45 42 56
REMARK Flexibility Score: inf
ROOT
ATOM      1  C   UNL A   1      31.825  29.142  27.033  1.00  0.00     0.023 C 
ENDROOT
BRANCH   1   2
ATOM      2  C   UNL A   1      31.609  27.929  26.130  1.00  0.00     0.023 C 
BRANCH   2   3
ATOM      3  C   UNL A   1      32.352  26.679  26.591  1.00  0.00     0.116 C 
BRANCH   3   4
ATOM      4  N   UNL A   1      31.523  25.507  26.779  1.00  0.00    -0.351 N 
ATOM      5  C   UNL A   1      31.842  24.183  26.730  1.00  0.00     0.275 C 
ATOM      6  O   UNL A   1      31.095  23.406  27.329  1.00  0.00    -0.269 OA
ATOM      7  H   UNL A   1      30.577  25.697  26.975  1.00  0.00     0.163 HD
BRANCH   5   8
ATOM      8  C   UNL A   1      33.084  23.697  25.982  1.00  0.00     0.364 C 
BRANCH   8   9
ATOM      9  N   UNL A   1      32.817  23.207  24.605  1.00  0.00    -0.320 N 
ATOM     10  H   UNL A   1      31.808  23.125  24.487  1.00  0.00     0.349 HD
BRANCH   9  11
ATOM     11  C   UNL A   1      33.207  21.795  24.417  1.00  0.00     0.196 C 
ATOM     12  C   UNL A   1      34.375  17.675  24.591  1.00  0.00     0.332 C 
ATOM     13  N   UNL A   1      33.876  18.992  25.000  1.00  0.00    -0.337 N 
ATOM     14  C   UNL A   1      32.690  19.332  24.204  1.00  0.00     0.268 C 
ATOM     15  C   UNL A   1      34.929  20.005  24.863  1.00  0.00     0.268 C 
ATOM     16  H   UNL A   1      33.606  18.968  25.983  1.00  0.00     0.347 HD
ATOM     17  C   UNL A   1      32.130  20.715  24.550  1.00  0.00     0.126 C 
ATOM     18  C   UNL A   1      34.435  21.402  25.259  1.00  0.00     0.126 C 
ENDBRANCH   9  11
BRANCH   9  19
ATOM     19  C   UNL A   1      32.804  24.191  23.490  1.00  0.00     0.090 C 
ATOM     20  C   UNL A   1      33.748  25.405  23.654  1.00  0.00     0.078 C 
ATOM     21  C   UNL A   1      33.177  23.498  22.158  1.00  0.00     0.078 C 
ATOM     22  C   UNL A   1      31.371  24.748  23.261  1.00  0.00     0.078 C 
ENDBRANCH   9  19
ENDBRANCH   8   9
ENDBRANCH   5   8
ENDBRANCH   3   4
ENDBRANCH   2   3
ENDBRANCH   1   2
BRANCH   1  23
ATOM     23  C   UNL A   1      32.823  30.140  26.476  1.00  0.00     0.116 C 
BRANCH  23  24
ATOM     24  N   UNL A   1      32.746  31.495  26.986  1.00  0.00    -0.352 N 
ATOM     25  C   UNL A   1      33.711  32.214  27.663  1.00  0.00     0.251 C 
ATOM     26  H   UNL A   1      31.894  31.964  26.831  1.00  0.00     0.163 HD
ATOM     27  O   UNL A   1      33.478  33.383  27.969  1.00  0.00    -0.269 OA
BRANCH  25  28
ATOM     28  C   UNL A   1      34.988  31.574  28.089  1.00  0.00     0.039 A 
ATOM     29  C   UNL A   1      36.138  32.367  28.172  1.00  0.00     0.014 A 
ATOM     30  C   UNL A   1      35.068  30.233  28.459  1.00  0.00     0.014 A 
ATOM     31  C   UNL A   1      37.317  31.839  28.710  1.00  0.00     0.010 A 
ATOM     32  C   UNL A   1      36.190  29.750  29.120  1.00  0.00     0.010 A 
ATOM     33  C   UNL A   1      37.336  30.539  29.241  1.00  0.00    -0.014 A 
BRANCH  33  34
ATOM     34  C   UNL A   1      38.530  29.984  29.931  1.00  0.00     0.031 A 
ATOM     35  C   UNL A   1      38.886  30.445  31.324  1.00  0.00     0.074 A 
ATOM     36  C   UNL A   1      39.354  29.153  29.261  1.00  0.00     0.049 A 
ATOM     37  N   UNL A   1      39.918  30.124  32.059  1.00  0.00    -0.248 NA
ATOM     38  C   UNL A   1      37.994  31.433  31.958  1.00  0.00     0.031 C 
ATOM     39  C   UNL A   1      39.187  28.733  27.867  1.00  0.00     0.029 A 
ATOM     40  N   UNL A   1      40.511  28.528  29.654  1.00  0.00    -0.354 N 
ATOM     41  C   UNL A   1      39.827  30.905  33.206  1.00  0.00     0.074 A 
ATOM     42  C   UNL A   1      38.666  31.749  33.054  1.00  0.00     0.031 C 
ATOM     43  C   UNL A   1      40.183  27.898  27.532  1.00  0.00     0.029 A 
ATOM     44  C   UNL A   1      41.077  27.743  28.674  1.00  0.00     0.049 A 
ATOM     45  H   UNL A   1      40.899  28.629  30.552  1.00  0.00     0.167 HD
ATOM     46  C   UNL A   1      40.616  30.891  34.307  1.00  0.00     0.034 A 
ATOM     47  C   UNL A   1      42.187  26.980  28.698  1.00  0.00     0.034 A 
ATOM     48  C   UNL A   1      41.712  29.982  34.488  1.00  0.00     0.049 A 
ATOM     49  C   UNL A   1      42.978  26.902  29.976  1.00  0.00     0.074 A 
ATOM     50  C   UNL A   1      42.491  29.786  35.615  1.00  0.00     0.029 A 
ATOM     51  N   UNL A   1      42.182  29.112  33.518  1.00  0.00    -0.354 N 
ATOM     52  N   UNL A   1      42.761  27.506  31.119  1.00  0.00    -0.248 NA
ATOM     53  C   UNL A   1      44.143  26.006  29.981  1.00  0.00     0.031 C 
ATOM     54  C   UNL A   1      43.443  28.804  35.319  1.00  0.00     0.029 A 
ATOM     55  C   UNL A   1      43.245  28.380  34.015  1.00  0.00     0.049 A 
ATOM     56  H   UNL A   1      41.815  29.028  32.608  1.00  0.00     0.167 HD
ATOM     57  C   UNL A   1      43.741  27.039  31.988  1.00  0.00     0.074 A 
ATOM     58  C   UNL A   1      44.532  26.078  31.246  1.00  0.00     0.031 C 
ATOM     59  C   UNL A   1      43.981  27.388  33.276  1.00  0.00     0.034 A 
BRANCH  46  60
ATOM     60  C   UNL A   1      40.275  31.832  35.434  1.00  0.00     0.023 A 
ATOM     61  C   UNL A   1      41.012  33.024  35.593  1.00  0.00     0.012 A 
ATOM     62  C   UNL A   1      39.187  31.575  36.292  1.00  0.00     0.148 A 
ATOM     63  C   UNL A   1      40.694  33.929  36.605  1.00  0.00     0.002 A 
ATOM     64  C   UNL A   1      38.847  32.504  37.269  1.00  0.00     0.091 A 
ATOM     65  F   UNL A   1      38.509  30.428  36.139  1.00  0.00    -0.205 F 
ATOM     66  C   UNL A   1      39.606  33.675  37.434  1.00  0.00     0.022 A 
BRANCH  64  67
ATOM     67  S   UNL A   1      37.416  32.312  38.340  1.00  0.00     0.127 S 
ATOM     68  O   UNL A   1      37.281  30.857  38.392  1.00  0.00    -0.237 OA
ATOM     69  O   UNL A   1      37.881  32.926  39.584  1.00  0.00    -0.237 OA
ATOM     70  O   UNL A   1      36.324  33.014  37.682  1.00  0.00    -0.744 OA
ENDBRANCH  64  67
ENDBRANCH  46  60
BRANCH  47  71
ATOM     71  C   UNL A   1      42.563  26.157  27.513  1.00  0.00     0.023 A 
ATOM     72  C   UNL A   1      43.337  26.740  26.490  1.00  0.00     0.012 A 
ATOM     73  C   UNL A   1      42.178  24.808  27.394  1.00  0.00     0.148 A 
ATOM     74  C   UNL A   1      43.687  26.010  25.354  1.00  0.00     0.002 A 
ATOM     75  C   UNL A   1      42.576  24.070  26.284  1.00  0.00     0.091 A 
ATOM     76  F   UNL A   1      41.430  24.271  28.368  1.00  0.00    -0.205 F 
ATOM     77  C   UNL A   1      43.314  24.672  25.255  1.00  0.00     0.022 A 
BRANCH  75  78
ATOM     78  S   UNL A   1      42.251  22.308  26.144  1.00  0.00     0.127 S 
ATOM     79  O   UNL A   1      42.789  21.803  27.404  1.00  0.00    -0.237 OA
ATOM     80  O   UNL A   1      40.791  22.272  26.039  1.00  0.00    -0.237 OA
ATOM     81  O   UNL A   1      42.945  21.884  24.936  1.00  0.00    -0.744 OA
ENDBRANCH  75  78
ENDBRANCH  47  71
BRANCH  59  82
ATOM     82  C   UNL A   1      45.127  26.709  33.975  1.00  0.00     0.023 A 
ATOM     83  C   UNL A   1      46.411  27.289  33.934  1.00  0.00     0.012 A 
ATOM     84  C   UNL A   1      44.919  25.535  34.725  1.00  0.00     0.148 A 
ATOM     85  C   UNL A   1      47.478  26.690  34.599  1.00  0.00     0.002 A 
ATOM     86  C   UNL A   1      45.977  24.973  35.427  1.00  0.00     0.091 A 
ATOM     87  F   UNL A   1      43.694  24.989  34.735  1.00  0.00    -0.205 F 
ATOM     88  C   UNL A   1      47.259  25.540  35.354  1.00  0.00     0.022 A 
BRANCH  86  89
ATOM     89  S   UNL A   1      45.761  23.552  36.504  1.00  0.00     0.127 S 
ATOM     90  O   UNL A   1      44.643  22.860  35.865  1.00  0.00    -0.237 OA
ATOM     91  O   UNL A   1      47.050  22.869  36.384  1.00  0.00    -0.237 OA
ATOM     92  O   UNL A   1      45.490  24.095  37.829  1.00  0.00    -0.744 OA
ENDBRANCH  86  89
ENDBRANCH  59  82
ENDBRANCH  33  34
ENDBRANCH  25  28
ENDBRANCH  23  24
ENDBRANCH   1  23
TORSDOF 17
ENDMDL
MODEL 2
REMARK VINA RESULT:     -11.8      4.977     10.269
REMARK SMILES C[NH+]1CCC([N@@H+](CC(=O)NCCCCNC(=O)c2ccc(-c3c4nc(c(-c5cccc(S(=O)(=O)[O-])c5F)c5ccc([nH]5)c(-c5cccc(S(=O)(=O)[O-])c5F)c5nc(c(-c6cccc(S(=O)(=O)[O-])c6F)c6ccc3[nH]6)C=C5)C=C4)cc2)C(C)(C)C)CC1
REMARK SMILES IDX 13 1 12 2 11 3 10 4 8 5 9 6 7 8 6 9 5 11 1 12 2 13 3 14
REMARK SMILES IDX 86 15 4 17 85 18 81 19 82 20 83 21 84 22 14 23 15 24 16 25
REMARK SMILES IDX 17 27 18 28 19 29 80 30 20 31 79 32 21 33 22 34 23 35 73 36
REMARK SMILES IDX 24 37 78 38 72 39 74 40 25 41 77 42 71 43 70 44 26 46 58 47
REMARK SMILES IDX 38 48 57 49 39 50 42 51 56 52 75 53 40 54 41 55 55 57 76 58
REMARK SMILES IDX 43 59 27 60 28 61 36 62 29 63 31 64 37 65 30 66 32 67 33 68
REMARK SMILES IDX 34 69 35 70 59 71 60 72 68 73 61 74 63 75 69 76 62 77 64 78
REMARK SMILES IDX 65 79 66 80 67 81 44 82 45 83 53 84 46 85 48 86 54 87 47 88
REMARK SMILES IDX 49 89 50 90 51 91 52 92
REMARK H PARENT 10 7 6 10 2 16 15 26 74 45 42 56
REMARK Flexibility Score: inf
ROOT
ATOM      1  C   UNL A   1      35.123  21.264  24.901  1.00  0.00     0.023 C 
ENDROOT
BRANCH   1   2
ATOM      2  C   UNL A   1      34.071  20.609  25.794  1.00  0.00     0.023 C 
BRANCH   2   3
ATOM      3  C   UNL A   1      32.665  21.169  25.602  1.00  0.00     0.116 C 
BRANCH   3   4
ATOM      4  N   UNL A   1      32.296  22.227  26.519  1.00  0.00    -0.351 N 
ATOM      5  C   UNL A   1      31.562  23.357  26.313  1.00  0.00     0.275 C 
ATOM      6  O   UNL A   1      31.032  23.867  27.303  1.00  0.00    -0.269 OA
ATOM      7  H   UNL A   1      32.626  22.111  27.439  1.00  0.00     0.163 HD
BRANCH   5   8
ATOM      8  C   UNL A   1      31.393  23.944  24.911  1.00  0.00     0.364 C 
BRANCH   8   9
ATOM      9  N   UNL A   1      32.569  24.709  24.421  1.00  0.00    -0.320 N 
ATOM     10  H   UNL A   1      33.397  24.362  24.904  1.00  0.00     0.349 HD
BRANCH   9  11
ATOM     11  C   UNL A   1      32.573  26.109  24.890  1.00  0.00     0.196 C 
ATOM     12  C   UNL A   1      32.072  29.958  26.708  1.00  0.00     0.332 C 
ATOM     13  N   UNL A   1      32.007  28.509  26.491  1.00  0.00    -0.337 N 
ATOM     14  C   UNL A   1      33.369  27.968  26.403  1.00  0.00     0.268 C 
ATOM     15  C   UNL A   1      31.223  28.205  25.289  1.00  0.00     0.268 C 
ATOM     16  H   UNL A   1      31.536  28.064  27.279  1.00  0.00     0.347 HD
ATOM     17  C   UNL A   1      33.384  26.460  26.140  1.00  0.00     0.126 C 
ATOM     18  C   UNL A   1      31.155  26.697  25.016  1.00  0.00     0.126 C 
ENDBRANCH   9  11
BRANCH   9  19
ATOM     19  C   UNL A   1      33.212  24.286  23.148  1.00  0.00     0.090 C 
ATOM     20  C   UNL A   1      32.716  22.946  22.558  1.00  0.00     0.078 C 
ATOM     21  C   UNL A   1      33.011  25.368  22.060  1.00  0.00     0.078 C 
ATOM     22  C   UNL A   1      34.753  24.175  23.318  1.00  0.00     0.078 C 
ENDBRANCH   9  19
ENDBRANCH   8   9
ENDBRANCH   5   8
ENDBRANCH   3   4
ENDBRANCH   2   3
ENDBRANCH   1   2
BRANCH   1  23
ATOM     23  C   UNL A   1      36.397  21.633  25.638  1.00  0.00     0.116 C 
BRANCH  23  24
ATOM     24  N   UNL A   1      37.521  20.728  25.493  1.00  0.00    -0.352 N 
ATOM     25  C   UNL A   1      38.830  20.912  25.893  1.00  0.00     0.251 C 
ATOM     26  H   UNL A   1      37.327  19.870  25.050  1.00  0.00     0.163 HD
ATOM     27  O   UNL A   1      39.636  19.997  25.731  1.00  0.00    -0.269 OA
BRANCH  25  28
ATOM     28  C   UNL A   1      39.288  22.220  26.441  1.00  0.00     0.039 A 
ATOM     29  C   UNL A   1      40.330  22.225  27.375  1.00  0.00     0.014 A 
ATOM     30  C   UNL A   1      38.756  23.437  26.020  1.00  0.00     0.014 A 
ATOM     31  C   UNL A   1      40.887  23.437  27.798  1.00  0.00     0.010 A 
ATOM     32  C   UNL A   1      39.397  24.631  26.330  1.00  0.00     0.010 A 
ATOM     33  C   UNL A   1      40.461  24.650  27.235  1.00  0.00    -0.014 A 
BRANCH  33  34
ATOM     34  C   UNL A   1      41.108  25.947  27.565  1.00  0.00     0.031 A 
ATOM     35  C   UNL A   1      42.526  26.222  27.126  1.00  0.00     0.074 A 
ATOM     36  C   UNL A   1      40.461  26.827  28.356  1.00  0.00     0.049 A 
ATOM     37  N   UNL A   1      43.277  27.264  27.372  1.00  0.00    -0.248 NA
ATOM     38  C   UNL A   1      43.210  25.172  26.349  1.00  0.00     0.031 C 
ATOM     39  C   UNL A   1      39.137  26.621  28.950  1.00  0.00     0.029 A 
ATOM     40  N   UNL A   1      40.837  28.064  28.818  1.00  0.00    -0.354 N 
ATOM     41  C   UNL A   1      44.525  26.970  26.833  1.00  0.00     0.074 A 
ATOM     42  C   UNL A   1      44.448  25.636  26.285  1.00  0.00     0.031 C 
ATOM     43  C   UNL A   1      38.799  27.703  29.668  1.00  0.00     0.029 A 
ATOM     44  C   UNL A   1      39.890  28.669  29.613  1.00  0.00     0.049 A 
ATOM     45  H   UNL A   1      41.701  28.480  28.599  1.00  0.00     0.167 HD
ATOM     46  C   UNL A   1      45.626  27.756  26.762  1.00  0.00     0.034 A 
ATOM     47  C   UNL A   1      39.900  29.872  30.222  1.00  0.00     0.034 A 
ATOM     48  C   UNL A   1      45.664  29.114  27.227  1.00  0.00     0.049 A 
ATOM     49  C   UNL A   1      41.095  30.766  30.030  1.00  0.00     0.074 A 
ATOM     50  C   UNL A   1      46.676  30.045  27.083  1.00  0.00     0.029 A 
ATOM     51  N   UNL A   1      44.639  29.738  27.921  1.00  0.00    -0.354 N 
ATOM     52  N   UNL A   1      42.193  30.541  29.349  1.00  0.00    -0.248 NA
ATOM     53  C   UNL A   1      41.037  32.094  30.655  1.00  0.00     0.031 C 
ATOM     54  C   UNL A   1      46.269  31.231  27.704  1.00  0.00     0.029 A 
ATOM     55  C   UNL A   1      44.996  31.040  28.219  1.00  0.00     0.049 A 
ATOM     56  H   UNL A   1      43.785  29.316  28.166  1.00  0.00     0.167 HD
ATOM     57  C   UNL A   1      42.941  31.710  29.435  1.00  0.00     0.074 A 
ATOM     58  C   UNL A   1      42.155  32.649  30.208  1.00  0.00     0.031 C 
ATOM     59  C   UNL A   1      44.175  31.976  28.940  1.00  0.00     0.034 A 
BRANCH  46  60
ATOM     60  C   UNL A   1      46.854  27.197  26.092  1.00  0.00     0.023 A 
ATOM     61  C   UNL A   1      47.019  27.351  24.699  1.00  0.00     0.012 A 
ATOM     62  C   UNL A   1      47.876  26.583  26.843  1.00  0.00     0.148 A 
ATOM     63  C   UNL A   1      48.163  26.876  24.061  1.00  0.00     0.002 A 
ATOM     64  C   UNL A   1      49.035  26.153  26.206  1.00  0.00     0.091 A 
ATOM     65  F   UNL A   1      47.695  26.427  28.162  1.00  0.00    -0.205 F 
ATOM     66  C   UNL A   1      49.174  26.288  24.814  1.00  0.00     0.022 A 
BRANCH  64  67
ATOM     67  S   UNL A   1      50.432  25.453  27.093  1.00  0.00     0.127 S 
ATOM     68  O   UNL A   1      51.383  25.219  26.006  1.00  0.00    -0.237 OA
ATOM     69  O   UNL A   1      50.796  26.543  27.999  1.00  0.00    -0.237 OA
ATOM     70  O   UNL A   1      49.932  24.253  27.750  1.00  0.00    -0.744 OA
ENDBRANCH  64  67
ENDBRANCH  46  60
BRANCH  47  71
ATOM     71  C   UNL A   1      38.708  30.340  30.987  1.00  0.00     0.023 A 
ATOM     72  C   UNL A   1      38.631  30.073  32.368  1.00  0.00     0.012 A 
ATOM     73  C   UNL A   1      37.664  31.054  30.370  1.00  0.00     0.148 A 
ATOM     74  C   UNL A   1      37.521  30.472  33.113  1.00  0.00     0.002 A 
ATOM     75  C   UNL A   1      36.585  31.497  31.128  1.00  0.00     0.091 A 
ATOM     76  F   UNL A   1      37.745  31.288  29.052  1.00  0.00    -0.205 F 
ATOM     77  C   UNL A   1      36.502  31.192  32.495  1.00  0.00     0.022 A 
BRANCH  75  78
ATOM     78  S   UNL A   1      35.298  32.542  30.436  1.00  0.00     0.127 S 
ATOM     79  O   UNL A   1      34.843  31.746  29.300  1.00  0.00    -0.237 OA
ATOM     80  O   UNL A   1      34.347  32.634  31.545  1.00  0.00    -0.237 OA
ATOM     81  O   UNL A   1      35.959  33.800  30.113  1.00  0.00    -0.744 OA
ENDBRANCH  75  78
ENDBRANCH  47  71
BRANCH  59  82
ATOM     82  C   UNL A   1      44.741  33.346  29.195  1.00  0.00     0.023 A 
ATOM     83  C   UNL A   1      45.427  33.604  30.399  1.00  0.00     0.012 A 
ATOM     84  C   UNL A   1      44.650  34.355  28.218  1.00  0.00     0.148 A 
ATOM     85  C   UNL A   1      45.984  34.858  30.640  1.00  0.00     0.002 A 
ATOM     86  C   UNL A   1      45.252  35.587  28.445  1.00  0.00     0.091 A 
ATOM     87  F   UNL A   1      43.976  34.096  27.088  1.00  0.00    -0.205 F 
ATOM     88  C   UNL A   1      45.907  35.844  29.660  1.00  0.00     0.022 A 
BRANCH  86  89
ATOM     89  S   UNL A   1      45.288  36.878  27.196  1.00  0.00     0.127 S 
ATOM     90  O   UNL A   1      46.004  36.218  26.106  1.00  0.00    -0.237 OA
ATOM     91  O   UNL A   1      43.865  37.107  26.942  1.00  0.00    -0.237 OA
ATOM     92  O   UNL A   1      45.977  38.005  27.810  1.00  0.00    -0.744 OA
ENDBRANCH  86  89
ENDBRANCH  59  82
ENDBRANCH  33  34
ENDBRANCH  25  28
ENDBRANCH  23  24
ENDBRANCH   1  23
TORSDOF 17
ENDMDL
MODEL 3
REMARK VINA RESULT:     -11.7      5.178     10.610
REMARK SMILES C[NH+]1CCC([N@@H+](CC(=O)NCCCCNC(=O)c2ccc(-c3c4nc(c(-c5cccc(S(=O)(=O)[O-])c5F)c5ccc([nH]5)c(-c5cccc(S(=O)(=O)[O-])c5F)c5nc(c(-c6cccc(S(=O)(=O)[O-])c6F)c6ccc3[nH]6)C=C5)C=C4)cc2)C(C)(C)C)CC1
REMARK SMILES IDX 13 1 12 2 11 3 10 4 8 5 9 6 7 8 6 9 5 11 1 12 2 13 3 14
REMARK SMILES IDX 86 15 4 17 85 18 81 19 82 20 83 21 84 22 14 23 15 24 16 25
REMARK SMILES IDX 17 27 18 28 19 29 80 30 20 31 79 32 21 33 22 34 23 35 73 36
REMARK SMILES IDX 24 37 78 38 72 39 74 40 25 41 77 42 71 43 70 44 26 46 58 47
REMARK SMILES IDX 38 48 57 49 39 50 42 51 56 52 75 53 40 54 41 55 55 57 76 58
REMARK SMILES IDX 43 59 27 60 28 61 36 62 29 63 31 64 37 65 30 66 32 67 33 68
REMARK SMILES IDX 34 69 35 70 59 71 60 72 68 73 61 74 63 75 69 76 62 77 64 78
REMARK SMILES IDX 65 79 66 80 67 81 44 82 45 83 53 84 46 85 48 86 54 87 47 88
REMARK SMILES IDX 49 89 50 90 51 91 52 92
REMARK H PARENT 10 7 6 10 2 16 15 26 74 45 42 56
REMARK Flexibility Score: inf
ROOT
ATOM      1  C   UNL A   1      36.593  21.999  24.208  1.00  0.00     0.023 C 
ENDROOT
BRANCH   1   2
ATOM      2  C   UNL A   1      36.222  23.465  24.000  1.00  0.00     0.023 C 
BRANCH   2   3
ATOM      3  C   UNL A   1      34.721  23.734  24.055  1.00  0.00     0.116 C 
BRANCH   3   4
ATOM      4  N   UNL A   1      34.176  24.412  22.897  1.00  0.00    -0.351 N 
ATOM      5  C   UNL A   1      33.647  25.661  22.774  1.00  0.00     0.275 C 
ATOM      6  O   UNL A   1      33.649  26.160  21.646  1.00  0.00    -0.269 OA
ATOM      7  H   UNL A   1      34.191  23.886  22.066  1.00  0.00     0.163 HD
BRANCH   5   8
ATOM      8  C   UNL A   1      33.101  26.411  23.990  1.00  0.00     0.364 C 
BRANCH   8   9
ATOM      9  N   UNL A   1      31.650  26.206  24.235  1.00  0.00    -0.320 N 
ATOM     10  H   UNL A   1      31.286  25.602  23.498  1.00  0.00     0.349 HD
BRANCH   9  11
ATOM     11  C   UNL A   1      30.852  27.421  23.978  1.00  0.00     0.196 C 
ATOM     12  C   UNL A   1      29.145  31.221  22.968  1.00  0.00     0.332 C 
ATOM     13  N   UNL A   1      30.070  30.084  23.006  1.00  0.00    -0.337 N 
ATOM     14  C   UNL A   1      29.378  28.878  22.533  1.00  0.00     0.268 C 
ATOM     15  C   UNL A   1      30.608  29.905  24.359  1.00  0.00     0.268 C 
ATOM     16  H   UNL A   1      30.861  30.262  22.387  1.00  0.00     0.347 HD
ATOM     17  C   UNL A   1      30.273  27.635  22.578  1.00  0.00     0.126 C 
ATOM     18  C   UNL A   1      31.562  28.706  24.442  1.00  0.00     0.126 C 
ENDBRANCH   9  11
BRANCH   9  19
ATOM     19  C   UNL A   1      31.234  25.162  25.209  1.00  0.00     0.090 C 
ATOM     20  C   UNL A   1      31.031  23.744  24.627  1.00  0.00     0.078 C 
ATOM     21  C   UNL A   1      32.275  25.046  26.348  1.00  0.00     0.078 C 
ATOM     22  C   UNL A   1      29.911  25.565  25.919  1.00  0.00     0.078 C 
ENDBRANCH   9  19
ENDBRANCH   8   9
ENDBRANCH   5   8
ENDBRANCH   3   4
ENDBRANCH   2   3
ENDBRANCH   1   2
BRANCH   1  23
ATOM     23  C   UNL A   1      37.179  21.713  25.579  1.00  0.00     0.116 C 
BRANCH  23  24
ATOM     24  N   UNL A   1      38.346  20.852  25.624  1.00  0.00    -0.352 N 
ATOM     25  C   UNL A   1      39.584  21.112  26.178  1.00  0.00     0.251 C 
ATOM     26  H   UNL A   1      38.243  19.968  25.204  1.00  0.00     0.163 HD
ATOM     27  O   UNL A   1      40.438  20.226  26.168  1.00  0.00    -0.269 OA
BRANCH  25  28
ATOM     28  C   UNL A   1      39.916  22.461  26.715  1.00  0.00     0.039 A 
ATOM     29  C   UNL A   1      40.871  22.559  27.734  1.00  0.00     0.014 A 
ATOM     30  C   UNL A   1      39.356  23.631  26.205  1.00  0.00     0.014 A 
ATOM     31  C   UNL A   1      41.319  23.815  28.158  1.00  0.00     0.010 A 
ATOM     32  C   UNL A   1      39.899  24.870  26.524  1.00  0.00     0.010 A 
ATOM     33  C   UNL A   1      40.876  24.982  27.515  1.00  0.00    -0.014 A 
BRANCH  33  34
ATOM     34  C   UNL A   1      41.418  26.325  27.851  1.00  0.00     0.031 A 
ATOM     35  C   UNL A   1      42.843  26.678  27.502  1.00  0.00     0.074 A 
ATOM     36  C   UNL A   1      40.664  27.181  28.569  1.00  0.00     0.049 A 
ATOM     37  N   UNL A   1      43.510  27.771  27.769  1.00  0.00    -0.248 NA
ATOM     38  C   UNL A   1      43.643  25.654  26.805  1.00  0.00     0.031 C 
ATOM     39  C   UNL A   1      39.316  26.907  29.077  1.00  0.00     0.029 A 
ATOM     40  N   UNL A   1      40.929  28.450  29.020  1.00  0.00    -0.354 N 
ATOM     41  C   UNL A   1      44.808  27.544  27.326  1.00  0.00     0.074 A 
ATOM     42  C   UNL A   1      44.852  26.195  26.813  1.00  0.00     0.031 C 
ATOM     43  C   UNL A   1      38.862  27.983  29.738  1.00  0.00     0.029 A 
ATOM     44  C   UNL A   1      39.893  29.015  29.730  1.00  0.00     0.049 A 
ATOM     45  H   UNL A   1      41.779  28.915  28.849  1.00  0.00     0.167 HD
ATOM     46  C   UNL A   1      45.861  28.396  27.308  1.00  0.00     0.034 A 
ATOM     47  C   UNL A   1      39.786  30.230  30.302  1.00  0.00     0.034 A 
ATOM     48  C   UNL A   1      45.782  29.765  27.734  1.00  0.00     0.049 A 
ATOM     49  C   UNL A   1      40.934  31.193  30.167  1.00  0.00     0.074 A 
ATOM     50  C   UNL A   1      46.743  30.755  27.633  1.00  0.00     0.029 A 
ATOM     51  N   UNL A   1      44.675  30.340  28.337  1.00  0.00    -0.354 N 
ATOM     52  N   UNL A   1      42.089  31.021  29.569  1.00  0.00    -0.248 NA
ATOM     53  C   UNL A   1      40.750  32.530  30.747  1.00  0.00     0.031 C 
ATOM     54  C   UNL A   1      46.220  31.927  28.190  1.00  0.00     0.029 A 
ATOM     55  C   UNL A   1      44.929  31.669  28.621  1.00  0.00     0.049 A 
ATOM     56  H   UNL A   1      43.833  29.871  28.536  1.00  0.00     0.167 HD
ATOM     57  C   UNL A   1      42.756  32.237  29.673  1.00  0.00     0.074 A 
ATOM     58  C   UNL A   1      41.861  33.144  30.363  1.00  0.00     0.031 C 
ATOM     59  C   UNL A   1      44.003  32.569  29.257  1.00  0.00     0.034 A 
BRANCH  46  60
ATOM     60  C   UNL A   1      47.165  27.900  26.740  1.00  0.00     0.023 A 
ATOM     61  C   UNL A   1      48.173  27.435  27.611  1.00  0.00     0.012 A 
ATOM     62  C   UNL A   1      47.370  27.826  25.348  1.00  0.00     0.148 A 
ATOM     63  C   UNL A   1      49.374  26.937  27.109  1.00  0.00     0.002 A 
ATOM     64  C   UNL A   1      48.552  27.284  24.854  1.00  0.00     0.091 A 
ATOM     65  F   UNL A   1      46.410  28.289  24.535  1.00  0.00    -0.205 F 
ATOM     66  C   UNL A   1      49.558  26.850  25.733  1.00  0.00     0.022 A 
BRANCH  64  67
ATOM     67  S   UNL A   1      48.860  27.055  23.098  1.00  0.00     0.127 S 
ATOM     68  O   UNL A   1      48.203  28.231  22.529  1.00  0.00    -0.237 OA
ATOM     69  O   UNL A   1      50.322  27.085  23.039  1.00  0.00    -0.237 OA
ATOM     70  O   UNL A   1      48.260  25.776  22.748  1.00  0.00    -0.744 OA
ENDBRANCH  64  67
ENDBRANCH  46  60
BRANCH  47  71
ATOM     71  C   UNL A   1      38.517  30.640  30.969  1.00  0.00     0.023 A 
ATOM     72  C   UNL A   1      38.330  30.339  32.333  1.00  0.00     0.012 A 
ATOM     73  C   UNL A   1      37.506  31.334  30.278  1.00  0.00     0.148 A 
ATOM     74  C   UNL A   1      37.146  30.684  32.986  1.00  0.00     0.002 A 
ATOM     75  C   UNL A   1      36.350  31.723  30.948  1.00  0.00     0.091 A 
ATOM     76  F   UNL A   1      37.692  31.601  28.978  1.00  0.00    -0.205 F 
ATOM     77  C   UNL A   1      36.160  31.384  32.296  1.00  0.00     0.022 A 
BRANCH  75  78
ATOM     78  S   UNL A   1      35.093  32.741  30.168  1.00  0.00     0.127 S 
ATOM     79  O   UNL A   1      35.878  33.879  29.697  1.00  0.00    -0.237 OA
ATOM     80  O   UNL A   1      34.593  31.859  29.112  1.00  0.00    -0.237 OA
ATOM     81  O   UNL A   1      34.122  33.024  31.217  1.00  0.00    -0.744 OA
ENDBRANCH  75  78
ENDBRANCH  47  71
BRANCH  59  82
ATOM     82  C   UNL A   1      44.464  33.978  29.510  1.00  0.00     0.023 A 
ATOM     83  C   UNL A   1      45.046  34.308  30.750  1.00  0.00     0.012 A 
ATOM     84  C   UNL A   1      44.382  34.954  28.499  1.00  0.00     0.148 A 
ATOM     85  C   UNL A   1      45.506  35.601  30.992  1.00  0.00     0.002 A 
ATOM     86  C   UNL A   1      44.889  36.226  28.731  1.00  0.00     0.091 A 
ATOM     87  F   UNL A   1      43.807  34.624  27.333  1.00  0.00    -0.205 F 
ATOM     88  C   UNL A   1      45.439  36.556  29.980  1.00  0.00     0.022 A 
BRANCH  86  89
ATOM     89  S   UNL A   1      44.935  37.485  27.450  1.00  0.00     0.127 S 
ATOM     90  O   UNL A   1      45.867  36.899  26.489  1.00  0.00    -0.237 OA
ATOM     91  O   UNL A   1      43.542  37.527  27.002  1.00  0.00    -0.237 OA
ATOM     92  O   UNL A   1      45.392  38.703  28.106  1.00  0.00    -0.744 OA
ENDBRANCH  86  89
ENDBRANCH  59  82
ENDBRANCH  33  34
ENDBRANCH  25  28
ENDBRANCH  23  24
ENDBRANCH   1  23
TORSDOF 17
ENDMDL
