MODEL 1
REMARK VINA RESULT:     -12.5      0.000      0.000
REMARK SMILES COc1c(C(=O)NCCCCNC(=O)c2ccc(-c3c4nc(c(-c5cccc(S(=O)(=O)[O-])c5F)c5ccc([nH]5)c(-c5cccc(S(=O)(=O)[O-])c5F)c5nc(c(-c6cccc(S(=O)(=O)[O-])c6F)c6ccc3[nH]6)C=C5)C=C4)cc2)cccc1-c1cc(C)ccc1C
REMARK SMILES IDX 10 1 9 2 8 3 7 4 5 5 6 6 4 8 3 9 81 10 78 11 80 12 79 13
REMARK SMILES IDX 2 14 1 15 82 16 83 17 88 18 84 19 87 20 89 21 85 22 86 23
REMARK SMILES IDX 11 24 12 25 13 26 14 28 15 29 16 30 77 31 17 32 76 33 18 34
REMARK SMILES IDX 19 35 20 36 70 37 21 38 75 39 69 40 71 41 22 42 74 43 68 44
REMARK SMILES IDX 67 45 23 47 55 48 35 49 54 50 36 51 39 52 53 53 72 54 37 55
REMARK SMILES IDX 38 56 52 58 73 59 40 60 24 61 25 62 33 63 26 64 28 65 34 66
REMARK SMILES IDX 27 67 29 68 30 69 31 70 32 71 56 72 57 73 65 74 58 75 60 76
REMARK SMILES IDX 66 77 59 78 61 79 62 80 63 81 64 82 41 83 42 84 50 85 43 86
REMARK SMILES IDX 45 87 51 88 44 89 46 90 47 91 48 92 49 93
REMARK H PARENT 7 7 12 27 71 46 39 57
REMARK Flexibility Score: inf
ROOT
ATOM      1  C   UNL A   1      36.096  20.867  25.350  1.00  0.00     0.023 C 
ENDROOT
BRANCH   1   2
ATOM      2  C   UNL A   1      35.461  21.916  26.259  1.00  0.00     0.023 C 
BRANCH   2   3
ATOM      3  C   UNL A   1      34.297  21.452  27.116  1.00  0.00     0.116 C 
BRANCH   3   4
ATOM      4  N   UNL A   1      33.169  20.855  26.458  1.00  0.00    -0.352 N 
ATOM      5  C   UNL A   1      32.588  21.260  25.274  1.00  0.00     0.255 C 
ATOM      6  O   UNL A   1      31.740  20.528  24.762  1.00  0.00    -0.269 OA
ATOM      7  H   UNL A   1      32.766  20.073  26.900  1.00  0.00     0.163 HD
BRANCH   5   8
ATOM      8  C   UNL A   1      32.831  22.604  24.660  1.00  0.00     0.082 A 
ATOM      9  C   UNL A   1      32.565  23.873  25.230  1.00  0.00     0.139 A 
ATOM     10  C   UNL A   1      32.869  25.053  24.492  1.00  0.00     0.025 A 
ATOM     11  C   UNL A   1      33.417  22.532  23.379  1.00  0.00     0.018 A 
ATOM     12  C   UNL A   1      33.448  24.924  23.210  1.00  0.00     0.012 A 
ATOM     13  C   UNL A   1      33.726  23.679  22.660  1.00  0.00     0.002 A 
BRANCH   9  14
ATOM     14  O   UNL A   1      32.133  23.922  26.537  1.00  0.00    -0.495 OA
ATOM     15  C   UNL A   1      30.718  23.809  26.740  1.00  0.00     0.278 C 
ENDBRANCH   9  14
BRANCH  10  16
ATOM     16  C   UNL A   1      32.562  26.423  24.959  1.00  0.00    -0.011 A 
ATOM     17  C   UNL A   1      33.556  27.092  25.709  1.00  0.00     0.012 A 
ATOM     18  C   UNL A   1      31.379  27.121  24.635  1.00  0.00    -0.043 A 
ATOM     19  C   UNL A   1      33.433  28.436  26.073  1.00  0.00    -0.050 A 
ATOM     20  C   UNL A   1      31.272  28.480  24.984  1.00  0.00     0.004 A 
ATOM     21  C   UNL A   1      30.273  26.511  23.812  1.00  0.00     0.045 C 
ATOM     22  C   UNL A   1      34.534  29.103  26.841  1.00  0.00     0.044 C 
ATOM     23  C   UNL A   1      32.287  29.131  25.689  1.00  0.00     0.004 A 
ENDBRANCH  10  16
ENDBRANCH   5   8
ENDBRANCH   3   4
ENDBRANCH   2   3
ENDBRANCH   1   2
BRANCH   1  24
ATOM     24  C   UNL A   1      37.508  21.150  24.840  1.00  0.00     0.116 C 
BRANCH  24  25
ATOM     25  N   UNL A   1      38.525  20.212  25.307  1.00  0.00    -0.352 N 
ATOM     26  C   UNL A   1      39.634  20.407  26.105  1.00  0.00     0.251 C 
ATOM     27  H   UNL A   1      38.398  19.285  25.000  1.00  0.00     0.163 HD
ATOM     28  O   UNL A   1      40.390  19.474  26.335  1.00  0.00    -0.269 OA
BRANCH  26  29
ATOM     29  C   UNL A   1      39.938  21.756  26.638  1.00  0.00     0.039 A 
ATOM     30  C   UNL A   1      40.935  21.889  27.609  1.00  0.00     0.014 A 
ATOM     31  C   UNL A   1      39.282  22.887  26.156  1.00  0.00     0.014 A 
ATOM     32  C   UNL A   1      41.359  23.164  27.997  1.00  0.00     0.010 A 
ATOM     33  C   UNL A   1      39.776  24.151  26.461  1.00  0.00     0.010 A 
ATOM     34  C   UNL A   1      40.830  24.306  27.375  1.00  0.00    -0.014 A 
BRANCH  34  35
ATOM     35  C   UNL A   1      41.384  25.665  27.625  1.00  0.00     0.031 A 
ATOM     36  C   UNL A   1      42.788  26.005  27.199  1.00  0.00     0.074 A 
ATOM     37  C   UNL A   1      40.671  26.553  28.349  1.00  0.00     0.049 A 
ATOM     38  N   UNL A   1      43.478  27.093  27.425  1.00  0.00    -0.248 NA
ATOM     39  C   UNL A   1      43.527  24.973  26.452  1.00  0.00     0.031 C 
ATOM     40  C   UNL A   1      39.339  26.316  28.911  1.00  0.00     0.029 A 
ATOM     41  N   UNL A   1      40.980  27.825  28.766  1.00  0.00    -0.354 N 
ATOM     42  C   UNL A   1      44.742  26.858  26.896  1.00  0.00     0.074 A 
ATOM     43  C   UNL A   1      44.735  25.511  26.369  1.00  0.00     0.031 C 
ATOM     44  C   UNL A   1      38.944  27.406  29.589  1.00  0.00     0.029 A 
ATOM     45  C   UNL A   1      40.002  28.408  29.540  1.00  0.00     0.049 A 
ATOM     46  H   UNL A   1      41.824  28.277  28.534  1.00  0.00     0.167 HD
ATOM     47  C   UNL A   1      45.803  27.697  26.822  1.00  0.00     0.034 A 
ATOM     48  C   UNL A   1      39.962  29.613  30.144  1.00  0.00     0.034 A 
ATOM     49  C   UNL A   1      45.787  29.058  27.283  1.00  0.00     0.049 A 
ATOM     50  C   UNL A   1      41.125  30.553  29.982  1.00  0.00     0.074 A 
ATOM     51  C   UNL A   1      46.773  30.021  27.156  1.00  0.00     0.029 A 
ATOM     52  N   UNL A   1      44.732  29.652  27.958  1.00  0.00    -0.354 N 
ATOM     53  N   UNL A   1      42.246  30.371  29.329  1.00  0.00    -0.248 NA
ATOM     54  C   UNL A   1      41.002  31.879  30.607  1.00  0.00     0.031 C 
ATOM     55  C   UNL A   1      46.316  31.195  27.763  1.00  0.00     0.029 A 
ATOM     56  C   UNL A   1      45.042  30.968  28.255  1.00  0.00     0.049 A 
ATOM     57  H   UNL A   1      43.887  29.204  28.191  1.00  0.00     0.167 HD
ATOM     58  C   UNL A   1      42.947  31.568  29.434  1.00  0.00     0.074 A 
ATOM     59  C   UNL A   1      42.113  32.474  30.196  1.00  0.00     0.031 C 
ATOM     60  C   UNL A   1      44.177  31.880  28.959  1.00  0.00     0.034 A 
BRANCH  47  61
ATOM     61  C   UNL A   1      47.050  27.185  26.150  1.00  0.00     0.023 A 
ATOM     62  C   UNL A   1      47.216  27.378  24.762  1.00  0.00     0.012 A 
ATOM     63  C   UNL A   1      48.078  26.567  26.889  1.00  0.00     0.148 A 
ATOM     64  C   UNL A   1      48.366  26.929  24.114  1.00  0.00     0.002 A 
ATOM     65  C   UNL A   1      49.240  26.162  26.243  1.00  0.00     0.091 A 
ATOM     66  F   UNL A   1      47.895  26.373  28.203  1.00  0.00    -0.205 F 
ATOM     67  C   UNL A   1      49.381  26.332  24.855  1.00  0.00     0.022 A 
BRANCH  65  68
ATOM     68  S   UNL A   1      50.639  25.454  27.119  1.00  0.00     0.127 S 
ATOM     69  O   UNL A   1      50.035  24.274  27.736  1.00  0.00    -0.237 OA
ATOM     70  O   UNL A   1      51.572  25.162  26.031  1.00  0.00    -0.237 OA
ATOM     71  O   UNL A   1      51.093  26.483  28.045  1.00  0.00    -0.744 OA
ENDBRANCH  65  68
ENDBRANCH  47  61
BRANCH  48  72
ATOM     72  C   UNL A   1      38.739  30.030  30.889  1.00  0.00     0.023 A 
ATOM     73  C   UNL A   1      38.598  29.655  32.240  1.00  0.00     0.012 A 
ATOM     74  C   UNL A   1      37.736  30.816  30.289  1.00  0.00     0.148 A 
ATOM     75  C   UNL A   1      37.468  30.027  32.970  1.00  0.00     0.002 A 
ATOM     76  C   UNL A   1      36.638  31.228  31.036  1.00  0.00     0.091 A 
ATOM     77  F   UNL A   1      37.881  31.153  28.999  1.00  0.00    -0.205 F 
ATOM     78  C   UNL A   1      36.495  30.822  32.372  1.00  0.00     0.022 A 
BRANCH  76  79
ATOM     79  S   UNL A   1      35.403  32.360  30.388  1.00  0.00     0.127 S 
ATOM     80  O   UNL A   1      36.210  33.537  30.075  1.00  0.00    -0.237 OA
ATOM     81  O   UNL A   1      34.900  31.629  29.225  1.00  0.00    -0.237 OA
ATOM     82  O   UNL A   1      34.427  32.525  31.458  1.00  0.00    -0.744 OA
ENDBRANCH  76  79
ENDBRANCH  48  72
BRANCH  60  83
ATOM     83  C   UNL A   1      44.695  33.271  29.212  1.00  0.00     0.023 A 
ATOM     84  C   UNL A   1      45.350  33.560  30.425  1.00  0.00     0.012 A 
ATOM     85  C   UNL A   1      44.605  34.265  28.218  1.00  0.00     0.148 A 
ATOM     86  C   UNL A   1      45.886  34.828  30.654  1.00  0.00     0.002 A 
ATOM     87  C   UNL A   1      45.181  35.511  28.436  1.00  0.00     0.091 A 
ATOM     88  F   UNL A   1      43.958  33.976  27.079  1.00  0.00    -0.205 F 
ATOM     89  C   UNL A   1      45.813  35.796  29.657  1.00  0.00     0.022 A 
BRANCH  87  90
ATOM     90  S   UNL A   1      45.217  36.786  27.171  1.00  0.00     0.127 S 
ATOM     91  O   UNL A   1      45.924  36.111  26.086  1.00  0.00    -0.237 OA
ATOM     92  O   UNL A   1      43.794  37.020  26.921  1.00  0.00    -0.237 OA
ATOM     93  O   UNL A   1      45.916  37.918  27.767  1.00  0.00    -0.744 OA
ENDBRANCH  87  90
ENDBRANCH  60  83
ENDBRANCH  34  35
ENDBRANCH  26  29
ENDBRANCH  24  25
ENDBRANCH   1  24
TORSDOF 16
ENDMDL
MODEL 2
REMARK VINA RESULT:     -12.5      4.746     10.063
REMARK SMILES COc1c(C(=O)NCCCCNC(=O)c2ccc(-c3c4nc(c(-c5cccc(S(=O)(=O)[O-])c5F)c5ccc([nH]5)c(-c5cccc(S(=O)(=O)[O-])c5F)c5nc(c(-c6cccc(S(=O)(=O)[O-])c6F)c6ccc3[nH]6)C=C5)C=C4)cc2)cccc1-c1cc(C)ccc1C
REMARK SMILES IDX 10 1 9 2 8 3 7 4 5 5 6 6 4 8 3 9 81 10 78 11 80 12 79 13
REMARK SMILES IDX 2 14 1 15 82 16 83 17 88 18 84 19 87 20 89 21 85 22 86 23
REMARK SMILES IDX 11 24 12 25 13 26 14 28 15 29 16 30 77 31 17 32 76 33 18 34
REMARK SMILES IDX 19 35 20 36 70 37 21 38 75 39 69 40 71 41 22 42 74 43 68 44
REMARK SMILES IDX 67 45 23 47 55 48 35 49 54 50 36 51 39 52 53 53 72 54 37 55
REMARK SMILES IDX 38 56 52 58 73 59 40 60 24 61 25 62 33 63 26 64 28 65 34 66
REMARK SMILES IDX 27 67 29 68 30 69 31 70 32 71 56 72 57 73 65 74 58 75 60 76
REMARK SMILES IDX 66 77 59 78 61 79 62 80 63 81 64 82 41 83 42 84 50 85 43 86
REMARK SMILES IDX 45 87 51 88 44 89 46 90 47 91 48 92 49 93
REMARK H PARENT 7 7 12 27 71 46 39 57
REMARK Flexibility Score: inf
ROOT
ATOM      1  C   UNL A   1      31.430  29.380  24.972  1.00  0.00     0.023 C 
ENDROOT
BRANCH   1   2
ATOM      2  C   UNL A   1      31.051  27.904  24.895  1.00  0.00     0.023 C 
BRANCH   2   3
ATOM      3  C   UNL A   1      31.346  27.065  26.125  1.00  0.00     0.116 C 
BRANCH   3   4
ATOM      4  N   UNL A   1      30.391  26.061  26.504  1.00  0.00    -0.352 N 
ATOM      5  C   UNL A   1      30.510  24.697  26.342  1.00  0.00     0.255 C 
ATOM      6  O   UNL A   1      29.676  23.971  26.883  1.00  0.00    -0.269 OA
ATOM      7  H   UNL A   1      29.560  26.382  26.925  1.00  0.00     0.163 HD
BRANCH   5   8
ATOM      8  C   UNL A   1      31.514  24.066  25.426  1.00  0.00     0.082 A 
ATOM      9  C   UNL A   1      32.792  23.561  25.765  1.00  0.00     0.139 A 
ATOM     10  C   UNL A   1      33.613  22.987  24.752  1.00  0.00     0.025 A 
ATOM     11  C   UNL A   1      31.065  23.969  24.093  1.00  0.00     0.018 A 
ATOM     12  C   UNL A   1      33.118  22.921  23.431  1.00  0.00     0.012 A 
ATOM     13  C   UNL A   1      31.856  23.400  23.103  1.00  0.00     0.002 A 
BRANCH   9  14
ATOM     14  O   UNL A   1      33.149  23.531  27.095  1.00  0.00    -0.495 OA
ATOM     15  C   UNL A   1      33.058  22.256  27.745  1.00  0.00     0.278 C 
ENDBRANCH   9  14
BRANCH  10  16
ATOM     16  C   UNL A   1      34.992  22.501  24.981  1.00  0.00    -0.011 A 
ATOM     17  C   UNL A   1      35.970  23.461  25.331  1.00  0.00     0.012 A 
ATOM     18  C   UNL A   1      35.365  21.141  24.950  1.00  0.00    -0.043 A 
ATOM     19  C   UNL A   1      37.264  23.097  25.713  1.00  0.00    -0.050 A 
ATOM     20  C   UNL A   1      36.662  20.780  25.358  1.00  0.00     0.004 A 
ATOM     21  C   UNL A   1      34.392  20.037  24.623  1.00  0.00     0.045 C 
ATOM     22  C   UNL A   1      38.250  24.156  26.105  1.00  0.00     0.044 C 
ATOM     23  C   UNL A   1      37.599  21.744  25.740  1.00  0.00     0.004 A 
ENDBRANCH  10  16
ENDBRANCH   5   8
ENDBRANCH   3   4
ENDBRANCH   2   3
ENDBRANCH   1   2
BRANCH   1  24
ATOM     24  C   UNL A   1      32.472  29.778  26.016  1.00  0.00     0.116 C 
BRANCH  24  25
ATOM     25  N   UNL A   1      32.350  31.146  26.509  1.00  0.00    -0.352 N 
ATOM     26  C   UNL A   1      33.213  31.913  27.265  1.00  0.00     0.251 C 
ATOM     27  H   UNL A   1      31.510  31.598  26.261  1.00  0.00     0.163 HD
ATOM     28  O   UNL A   1      32.883  33.038  27.611  1.00  0.00    -0.269 OA
BRANCH  26  29
ATOM     29  C   UNL A   1      34.515  31.356  27.702  1.00  0.00     0.039 A 
ATOM     30  C   UNL A   1      35.561  32.234  27.998  1.00  0.00     0.014 A 
ATOM     31  C   UNL A   1      34.693  29.983  27.864  1.00  0.00     0.014 A 
ATOM     32  C   UNL A   1      36.735  31.743  28.578  1.00  0.00     0.010 A 
ATOM     33  C   UNL A   1      35.815  29.510  28.538  1.00  0.00     0.010 A 
ATOM     34  C   UNL A   1      36.844  30.385  28.915  1.00  0.00    -0.014 A 
BRANCH  34  35
ATOM     35  C   UNL A   1      37.997  29.861  29.698  1.00  0.00     0.031 A 
ATOM     36  C   UNL A   1      38.236  30.330  31.109  1.00  0.00     0.074 A 
ATOM     37  C   UNL A   1      38.901  29.059  29.098  1.00  0.00     0.049 A 
ATOM     38  N   UNL A   1      39.241  30.070  31.905  1.00  0.00    -0.248 NA
ATOM     39  C   UNL A   1      37.234  31.241  31.688  1.00  0.00     0.031 C 
ATOM     40  C   UNL A   1      38.846  28.610  27.703  1.00  0.00     0.029 A 
ATOM     41  N   UNL A   1      40.065  28.505  29.572  1.00  0.00    -0.354 N 
ATOM     42  C   UNL A   1      39.018  30.821  33.054  1.00  0.00     0.074 A 
ATOM     43  C   UNL A   1      37.803  31.574  32.837  1.00  0.00     0.031 C 
ATOM     44  C   UNL A   1      39.918  27.845  27.441  1.00  0.00     0.029 A 
ATOM     45  C   UNL A   1      40.756  27.773  28.633  1.00  0.00     0.049 A 
ATOM     46  H   UNL A   1      40.378  28.622  30.499  1.00  0.00     0.167 HD
ATOM     47  C   UNL A   1      39.739  30.857  34.200  1.00  0.00     0.034 A 
ATOM     48  C   UNL A   1      41.931  27.119  28.718  1.00  0.00     0.034 A 
ATOM     49  C   UNL A   1      40.908  30.056  34.442  1.00  0.00     0.049 A 
ATOM     50  C   UNL A   1      42.673  27.114  30.027  1.00  0.00     0.074 A 
ATOM     51  C   UNL A   1      41.645  29.939  35.607  1.00  0.00     0.029 A 
ATOM     52  N   UNL A   1      41.511  29.233  33.502  1.00  0.00    -0.354 N 
ATOM     53  N   UNL A   1      42.354  27.696  31.157  1.00  0.00    -0.248 NA
ATOM     54  C   UNL A   1      43.917  26.332  30.085  1.00  0.00     0.031 C 
ATOM     55  C   UNL A   1      42.700  29.052  35.369  1.00  0.00     0.029 A 
ATOM     56  C   UNL A   1      42.611  28.606  34.061  1.00  0.00     0.049 A 
ATOM     57  H   UNL A   1      41.201  29.113  32.575  1.00  0.00     0.167 HD
ATOM     58  C   UNL A   1      43.335  27.323  32.069  1.00  0.00     0.074 A 
ATOM     59  C   UNL A   1      44.249  26.448  31.364  1.00  0.00     0.031 C 
ATOM     60  C   UNL A   1      43.476  27.687  33.366  1.00  0.00     0.034 A 
BRANCH  47  61
ATOM     61  C   UNL A   1      39.237  31.740  35.313  1.00  0.00     0.023 A 
ATOM     62  C   UNL A   1      38.273  31.239  36.211  1.00  0.00     0.012 A 
ATOM     63  C   UNL A   1      39.751  33.037  35.504  1.00  0.00     0.148 A 
ATOM     64  C   UNL A   1      37.799  32.026  37.260  1.00  0.00     0.002 A 
ATOM     65  C   UNL A   1      39.307  33.800  36.578  1.00  0.00     0.091 A 
ATOM     66  F   UNL A   1      40.652  33.506  34.629  1.00  0.00    -0.205 F 
ATOM     67  C   UNL A   1      38.323  33.301  37.449  1.00  0.00     0.022 A 
BRANCH  65  68
ATOM     68  S   UNL A   1      39.976  35.424  36.956  1.00  0.00     0.127 S 
ATOM     69  O   UNL A   1      39.275  35.751  38.196  1.00  0.00    -0.237 OA
ATOM     70  O   UNL A   1      41.402  35.140  37.119  1.00  0.00    -0.237 OA
ATOM     71  O   UNL A   1      39.654  36.265  35.811  1.00  0.00    -0.744 OA
ENDBRANCH  65  68
ENDBRANCH  47  61
BRANCH  48  72
ATOM     72  C   UNL A   1      42.438  26.343  27.550  1.00  0.00     0.023 A 
ATOM     73  C   UNL A   1      43.261  26.987  26.604  1.00  0.00     0.012 A 
ATOM     74  C   UNL A   1      42.142  24.977  27.382  1.00  0.00     0.148 A 
ATOM     75  C   UNL A   1      43.754  26.294  25.498  1.00  0.00     0.002 A 
ATOM     76  C   UNL A   1      42.679  24.278  26.306  1.00  0.00     0.091 A 
ATOM     77  F   UNL A   1      41.346  24.384  28.284  1.00  0.00    -0.205 F 
ATOM     78  C   UNL A   1      43.472  24.938  25.355  1.00  0.00     0.022 A 
BRANCH  76  79
ATOM     79  S   UNL A   1      42.478  22.503  26.114  1.00  0.00     0.127 S 
ATOM     80  O   UNL A   1      43.177  21.994  27.291  1.00  0.00    -0.237 OA
ATOM     81  O   UNL A   1      41.023  22.355  26.148  1.00  0.00    -0.237 OA
ATOM     82  O   UNL A   1      43.081  22.180  24.827  1.00  0.00    -0.744 OA
ENDBRANCH  76  79
ENDBRANCH  48  72
BRANCH  60  83
ATOM     83  C   UNL A   1      44.642  27.118  34.132  1.00  0.00     0.023 A 
ATOM     84  C   UNL A   1      45.872  27.804  34.138  1.00  0.00     0.012 A 
ATOM     85  C   UNL A   1      44.493  25.954  34.909  1.00  0.00     0.148 A 
ATOM     86  C   UNL A   1      46.946  27.322  34.887  1.00  0.00     0.002 A 
ATOM     87  C   UNL A   1      45.553  25.505  35.688  1.00  0.00     0.091 A 
ATOM     88  F   UNL A   1      43.320  25.304  34.873  1.00  0.00    -0.205 F 
ATOM     89  C   UNL A   1      46.783  26.183  35.671  1.00  0.00     0.022 A 
BRANCH  87  90
ATOM     90  S   UNL A   1      45.402  24.102  36.800  1.00  0.00     0.127 S 
ATOM     91  O   UNL A   1      44.381  24.570  37.734  1.00  0.00    -0.237 OA
ATOM     92  O   UNL A   1      44.963  23.035  35.899  1.00  0.00    -0.237 OA
ATOM     93  O   UNL A   1      46.728  23.900  37.369  1.00  0.00    -0.744 OA
ENDBRANCH  87  90
ENDBRANCH  60  83
ENDBRANCH  34  35
ENDBRANCH  26  29
ENDBRANCH  24  25
ENDBRANCH   1  24
TORSDOF 16
ENDMDL
MODEL 3
REMARK VINA RESULT:     -12.4      4.869     10.204
REMARK SMILES COc1c(C(=O)NCCCCNC(=O)c2ccc(-c3c4nc(c(-c5cccc(S(=O)(=O)[O-])c5F)c5ccc([nH]5)c(-c5cccc(S(=O)(=O)[O-])c5F)c5nc(c(-c6cccc(S(=O)(=O)[O-])c6F)c6ccc3[nH]6)C=C5)C=C4)cc2)cccc1-c1cc(C)ccc1C
REMARK SMILES IDX 10 1 9 2 8 3 7 4 5 5 6 6 4 8 3 9 81 10 78 11 80 12 79 13
REMARK SMILES IDX 2 14 1 15 82 16 83 17 88 18 84 19 87 20 89 21 85 22 86 23
REMARK SMILES IDX 11 24 12 25 13 26 14 28 15 29 16 30 77 31 17 32 76 33 18 34
REMARK SMILES IDX 19 35 20 36 70 37 21 38 75 39 69 40 71 41 22 42 74 43 68 44
REMARK SMILES IDX 67 45 23 47 55 48 35 49 54 50 36 51 39 52 53 53 72 54 37 55
REMARK SMILES IDX 38 56 52 58 73 59 40 60 24 61 25 62 33 63 26 64 28 65 34 66
REMARK SMILES IDX 27 67 29 68 30 69 31 70 32 71 56 72 57 73 65 74 58 75 60 76
REMARK SMILES IDX 66 77 59 78 61 79 62 80 63 81 64 82 41 83 42 84 50 85 43 86
REMARK SMILES IDX 45 87 51 88 44 89 46 90 47 91 48 92 49 93
REMARK H PARENT 7 7 12 27 71 46 39 57
REMARK Flexibility Score: inf
ROOT
ATOM      1  C   UNL A   1      32.471  29.632  25.132  1.00  0.00     0.023 C 
ENDROOT
BRANCH   1   2
ATOM      2  C   UNL A   1      33.540  28.566  24.904  1.00  0.00     0.023 C 
BRANCH   2   3
ATOM      3  C   UNL A   1      33.810  28.176  23.462  1.00  0.00     0.116 C 
BRANCH   3   4
ATOM      4  N   UNL A   1      32.686  28.033  22.580  1.00  0.00    -0.352 N 
ATOM      5  C   UNL A   1      31.579  27.231  22.768  1.00  0.00     0.255 C 
ATOM      6  O   UNL A   1      30.628  27.362  21.997  1.00  0.00    -0.269 OA
ATOM      7  H   UNL A   1      32.708  28.563  21.751  1.00  0.00     0.163 HD
BRANCH   5   8
ATOM      8  C   UNL A   1      31.536  26.115  23.767  1.00  0.00     0.082 A 
ATOM      9  C   UNL A   1      32.338  24.949  23.791  1.00  0.00     0.139 A 
ATOM     10  C   UNL A   1      32.156  23.992  24.830  1.00  0.00     0.025 A 
ATOM     11  C   UNL A   1      30.586  26.321  24.788  1.00  0.00     0.018 A 
ATOM     12  C   UNL A   1      31.186  24.243  25.825  1.00  0.00     0.012 A 
ATOM     13  C   UNL A   1      30.412  25.397  25.811  1.00  0.00     0.002 A 
BRANCH   9  14
ATOM     14  O   UNL A   1      33.358  24.840  22.871  1.00  0.00    -0.495 OA
ATOM     15  C   UNL A   1      33.042  24.148  21.655  1.00  0.00     0.278 C 
ENDBRANCH   9  14
BRANCH  10  16
ATOM     16  C   UNL A   1      32.884  22.706  24.907  1.00  0.00    -0.011 A 
ATOM     17  C   UNL A   1      32.290  21.583  24.286  1.00  0.00     0.012 A 
ATOM     18  C   UNL A   1      34.161  22.556  25.489  1.00  0.00    -0.043 A 
ATOM     19  C   UNL A   1      32.956  20.360  24.169  1.00  0.00    -0.050 A 
ATOM     20  C   UNL A   1      34.835  21.329  25.347  1.00  0.00     0.004 A 
ATOM     21  C   UNL A   1      34.896  23.696  26.145  1.00  0.00     0.045 C 
ATOM     22  C   UNL A   1      32.288  19.213  23.472  1.00  0.00     0.044 C 
ATOM     23  C   UNL A   1      34.243  20.246  24.691  1.00  0.00     0.004 A 
ENDBRANCH  10  16
ENDBRANCH   5   8
ENDBRANCH   3   4
ENDBRANCH   2   3
ENDBRANCH   1   2
BRANCH   1  24
ATOM     24  C   UNL A   1      32.159  30.008  26.579  1.00  0.00     0.116 C 
BRANCH  24  25
ATOM     25  N   UNL A   1      32.171  31.441  26.854  1.00  0.00    -0.352 N 
ATOM     26  C   UNL A   1      33.146  32.245  27.409  1.00  0.00     0.251 C 
ATOM     27  H   UNL A   1      31.346  31.914  26.600  1.00  0.00     0.163 HD
ATOM     28  O   UNL A   1      32.924  33.433  27.594  1.00  0.00    -0.269 OA
BRANCH  26  29
ATOM     29  C   UNL A   1      34.441  31.659  27.831  1.00  0.00     0.039 A 
ATOM     30  C   UNL A   1      35.523  32.512  28.066  1.00  0.00     0.014 A 
ATOM     31  C   UNL A   1      34.579  30.288  28.039  1.00  0.00     0.014 A 
ATOM     32  C   UNL A   1      36.697  32.003  28.632  1.00  0.00     0.010 A 
ATOM     33  C   UNL A   1      35.703  29.802  28.699  1.00  0.00     0.010 A 
ATOM     34  C   UNL A   1      36.771  30.655  29.016  1.00  0.00    -0.014 A 
BRANCH  34  35
ATOM     35  C   UNL A   1      37.928  30.120  29.786  1.00  0.00     0.031 A 
ATOM     36  C   UNL A   1      38.193  30.596  31.190  1.00  0.00     0.074 A 
ATOM     37  C   UNL A   1      38.812  29.302  29.179  1.00  0.00     0.049 A 
ATOM     38  N   UNL A   1      39.205  30.329  31.974  1.00  0.00    -0.248 NA
ATOM     39  C   UNL A   1      37.212  31.525  31.777  1.00  0.00     0.031 C 
ATOM     40  C   UNL A   1      38.730  28.843  27.789  1.00  0.00     0.029 A 
ATOM     41  N   UNL A   1      39.975  28.735  29.641  1.00  0.00    -0.354 N 
ATOM     42  C   UNL A   1      39.010  31.091  33.120  1.00  0.00     0.074 A 
ATOM     43  C   UNL A   1      37.802  31.859  32.915  1.00  0.00     0.031 C 
ATOM     44  C   UNL A   1      39.787  28.062  27.517  1.00  0.00     0.029 A 
ATOM     45  C   UNL A   1      40.641  27.986  28.697  1.00  0.00     0.049 A 
ATOM     46  H   UNL A   1      40.302  28.854  30.562  1.00  0.00     0.167 HD
ATOM     47  C   UNL A   1      39.748  31.125  34.255  1.00  0.00     0.034 A 
ATOM     48  C   UNL A   1      41.809  27.317  28.771  1.00  0.00     0.034 A 
ATOM     49  C   UNL A   1      40.908  30.310  34.486  1.00  0.00     0.049 A 
ATOM     50  C   UNL A   1      42.569  27.311  30.069  1.00  0.00     0.074 A 
ATOM     51  C   UNL A   1      41.661  30.191  35.641  1.00  0.00     0.029 A 
ATOM     52  N   UNL A   1      41.487  29.472  33.545  1.00  0.00    -0.354 N 
ATOM     53  N   UNL A   1      42.274  27.905  31.199  1.00  0.00    -0.248 NA
ATOM     54  C   UNL A   1      43.803  26.512  30.115  1.00  0.00     0.031 C 
ATOM     55  C   UNL A   1      42.700  29.287  35.396  1.00  0.00     0.029 A 
ATOM     56  C   UNL A   1      42.586  28.833  34.092  1.00  0.00     0.049 A 
ATOM     57  H   UNL A   1      41.162  29.350  32.623  1.00  0.00     0.167 HD
ATOM     58  C   UNL A   1      43.263  27.526  32.099  1.00  0.00     0.074 A 
ATOM     59  C   UNL A   1      44.154  26.633  31.388  1.00  0.00     0.031 C 
ATOM     60  C   UNL A   1      43.428  27.898  33.392  1.00  0.00     0.034 A 
BRANCH  47  61
ATOM     61  C   UNL A   1      39.274  32.023  35.368  1.00  0.00     0.023 A 
ATOM     62  C   UNL A   1      38.341  31.531  36.304  1.00  0.00     0.012 A 
ATOM     63  C   UNL A   1      39.785  33.327  35.523  1.00  0.00     0.148 A 
ATOM     64  C   UNL A   1      37.894  32.332  37.354  1.00  0.00     0.002 A 
ATOM     65  C   UNL A   1      39.368  34.105  36.597  1.00  0.00     0.091 A 
ATOM     66  F   UNL A   1      40.655  33.786  34.613  1.00  0.00    -0.205 F 
ATOM     67  C   UNL A   1      38.416  33.614  37.506  1.00  0.00     0.022 A 
BRANCH  65  68
ATOM     68  S   UNL A   1      40.038  35.738  36.927  1.00  0.00     0.127 S 
ATOM     69  O   UNL A   1      41.470  35.455  37.031  1.00  0.00    -0.237 OA
ATOM     70  O   UNL A   1      39.650  36.481  35.728  1.00  0.00    -0.237 OA
ATOM     71  O   UNL A   1      39.398  36.192  38.154  1.00  0.00    -0.744 OA
ENDBRANCH  65  68
ENDBRANCH  47  61
BRANCH  48  72
ATOM     72  C   UNL A   1      42.287  26.525  27.601  1.00  0.00     0.023 A 
ATOM     73  C   UNL A   1      43.108  27.150  26.640  1.00  0.00     0.012 A 
ATOM     74  C   UNL A   1      41.968  25.162  27.447  1.00  0.00     0.148 A 
ATOM     75  C   UNL A   1      43.575  26.442  25.533  1.00  0.00     0.002 A 
ATOM     76  C   UNL A   1      42.480  24.449  26.369  1.00  0.00     0.091 A 
ATOM     77  F   UNL A   1      41.176  24.588  28.364  1.00  0.00    -0.205 F 
ATOM     78  C   UNL A   1      43.271  25.090  25.402  1.00  0.00     0.022 A 
BRANCH  76  79
ATOM     79  S   UNL A   1      42.250  22.676  26.191  1.00  0.00     0.127 S 
ATOM     80  O   UNL A   1      40.794  22.559  26.212  1.00  0.00    -0.237 OA
ATOM     81  O   UNL A   1      42.871  22.417  24.892  1.00  0.00    -0.237 OA
ATOM     82  O   UNL A   1      42.953  22.077  27.319  1.00  0.00    -0.744 OA
ENDBRANCH  76  79
ENDBRANCH  48  72
BRANCH  60  83
ATOM     83  C   UNL A   1      44.597  27.318  34.145  1.00  0.00     0.023 A 
ATOM     84  C   UNL A   1      45.820  28.015  34.176  1.00  0.00     0.012 A 
ATOM     85  C   UNL A   1      44.457  26.130  34.888  1.00  0.00     0.148 A 
ATOM     86  C   UNL A   1      46.896  27.523  34.915  1.00  0.00     0.002 A 
ATOM     87  C   UNL A   1      45.519  25.669  35.657  1.00  0.00     0.091 A 
ATOM     88  F   UNL A   1      43.291  25.470  34.828  1.00  0.00    -0.205 F 
ATOM     89  C   UNL A   1      46.742  26.360  35.664  1.00  0.00     0.022 A 
BRANCH  87  90
ATOM     90  S   UNL A   1      45.378  24.233  36.726  1.00  0.00     0.127 S 
ATOM     91  O   UNL A   1      46.716  24.161  37.309  1.00  0.00    -0.237 OA
ATOM     92  O   UNL A   1      44.326  24.638  37.660  1.00  0.00    -0.237 OA
ATOM     93  O   UNL A   1      45.012  23.123  35.856  1.00  0.00    -0.744 OA
ENDBRANCH  87  90
ENDBRANCH  60  83
ENDBRANCH  34  35
ENDBRANCH  26  29
ENDBRANCH  24  25
ENDBRANCH   1  24
TORSDOF 16
ENDMDL
