MODEL 1
REMARK VINA RESULT:     -12.5      0.000      0.000
REMARK SMILES O=C(NCCCCNC(=O)[C@H]1Cc2[nH]cnc2CN1C(=O)c1ccncc1Cl)c1ccc(-c2c3nc(c(-c4cccc(S(=O)(=O)[O-])c4F)c4ccc([nH]4)c(-c4cccc(S(=O)(=O)[O-])c4F)c4nc(c(-c5cccc(S(=O)(=O)[O-])c5F)c5ccc2[nH]5)C=C4)C=C3)cc1
REMARK SMILES IDX 5 1 4 2 3 3 1 4 2 5 29 7 30 8 91 9 31 10 90 11 32 12 33 13
REMARK SMILES IDX 34 14 84 15 35 16 89 17 83 18 85 19 36 20 88 21 82 22 81 23
REMARK SMILES IDX 37 25 69 26 49 27 68 28 50 29 53 30 67 31 86 32 51 33 52 34
REMARK SMILES IDX 66 36 87 37 54 38 38 39 39 40 47 41 40 42 42 43 48 44 41 45
REMARK SMILES IDX 43 46 44 47 45 48 46 49 70 50 71 51 79 52 72 53 74 54 80 55
REMARK SMILES IDX 73 56 75 57 76 58 77 59 78 60 55 61 56 62 64 63 57 64 59 65
REMARK SMILES IDX 65 66 58 67 60 68 61 69 62 70 63 71 6 72 7 73 8 74 9 75
REMARK SMILES IDX 10 77 11 78 12 79 19 80 13 81 18 82 14 83 17 84 15 85 16 87
REMARK SMILES IDX 20 88 21 89 22 90 23 91 27 92 24 93 26 94 28 95 25 96
REMARK H PARENT 3 6 85 24 53 35 8 76 14 86
REMARK Flexibility Score: inf
ROOT
ATOM      1  C   UNL A   1      33.637  29.968  27.220  1.00  0.00     0.023 C 
ENDROOT
BRANCH   1   2
ATOM      2  C   UNL A   1      34.417  31.209  27.619  1.00  0.00     0.116 C 
BRANCH   2   3
ATOM      3  N   UNL A   1      34.416  31.574  29.016  1.00  0.00    -0.352 N 
ATOM      4  O   UNL A   1      35.285  32.505  30.858  1.00  0.00    -0.269 OA
ATOM      5  C   UNL A   1      35.467  31.802  29.877  1.00  0.00     0.251 C 
ATOM      6  H   UNL A   1      33.522  31.675  29.417  1.00  0.00     0.163 HD
BRANCH   5   7
ATOM      7  C   UNL A   1      36.739  31.063  29.719  1.00  0.00     0.039 A 
ATOM      8  C   UNL A   1      36.843  29.673  29.696  1.00  0.00     0.014 A 
ATOM      9  C   UNL A   1      37.895  31.855  29.668  1.00  0.00     0.014 A 
ATOM     10  C   UNL A   1      38.087  29.077  29.811  1.00  0.00     0.010 A 
ATOM     11  C   UNL A   1      39.146  31.258  29.727  1.00  0.00     0.010 A 
ATOM     12  C   UNL A   1      39.234  29.872  29.864  1.00  0.00    -0.014 A 
BRANCH  12  13
ATOM     13  C   UNL A   1      40.522  29.190  29.928  1.00  0.00     0.031 A 
ATOM     14  C   UNL A   1      41.049  28.953  31.303  1.00  0.00     0.074 A 
ATOM     15  C   UNL A   1      41.127  28.661  28.847  1.00  0.00     0.049 A 
ATOM     16  N   UNL A   1      42.204  29.274  31.793  1.00  0.00    -0.248 NA
ATOM     17  C   UNL A   1      40.126  28.351  32.278  1.00  0.00     0.031 C 
ATOM     18  C   UNL A   1      40.575  28.537  27.495  1.00  0.00     0.029 A 
ATOM     19  N   UNL A   1      42.299  27.964  28.775  1.00  0.00    -0.354 N 
ATOM     20  C   UNL A   1      42.225  28.734  33.078  1.00  0.00     0.074 A 
ATOM     21  C   UNL A   1      40.883  28.306  33.373  1.00  0.00     0.031 C 
ATOM     22  C   UNL A   1      41.265  27.588  26.829  1.00  0.00     0.029 A 
ATOM     23  C   UNL A   1      42.369  27.140  27.658  1.00  0.00     0.049 A 
ATOM     24  H   UNL A   1      43.018  28.038  29.444  1.00  0.00     0.167 HD
ATOM     25  C   UNL A   1      43.380  28.478  33.749  1.00  0.00     0.034 A 
ATOM     26  C   UNL A   1      43.203  26.090  27.479  1.00  0.00     0.034 A 
ATOM     27  C   UNL A   1      44.504  29.186  33.209  1.00  0.00     0.049 A 
ATOM     28  C   UNL A   1      44.324  26.219  28.436  1.00  0.00     0.074 A 
ATOM     29  C   UNL A   1      44.833  30.512  33.016  1.00  0.00     0.029 A 
ATOM     30  N   UNL A   1      45.416  28.462  32.483  1.00  0.00    -0.354 N 
ATOM     31  N   UNL A   1      45.248  27.134  28.366  1.00  0.00    -0.248 NA
ATOM     32  C   UNL A   1      44.238  25.512  29.704  1.00  0.00     0.031 C 
ATOM     33  C   UNL A   1      45.629  30.530  31.835  1.00  0.00     0.029 A 
ATOM     34  C   UNL A   1      45.745  29.212  31.387  1.00  0.00     0.049 A 
ATOM     35  H   UNL A   1      45.767  27.570  32.708  1.00  0.00     0.167 HD
ATOM     36  C   UNL A   1      45.566  27.412  29.688  1.00  0.00     0.074 A 
ATOM     37  C   UNL A   1      45.024  26.292  30.448  1.00  0.00     0.031 C 
ATOM     38  C   UNL A   1      45.976  28.659  30.069  1.00  0.00     0.034 A 
BRANCH  25  39
ATOM     39  C   UNL A   1      43.557  27.337  34.721  1.00  0.00     0.023 A 
ATOM     40  C   UNL A   1      43.817  27.650  36.073  1.00  0.00     0.012 A 
ATOM     41  C   UNL A   1      43.735  25.992  34.328  1.00  0.00     0.148 A 
ATOM     42  C   UNL A   1      44.255  26.677  36.979  1.00  0.00     0.002 A 
ATOM     43  C   UNL A   1      44.080  25.012  35.252  1.00  0.00     0.091 A 
ATOM     44  F   UNL A   1      43.706  25.664  33.030  1.00  0.00    -0.205 F 
ATOM     45  C   UNL A   1      44.370  25.353  36.573  1.00  0.00     0.022 A 
BRANCH  43  46
ATOM     46  S   UNL A   1      44.153  23.283  34.776  1.00  0.00     0.127 S 
ATOM     47  O   UNL A   1      42.775  23.029  34.373  1.00  0.00    -0.237 OA
ATOM     48  O   UNL A   1      45.125  23.308  33.681  1.00  0.00    -0.237 OA
ATOM     49  O   UNL A   1      44.624  22.587  35.967  1.00  0.00    -0.744 OA
ENDBRANCH  43  46
ENDBRANCH  25  39
BRANCH  26  50
ATOM     50  C   UNL A   1      42.986  24.855  26.692  1.00  0.00     0.023 A 
ATOM     51  C   UNL A   1      43.960  24.444  25.761  1.00  0.00     0.012 A 
ATOM     52  C   UNL A   1      41.950  23.950  27.017  1.00  0.00     0.148 A 
ATOM     53  C   UNL A   1      43.913  23.169  25.187  1.00  0.00     0.002 A 
ATOM     54  C   UNL A   1      41.896  22.692  26.427  1.00  0.00     0.091 A 
ATOM     55  F   UNL A   1      41.072  24.287  27.972  1.00  0.00    -0.205 F 
ATOM     56  C   UNL A   1      42.883  22.293  25.520  1.00  0.00     0.022 A 
BRANCH  54  57
ATOM     57  S   UNL A   1      40.589  21.519  26.811  1.00  0.00     0.127 S 
ATOM     58  O   UNL A   1      40.914  20.398  25.927  1.00  0.00    -0.237 OA
ATOM     59  O   UNL A   1      40.817  21.265  28.231  1.00  0.00    -0.237 OA
ATOM     60  O   UNL A   1      39.343  22.197  26.475  1.00  0.00    -0.744 OA
ENDBRANCH  54  57
ENDBRANCH  26  50
BRANCH  38  61
ATOM     61  C   UNL A   1      46.373  29.643  28.996  1.00  0.00     0.023 A 
ATOM     62  C   UNL A   1      47.678  29.671  28.462  1.00  0.00     0.012 A 
ATOM     63  C   UNL A   1      45.374  30.423  28.384  1.00  0.00     0.148 A 
ATOM     64  C   UNL A   1      47.990  30.479  27.367  1.00  0.00     0.002 A 
ATOM     65  C   UNL A   1      45.676  31.186  27.261  1.00  0.00     0.091 A 
ATOM     66  F   UNL A   1      44.133  30.384  28.893  1.00  0.00    -0.205 F 
ATOM     67  C   UNL A   1      46.986  31.225  26.757  1.00  0.00     0.022 A 
BRANCH  65  68
ATOM     68  S   UNL A   1      44.398  32.050  26.343  1.00  0.00     0.127 S 
ATOM     69  O   UNL A   1      43.974  33.073  27.296  1.00  0.00    -0.237 OA
ATOM     70  O   UNL A   1      45.130  32.562  25.182  1.00  0.00    -0.237 OA
ATOM     71  O   UNL A   1      43.400  31.040  26.012  1.00  0.00    -0.744 OA
ENDBRANCH  65  68
ENDBRANCH  38  61
ENDBRANCH  12  13
ENDBRANCH   5   7
ENDBRANCH   2   3
ENDBRANCH   1   2
BRANCH   1  72
ATOM     72  C   UNL A   1      34.484  28.824  26.642  1.00  0.00     0.023 C 
BRANCH  72  73
ATOM     73  C   UNL A   1      33.782  27.472  26.447  1.00  0.00     0.116 C 
BRANCH  73  74
ATOM     74  N   UNL A   1      33.977  26.912  25.119  1.00  0.00    -0.354 N 
ATOM     75  C   UNL A   1      33.190  27.019  24.011  1.00  0.00     0.243 C 
ATOM     76  H   UNL A   1      34.796  26.378  25.004  1.00  0.00     0.163 HD
ATOM     77  O   UNL A   1      33.540  26.408  22.997  1.00  0.00    -0.273 OA
BRANCH  75  78
ATOM     78  C   UNL A   1      31.815  27.719  24.047  1.00  0.00     0.181 C 
ATOM     79  C   UNL A   1      31.975  28.877  23.010  1.00  0.00     0.091 C 
ATOM     80  N   UNL A   1      30.600  26.831  23.937  1.00  0.00    -0.320 N 
ATOM     81  C   UNL A   1      30.677  29.291  22.466  1.00  0.00     0.042 A 
ATOM     82  C   UNL A   1      29.329  27.365  23.384  1.00  0.00     0.178 C 
ATOM     83  N   UNL A   1      30.402  30.376  21.690  1.00  0.00    -0.348 N 
ATOM     84  C   UNL A   1      29.500  28.613  22.610  1.00  0.00     0.081 A 
ATOM     85  C   UNL A   1      29.064  30.323  21.406  1.00  0.00     0.197 A 
ATOM     86  H   UNL A   1      31.039  31.065  21.392  1.00  0.00     0.167 HD
ATOM     87  N   UNL A   1      28.491  29.273  21.956  1.00  0.00    -0.240 NA
BRANCH  80  88
ATOM     88  C   UNL A   1      30.362  25.717  24.772  1.00  0.00     0.256 C 
ATOM     89  O   UNL A   1      29.522  25.725  25.672  1.00  0.00    -0.269 OA
BRANCH  88  90
ATOM     90  C   UNL A   1      31.035  24.429  24.541  1.00  0.00     0.061 A 
ATOM     91  C   UNL A   1      30.763  23.797  23.326  1.00  0.00     0.035 A 
ATOM     92  C   UNL A   1      31.851  23.804  25.474  1.00  0.00     0.072 A 
ATOM     93  C   UNL A   1      31.446  22.635  23.020  1.00  0.00     0.112 A 
ATOM     94  C   UNL A   1      32.497  22.644  25.069  1.00  0.00     0.132 A 
ATOM     95  Cl  UNL A   1      32.032  24.348  27.095  1.00  0.00    -0.082 Cl
ATOM     96  N   UNL A   1      32.331  22.060  23.856  1.00  0.00    -0.263 NA
ENDBRANCH  88  90
ENDBRANCH  80  88
ENDBRANCH  75  78
ENDBRANCH  73  74
ENDBRANCH  72  73
ENDBRANCH   1  72
TORSDOF 16
ENDMDL
MODEL 2
REMARK VINA RESULT:     -12.3      3.294      8.996
REMARK SMILES O=C(NCCCCNC(=O)[C@H]1Cc2[nH]cnc2CN1C(=O)c1ccncc1Cl)c1ccc(-c2c3nc(c(-c4cccc(S(=O)(=O)[O-])c4F)c4ccc([nH]4)c(-c4cccc(S(=O)(=O)[O-])c4F)c4nc(c(-c5cccc(S(=O)(=O)[O-])c5F)c5ccc2[nH]5)C=C4)C=C3)cc1
REMARK SMILES IDX 5 1 4 2 3 3 1 4 2 5 29 7 30 8 91 9 31 10 90 11 32 12 33 13
REMARK SMILES IDX 34 14 84 15 35 16 89 17 83 18 85 19 36 20 88 21 82 22 81 23
REMARK SMILES IDX 37 25 69 26 49 27 68 28 50 29 53 30 67 31 86 32 51 33 52 34
REMARK SMILES IDX 66 36 87 37 54 38 38 39 39 40 47 41 40 42 42 43 48 44 41 45
REMARK SMILES IDX 43 46 44 47 45 48 46 49 70 50 71 51 79 52 72 53 74 54 80 55
REMARK SMILES IDX 73 56 75 57 76 58 77 59 78 60 55 61 56 62 64 63 57 64 59 65
REMARK SMILES IDX 65 66 58 67 60 68 61 69 62 70 63 71 6 72 7 73 8 74 9 75
REMARK SMILES IDX 10 77 11 78 12 79 19 80 13 81 18 82 14 83 17 84 15 85 16 87
REMARK SMILES IDX 20 88 21 89 22 90 23 91 27 92 24 93 26 94 28 95 25 96
REMARK H PARENT 3 6 85 24 53 35 8 76 14 86
REMARK Flexibility Score: inf
ROOT
ATOM      1  C   UNL A   1      38.402  22.144  25.812  1.00  0.00     0.023 C 
ENDROOT
BRANCH   1   2
ATOM      2  C   UNL A   1      39.744  22.044  26.518  1.00  0.00     0.116 C 
BRANCH   2   3
ATOM      3  N   UNL A   1      40.922  22.388  25.758  1.00  0.00    -0.352 N 
ATOM      4  O   UNL A   1      43.031  23.101  25.521  1.00  0.00    -0.269 OA
ATOM      5  C   UNL A   1      41.944  23.265  26.050  1.00  0.00     0.251 C 
ATOM      6  H   UNL A   1      41.007  21.925  24.894  1.00  0.00     0.163 HD
BRANCH   5   7
ATOM      7  C   UNL A   1      41.680  24.486  26.844  1.00  0.00     0.039 A 
ATOM      8  C   UNL A   1      40.863  25.535  26.424  1.00  0.00     0.014 A 
ATOM      9  C   UNL A   1      42.379  24.581  28.056  1.00  0.00     0.014 A 
ATOM     10  C   UNL A   1      40.889  26.739  27.107  1.00  0.00     0.010 A 
ATOM     11  C   UNL A   1      42.362  25.768  28.773  1.00  0.00     0.010 A 
ATOM     12  C   UNL A   1      41.668  26.865  28.260  1.00  0.00    -0.014 A 
BRANCH  12  13
ATOM     13  C   UNL A   1      41.613  28.137  28.971  1.00  0.00     0.031 A 
ATOM     14  C   UNL A   1      42.612  29.154  28.534  1.00  0.00     0.074 A 
ATOM     15  C   UNL A   1      40.637  28.447  29.847  1.00  0.00     0.049 A 
ATOM     16  N   UNL A   1      43.466  29.810  29.254  1.00  0.00    -0.248 NA
ATOM     17  C   UNL A   1      42.722  29.405  27.088  1.00  0.00     0.031 C 
ATOM     18  C   UNL A   1      39.423  27.676  30.129  1.00  0.00     0.029 A 
ATOM     19  N   UNL A   1      40.444  29.607  30.541  1.00  0.00    -0.354 N 
ATOM     20  C   UNL A   1      44.082  30.703  28.377  1.00  0.00     0.074 A 
ATOM     21  C   UNL A   1      43.692  30.316  27.047  1.00  0.00     0.031 C 
ATOM     22  C   UNL A   1      38.511  28.494  30.697  1.00  0.00     0.029 A 
ATOM     23  C   UNL A   1      39.122  29.791  30.927  1.00  0.00     0.049 A 
ATOM     24  H   UNL A   1      41.165  30.246  30.745  1.00  0.00     0.167 HD
ATOM     25  C   UNL A   1      44.708  31.834  28.799  1.00  0.00     0.034 A 
ATOM     26  C   UNL A   1      38.542  30.955  31.302  1.00  0.00     0.034 A 
ATOM     27  C   UNL A   1      45.036  31.799  30.195  1.00  0.00     0.049 A 
ATOM     28  C   UNL A   1      39.612  31.907  31.671  1.00  0.00     0.074 A 
ATOM     29  C   UNL A   1      45.807  30.990  31.004  1.00  0.00     0.029 A 
ATOM     30  N   UNL A   1      44.278  32.567  31.041  1.00  0.00    -0.354 N 
ATOM     31  N   UNL A   1      40.367  31.790  32.727  1.00  0.00    -0.248 NA
ATOM     32  C   UNL A   1      40.083  32.846  30.666  1.00  0.00     0.031 C 
ATOM     33  C   UNL A   1      45.148  30.992  32.268  1.00  0.00     0.029 A 
ATOM     34  C   UNL A   1      44.022  31.810  32.152  1.00  0.00     0.049 A 
ATOM     35  H   UNL A   1      43.974  33.489  30.879  1.00  0.00     0.167 HD
ATOM     36  C   UNL A   1      41.596  32.301  32.335  1.00  0.00     0.074 A 
ATOM     37  C   UNL A   1      41.319  33.059  31.121  1.00  0.00     0.031 C 
ATOM     38  C   UNL A   1      42.762  31.821  32.864  1.00  0.00     0.034 A 
BRANCH  25  39
ATOM     39  C   UNL A   1      44.755  33.118  28.008  1.00  0.00     0.023 A 
ATOM     40  C   UNL A   1      45.961  33.453  27.355  1.00  0.00     0.012 A 
ATOM     41  C   UNL A   1      43.768  34.126  28.088  1.00  0.00     0.148 A 
ATOM     42  C   UNL A   1      46.181  34.732  26.830  1.00  0.00     0.002 A 
ATOM     43  C   UNL A   1      43.954  35.365  27.484  1.00  0.00     0.091 A 
ATOM     44  F   UNL A   1      42.691  33.948  28.864  1.00  0.00    -0.205 F 
ATOM     45  C   UNL A   1      45.170  35.684  26.879  1.00  0.00     0.022 A 
BRANCH  43  46
ATOM     46  S   UNL A   1      42.636  36.583  27.458  1.00  0.00     0.127 S 
ATOM     47  O   UNL A   1      42.565  36.972  28.862  1.00  0.00    -0.237 OA
ATOM     48  O   UNL A   1      43.179  37.602  26.559  1.00  0.00    -0.237 OA
ATOM     49  O   UNL A   1      41.482  35.873  26.919  1.00  0.00    -0.744 OA
ENDBRANCH  43  46
ENDBRANCH  25  39
BRANCH  26  50
ATOM     50  C   UNL A   1      37.134  31.384  31.148  1.00  0.00     0.023 A 
ATOM     51  C   UNL A   1      36.388  31.740  32.287  1.00  0.00     0.012 A 
ATOM     52  C   UNL A   1      36.591  31.675  29.876  1.00  0.00     0.148 A 
ATOM     53  C   UNL A   1      35.150  32.382  32.165  1.00  0.00     0.002 A 
ATOM     54  C   UNL A   1      35.351  32.293  29.759  1.00  0.00     0.091 A 
ATOM     55  F   UNL A   1      37.330  31.431  28.785  1.00  0.00    -0.205 F 
ATOM     56  C   UNL A   1      34.632  32.659  30.902  1.00  0.00     0.022 A 
BRANCH  54  57
ATOM     57  S   UNL A   1      34.625  32.672  28.158  1.00  0.00     0.127 S 
ATOM     58  O   UNL A   1      35.680  33.464  27.523  1.00  0.00    -0.237 OA
ATOM     59  O   UNL A   1      34.433  31.340  27.590  1.00  0.00    -0.237 OA
ATOM     60  O   UNL A   1      33.411  33.424  28.446  1.00  0.00    -0.744 OA
ENDBRANCH  54  57
ENDBRANCH  26  50
BRANCH  38  61
ATOM     61  C   UNL A   1      42.687  30.950  34.094  1.00  0.00     0.023 A 
ATOM     62  C   UNL A   1      42.686  31.500  35.393  1.00  0.00     0.012 A 
ATOM     63  C   UNL A   1      42.424  29.576  33.941  1.00  0.00     0.148 A 
ATOM     64  C   UNL A   1      42.463  30.697  36.513  1.00  0.00     0.002 A 
ATOM     65  C   UNL A   1      42.149  28.790  35.055  1.00  0.00     0.091 A 
ATOM     66  F   UNL A   1      42.417  29.063  32.701  1.00  0.00    -0.205 F 
ATOM     67  C   UNL A   1      42.179  29.346  36.344  1.00  0.00     0.022 A 
BRANCH  65  68
ATOM     68  S   UNL A   1      41.632  27.079  34.891  1.00  0.00     0.127 S 
ATOM     69  O   UNL A   1      41.252  26.741  36.261  1.00  0.00    -0.237 OA
ATOM     70  O   UNL A   1      40.513  27.173  33.951  1.00  0.00    -0.237 OA
ATOM     71  O   UNL A   1      42.790  26.367  34.362  1.00  0.00    -0.744 OA
ENDBRANCH  65  68
ENDBRANCH  38  61
ENDBRANCH  12  13
ENDBRANCH   5   7
ENDBRANCH   2   3
ENDBRANCH   1   2
BRANCH   1  72
ATOM     72  C   UNL A   1      37.733  23.526  25.877  1.00  0.00     0.023 C 
BRANCH  72  73
ATOM     73  C   UNL A   1      36.221  23.577  25.609  1.00  0.00     0.116 C 
BRANCH  73  74
ATOM     74  N   UNL A   1      35.432  22.953  26.659  1.00  0.00    -0.354 N 
ATOM     75  C   UNL A   1      34.582  21.891  26.586  1.00  0.00     0.243 C 
ATOM     76  H   UNL A   1      35.526  23.357  27.552  1.00  0.00     0.163 HD
ATOM     77  O   UNL A   1      33.978  21.567  27.614  1.00  0.00    -0.273 OA
BRANCH  75  78
ATOM     78  C   UNL A   1      34.227  21.215  25.246  1.00  0.00     0.181 C 
ATOM     79  C   UNL A   1      34.951  19.833  25.338  1.00  0.00     0.091 C 
ATOM     80  N   UNL A   1      32.773  21.228  24.843  1.00  0.00    -0.320 N 
ATOM     81  C   UNL A   1      34.306  18.832  24.481  1.00  0.00     0.042 A 
ATOM     82  C   UNL A   1      32.231  20.169  23.954  1.00  0.00     0.178 C 
ATOM     83  N   UNL A   1      34.757  17.587  24.162  1.00  0.00    -0.348 N 
ATOM     84  C   UNL A   1      33.087  18.966  23.880  1.00  0.00     0.081 A 
ATOM     85  C   UNL A   1      33.800  17.019  23.365  1.00  0.00     0.197 A 
ATOM     86  H   UNL A   1      35.605  17.176  24.447  1.00  0.00     0.167 HD
ATOM     87  N   UNL A   1      32.783  17.832  23.169  1.00  0.00    -0.240 NA
BRANCH  80  88
ATOM     88  C   UNL A   1      31.987  22.399  24.776  1.00  0.00     0.256 C 
ATOM     89  O   UNL A   1      30.922  22.524  25.382  1.00  0.00    -0.269 OA
BRANCH  88  90
ATOM     90  C   UNL A   1      32.453  23.595  24.057  1.00  0.00     0.061 A 
ATOM     91  C   UNL A   1      32.684  23.444  22.688  1.00  0.00     0.035 A 
ATOM     92  C   UNL A   1      32.727  24.810  24.671  1.00  0.00     0.072 A 
ATOM     93  C   UNL A   1      33.029  24.561  21.951  1.00  0.00     0.112 A 
ATOM     94  C   UNL A   1      33.059  25.873  23.843  1.00  0.00     0.132 A 
ATOM     95  Cl  UNL A   1      32.747  25.030  26.376  1.00  0.00    -0.082 Cl
ATOM     96  N   UNL A   1      33.192  25.781  22.497  1.00  0.00    -0.263 NA
ENDBRANCH  88  90
ENDBRANCH  80  88
ENDBRANCH  75  78
ENDBRANCH  73  74
ENDBRANCH  72  73
ENDBRANCH   1  72
TORSDOF 16
ENDMDL
MODEL 3
REMARK VINA RESULT:     -12.2      1.421      3.017
REMARK SMILES O=C(NCCCCNC(=O)[C@H]1Cc2[nH]cnc2CN1C(=O)c1ccncc1Cl)c1ccc(-c2c3nc(c(-c4cccc(S(=O)(=O)[O-])c4F)c4ccc([nH]4)c(-c4cccc(S(=O)(=O)[O-])c4F)c4nc(c(-c5cccc(S(=O)(=O)[O-])c5F)c5ccc2[nH]5)C=C4)C=C3)cc1
REMARK SMILES IDX 5 1 4 2 3 3 1 4 2 5 29 7 30 8 91 9 31 10 90 11 32 12 33 13
REMARK SMILES IDX 34 14 84 15 35 16 89 17 83 18 85 19 36 20 88 21 82 22 81 23
REMARK SMILES IDX 37 25 69 26 49 27 68 28 50 29 53 30 67 31 86 32 51 33 52 34
REMARK SMILES IDX 66 36 87 37 54 38 38 39 39 40 47 41 40 42 42 43 48 44 41 45
REMARK SMILES IDX 43 46 44 47 45 48 46 49 70 50 71 51 79 52 72 53 74 54 80 55
REMARK SMILES IDX 73 56 75 57 76 58 77 59 78 60 55 61 56 62 64 63 57 64 59 65
REMARK SMILES IDX 65 66 58 67 60 68 61 69 62 70 63 71 6 72 7 73 8 74 9 75
REMARK SMILES IDX 10 77 11 78 12 79 19 80 13 81 18 82 14 83 17 84 15 85 16 87
REMARK SMILES IDX 20 88 21 89 22 90 23 91 27 92 24 93 26 94 28 95 25 96
REMARK H PARENT 3 6 85 24 53 35 8 76 14 86
REMARK Flexibility Score: inf
ROOT
ATOM      1  C   UNL A   1      33.623  29.778  26.478  1.00  0.00     0.023 C 
ENDROOT
BRANCH   1   2
ATOM      2  C   UNL A   1      34.780  30.400  27.244  1.00  0.00     0.116 C 
BRANCH   2   3
ATOM      3  N   UNL A   1      34.465  31.116  28.457  1.00  0.00    -0.352 N 
ATOM      4  O   UNL A   1      34.860  32.615  30.073  1.00  0.00    -0.269 OA
ATOM      5  C   UNL A   1      35.298  31.711  29.380  1.00  0.00     0.251 C 
ATOM      6  H   UNL A   1      33.504  31.191  28.656  1.00  0.00     0.163 HD
BRANCH   5   7
ATOM      7  C   UNL A   1      36.637  31.146  29.655  1.00  0.00     0.039 A 
ATOM      8  C   UNL A   1      37.825  31.873  29.595  1.00  0.00     0.014 A 
ATOM      9  C   UNL A   1      36.669  29.768  29.915  1.00  0.00     0.014 A 
ATOM     10  C   UNL A   1      39.038  31.206  29.606  1.00  0.00     0.010 A 
ATOM     11  C   UNL A   1      37.885  29.105  29.983  1.00  0.00     0.010 A 
ATOM     12  C   UNL A   1      39.064  29.818  29.762  1.00  0.00    -0.014 A 
BRANCH  12  13
ATOM     13  C   UNL A   1      40.371  29.174  29.824  1.00  0.00     0.031 A 
ATOM     14  C   UNL A   1      40.871  28.878  31.197  1.00  0.00     0.074 A 
ATOM     15  C   UNL A   1      41.020  28.724  28.732  1.00  0.00     0.049 A 
ATOM     16  N   UNL A   1      42.003  29.209  31.734  1.00  0.00    -0.248 NA
ATOM     17  C   UNL A   1      39.945  28.196  32.114  1.00  0.00     0.031 C 
ATOM     18  C   UNL A   1      40.506  28.657  27.361  1.00  0.00     0.029 A 
ATOM     19  N   UNL A   1      42.216  28.070  28.654  1.00  0.00    -0.354 N 
ATOM     20  C   UNL A   1      42.010  28.600  32.989  1.00  0.00     0.074 A 
ATOM     21  C   UNL A   1      40.676  28.115  33.224  1.00  0.00     0.031 C 
ATOM     22  C   UNL A   1      41.243  27.768  26.663  1.00  0.00     0.029 A 
ATOM     23  C   UNL A   1      42.341  27.310  27.497  1.00  0.00     0.049 A 
ATOM     24  H   UNL A   1      42.915  28.129  29.344  1.00  0.00     0.167 HD
ATOM     25  C   UNL A   1      43.156  28.344  33.675  1.00  0.00     0.034 A 
ATOM     26  C   UNL A   1      43.214  26.298  27.283  1.00  0.00     0.034 A 
ATOM     27  C   UNL A   1      44.269  29.116  33.204  1.00  0.00     0.049 A 
ATOM     28  C   UNL A   1      44.305  26.410  28.275  1.00  0.00     0.074 A 
ATOM     29  C   UNL A   1      44.558  30.460  33.091  1.00  0.00     0.029 A 
ATOM     30  N   UNL A   1      45.222  28.462  32.464  1.00  0.00    -0.354 N 
ATOM     31  N   UNL A   1      45.200  27.357  28.279  1.00  0.00    -0.248 NA
ATOM     32  C   UNL A   1      44.211  25.633  29.501  1.00  0.00     0.031 C 
ATOM     33  C   UNL A   1      45.383  30.568  31.935  1.00  0.00     0.029 A 
ATOM     34  C   UNL A   1      45.553  29.281  31.420  1.00  0.00     0.049 A 
ATOM     35  H   UNL A   1      45.596  27.571  32.651  1.00  0.00     0.167 HD
ATOM     36  C   UNL A   1      45.475  27.572  29.622  1.00  0.00     0.074 A 
ATOM     37  C   UNL A   1      44.952  26.395  30.306  1.00  0.00     0.031 C 
ATOM     38  C   UNL A   1      45.835  28.808  30.080  1.00  0.00     0.034 A 
BRANCH  25  39
ATOM     39  C   UNL A   1      43.346  27.158  34.589  1.00  0.00     0.023 A 
ATOM     40  C   UNL A   1      43.422  27.395  35.979  1.00  0.00     0.012 A 
ATOM     41  C   UNL A   1      43.708  25.870  34.136  1.00  0.00     0.148 A 
ATOM     42  C   UNL A   1      43.859  26.406  36.868  1.00  0.00     0.002 A 
ATOM     43  C   UNL A   1      44.052  24.864  35.032  1.00  0.00     0.091 A 
ATOM     44  F   UNL A   1      43.855  25.637  32.826  1.00  0.00    -0.205 F 
ATOM     45  C   UNL A   1      44.158  25.134  36.397  1.00  0.00     0.022 A 
BRANCH  43  46
ATOM     46  S   UNL A   1      44.361  23.190  34.462  1.00  0.00     0.127 S 
ATOM     47  O   UNL A   1      45.590  23.361  33.695  1.00  0.00    -0.237 OA
ATOM     48  O   UNL A   1      44.512  22.460  35.721  1.00  0.00    -0.237 OA
ATOM     49  O   UNL A   1      43.167  22.826  33.708  1.00  0.00    -0.744 OA
ENDBRANCH  43  46
ENDBRANCH  25  39
BRANCH  26  50
ATOM     50  C   UNL A   1      43.057  25.102  26.426  1.00  0.00     0.023 A 
ATOM     51  C   UNL A   1      43.966  24.876  25.375  1.00  0.00     0.012 A 
ATOM     52  C   UNL A   1      42.171  24.058  26.777  1.00  0.00     0.148 A 
ATOM     53  C   UNL A   1      44.005  23.647  24.708  1.00  0.00     0.002 A 
ATOM     54  C   UNL A   1      42.199  22.845  26.097  1.00  0.00     0.091 A 
ATOM     55  F   UNL A   1      41.368  24.220  27.837  1.00  0.00    -0.205 F 
ATOM     56  C   UNL A   1      43.123  22.632  25.069  1.00  0.00     0.022 A 
BRANCH  54  57
ATOM     57  S   UNL A   1      41.083  21.498  26.512  1.00  0.00     0.127 S 
ATOM     58  O   UNL A   1      41.325  21.330  27.946  1.00  0.00    -0.237 OA
ATOM     59  O   UNL A   1      39.782  22.068  26.173  1.00  0.00    -0.237 OA
ATOM     60  O   UNL A   1      41.515  20.367  25.700  1.00  0.00    -0.744 OA
ENDBRANCH  54  57
ENDBRANCH  26  50
BRANCH  38  61
ATOM     61  C   UNL A   1      46.226  29.862  29.073  1.00  0.00     0.023 A 
ATOM     62  C   UNL A   1      47.560  30.019  28.646  1.00  0.00     0.012 A 
ATOM     63  C   UNL A   1      45.213  30.576  28.407  1.00  0.00     0.148 A 
ATOM     64  C   UNL A   1      47.884  30.891  27.604  1.00  0.00     0.002 A 
ATOM     65  C   UNL A   1      45.533  31.403  27.336  1.00  0.00     0.091 A 
ATOM     66  F   UNL A   1      43.944  30.413  28.814  1.00  0.00    -0.205 F 
ATOM     67  C   UNL A   1      46.869  31.571  26.939  1.00  0.00     0.022 A 
BRANCH  65  68
ATOM     68  S   UNL A   1      44.259  32.190  26.345  1.00  0.00     0.127 S 
ATOM     69  O   UNL A   1      43.356  31.076  26.066  1.00  0.00    -0.237 OA
ATOM     70  O   UNL A   1      43.720  33.197  27.261  1.00  0.00    -0.237 OA
ATOM     71  O   UNL A   1      44.949  32.751  25.190  1.00  0.00    -0.744 OA
ENDBRANCH  65  68
ENDBRANCH  38  61
ENDBRANCH  12  13
ENDBRANCH   5   7
ENDBRANCH   2   3
ENDBRANCH   1   2
BRANCH   1  72
ATOM     72  C   UNL A   1      33.116  28.439  27.036  1.00  0.00     0.023 C 
BRANCH  72  73
ATOM     73  C   UNL A   1      31.800  27.901  26.457  1.00  0.00     0.116 C 
BRANCH  73  74
ATOM     74  N   UNL A   1      31.482  26.557  26.912  1.00  0.00    -0.354 N 
ATOM     75  C   UNL A   1      31.954  25.358  26.467  1.00  0.00     0.243 C 
ATOM     76  H   UNL A   1      30.831  26.506  27.649  1.00  0.00     0.163 HD
ATOM     77  O   UNL A   1      31.495  24.334  26.982  1.00  0.00    -0.273 OA
BRANCH  75  78
ATOM     78  C   UNL A   1      32.888  25.248  25.244  1.00  0.00     0.181 C 
ATOM     79  C   UNL A   1      34.267  24.874  25.878  1.00  0.00     0.091 C 
ATOM     80  N   UNL A   1      32.392  24.419  24.084  1.00  0.00    -0.320 N 
ATOM     81  C   UNL A   1      35.124  24.173  24.917  1.00  0.00     0.042 A 
ATOM     82  C   UNL A   1      33.356  23.768  23.162  1.00  0.00     0.178 C 
ATOM     83  N   UNL A   1      36.444  23.860  25.045  1.00  0.00    -0.348 N 
ATOM     84  C   UNL A   1      34.722  23.659  23.717  1.00  0.00     0.081 A 
ATOM     85  C   UNL A   1      36.796  23.181  23.909  1.00  0.00     0.197 A 
ATOM     86  H   UNL A   1      37.031  24.079  25.805  1.00  0.00     0.167 HD
ATOM     87  N   UNL A   1      35.778  23.053  23.084  1.00  0.00    -0.240 NA
BRANCH  80  88
ATOM     88  C   UNL A   1      31.142  24.614  23.458  1.00  0.00     0.256 C 
ATOM     89  O   UNL A   1      30.386  23.685  23.173  1.00  0.00    -0.269 OA
BRANCH  88  90
ATOM     90  C   UNL A   1      30.613  25.964  23.205  1.00  0.00     0.061 A 
ATOM     91  C   UNL A   1      29.332  26.229  23.695  1.00  0.00     0.035 A 
ATOM     92  C   UNL A   1      31.282  26.932  22.469  1.00  0.00     0.072 A 
ATOM     93  C   UNL A   1      28.831  27.511  23.569  1.00  0.00     0.112 A 
ATOM     94  C   UNL A   1      30.700  28.191  22.407  1.00  0.00     0.132 A 
ATOM     95  Cl  UNL A   1      32.728  26.628  21.589  1.00  0.00    -0.082 Cl
ATOM     96  N   UNL A   1      29.503  28.507  22.960  1.00  0.00    -0.263 NA
ENDBRANCH  88  90
ENDBRANCH  80  88
ENDBRANCH  75  78
ENDBRANCH  73  74
ENDBRANCH  72  73
ENDBRANCH   1  72
TORSDOF 16
ENDMDL
