MODEL 1
REMARK VINA RESULT:     -13.4      0.000      0.000
REMARK SMILES Cc1nc(-c2ccccn2)cc(N2CCC[C@H](C(=O)NCCCCNC(=O)c3ccc(-c4c5nc(c(-c6cccc(S(=O)(=O)[O-])c6F)c6ccc([nH]6)c(-c6cccc(S(=O)(=O)[O-])c6F)c6nc(c(-c7cccc(S(=O)(=O)[O-])c7F)c7ccc4[nH]7)C=C6)C=C5)cc3)C2)n1
REMARK SMILES IDX 23 1 22 2 21 3 20 4 18 5 19 6 17 8 13 9 14 10 91 11 15 12
REMARK SMILES IDX 16 13 12 14 1 15 2 16 3 17 92 18 4 19 11 20 5 21 6 22 10 23
REMARK SMILES IDX 7 24 9 25 8 26 24 27 25 28 26 29 27 31 28 32 29 33 90 34
REMARK SMILES IDX 30 35 89 36 31 37 32 38 33 39 83 40 34 41 88 42 82 43 84 44
REMARK SMILES IDX 35 45 87 46 81 47 80 48 36 50 68 51 48 52 67 53 49 54 52 55
REMARK SMILES IDX 66 56 85 57 50 58 51 59 65 61 86 62 53 63 37 64 38 65 46 66
REMARK SMILES IDX 39 67 41 68 47 69 40 70 42 71 43 72 44 73 45 74 69 75 70 76
REMARK SMILES IDX 78 77 71 78 73 79 79 80 72 81 74 82 75 83 76 84 77 85 54 86
REMARK SMILES IDX 55 87 63 88 56 89 58 90 64 91 57 92 59 93 60 94 61 95 62 96
REMARK H PARENT 20 7 25 30 84 49 52 60
REMARK Flexibility Score: inf
ROOT
ATOM      1  C   UNL A   1      32.686  29.491  25.447  1.00  0.00     0.023 C 
ENDROOT
BRANCH   1   2
ATOM      2  C   UNL A   1      31.397  29.401  24.633  1.00  0.00     0.023 C 
BRANCH   2   3
ATOM      3  C   UNL A   1      30.984  27.985  24.279  1.00  0.00     0.116 C 
BRANCH   3   4
ATOM      4  N   UNL A   1      32.003  27.175  23.659  1.00  0.00    -0.356 N 
ATOM      5  C   UNL A   1      32.645  26.076  24.141  1.00  0.00     0.224 C 
ATOM      6  O   UNL A   1      33.265  25.390  23.320  1.00  0.00    -0.275 OA
ATOM      7  H   UNL A   1      32.273  27.458  22.756  1.00  0.00     0.163 HD
BRANCH   5   8
ATOM      8  C   UNL A   1      32.618  25.635  25.610  1.00  0.00     0.098 C 
ATOM      9  N   UNL A   1      33.082  23.246  25.699  1.00  0.00    -0.356 N 
ATOM     10  C   UNL A   1      31.983  22.885  26.588  1.00  0.00     0.118 C 
ATOM     11  C   UNL A   1      33.660  24.564  25.909  1.00  0.00     0.131 C 
ATOM     12  C   UNL A   1      30.838  23.909  26.480  1.00  0.00     0.022 C 
ATOM     13  C   UNL A   1      31.240  25.372  26.234  1.00  0.00     0.017 C 
BRANCH   9  14
ATOM     14  C   UNL A   1      33.982  22.241  25.351  1.00  0.00     0.132 A 
ATOM     15  C   UNL A   1      37.572  21.623  25.047  1.00  0.00     0.090 C 
ATOM     16  C   UNL A   1      36.100  21.402  25.159  1.00  0.00     0.128 A 
ATOM     17  N   UNL A   1      35.679  20.155  24.915  1.00  0.00    -0.231 NA
ATOM     18  N   UNL A   1      35.303  22.453  25.438  1.00  0.00    -0.216 NA
ATOM     19  C   UNL A   1      34.351  19.958  24.860  1.00  0.00     0.094 A 
ATOM     20  C   UNL A   1      33.474  21.012  24.968  1.00  0.00     0.077 A 
BRANCH  19  21
ATOM     21  C   UNL A   1      33.901  18.561  24.755  1.00  0.00     0.089 A 
ATOM     22  C   UNL A   1      34.475  17.639  23.880  1.00  0.00     0.030 A 
ATOM     23  N   UNL A   1      32.869  18.224  25.574  1.00  0.00    -0.255 NA
ATOM     24  C   UNL A   1      34.028  16.319  23.907  1.00  0.00     0.004 A 
ATOM     25  C   UNL A   1      32.445  16.945  25.571  1.00  0.00     0.112 A 
ATOM     26  C   UNL A   1      33.009  15.961  24.784  1.00  0.00     0.020 A 
ENDBRANCH  19  21
ENDBRANCH   9  14
ENDBRANCH   5   8
ENDBRANCH   3   4
ENDBRANCH   2   3
ENDBRANCH   1   2
BRANCH   1  27
ATOM     27  C   UNL A   1      32.550  29.984  26.890  1.00  0.00     0.116 C 
BRANCH  27  28
ATOM     28  N   UNL A   1      32.622  31.428  27.052  1.00  0.00    -0.352 N 
ATOM     29  C   UNL A   1      33.616  32.192  27.627  1.00  0.00     0.251 C 
ATOM     30  H   UNL A   1      31.851  31.930  26.703  1.00  0.00     0.163 HD
ATOM     31  O   UNL A   1      33.427  33.396  27.793  1.00  0.00    -0.269 OA
BRANCH  29  32
ATOM     32  C   UNL A   1      34.890  31.577  28.082  1.00  0.00     0.039 A 
ATOM     33  C   UNL A   1      36.040  32.371  28.153  1.00  0.00     0.014 A 
ATOM     34  C   UNL A   1      34.969  30.228  28.429  1.00  0.00     0.014 A 
ATOM     35  C   UNL A   1      37.232  31.831  28.648  1.00  0.00     0.010 A 
ATOM     36  C   UNL A   1      36.138  29.697  28.963  1.00  0.00     0.010 A 
ATOM     37  C   UNL A   1      37.273  30.500  29.091  1.00  0.00    -0.014 A 
BRANCH  37  38
ATOM     38  C   UNL A   1      38.433  29.969  29.837  1.00  0.00     0.031 A 
ATOM     39  C   UNL A   1      38.791  30.479  31.198  1.00  0.00     0.074 A 
ATOM     40  C   UNL A   1      39.253  29.127  29.180  1.00  0.00     0.049 A 
ATOM     41  N   UNL A   1      39.774  30.117  31.981  1.00  0.00    -0.248 NA
ATOM     42  C   UNL A   1      37.960  31.563  31.744  1.00  0.00     0.031 C 
ATOM     43  C   UNL A   1      39.072  28.695  27.791  1.00  0.00     0.029 A 
ATOM     44  N   UNL A   1      40.416  28.521  29.569  1.00  0.00    -0.354 N 
ATOM     45  C   UNL A   1      39.689  30.933  33.104  1.00  0.00     0.074 A 
ATOM     46  C   UNL A   1      38.583  31.839  32.882  1.00  0.00     0.031 C 
ATOM     47  C   UNL A   1      40.093  27.898  27.443  1.00  0.00     0.029 A 
ATOM     48  C   UNL A   1      40.997  27.768  28.579  1.00  0.00     0.049 A 
ATOM     49  H   UNL A   1      40.799  28.616  30.471  1.00  0.00     0.167 HD
ATOM     50  C   UNL A   1      40.452  30.901  34.224  1.00  0.00     0.034 A 
ATOM     51  C   UNL A   1      42.131  27.043  28.591  1.00  0.00     0.034 A 
ATOM     52  C   UNL A   1      41.541  29.979  34.415  1.00  0.00     0.049 A 
ATOM     53  C   UNL A   1      42.906  26.955  29.873  1.00  0.00     0.074 A 
ATOM     54  C   UNL A   1      42.304  29.765  35.550  1.00  0.00     0.029 A 
ATOM     55  N   UNL A   1      42.039  29.130  33.436  1.00  0.00    -0.354 N 
ATOM     56  N   UNL A   1      42.683  27.564  31.013  1.00  0.00    -0.248 NA
ATOM     57  C   UNL A   1      44.053  26.040  29.890  1.00  0.00     0.031 C 
ATOM     58  C   UNL A   1      43.285  28.815  35.244  1.00  0.00     0.029 A 
ATOM     59  C   UNL A   1      43.110  28.405  33.931  1.00  0.00     0.049 A 
ATOM     60  H   UNL A   1      41.682  29.055  32.521  1.00  0.00     0.167 HD
ATOM     61  C   UNL A   1      43.643  27.087  31.894  1.00  0.00     0.074 A 
ATOM     62  C   UNL A   1      44.429  26.113  31.160  1.00  0.00     0.031 C 
ATOM     63  C   UNL A   1      43.866  27.429  33.188  1.00  0.00     0.034 A 
BRANCH  50  64
ATOM     64  C   UNL A   1      40.104  31.846  35.348  1.00  0.00     0.023 A 
ATOM     65  C   UNL A   1      40.749  33.099  35.429  1.00  0.00     0.012 A 
ATOM     66  C   UNL A   1      39.087  31.539  36.275  1.00  0.00     0.148 A 
ATOM     67  C   UNL A   1      40.415  34.012  36.429  1.00  0.00     0.002 A 
ATOM     68  C   UNL A   1      38.727  32.473  37.241  1.00  0.00     0.091 A 
ATOM     69  F   UNL A   1      38.495  30.340  36.199  1.00  0.00    -0.205 F 
ATOM     70  C   UNL A   1      39.398  33.704  37.327  1.00  0.00     0.022 A 
BRANCH  68  71
ATOM     71  S   UNL A   1      37.375  32.212  38.395  1.00  0.00     0.127 S 
ATOM     72  O   UNL A   1      37.909  32.810  39.617  1.00  0.00    -0.237 OA
ATOM     73  O   UNL A   1      36.288  32.964  37.771  1.00  0.00    -0.237 OA
ATOM     74  O   UNL A   1      37.166  30.768  38.448  1.00  0.00    -0.744 OA
ENDBRANCH  68  71
ENDBRANCH  50  64
BRANCH  51  75
ATOM     75  C   UNL A   1      42.520  26.274  27.378  1.00  0.00     0.023 A 
ATOM     76  C   UNL A   1      43.325  26.888  26.399  1.00  0.00     0.012 A 
ATOM     77  C   UNL A   1      42.168  24.920  27.230  1.00  0.00     0.148 A 
ATOM     78  C   UNL A   1      43.750  26.173  25.279  1.00  0.00     0.002 A 
ATOM     79  C   UNL A   1      42.641  24.198  26.141  1.00  0.00     0.091 A 
ATOM     80  F   UNL A   1      41.401  24.357  28.175  1.00  0.00    -0.205 F 
ATOM     81  C   UNL A   1      43.418  24.826  25.156  1.00  0.00     0.022 A 
BRANCH  79  82
ATOM     82  S   UNL A   1      42.388  22.427  25.980  1.00  0.00     0.127 S 
ATOM     83  O   UNL A   1      43.082  22.139  24.727  1.00  0.00    -0.237 OA
ATOM     84  O   UNL A   1      43.049  21.916  27.182  1.00  0.00    -0.237 OA
ATOM     85  O   UNL A   1      40.944  22.235  25.964  1.00  0.00    -0.744 OA
ENDBRANCH  79  82
ENDBRANCH  51  75
BRANCH  63  86
ATOM     86  C   UNL A   1      45.003  26.735  33.889  1.00  0.00     0.023 A 
ATOM     87  C   UNL A   1      46.303  27.276  33.824  1.00  0.00     0.012 A 
ATOM     88  C   UNL A   1      44.777  25.566  34.642  1.00  0.00     0.148 A 
ATOM     89  C   UNL A   1      47.369  26.637  34.453  1.00  0.00     0.002 A 
ATOM     90  C   UNL A   1      45.835  24.965  35.312  1.00  0.00     0.091 A 
ATOM     91  F   UNL A   1      43.538  25.057  34.678  1.00  0.00    -0.205 F 
ATOM     92  C   UNL A   1      47.134  25.488  35.204  1.00  0.00     0.022 A 
BRANCH  90  93
ATOM     93  S   UNL A   1      45.610  23.541  36.381  1.00  0.00     0.127 S 
ATOM     94  O   UNL A   1      44.812  22.656  35.533  1.00  0.00    -0.237 OA
ATOM     95  O   UNL A   1      46.987  23.097  36.601  1.00  0.00    -0.237 OA
ATOM     96  O   UNL A   1      44.938  24.037  37.574  1.00  0.00    -0.744 OA
ENDBRANCH  90  93
ENDBRANCH  63  86
ENDBRANCH  37  38
ENDBRANCH  29  32
ENDBRANCH  27  28
ENDBRANCH   1  27
TORSDOF 16
ENDMDL
MODEL 2
REMARK VINA RESULT:     -13.0      1.936      2.550
REMARK SMILES Cc1nc(-c2ccccn2)cc(N2CCC[C@H](C(=O)NCCCCNC(=O)c3ccc(-c4c5nc(c(-c6cccc(S(=O)(=O)[O-])c6F)c6ccc([nH]6)c(-c6cccc(S(=O)(=O)[O-])c6F)c6nc(c(-c7cccc(S(=O)(=O)[O-])c7F)c7ccc4[nH]7)C=C6)C=C5)cc3)C2)n1
REMARK SMILES IDX 23 1 22 2 21 3 20 4 18 5 19 6 17 8 13 9 14 10 91 11 15 12
REMARK SMILES IDX 16 13 12 14 1 15 2 16 3 17 92 18 4 19 11 20 5 21 6 22 10 23
REMARK SMILES IDX 7 24 9 25 8 26 24 27 25 28 26 29 27 31 28 32 29 33 90 34
REMARK SMILES IDX 30 35 89 36 31 37 32 38 33 39 83 40 34 41 88 42 82 43 84 44
REMARK SMILES IDX 35 45 87 46 81 47 80 48 36 50 68 51 48 52 67 53 49 54 52 55
REMARK SMILES IDX 66 56 85 57 50 58 51 59 65 61 86 62 53 63 37 64 38 65 46 66
REMARK SMILES IDX 39 67 41 68 47 69 40 70 42 71 43 72 44 73 45 74 69 75 70 76
REMARK SMILES IDX 78 77 71 78 73 79 79 80 72 81 74 82 75 83 76 84 77 85 54 86
REMARK SMILES IDX 55 87 63 88 56 89 58 90 64 91 57 92 59 93 60 94 61 95 62 96
REMARK H PARENT 20 7 25 30 84 49 52 60
REMARK Flexibility Score: inf
ROOT
ATOM      1  C   UNL A   1      33.298  28.367  27.021  1.00  0.00     0.023 C 
ENDROOT
BRANCH   1   2
ATOM      2  C   UNL A   1      32.879  27.192  26.141  1.00  0.00     0.023 C 
BRANCH   2   3
ATOM      3  C   UNL A   1      31.381  26.957  26.090  1.00  0.00     0.116 C 
BRANCH   3   4
ATOM      4  N   UNL A   1      30.910  25.789  26.792  1.00  0.00    -0.356 N 
ATOM      5  C   UNL A   1      30.669  24.536  26.318  1.00  0.00     0.224 C 
ATOM      6  O   UNL A   1      30.549  23.637  27.160  1.00  0.00    -0.275 OA
ATOM      7  H   UNL A   1      30.740  25.915  27.753  1.00  0.00     0.163 HD
BRANCH   5   8
ATOM      8  C   UNL A   1      30.569  24.179  24.830  1.00  0.00     0.098 C 
ATOM      9  N   UNL A   1      32.727  23.316  24.103  1.00  0.00    -0.356 N 
ATOM     10  C   UNL A   1      32.846  24.128  22.897  1.00  0.00     0.118 C 
ATOM     11  C   UNL A   1      31.376  22.934  24.480  1.00  0.00     0.131 C 
ATOM     12  C   UNL A   1      32.025  25.424  23.031  1.00  0.00     0.022 C 
ATOM     13  C   UNL A   1      30.712  25.332  23.825  1.00  0.00     0.017 C 
BRANCH   9  14
ATOM     14  C   UNL A   1      33.711  22.356  24.329  1.00  0.00     0.132 A 
ATOM     15  C   UNL A   1      37.220  22.062  25.310  1.00  0.00     0.090 C 
ATOM     16  C   UNL A   1      35.795  21.722  25.023  1.00  0.00     0.128 A 
ATOM     17  N   UNL A   1      35.500  20.416  25.007  1.00  0.00    -0.231 NA
ATOM     18  N   UNL A   1      34.929  22.720  24.754  1.00  0.00    -0.216 NA
ATOM     19  C   UNL A   1      34.264  20.074  24.605  1.00  0.00     0.094 A 
ATOM     20  C   UNL A   1      33.378  21.024  24.154  1.00  0.00     0.077 A 
BRANCH  19  21
ATOM     21  C   UNL A   1      33.901  18.655  24.746  1.00  0.00     0.089 A 
ATOM     22  C   UNL A   1      34.705  17.613  24.288  1.00  0.00     0.030 A 
ATOM     23  N   UNL A   1      32.707  18.424  25.355  1.00  0.00    -0.255 NA
ATOM     24  C   UNL A   1      34.308  16.299  24.535  1.00  0.00     0.004 A 
ATOM     25  C   UNL A   1      32.339  17.146  25.570  1.00  0.00     0.112 A 
ATOM     26  C   UNL A   1      33.114  16.062  25.207  1.00  0.00     0.020 A 
ENDBRANCH  19  21
ENDBRANCH   9  14
ENDBRANCH   5   8
ENDBRANCH   3   4
ENDBRANCH   2   3
ENDBRANCH   1   2
BRANCH   1  27
ATOM     27  C   UNL A   1      33.872  29.590  26.302  1.00  0.00     0.116 C 
BRANCH  27  28
ATOM     28  N   UNL A   1      33.823  30.828  27.064  1.00  0.00    -0.352 N 
ATOM     29  C   UNL A   1      34.674  31.278  28.051  1.00  0.00     0.251 C 
ATOM     30  H   UNL A   1      33.074  31.429  26.845  1.00  0.00     0.163 HD
ATOM     31  O   UNL A   1      34.383  32.296  28.677  1.00  0.00    -0.269 OA
BRANCH  29  32
ATOM     32  C   UNL A   1      35.913  30.533  28.394  1.00  0.00     0.039 A 
ATOM     33  C   UNL A   1      37.064  30.738  27.625  1.00  0.00     0.014 A 
ATOM     34  C   UNL A   1      35.953  29.629  29.456  1.00  0.00     0.014 A 
ATOM     35  C   UNL A   1      38.261  30.103  27.975  1.00  0.00     0.010 A 
ATOM     36  C   UNL A   1      37.149  29.029  29.836  1.00  0.00     0.010 A 
ATOM     37  C   UNL A   1      38.314  29.275  29.107  1.00  0.00    -0.014 A 
BRANCH  37  38
ATOM     38  C   UNL A   1      39.600  28.783  29.645  1.00  0.00     0.031 A 
ATOM     39  C   UNL A   1      40.324  29.512  30.735  1.00  0.00     0.074 A 
ATOM     40  C   UNL A   1      40.178  27.748  29.008  1.00  0.00     0.049 A 
ATOM     41  N   UNL A   1      41.457  29.212  31.314  1.00  0.00    -0.248 NA
ATOM     42  C   UNL A   1      39.719  30.762  31.218  1.00  0.00     0.031 C 
ATOM     43  C   UNL A   1      39.621  27.072  27.832  1.00  0.00     0.029 A 
ATOM     44  N   UNL A   1      41.371  27.114  29.224  1.00  0.00    -0.354 N 
ATOM     45  C   UNL A   1      41.708  30.237  32.219  1.00  0.00     0.074 A 
ATOM     46  C   UNL A   1      40.629  31.191  32.082  1.00  0.00     0.031 C 
ATOM     47  C   UNL A   1      40.475  26.121  27.428  1.00  0.00     0.029 A 
ATOM     48  C   UNL A   1      41.636  26.124  28.310  1.00  0.00     0.049 A 
ATOM     49  H   UNL A   1      41.979  27.345  29.963  1.00  0.00     0.167 HD
ATOM     50  C   UNL A   1      42.732  30.348  33.099  1.00  0.00     0.034 A 
ATOM     51  C   UNL A   1      42.696  25.302  28.204  1.00  0.00     0.034 A 
ATOM     52  C   UNL A   1      43.786  29.373  33.216  1.00  0.00     0.049 A 
ATOM     53  C   UNL A   1      43.772  25.389  29.246  1.00  0.00     0.074 A 
ATOM     54  C   UNL A   1      44.806  29.310  34.149  1.00  0.00     0.029 A 
ATOM     55  N   UNL A   1      43.970  28.302  32.353  1.00  0.00    -0.354 N 
ATOM     56  N   UNL A   1      43.883  26.231  30.245  1.00  0.00    -0.248 NA
ATOM     57  C   UNL A   1      44.836  24.381  29.182  1.00  0.00     0.031 C 
ATOM     58  C   UNL A   1      45.625  28.221  33.828  1.00  0.00     0.029 A 
ATOM     59  C   UNL A   1      45.095  27.581  32.718  1.00  0.00     0.049 A 
ATOM     60  H   UNL A   1      43.384  28.085  31.591  1.00  0.00     0.167 HD
ATOM     61  C   UNL A   1      45.014  25.839  30.949  1.00  0.00     0.074 A 
ATOM     62  C   UNL A   1      45.533  24.664  30.275  1.00  0.00     0.031 C 
ATOM     63  C   UNL A   1      45.582  26.405  32.043  1.00  0.00     0.034 A 
BRANCH  50  64
ATOM     64  C   UNL A   1      42.736  31.527  34.042  1.00  0.00     0.023 A 
ATOM     65  C   UNL A   1      43.240  32.769  33.600  1.00  0.00     0.012 A 
ATOM     66  C   UNL A   1      42.171  31.437  35.330  1.00  0.00     0.148 A 
ATOM     67  C   UNL A   1      43.214  33.889  34.432  1.00  0.00     0.002 A 
ATOM     68  C   UNL A   1      42.106  32.568  36.137  1.00  0.00     0.091 A 
ATOM     69  F   UNL A   1      41.713  30.248  35.745  1.00  0.00    -0.205 F 
ATOM     70  C   UNL A   1      42.638  33.790  35.695  1.00  0.00     0.022 A 
BRANCH  68  71
ATOM     71  S   UNL A   1      41.311  32.572  37.749  1.00  0.00     0.127 S 
ATOM     72  O   UNL A   1      39.957  32.139  37.412  1.00  0.00    -0.237 OA
ATOM     73  O   UNL A   1      42.102  31.588  38.485  1.00  0.00    -0.237 OA
ATOM     74  O   UNL A   1      41.422  33.940  38.247  1.00  0.00    -0.744 OA
ENDBRANCH  68  71
ENDBRANCH  50  64
BRANCH  51  75
ATOM     75  C   UNL A   1      42.718  24.274  27.129  1.00  0.00     0.023 A 
ATOM     76  C   UNL A   1      43.459  24.514  25.956  1.00  0.00     0.012 A 
ATOM     77  C   UNL A   1      42.080  23.030  27.298  1.00  0.00     0.148 A 
ATOM     78  C   UNL A   1      43.542  23.544  24.957  1.00  0.00     0.002 A 
ATOM     79  C   UNL A   1      42.213  22.048  26.324  1.00  0.00     0.091 A 
ATOM     80  F   UNL A   1      41.381  22.824  28.423  1.00  0.00    -0.205 F 
ATOM     81  C   UNL A   1      42.929  22.308  25.146  1.00  0.00     0.022 A 
BRANCH  79  82
ATOM     82  S   UNL A   1      41.584  20.380  26.550  1.00  0.00     0.127 S 
ATOM     83  O   UNL A   1      40.140  20.601  26.530  1.00  0.00    -0.237 OA
ATOM     84  O   UNL A   1      42.119  19.693  25.375  1.00  0.00    -0.237 OA
ATOM     85  O   UNL A   1      42.137  19.920  27.817  1.00  0.00    -0.744 OA
ENDBRANCH  79  82
ENDBRANCH  51  75
BRANCH  63  86
ATOM     86  C   UNL A   1      46.826  25.749  32.580  1.00  0.00     0.023 A 
ATOM     87  C   UNL A   1      48.092  26.142  32.099  1.00  0.00     0.012 A 
ATOM     88  C   UNL A   1      46.744  24.766  33.586  1.00  0.00     0.148 A 
ATOM     89  C   UNL A   1      49.251  25.533  32.574  1.00  0.00     0.002 A 
ATOM     90  C   UNL A   1      47.908  24.202  34.094  1.00  0.00     0.091 A 
ATOM     91  F   UNL A   1      45.531  24.392  34.019  1.00  0.00    -0.205 F 
ATOM     92  C   UNL A   1      49.160  24.571  33.577  1.00  0.00     0.022 A 
BRANCH  90  93
ATOM     93  S   UNL A   1      47.894  23.029  35.452  1.00  0.00     0.127 S 
ATOM     94  O   UNL A   1      49.284  23.078  35.902  1.00  0.00    -0.237 OA
ATOM     95  O   UNL A   1      46.933  23.636  36.375  1.00  0.00    -0.237 OA
ATOM     96  O   UNL A   1      47.464  21.760  34.882  1.00  0.00    -0.744 OA
ENDBRANCH  90  93
ENDBRANCH  63  86
ENDBRANCH  37  38
ENDBRANCH  29  32
ENDBRANCH  27  28
ENDBRANCH   1  27
TORSDOF 16
ENDMDL
MODEL 3
REMARK VINA RESULT:     -13.0      4.913     10.828
REMARK SMILES Cc1nc(-c2ccccn2)cc(N2CCC[C@H](C(=O)NCCCCNC(=O)c3ccc(-c4c5nc(c(-c6cccc(S(=O)(=O)[O-])c6F)c6ccc([nH]6)c(-c6cccc(S(=O)(=O)[O-])c6F)c6nc(c(-c7cccc(S(=O)(=O)[O-])c7F)c7ccc4[nH]7)C=C6)C=C5)cc3)C2)n1
REMARK SMILES IDX 23 1 22 2 21 3 20 4 18 5 19 6 17 8 13 9 14 10 91 11 15 12
REMARK SMILES IDX 16 13 12 14 1 15 2 16 3 17 92 18 4 19 11 20 5 21 6 22 10 23
REMARK SMILES IDX 7 24 9 25 8 26 24 27 25 28 26 29 27 31 28 32 29 33 90 34
REMARK SMILES IDX 30 35 89 36 31 37 32 38 33 39 83 40 34 41 88 42 82 43 84 44
REMARK SMILES IDX 35 45 87 46 81 47 80 48 36 50 68 51 48 52 67 53 49 54 52 55
REMARK SMILES IDX 66 56 85 57 50 58 51 59 65 61 86 62 53 63 37 64 38 65 46 66
REMARK SMILES IDX 39 67 41 68 47 69 40 70 42 71 43 72 44 73 45 74 69 75 70 76
REMARK SMILES IDX 78 77 71 78 73 79 79 80 72 81 74 82 75 83 76 84 77 85 54 86
REMARK SMILES IDX 55 87 63 88 56 89 58 90 64 91 57 92 59 93 60 94 61 95 62 96
REMARK H PARENT 20 7 25 30 84 49 52 60
REMARK Flexibility Score: inf
ROOT
ATOM      1  C   UNL A   1      36.058  21.225  25.234  1.00  0.00     0.023 C 
ENDROOT
BRANCH   1   2
ATOM      2  C   UNL A   1      34.773  21.520  26.006  1.00  0.00     0.023 C 
BRANCH   2   3
ATOM      3  C   UNL A   1      33.506  21.092  25.290  1.00  0.00     0.116 C 
BRANCH   3   4
ATOM      4  N   UNL A   1      32.397  22.007  25.388  1.00  0.00    -0.356 N 
ATOM      5  C   UNL A   1      32.191  23.187  24.742  1.00  0.00     0.224 C 
ATOM      6  O   UNL A   1      31.042  23.645  24.773  1.00  0.00    -0.275 OA
ATOM      7  H   UNL A   1      31.683  21.738  26.010  1.00  0.00     0.163 HD
BRANCH   5   8
ATOM      8  C   UNL A   1      33.275  23.951  23.971  1.00  0.00     0.098 C 
ATOM      9  N   UNL A   1      32.465  26.207  23.546  1.00  0.00    -0.356 N 
ATOM     10  C   UNL A   1      32.802  26.252  22.127  1.00  0.00     0.118 C 
ATOM     11  C   UNL A   1      33.352  25.416  24.383  1.00  0.00     0.131 C 
ATOM     12  C   UNL A   1      32.845  24.832  21.533  1.00  0.00     0.022 C 
ATOM     13  C   UNL A   1      33.351  23.712  22.456  1.00  0.00     0.017 C 
BRANCH   9  14
ATOM     14  C   UNL A   1      31.971  27.375  24.124  1.00  0.00     0.132 A 
ATOM     15  C   UNL A   1      32.619  29.663  26.900  1.00  0.00     0.090 C 
ATOM     16  C   UNL A   1      32.096  29.098  25.621  1.00  0.00     0.128 A 
ATOM     17  N   UNL A   1      31.113  29.794  25.037  1.00  0.00    -0.231 NA
ATOM     18  N   UNL A   1      32.595  27.928  25.174  1.00  0.00    -0.216 NA
ATOM     19  C   UNL A   1      30.519  29.234  23.969  1.00  0.00     0.094 A 
ATOM     20  C   UNL A   1      30.859  27.967  23.553  1.00  0.00     0.077 A 
BRANCH  19  21
ATOM     21  C   UNL A   1      29.557  30.075  23.241  1.00  0.00     0.089 A 
ATOM     22  C   UNL A   1      29.085  31.293  23.730  1.00  0.00     0.030 A 
ATOM     23  N   UNL A   1      29.145  29.577  22.044  1.00  0.00    -0.255 NA
ATOM     24  C   UNL A   1      28.230  32.052  22.933  1.00  0.00     0.004 A 
ATOM     25  C   UNL A   1      28.308  30.323  21.298  1.00  0.00     0.112 A 
ATOM     26  C   UNL A   1      27.852  31.569  21.685  1.00  0.00     0.020 A 
ENDBRANCH  19  21
ENDBRANCH   9  14
ENDBRANCH   5   8
ENDBRANCH   3   4
ENDBRANCH   2   3
ENDBRANCH   1   2
BRANCH   1  27
ATOM     27  C   UNL A   1      37.324  21.937  25.716  1.00  0.00     0.116 C 
BRANCH  27  28
ATOM     28  N   UNL A   1      38.492  21.082  25.855  1.00  0.00    -0.352 N 
ATOM     29  C   UNL A   1      39.767  21.408  26.269  1.00  0.00     0.251 C 
ATOM     30  H   UNL A   1      38.353  20.136  25.619  1.00  0.00     0.163 HD
ATOM     31  O   UNL A   1      40.659  20.565  26.187  1.00  0.00    -0.269 OA
BRANCH  29  32
ATOM     32  C   UNL A   1      40.085  22.768  26.773  1.00  0.00     0.039 A 
ATOM     33  C   UNL A   1      40.891  22.901  27.910  1.00  0.00     0.014 A 
ATOM     34  C   UNL A   1      39.592  23.915  26.148  1.00  0.00     0.014 A 
ATOM     35  C   UNL A   1      41.263  24.173  28.358  1.00  0.00     0.010 A 
ATOM     36  C   UNL A   1      39.994  25.180  26.562  1.00  0.00     0.010 A 
ATOM     37  C   UNL A   1      40.845  25.316  27.660  1.00  0.00    -0.014 A 
BRANCH  37  38
ATOM     38  C   UNL A   1      41.408  26.651  27.955  1.00  0.00     0.031 A 
ATOM     39  C   UNL A   1      42.850  26.968  27.702  1.00  0.00     0.074 A 
ATOM     40  C   UNL A   1      40.619  27.521  28.612  1.00  0.00     0.049 A 
ATOM     41  N   UNL A   1      43.495  28.086  27.905  1.00  0.00    -0.248 NA
ATOM     42  C   UNL A   1      43.691  25.878  27.184  1.00  0.00     0.031 C 
ATOM     43  C   UNL A   1      39.245  27.242  29.045  1.00  0.00     0.029 A 
ATOM     44  N   UNL A   1      40.863  28.786  29.070  1.00  0.00    -0.354 N 
ATOM     45  C   UNL A   1      44.817  27.836  27.553  1.00  0.00     0.074 A 
ATOM     46  C   UNL A   1      44.890  26.443  27.164  1.00  0.00     0.031 C 
ATOM     47  C   UNL A   1      38.772  28.306  29.710  1.00  0.00     0.029 A 
ATOM     48  C   UNL A   1      39.805  29.333  29.753  1.00  0.00     0.049 A 
ATOM     49  H   UNL A   1      41.714  29.259  28.923  1.00  0.00     0.167 HD
ATOM     50  C   UNL A   1      45.860  28.701  27.534  1.00  0.00     0.034 A 
ATOM     51  C   UNL A   1      39.681  30.537  30.342  1.00  0.00     0.034 A 
ATOM     52  C   UNL A   1      45.748  30.084  27.921  1.00  0.00     0.049 A 
ATOM     53  C   UNL A   1      40.820  31.507  30.226  1.00  0.00     0.074 A 
ATOM     54  C   UNL A   1      46.697  31.087  27.826  1.00  0.00     0.029 A 
ATOM     55  N   UNL A   1      44.623  30.654  28.500  1.00  0.00    -0.354 N 
ATOM     56  N   UNL A   1      42.000  31.329  29.683  1.00  0.00    -0.248 NA
ATOM     57  C   UNL A   1      40.592  32.858  30.752  1.00  0.00     0.031 C 
ATOM     58  C   UNL A   1      46.157  32.253  28.381  1.00  0.00     0.029 A 
ATOM     59  C   UNL A   1      44.858  31.989  28.786  1.00  0.00     0.049 A 
ATOM     60  H   UNL A   1      43.780  30.179  28.681  1.00  0.00     0.167 HD
ATOM     61  C   UNL A   1      42.649  32.553  29.774  1.00  0.00     0.074 A 
ATOM     62  C   UNL A   1      41.714  33.470  30.398  1.00  0.00     0.031 C 
ATOM     63  C   UNL A   1      43.907  32.887  29.391  1.00  0.00     0.034 A 
BRANCH  50  64
ATOM     64  C   UNL A   1      47.191  28.200  27.029  1.00  0.00     0.023 A 
ATOM     65  C   UNL A   1      48.216  27.900  27.951  1.00  0.00     0.012 A 
ATOM     66  C   UNL A   1      47.406  27.947  25.659  1.00  0.00     0.148 A 
ATOM     67  C   UNL A   1      49.441  27.392  27.518  1.00  0.00     0.002 A 
ATOM     68  C   UNL A   1      48.613  27.396  25.239  1.00  0.00     0.091 A 
ATOM     69  F   UNL A   1      46.432  28.253  24.792  1.00  0.00    -0.205 F 
ATOM     70  C   UNL A   1      49.635  27.130  26.165  1.00  0.00     0.022 A 
BRANCH  68  71
ATOM     71  S   UNL A   1      48.937  26.943  23.531  1.00  0.00     0.127 S 
ATOM     72  O   UNL A   1      48.720  28.213  22.842  1.00  0.00    -0.237 OA
ATOM     73  O   UNL A   1      50.332  26.509  23.587  1.00  0.00    -0.237 OA
ATOM     74  O   UNL A   1      47.982  25.888  23.208  1.00  0.00    -0.744 OA
ENDBRANCH  68  71
ENDBRANCH  50  64
BRANCH  51  75
ATOM     75  C   UNL A   1      38.394  30.903  30.991  1.00  0.00     0.023 A 
ATOM     76  C   UNL A   1      38.230  30.690  32.374  1.00  0.00     0.012 A 
ATOM     77  C   UNL A   1      37.366  31.535  30.266  1.00  0.00     0.148 A 
ATOM     78  C   UNL A   1      37.054  31.075  33.018  1.00  0.00     0.002 A 
ATOM     79  C   UNL A   1      36.221  31.967  30.924  1.00  0.00     0.091 A 
ATOM     80  F   UNL A   1      37.544  31.728  28.952  1.00  0.00    -0.205 F 
ATOM     81  C   UNL A   1      36.056  31.724  32.296  1.00  0.00     0.022 A 
BRANCH  79  82
ATOM     82  S   UNL A   1      34.952  32.941  30.105  1.00  0.00     0.127 S 
ATOM     83  O   UNL A   1      34.414  31.981  29.144  1.00  0.00    -0.237 OA
ATOM     84  O   UNL A   1      34.058  33.268  31.216  1.00  0.00    -0.237 OA
ATOM     85  O   UNL A   1      35.645  34.089  29.535  1.00  0.00    -0.744 OA
ENDBRANCH  79  82
ENDBRANCH  51  75
BRANCH  63  86
ATOM     86  C   UNL A   1      44.336  34.310  29.631  1.00  0.00     0.023 A 
ATOM     87  C   UNL A   1      44.897  34.675  30.872  1.00  0.00     0.012 A 
ATOM     88  C   UNL A   1      44.214  35.279  28.615  1.00  0.00     0.148 A 
ATOM     89  C   UNL A   1      45.283  35.992  31.115  1.00  0.00     0.002 A 
ATOM     90  C   UNL A   1      44.653  36.577  28.847  1.00  0.00     0.091 A 
ATOM     91  F   UNL A   1      43.662  34.917  27.448  1.00  0.00    -0.205 F 
ATOM     92  C   UNL A   1      45.170  36.939  30.101  1.00  0.00     0.022 A 
BRANCH  90  93
ATOM     93  S   UNL A   1      44.637  37.838  27.570  1.00  0.00     0.127 S 
ATOM     94  O   UNL A   1      45.573  37.283  26.593  1.00  0.00    -0.237 OA
ATOM     95  O   UNL A   1      43.237  37.831  27.145  1.00  0.00    -0.237 OA
ATOM     96  O   UNL A   1      45.066  39.070  28.217  1.00  0.00    -0.744 OA
ENDBRANCH  90  93
ENDBRANCH  63  86
ENDBRANCH  37  38
ENDBRANCH  29  32
ENDBRANCH  27  28
ENDBRANCH   1  27
TORSDOF 16
ENDMDL
