MODEL 1
REMARK VINA RESULT:     -13.1      0.000      0.000
REMARK SMILES Cc1cc2c(cc1C(=O)c1ccccc1C(=O)NCCCCNC(=O)c1ccc(-c3c4nc(c(-c5cccc(S(=O)(=O)[O-])c5F)c5ccc([nH]5)c(-c5cccc(S(=O)(=O)[O-])c5F)c5nc(c(-c6cccc(S(=O)(=O)[O-])c6F)c6ccc3[nH]6)C=C5)C=C4)cc1)CCCC2
REMARK SMILES IDX 21 1 20 2 19 3 18 4 16 5 17 6 15 8 10 9 11 10 12 11 14 12
REMARK SMILES IDX 13 13 8 14 9 15 7 16 1 17 2 18 3 19 4 20 6 21 5 22 92 23
REMARK SMILES IDX 89 24 91 25 90 26 22 27 23 28 24 29 25 31 26 32 27 33 88 34
REMARK SMILES IDX 28 35 87 36 29 37 30 38 31 39 81 40 32 41 86 42 80 43 82 44
REMARK SMILES IDX 33 45 85 46 79 47 78 48 34 50 66 51 46 52 65 53 47 54 50 55
REMARK SMILES IDX 64 56 83 57 48 58 49 59 63 61 84 62 51 63 35 64 36 65 44 66
REMARK SMILES IDX 37 67 39 68 45 69 38 70 40 71 41 72 42 73 43 74 67 75 68 76
REMARK SMILES IDX 76 77 69 78 71 79 77 80 70 81 72 82 73 83 74 84 75 85 52 86
REMARK SMILES IDX 53 87 61 88 54 89 56 90 62 91 55 92 57 93 58 94 59 95 60 96
REMARK H PARENT 18 7 23 30 82 49 50 60
REMARK Flexibility Score: inf
ROOT
ATOM      1  C   UNL A   1      31.475  29.372  25.920  1.00  0.00     0.023 C 
ENDROOT
BRANCH   1   2
ATOM      2  C   UNL A   1      31.539  28.365  27.062  1.00  0.00     0.023 C 
BRANCH   2   3
ATOM      3  C   UNL A   1      32.250  27.049  26.790  1.00  0.00     0.116 C 
BRANCH   3   4
ATOM      4  N   UNL A   1      31.538  25.838  27.063  1.00  0.00    -0.352 N 
ATOM      5  C   UNL A   1      31.843  24.542  26.729  1.00  0.00     0.252 C 
ATOM      6  O   UNL A   1      31.082  23.675  27.173  1.00  0.00    -0.269 OA
ATOM      7  H   UNL A   1      30.699  25.951  27.568  1.00  0.00     0.163 HD
BRANCH   5   8
ATOM      8  C   UNL A   1      32.940  24.087  25.809  1.00  0.00     0.050 A 
ATOM      9  C   UNL A   1      33.036  24.150  24.407  1.00  0.00     0.035 A 
ATOM     10  C   UNL A   1      34.271  23.916  23.761  1.00  0.00     0.013 A 
ATOM     11  C   UNL A   1      35.387  23.497  24.479  1.00  0.00     0.001 A 
ATOM     12  C   UNL A   1      34.094  23.650  26.505  1.00  0.00     0.014 A 
ATOM     13  C   UNL A   1      35.291  23.340  25.853  1.00  0.00     0.001 A 
BRANCH   9  14
ATOM     14  C   UNL A   1      31.957  24.515  23.485  1.00  0.00     0.194 C 
ATOM     15  O   UNL A   1      31.466  23.596  22.834  1.00  0.00    -0.289 OA
BRANCH  14  16
ATOM     16  C   UNL A   1      31.461  25.943  23.324  1.00  0.00     0.026 A 
ATOM     17  C   UNL A   1      33.556  26.995  22.202  1.00  0.00     0.045 C 
ATOM     18  C   UNL A   1      32.139  27.018  22.704  1.00  0.00    -0.040 A 
ATOM     19  C   UNL A   1      31.438  28.223  22.475  1.00  0.00     0.008 A 
ATOM     20  C   UNL A   1      30.078  28.364  22.769  1.00  0.00    -0.044 A 
ATOM     21  C   UNL A   1      30.103  26.126  23.679  1.00  0.00     0.016 A 
ATOM     22  C   UNL A   1      29.400  27.303  23.375  1.00  0.00    -0.044 A 
ATOM     23  C   UNL A   1      29.388  29.668  22.455  1.00  0.00     0.036 C 
ATOM     24  C   UNL A   1      27.902  27.343  23.565  1.00  0.00     0.036 C 
ATOM     25  C   UNL A   1      27.873  29.526  22.333  1.00  0.00     0.005 C 
ATOM     26  C   UNL A   1      27.315  28.752  23.520  1.00  0.00     0.005 C 
ENDBRANCH  14  16
ENDBRANCH   9  14
ENDBRANCH   5   8
ENDBRANCH   3   4
ENDBRANCH   2   3
ENDBRANCH   1   2
BRANCH   1  27
ATOM     27  C   UNL A   1      32.580  30.421  25.846  1.00  0.00     0.116 C 
BRANCH  27  28
ATOM     28  N   UNL A   1      32.362  31.611  26.661  1.00  0.00    -0.352 N 
ATOM     29  C   UNL A   1      33.211  32.299  27.506  1.00  0.00     0.251 C 
ATOM     30  H   UNL A   1      31.456  31.989  26.598  1.00  0.00     0.163 HD
ATOM     31  O   UNL A   1      32.799  33.279  28.124  1.00  0.00    -0.269 OA
BRANCH  29  32
ATOM     32  C   UNL A   1      34.593  31.819  27.723  1.00  0.00     0.039 A 
ATOM     33  C   UNL A   1      34.852  30.463  27.898  1.00  0.00     0.014 A 
ATOM     34  C   UNL A   1      35.631  32.748  27.844  1.00  0.00     0.014 A 
ATOM     35  C   UNL A   1      36.050  30.074  28.482  1.00  0.00     0.010 A 
ATOM     36  C   UNL A   1      36.883  32.331  28.312  1.00  0.00     0.010 A 
ATOM     37  C   UNL A   1      37.072  31.007  28.734  1.00  0.00    -0.014 A 
BRANCH  37  38
ATOM     38  C   UNL A   1      38.273  30.578  29.506  1.00  0.00     0.031 A 
ATOM     39  C   UNL A   1      38.440  30.965  30.960  1.00  0.00     0.074 A 
ATOM     40  C   UNL A   1      39.163  29.739  28.937  1.00  0.00     0.049 A 
ATOM     41  N   UNL A   1      39.383  30.612  31.799  1.00  0.00    -0.248 NA
ATOM     42  C   UNL A   1      37.431  31.861  31.553  1.00  0.00     0.031 C 
ATOM     43  C   UNL A   1      39.123  29.291  27.543  1.00  0.00     0.029 A 
ATOM     44  N   UNL A   1      40.244  29.077  29.465  1.00  0.00    -0.354 N 
ATOM     45  C   UNL A   1      39.112  31.281  32.988  1.00  0.00     0.074 A 
ATOM     46  C   UNL A   1      37.917  32.062  32.771  1.00  0.00     0.031 C 
ATOM     47  C   UNL A   1      40.073  28.363  27.352  1.00  0.00     0.029 A 
ATOM     48  C   UNL A   1      40.831  28.197  28.588  1.00  0.00     0.049 A 
ATOM     49  H   UNL A   1      40.566  29.219  30.384  1.00  0.00     0.167 HD
ATOM     50  C   UNL A   1      39.780  31.229  34.165  1.00  0.00     0.034 A 
ATOM     51  C   UNL A   1      41.860  27.343  28.753  1.00  0.00     0.034 A 
ATOM     52  C   UNL A   1      40.914  30.383  34.419  1.00  0.00     0.049 A 
ATOM     53  C   UNL A   1      42.560  27.281  30.078  1.00  0.00     0.074 A 
ATOM     54  C   UNL A   1      41.628  30.242  35.595  1.00  0.00     0.029 A 
ATOM     55  N   UNL A   1      41.480  29.522  33.495  1.00  0.00    -0.354 N 
ATOM     56  N   UNL A   1      42.257  27.892  31.196  1.00  0.00    -0.248 NA
ATOM     57  C   UNL A   1      43.744  26.413  30.166  1.00  0.00     0.031 C 
ATOM     58  C   UNL A   1      42.625  29.286  35.387  1.00  0.00     0.029 A 
ATOM     59  C   UNL A   1      42.533  28.839  34.078  1.00  0.00     0.049 A 
ATOM     60  H   UNL A   1      41.179  29.411  32.565  1.00  0.00     0.167 HD
ATOM     61  C   UNL A   1      43.210  27.484  32.120  1.00  0.00     0.074 A 
ATOM     62  C   UNL A   1      44.084  26.550  31.442  1.00  0.00     0.031 C 
ATOM     63  C   UNL A   1      43.362  27.875  33.407  1.00  0.00     0.034 A 
BRANCH  50  64
ATOM     64  C   UNL A   1      39.275  32.059  35.313  1.00  0.00     0.023 A 
ATOM     65  C   UNL A   1      38.414  31.468  36.258  1.00  0.00     0.012 A 
ATOM     66  C   UNL A   1      39.754  33.366  35.528  1.00  0.00     0.148 A 
ATOM     67  C   UNL A   1      38.035  32.166  37.403  1.00  0.00     0.002 A 
ATOM     68  C   UNL A   1      39.392  34.047  36.685  1.00  0.00     0.091 A 
ATOM     69  F   UNL A   1      40.568  33.905  34.610  1.00  0.00    -0.205 F 
ATOM     70  C   UNL A   1      38.532  33.449  37.622  1.00  0.00     0.022 A 
BRANCH  68  71
ATOM     71  S   UNL A   1      40.014  35.683  37.093  1.00  0.00     0.127 S 
ATOM     72  O   UNL A   1      41.451  35.431  37.205  1.00  0.00    -0.237 OA
ATOM     73  O   UNL A   1      39.621  36.460  35.919  1.00  0.00    -0.237 OA
ATOM     74  O   UNL A   1      39.359  36.067  38.334  1.00  0.00    -0.744 OA
ENDBRANCH  68  71
ENDBRANCH  50  64
BRANCH  51  75
ATOM     75  C   UNL A   1      42.248  26.438  27.636  1.00  0.00     0.023 A 
ATOM     76  C   UNL A   1      43.190  26.881  26.689  1.00  0.00     0.012 A 
ATOM     77  C   UNL A   1      41.746  25.126  27.548  1.00  0.00     0.148 A 
ATOM     78  C   UNL A   1      43.625  26.032  25.671  1.00  0.00     0.002 A 
ATOM     79  C   UNL A   1      42.220  24.270  26.561  1.00  0.00     0.091 A 
ATOM     80  F   UNL A   1      40.833  24.734  28.449  1.00  0.00    -0.205 F 
ATOM     81  C   UNL A   1      43.152  24.723  25.616  1.00  0.00     0.022 A 
BRANCH  79  82
ATOM     82  S   UNL A   1      41.758  22.535  26.501  1.00  0.00     0.127 S 
ATOM     83  O   UNL A   1      42.461  22.082  25.303  1.00  0.00    -0.237 OA
ATOM     84  O   UNL A   1      42.301  22.031  27.763  1.00  0.00    -0.237 OA
ATOM     85  O   UNL A   1      40.304  22.522  26.428  1.00  0.00    -0.744 OA
ENDBRANCH  79  82
ENDBRANCH  51  75
BRANCH  63  86
ATOM     86  C   UNL A   1      44.518  27.312  34.183  1.00  0.00     0.023 A 
ATOM     87  C   UNL A   1      45.736  28.017  34.193  1.00  0.00     0.012 A 
ATOM     88  C   UNL A   1      44.359  26.175  34.997  1.00  0.00     0.148 A 
ATOM     89  C   UNL A   1      46.788  27.594  35.003  1.00  0.00     0.002 A 
ATOM     90  C   UNL A   1      45.403  25.775  35.823  1.00  0.00     0.091 A 
ATOM     91  F   UNL A   1      43.189  25.523  34.961  1.00  0.00    -0.205 F 
ATOM     92  C   UNL A   1      46.618  26.481  35.824  1.00  0.00     0.022 A 
BRANCH  90  93
ATOM     93  S   UNL A   1      45.262  24.399  36.968  1.00  0.00     0.127 S 
ATOM     94  O   UNL A   1      46.598  24.367  37.561  1.00  0.00    -0.237 OA
ATOM     95  O   UNL A   1      44.204  24.855  37.869  1.00  0.00    -0.237 OA
ATOM     96  O   UNL A   1      44.916  23.235  36.162  1.00  0.00    -0.744 OA
ENDBRANCH  90  93
ENDBRANCH  63  86
ENDBRANCH  37  38
ENDBRANCH  29  32
ENDBRANCH  27  28
ENDBRANCH   1  27
TORSDOF 16
ENDMDL
MODEL 2
REMARK VINA RESULT:     -13.0      1.468      3.484
REMARK SMILES Cc1cc2c(cc1C(=O)c1ccccc1C(=O)NCCCCNC(=O)c1ccc(-c3c4nc(c(-c5cccc(S(=O)(=O)[O-])c5F)c5ccc([nH]5)c(-c5cccc(S(=O)(=O)[O-])c5F)c5nc(c(-c6cccc(S(=O)(=O)[O-])c6F)c6ccc3[nH]6)C=C5)C=C4)cc1)CCCC2
REMARK SMILES IDX 21 1 20 2 19 3 18 4 16 5 17 6 15 8 10 9 11 10 12 11 14 12
REMARK SMILES IDX 13 13 8 14 9 15 7 16 1 17 2 18 3 19 4 20 6 21 5 22 92 23
REMARK SMILES IDX 89 24 91 25 90 26 22 27 23 28 24 29 25 31 26 32 27 33 88 34
REMARK SMILES IDX 28 35 87 36 29 37 30 38 31 39 81 40 32 41 86 42 80 43 82 44
REMARK SMILES IDX 33 45 85 46 79 47 78 48 34 50 66 51 46 52 65 53 47 54 50 55
REMARK SMILES IDX 64 56 83 57 48 58 49 59 63 61 84 62 51 63 35 64 36 65 44 66
REMARK SMILES IDX 37 67 39 68 45 69 38 70 40 71 41 72 42 73 43 74 67 75 68 76
REMARK SMILES IDX 76 77 69 78 71 79 77 80 70 81 72 82 73 83 74 84 75 85 52 86
REMARK SMILES IDX 53 87 61 88 54 89 56 90 62 91 55 92 57 93 58 94 59 95 60 96
REMARK H PARENT 18 7 23 30 82 49 50 60
REMARK Flexibility Score: inf
ROOT
ATOM      1  C   UNL A   1      32.201  29.410  24.983  1.00  0.00     0.023 C 
ENDROOT
BRANCH   1   2
ATOM      2  C   UNL A   1      33.433  29.062  24.154  1.00  0.00     0.023 C 
BRANCH   2   3
ATOM      3  C   UNL A   1      33.258  28.992  22.646  1.00  0.00     0.116 C 
BRANCH   3   4
ATOM      4  N   UNL A   1      33.584  27.759  21.994  1.00  0.00    -0.352 N 
ATOM      5  C   UNL A   1      33.075  26.499  22.188  1.00  0.00     0.252 C 
ATOM      6  O   UNL A   1      33.486  25.625  21.416  1.00  0.00    -0.269 OA
ATOM      7  H   UNL A   1      34.281  27.825  21.302  1.00  0.00     0.163 HD
BRANCH   5   8
ATOM      8  C   UNL A   1      32.153  26.063  23.291  1.00  0.00     0.050 A 
ATOM      9  C   UNL A   1      32.441  25.514  24.553  1.00  0.00     0.035 A 
ATOM     10  C   UNL A   1      31.438  25.430  25.545  1.00  0.00     0.013 A 
ATOM     11  C   UNL A   1      30.118  25.768  25.260  1.00  0.00     0.001 A 
ATOM     12  C   UNL A   1      30.798  26.389  23.034  1.00  0.00     0.014 A 
ATOM     13  C   UNL A   1      29.793  26.226  23.993  1.00  0.00     0.001 A 
BRANCH   9  14
ATOM     14  C   UNL A   1      33.754  25.052  25.012  1.00  0.00     0.194 C 
ATOM     15  O   UNL A   1      34.464  25.891  25.561  1.00  0.00    -0.289 OA
BRANCH  14  16
ATOM     16  C   UNL A   1      34.233  23.621  24.825  1.00  0.00     0.026 A 
ATOM     17  C   UNL A   1      36.606  23.830  25.863  1.00  0.00     0.045 C 
ATOM     18  C   UNL A   1      35.462  23.068  25.255  1.00  0.00    -0.040 A 
ATOM     19  C   UNL A   1      35.648  21.671  25.164  1.00  0.00     0.008 A 
ATOM     20  C   UNL A   1      34.633  20.808  24.738  1.00  0.00    -0.044 A 
ATOM     21  C   UNL A   1      33.242  22.740  24.330  1.00  0.00     0.016 A 
ATOM     22  C   UNL A   1      33.414  21.347  24.319  1.00  0.00    -0.044 A 
ATOM     23  C   UNL A   1      34.893  19.322  24.710  1.00  0.00     0.036 C 
ATOM     24  C   UNL A   1      32.235  20.455  24.004  1.00  0.00     0.036 C 
ATOM     25  C   UNL A   1      33.612  18.492  24.737  1.00  0.00     0.005 C 
ATOM     26  C   UNL A   1      32.623  19.010  23.700  1.00  0.00     0.005 C 
ENDBRANCH  14  16
ENDBRANCH   9  14
ENDBRANCH   5   8
ENDBRANCH   3   4
ENDBRANCH   2   3
ENDBRANCH   1   2
BRANCH   1  27
ATOM     27  C   UNL A   1      32.406  29.674  26.471  1.00  0.00     0.116 C 
BRANCH  27  28
ATOM     28  N   UNL A   1      32.224  31.061  26.886  1.00  0.00    -0.352 N 
ATOM     29  C   UNL A   1      33.121  31.982  27.389  1.00  0.00     0.251 C 
ATOM     30  H   UNL A   1      31.304  31.398  26.791  1.00  0.00     0.163 HD
ATOM     31  O   UNL A   1      32.735  33.107  27.702  1.00  0.00    -0.269 OA
BRANCH  29  32
ATOM     32  C   UNL A   1      34.531  31.598  27.617  1.00  0.00     0.039 A 
ATOM     33  C   UNL A   1      34.902  30.259  27.657  1.00  0.00     0.014 A 
ATOM     34  C   UNL A   1      35.478  32.592  27.885  1.00  0.00     0.014 A 
ATOM     35  C   UNL A   1      36.108  29.908  28.251  1.00  0.00     0.010 A 
ATOM     36  C   UNL A   1      36.744  32.232  28.363  1.00  0.00     0.010 A 
ATOM     37  C   UNL A   1      37.033  30.890  28.649  1.00  0.00    -0.014 A 
BRANCH  37  38
ATOM     38  C   UNL A   1      38.238  30.479  29.426  1.00  0.00     0.031 A 
ATOM     39  C   UNL A   1      38.393  30.869  30.880  1.00  0.00     0.074 A 
ATOM     40  C   UNL A   1      39.143  29.655  28.859  1.00  0.00     0.049 A 
ATOM     41  N   UNL A   1      39.338  30.531  31.722  1.00  0.00    -0.248 NA
ATOM     42  C   UNL A   1      37.369  31.749  31.469  1.00  0.00     0.031 C 
ATOM     43  C   UNL A   1      39.115  29.206  27.465  1.00  0.00     0.029 A 
ATOM     44  N   UNL A   1      40.232  29.010  29.392  1.00  0.00    -0.354 N 
ATOM     45  C   UNL A   1      39.053  31.195  32.910  1.00  0.00     0.074 A 
ATOM     46  C   UNL A   1      37.847  31.958  32.689  1.00  0.00     0.031 C 
ATOM     47  C   UNL A   1      40.080  28.293  27.278  1.00  0.00     0.029 A 
ATOM     48  C   UNL A   1      40.836  28.139  28.516  1.00  0.00     0.049 A 
ATOM     49  H   UNL A   1      40.549  29.157  30.312  1.00  0.00     0.167 HD
ATOM     50  C   UNL A   1      39.717  31.153  34.089  1.00  0.00     0.034 A 
ATOM     51  C   UNL A   1      41.878  27.302  28.685  1.00  0.00     0.034 A 
ATOM     52  C   UNL A   1      40.863  30.326  34.347  1.00  0.00     0.049 A 
ATOM     53  C   UNL A   1      42.574  27.250  30.012  1.00  0.00     0.074 A 
ATOM     54  C   UNL A   1      41.576  30.196  35.526  1.00  0.00     0.029 A 
ATOM     55  N   UNL A   1      41.447  29.474  33.426  1.00  0.00    -0.354 N 
ATOM     56  N   UNL A   1      42.257  27.856  31.130  1.00  0.00    -0.248 NA
ATOM     57  C   UNL A   1      43.771  26.401  30.105  1.00  0.00     0.031 C 
ATOM     58  C   UNL A   1      42.589  29.255  35.321  1.00  0.00     0.029 A 
ATOM     59  C   UNL A   1      42.508  28.807  34.013  1.00  0.00     0.049 A 
ATOM     60  H   UNL A   1      41.151  29.358  32.495  1.00  0.00     0.167 HD
ATOM     61  C   UNL A   1      43.213  27.463  32.057  1.00  0.00     0.074 A 
ATOM     62  C   UNL A   1      44.104  26.543  31.382  1.00  0.00     0.031 C 
ATOM     63  C   UNL A   1      43.355  27.857  33.344  1.00  0.00     0.034 A 
BRANCH  50  64
ATOM     64  C   UNL A   1      39.195  31.976  35.236  1.00  0.00     0.023 A 
ATOM     65  C   UNL A   1      38.296  31.387  36.146  1.00  0.00     0.012 A 
ATOM     66  C   UNL A   1      39.693  33.270  35.485  1.00  0.00     0.148 A 
ATOM     67  C   UNL A   1      37.898  32.075  37.291  1.00  0.00     0.002 A 
ATOM     68  C   UNL A   1      39.310  33.940  36.642  1.00  0.00     0.091 A 
ATOM     69  F   UNL A   1      40.543  33.807  34.600  1.00  0.00    -0.205 F 
ATOM     70  C   UNL A   1      38.413  33.344  37.544  1.00  0.00     0.022 A 
BRANCH  68  71
ATOM     71  S   UNL A   1      39.952  35.557  37.093  1.00  0.00     0.127 S 
ATOM     72  O   UNL A   1      39.530  36.369  35.952  1.00  0.00    -0.237 OA
ATOM     73  O   UNL A   1      39.235  35.833  38.337  1.00  0.00    -0.237 OA
ATOM     74  O   UNL A   1      41.391  35.396  37.235  1.00  0.00    -0.744 OA
ENDBRANCH  68  71
ENDBRANCH  50  64
BRANCH  51  75
ATOM     75  C   UNL A   1      42.283  26.403  27.570  1.00  0.00     0.023 A 
ATOM     76  C   UNL A   1      43.223  26.860  26.626  1.00  0.00     0.012 A 
ATOM     77  C   UNL A   1      41.803  25.083  27.480  1.00  0.00     0.148 A 
ATOM     78  C   UNL A   1      43.675  26.018  25.609  1.00  0.00     0.002 A 
ATOM     79  C   UNL A   1      42.293  24.234  26.494  1.00  0.00     0.091 A 
ATOM     80  F   UNL A   1      40.892  24.677  28.377  1.00  0.00    -0.205 F 
ATOM     81  C   UNL A   1      43.222  24.702  25.553  1.00  0.00     0.022 A 
BRANCH  79  82
ATOM     82  S   UNL A   1      41.858  22.493  26.432  1.00  0.00     0.127 S 
ATOM     83  O   UNL A   1      42.519  22.065  25.202  1.00  0.00    -0.237 OA
ATOM     84  O   UNL A   1      42.460  21.984  27.665  1.00  0.00    -0.237 OA
ATOM     85  O   UNL A   1      40.403  22.455  26.419  1.00  0.00    -0.744 OA
ENDBRANCH  79  82
ENDBRANCH  51  75
BRANCH  63  86
ATOM     86  C   UNL A   1      44.516  27.312  34.125  1.00  0.00     0.023 A 
ATOM     87  C   UNL A   1      45.707  28.059  34.180  1.00  0.00     0.012 A 
ATOM     88  C   UNL A   1      44.385  26.144  34.900  1.00  0.00     0.148 A 
ATOM     89  C   UNL A   1      46.760  27.650  34.996  1.00  0.00     0.002 A 
ATOM     90  C   UNL A   1      45.428  25.757  35.733  1.00  0.00     0.091 A 
ATOM     91  F   UNL A   1      43.240  25.451  34.822  1.00  0.00    -0.205 F 
ATOM     92  C   UNL A   1      46.616  26.506  35.779  1.00  0.00     0.022 A 
BRANCH  90  93
ATOM     93  S   UNL A   1      45.317  24.341  36.833  1.00  0.00     0.127 S 
ATOM     94  O   UNL A   1      46.681  24.262  37.355  1.00  0.00    -0.237 OA
ATOM     95  O   UNL A   1      44.315  24.782  37.802  1.00  0.00    -0.237 OA
ATOM     96  O   UNL A   1      44.908  23.215  36.002  1.00  0.00    -0.744 OA
ENDBRANCH  90  93
ENDBRANCH  63  86
ENDBRANCH  37  38
ENDBRANCH  29  32
ENDBRANCH  27  28
ENDBRANCH   1  27
TORSDOF 16
ENDMDL
MODEL 3
REMARK VINA RESULT:     -12.9      5.063      9.694
REMARK SMILES Cc1cc2c(cc1C(=O)c1ccccc1C(=O)NCCCCNC(=O)c1ccc(-c3c4nc(c(-c5cccc(S(=O)(=O)[O-])c5F)c5ccc([nH]5)c(-c5cccc(S(=O)(=O)[O-])c5F)c5nc(c(-c6cccc(S(=O)(=O)[O-])c6F)c6ccc3[nH]6)C=C5)C=C4)cc1)CCCC2
REMARK SMILES IDX 21 1 20 2 19 3 18 4 16 5 17 6 15 8 10 9 11 10 12 11 14 12
REMARK SMILES IDX 13 13 8 14 9 15 7 16 1 17 2 18 3 19 4 20 6 21 5 22 92 23
REMARK SMILES IDX 89 24 91 25 90 26 22 27 23 28 24 29 25 31 26 32 27 33 88 34
REMARK SMILES IDX 28 35 87 36 29 37 30 38 31 39 81 40 32 41 86 42 80 43 82 44
REMARK SMILES IDX 33 45 85 46 79 47 78 48 34 50 66 51 46 52 65 53 47 54 50 55
REMARK SMILES IDX 64 56 83 57 48 58 49 59 63 61 84 62 51 63 35 64 36 65 44 66
REMARK SMILES IDX 37 67 39 68 45 69 38 70 40 71 41 72 42 73 43 74 67 75 68 76
REMARK SMILES IDX 76 77 69 78 71 79 77 80 70 81 72 82 73 83 74 84 75 85 52 86
REMARK SMILES IDX 53 87 61 88 54 89 56 90 62 91 55 92 57 93 58 94 59 95 60 96
REMARK H PARENT 18 7 23 30 82 49 50 60
REMARK Flexibility Score: inf
ROOT
ATOM      1  C   UNL A   1      35.591  21.484  25.427  1.00  0.00     0.023 C 
ENDROOT
BRANCH   1   2
ATOM      2  C   UNL A   1      35.133  22.100  26.744  1.00  0.00     0.023 C 
BRANCH   2   3
ATOM      3  C   UNL A   1      33.925  21.474  27.421  1.00  0.00     0.116 C 
BRANCH   3   4
ATOM      4  N   UNL A   1      32.781  22.306  27.643  1.00  0.00    -0.352 N 
ATOM      5  C   UNL A   1      31.964  22.939  26.740  1.00  0.00     0.252 C 
ATOM      6  O   UNL A   1      30.987  23.529  27.214  1.00  0.00    -0.269 OA
ATOM      7  H   UNL A   1      32.544  22.446  28.589  1.00  0.00     0.163 HD
BRANCH   5   8
ATOM      8  C   UNL A   1      32.188  23.064  25.259  1.00  0.00     0.050 A 
ATOM      9  C   UNL A   1      32.719  24.127  24.507  1.00  0.00     0.035 A 
ATOM     10  C   UNL A   1      33.098  23.933  23.160  1.00  0.00     0.013 A 
ATOM     11  C   UNL A   1      32.842  22.731  22.508  1.00  0.00     0.001 A 
ATOM     12  C   UNL A   1      31.935  21.857  24.562  1.00  0.00     0.014 A 
ATOM     13  C   UNL A   1      32.236  21.697  23.206  1.00  0.00     0.001 A 
BRANCH   9  14
ATOM     14  C   UNL A   1      33.004  25.476  25.004  1.00  0.00     0.194 C 
ATOM     15  O   UNL A   1      33.980  25.588  25.741  1.00  0.00    -0.289 OA
BRANCH  14  16
ATOM     16  C   UNL A   1      32.150  26.682  24.645  1.00  0.00     0.026 A 
ATOM     17  C   UNL A   1      34.033  28.403  24.150  1.00  0.00     0.045 C 
ATOM     18  C   UNL A   1      32.601  27.949  24.209  1.00  0.00    -0.040 A 
ATOM     19  C   UNL A   1      31.653  28.882  23.735  1.00  0.00     0.008 A 
ATOM     20  C   UNL A   1      30.295  28.570  23.607  1.00  0.00    -0.044 A 
ATOM     21  C   UNL A   1      30.763  26.406  24.575  1.00  0.00     0.016 A 
ATOM     22  C   UNL A   1      29.844  27.317  24.029  1.00  0.00    -0.044 A 
ATOM     23  C   UNL A   1      29.350  29.606  23.050  1.00  0.00     0.036 C 
ATOM     24  C   UNL A   1      28.424  26.871  23.766  1.00  0.00     0.036 C 
ATOM     25  C   UNL A   1      28.065  29.000  22.491  1.00  0.00     0.005 C 
ATOM     26  C   UNL A   1      27.461  28.023  23.492  1.00  0.00     0.005 C 
ENDBRANCH  14  16
ENDBRANCH   9  14
ENDBRANCH   5   8
ENDBRANCH   3   4
ENDBRANCH   2   3
ENDBRANCH   1   2
BRANCH   1  27
ATOM     27  C   UNL A   1      36.948  21.917  24.881  1.00  0.00     0.116 C 
BRANCH  27  28
ATOM     28  N   UNL A   1      38.025  20.948  25.053  1.00  0.00    -0.352 N 
ATOM     29  C   UNL A   1      39.175  20.997  25.816  1.00  0.00     0.251 C 
ATOM     30  H   UNL A   1      37.913  20.117  24.538  1.00  0.00     0.163 HD
ATOM     31  O   UNL A   1      39.970  20.060  25.788  1.00  0.00    -0.269 OA
BRANCH  29  32
ATOM     32  C   UNL A   1      39.487  22.204  26.613  1.00  0.00     0.039 A 
ATOM     33  C   UNL A   1      38.911  23.430  26.297  1.00  0.00     0.014 A 
ATOM     34  C   UNL A   1      40.441  22.125  27.633  1.00  0.00     0.014 A 
ATOM     35  C   UNL A   1      39.495  24.595  26.775  1.00  0.00     0.010 A 
ATOM     36  C   UNL A   1      40.939  23.300  28.209  1.00  0.00     0.010 A 
ATOM     37  C   UNL A   1      40.544  24.550  27.710  1.00  0.00    -0.014 A 
BRANCH  37  38
ATOM     38  C   UNL A   1      41.247  25.814  28.073  1.00  0.00     0.031 A 
ATOM     39  C   UNL A   1      42.621  26.125  27.518  1.00  0.00     0.074 A 
ATOM     40  C   UNL A   1      40.605  26.742  28.812  1.00  0.00     0.049 A 
ATOM     41  N   UNL A   1      43.339  27.210  27.669  1.00  0.00    -0.248 NA
ATOM     42  C   UNL A   1      43.277  25.096  26.693  1.00  0.00     0.031 C 
ATOM     43  C   UNL A   1      39.280  26.569  29.413  1.00  0.00     0.029 A 
ATOM     44  N   UNL A   1      40.952  28.028  29.145  1.00  0.00    -0.354 N 
ATOM     45  C   UNL A   1      44.541  26.972  27.011  1.00  0.00     0.074 A 
ATOM     46  C   UNL A   1      44.464  25.642  26.455  1.00  0.00     0.031 C 
ATOM     47  C   UNL A   1      38.891  27.730  29.960  1.00  0.00     0.029 A 
ATOM     48  C   UNL A   1      39.960  28.711  29.808  1.00  0.00     0.049 A 
ATOM     49  H   UNL A   1      41.828  28.423  28.929  1.00  0.00     0.167 HD
ATOM     50  C   UNL A   1      45.604  27.796  26.858  1.00  0.00     0.034 A 
ATOM     51  C   UNL A   1      39.906  29.985  30.242  1.00  0.00     0.034 A 
ATOM     52  C   UNL A   1      45.655  29.154  27.326  1.00  0.00     0.049 A 
ATOM     53  C   UNL A   1      41.085  30.887  30.027  1.00  0.00     0.074 A 
ATOM     54  C   UNL A   1      46.681  30.071  27.181  1.00  0.00     0.029 A 
ATOM     55  N   UNL A   1      44.633  29.795  28.004  1.00  0.00    -0.354 N 
ATOM     56  N   UNL A   1      42.191  30.649  29.366  1.00  0.00    -0.248 NA
ATOM     57  C   UNL A   1      41.013  32.231  30.619  1.00  0.00     0.031 C 
ATOM     58  C   UNL A   1      46.276  31.274  27.765  1.00  0.00     0.029 A 
ATOM     59  C   UNL A   1      45.001  31.100  28.279  1.00  0.00     0.049 A 
ATOM     60  H   UNL A   1      43.773  29.385  28.253  1.00  0.00     0.167 HD
ATOM     61  C   UNL A   1      42.945  31.811  29.460  1.00  0.00     0.074 A 
ATOM     62  C   UNL A   1      42.161  32.764  30.217  1.00  0.00     0.031 C 
ATOM     63  C   UNL A   1      44.190  32.053  28.988  1.00  0.00     0.034 A 
BRANCH  50  64
ATOM     64  C   UNL A   1      46.798  27.292  26.093  1.00  0.00     0.023 A 
ATOM     65  C   UNL A   1      47.617  26.306  26.676  1.00  0.00     0.012 A 
ATOM     66  C   UNL A   1      47.027  27.690  24.761  1.00  0.00     0.148 A 
ATOM     67  C   UNL A   1      48.649  25.721  25.944  1.00  0.00     0.002 A 
ATOM     68  C   UNL A   1      48.042  27.085  24.030  1.00  0.00     0.091 A 
ATOM     69  F   UNL A   1      46.235  28.634  24.234  1.00  0.00    -0.205 F 
ATOM     70  C   UNL A   1      48.855  26.102  24.621  1.00  0.00     0.022 A 
BRANCH  68  71
ATOM     71  S   UNL A   1      48.362  27.462  22.302  1.00  0.00     0.127 S 
ATOM     72  O   UNL A   1      49.549  28.311  22.401  1.00  0.00    -0.237 OA
ATOM     73  O   UNL A   1      48.606  26.134  21.740  1.00  0.00    -0.237 OA
ATOM     74  O   UNL A   1      47.168  28.130  21.807  1.00  0.00    -0.744 OA
ENDBRANCH  68  71
ENDBRANCH  50  64
BRANCH  51  75
ATOM     75  C   UNL A   1      38.658  30.491  30.875  1.00  0.00     0.023 A 
ATOM     76  C   UNL A   1      38.530  30.443  32.277  1.00  0.00     0.012 A 
ATOM     77  C   UNL A   1      37.634  31.081  30.110  1.00  0.00     0.148 A 
ATOM     78  C   UNL A   1      37.402  30.972  32.905  1.00  0.00     0.002 A 
ATOM     79  C   UNL A   1      36.536  31.649  30.745  1.00  0.00     0.091 A 
ATOM     80  F   UNL A   1      37.768  31.094  28.776  1.00  0.00    -0.205 F 
ATOM     81  C   UNL A   1      36.414  31.588  32.141  1.00  0.00     0.022 A 
BRANCH  79  82
ATOM     82  S   UNL A   1      35.285  32.571  29.845  1.00  0.00     0.127 S 
ATOM     83  O   UNL A   1      34.271  32.780  30.875  1.00  0.00    -0.237 OA
ATOM     84  O   UNL A   1      36.020  33.774  29.450  1.00  0.00    -0.237 OA
ATOM     85  O   UNL A   1      34.896  31.717  28.732  1.00  0.00    -0.744 OA
ENDBRANCH  79  82
ENDBRANCH  51  75
BRANCH  63  86
ATOM     86  C   UNL A   1      44.805  33.393  29.271  1.00  0.00     0.023 A 
ATOM     87  C   UNL A   1      45.644  33.531  30.393  1.00  0.00     0.012 A 
ATOM     88  C   UNL A   1      44.660  34.463  28.369  1.00  0.00     0.148 A 
ATOM     89  C   UNL A   1      46.333  34.721  30.616  1.00  0.00     0.002 A 
ATOM     90  C   UNL A   1      45.371  35.638  28.583  1.00  0.00     0.091 A 
ATOM     91  F   UNL A   1      43.849  34.303  27.313  1.00  0.00    -0.205 F 
ATOM     92  C   UNL A   1      46.204  35.769  29.706  1.00  0.00     0.022 A 
BRANCH  90  93
ATOM     93  S   UNL A   1      45.330  37.020  27.436  1.00  0.00     0.127 S 
ATOM     94  O   UNL A   1      43.900  37.127  27.150  1.00  0.00    -0.237 OA
ATOM     95  O   UNL A   1      45.875  38.109  28.246  1.00  0.00    -0.237 OA
ATOM     96  O   UNL A   1      46.159  36.630  26.303  1.00  0.00    -0.744 OA
ENDBRANCH  90  93
ENDBRANCH  63  86
ENDBRANCH  37  38
ENDBRANCH  29  32
ENDBRANCH  27  28
ENDBRANCH   1  27
TORSDOF 16
ENDMDL
