MODEL 1
REMARK VINA RESULT:     -13.2      0.000      0.000
REMARK SMILES CC(C)(C)c1cc(Nc2ccccc2C(=O)NCCCCNC(=O)c2ccc(-c3c4nc(c(-c5cccc(S(=O)(=O)[O-])c5F)c5ccc([nH]5)c(-c5cccc(S(=O)(=O)[O-])c5F)c5nc(c(-c6cccc(S(=O)(=O)[O-])c6F)c6ccc3[nH]6)C=C5)C=C4)cc2)cc2c1OCC2(C)C
REMARK SMILES IDX 19 1 18 2 17 3 15 4 16 5 14 7 9 8 10 9 11 10 13 11 12 12
REMARK SMILES IDX 8 13 7 15 5 16 6 17 90 18 89 19 91 20 88 21 93 22 92 23
REMARK SMILES IDX 94 24 95 25 2 26 1 27 3 28 4 29 20 30 21 31 22 32 23 33
REMARK SMILES IDX 24 35 25 36 26 37 87 38 27 39 86 40 28 41 29 42 30 43 80 44
REMARK SMILES IDX 31 45 85 46 79 47 81 48 32 49 84 50 78 51 77 52 33 54 65 55
REMARK SMILES IDX 45 56 64 57 46 58 49 59 63 60 82 61 47 62 48 63 62 65 83 66
REMARK SMILES IDX 50 67 34 68 35 69 43 70 36 71 38 72 44 73 37 74 39 75 40 76
REMARK SMILES IDX 41 77 42 78 66 79 67 80 75 81 68 82 70 83 76 84 69 85 71 86
REMARK SMILES IDX 72 87 73 88 74 89 51 90 52 91 60 92 53 93 55 94 61 95 54 96
REMARK SMILES IDX 56 97 57 98 58 99 59 100
REMARK H PARENT 17 6 8 14 22 34 81 53 49 64
REMARK Flexibility Score: inf
ROOT
ATOM      1  C   UNL A   1      33.979  28.558  24.268  1.00  0.00     0.023 C 
ENDROOT
BRANCH   1   2
ATOM      2  C   UNL A   1      33.734  27.092  23.949  1.00  0.00     0.116 C 
BRANCH   2   3
ATOM      3  N   UNL A   1      32.870  26.779  22.848  1.00  0.00    -0.352 N 
ATOM      4  C   UNL A   1      31.674  26.104  22.848  1.00  0.00     0.253 C 
ATOM      5  O   UNL A   1      31.088  26.049  21.760  1.00  0.00    -0.269 OA
ATOM      6  H   UNL A   1      33.179  27.092  21.968  1.00  0.00     0.163 HD
BRANCH   4   7
ATOM      7  C   UNL A   1      31.050  25.380  24.011  1.00  0.00     0.063 A 
ATOM      8  C   UNL A   1      31.068  24.008  24.352  1.00  0.00     0.051 A 
ATOM      9  C   UNL A   1      30.538  23.613  25.607  1.00  0.00     0.027 A 
ATOM     10  C   UNL A   1      29.915  24.509  26.470  1.00  0.00     0.002 A 
ATOM     11  C   UNL A   1      30.402  26.268  24.909  1.00  0.00     0.016 A 
ATOM     12  C   UNL A   1      29.826  25.841  26.108  1.00  0.00     0.001 A 
BRANCH   8  13
ATOM     13  N   UNL A   1      31.505  22.951  23.521  1.00  0.00    -0.355 N 
ATOM     14  H   UNL A   1      30.978  22.763  22.712  1.00  0.00     0.167 HD
BRANCH  13  15
ATOM     15  C   UNL A   1      32.646  22.138  23.760  1.00  0.00     0.039 A 
ATOM     16  C   UNL A   1      33.585  19.882  24.234  1.00  0.00     0.002 A 
ATOM     17  C   UNL A   1      32.538  20.725  23.776  1.00  0.00     0.034 A 
ATOM     18  C   UNL A   1      34.773  20.528  24.582  1.00  0.00     0.127 A 
ATOM     19  C   UNL A   1      34.911  21.903  24.545  1.00  0.00     0.006 A 
ATOM     20  O   UNL A   1      35.914  19.894  24.995  1.00  0.00    -0.492 OA
ATOM     21  C   UNL A   1      33.863  22.711  24.148  1.00  0.00     0.034 A 
ATOM     22  C   UNL A   1      36.266  22.318  24.998  1.00  0.00     0.028 C 
ATOM     23  C   UNL A   1      36.867  20.933  25.306  1.00  0.00     0.240 C 
ATOM     24  C   UNL A   1      37.022  23.030  23.874  1.00  0.00     0.020 C 
ATOM     25  C   UNL A   1      36.216  23.199  26.252  1.00  0.00     0.020 C 
BRANCH  16  26
ATOM     26  C   UNL A   1      33.433  18.358  24.390  1.00  0.00    -0.009 C 
ATOM     27  C   UNL A   1      34.764  17.593  24.269  1.00  0.00     0.016 C 
ATOM     28  C   UNL A   1      32.521  17.771  23.282  1.00  0.00     0.016 C 
ATOM     29  C   UNL A   1      32.841  18.030  25.773  1.00  0.00     0.016 C 
ENDBRANCH  16  26
ENDBRANCH  13  15
ENDBRANCH   8  13
ENDBRANCH   4   7
ENDBRANCH   2   3
ENDBRANCH   1   2
BRANCH   1  30
ATOM     30  C   UNL A   1      32.771  29.418  24.631  1.00  0.00     0.023 C 
BRANCH  30  31
ATOM     31  C   UNL A   1      32.385  29.515  26.104  1.00  0.00     0.116 C 
BRANCH  31  32
ATOM     32  N   UNL A   1      32.093  30.859  26.592  1.00  0.00    -0.352 N 
ATOM     33  C   UNL A   1      32.884  31.774  27.256  1.00  0.00     0.251 C 
ATOM     34  H   UNL A   1      31.174  31.165  26.419  1.00  0.00     0.163 HD
ATOM     35  O   UNL A   1      32.427  32.867  27.581  1.00  0.00    -0.269 OA
BRANCH  33  36
ATOM     36  C   UNL A   1      34.267  31.421  27.620  1.00  0.00     0.039 A 
ATOM     37  C   UNL A   1      34.588  30.097  27.895  1.00  0.00     0.014 A 
ATOM     38  C   UNL A   1      35.234  32.423  27.748  1.00  0.00     0.014 A 
ATOM     39  C   UNL A   1      35.775  29.814  28.550  1.00  0.00     0.010 A 
ATOM     40  C   UNL A   1      36.486  32.109  28.290  1.00  0.00     0.010 A 
ATOM     41  C   UNL A   1      36.738  30.817  28.770  1.00  0.00    -0.014 A 
BRANCH  41  42
ATOM     42  C   UNL A   1      37.969  30.458  29.525  1.00  0.00     0.031 A 
ATOM     43  C   UNL A   1      38.149  30.863  30.966  1.00  0.00     0.074 A 
ATOM     44  C   UNL A   1      38.876  29.654  28.931  1.00  0.00     0.049 A 
ATOM     45  N   UNL A   1      39.103  30.522  31.796  1.00  0.00    -0.248 NA
ATOM     46  C   UNL A   1      37.144  31.761  31.561  1.00  0.00     0.031 C 
ATOM     47  C   UNL A   1      38.817  29.210  27.535  1.00  0.00     0.029 A 
ATOM     48  N   UNL A   1      39.985  29.020  29.431  1.00  0.00    -0.354 N 
ATOM     49  C   UNL A   1      38.846  31.203  32.981  1.00  0.00     0.074 A 
ATOM     50  C   UNL A   1      37.642  31.972  32.774  1.00  0.00     0.031 C 
ATOM     51  C   UNL A   1      39.776  28.299  27.321  1.00  0.00     0.029 A 
ATOM     52  C   UNL A   1      40.564  28.148  28.538  1.00  0.00     0.049 A 
ATOM     53  H   UNL A   1      40.332  29.174  30.340  1.00  0.00     0.167 HD
ATOM     54  C   UNL A   1      39.542  31.173  34.141  1.00  0.00     0.034 A 
ATOM     55  C   UNL A   1      41.609  27.310  28.681  1.00  0.00     0.034 A 
ATOM     56  C   UNL A   1      40.691  30.340  34.373  1.00  0.00     0.049 A 
ATOM     57  C   UNL A   1      42.335  27.270  29.992  1.00  0.00     0.074 A 
ATOM     58  C   UNL A   1      41.428  30.206  35.537  1.00  0.00     0.029 A 
ATOM     59  N   UNL A   1      41.258  29.494  33.437  1.00  0.00    -0.354 N 
ATOM     60  N   UNL A   1      42.034  27.875  31.114  1.00  0.00    -0.248 NA
ATOM     61  C   UNL A   1      43.544  26.437  30.058  1.00  0.00     0.031 C 
ATOM     62  C   UNL A   1      42.445  29.277  35.303  1.00  0.00     0.029 A 
ATOM     63  C   UNL A   1      42.339  28.835  33.995  1.00  0.00     0.049 A 
ATOM     64  H   UNL A   1      40.941  29.379  32.511  1.00  0.00     0.167 HD
ATOM     65  C   UNL A   1      43.016  27.499  32.020  1.00  0.00     0.074 A 
ATOM     66  C   UNL A   1      43.903  26.587  31.327  1.00  0.00     0.031 C 
ATOM     67  C   UNL A   1      43.181  27.896  33.303  1.00  0.00     0.034 A 
BRANCH  54  68
ATOM     68  C   UNL A   1      39.069  32.020  35.289  1.00  0.00     0.023 A 
ATOM     69  C   UNL A   1      38.212  31.456  36.254  1.00  0.00     0.012 A 
ATOM     70  C   UNL A   1      39.593  33.312  35.494  1.00  0.00     0.148 A 
ATOM     71  C   UNL A   1      37.883  32.166  37.408  1.00  0.00     0.002 A 
ATOM     72  C   UNL A   1      39.282  34.002  36.659  1.00  0.00     0.091 A 
ATOM     73  F   UNL A   1      40.406  33.825  34.559  1.00  0.00    -0.205 F 
ATOM     74  C   UNL A   1      38.427  33.432  37.616  1.00  0.00     0.022 A 
BRANCH  72  75
ATOM     75  S   UNL A   1      39.971  35.615  37.054  1.00  0.00     0.127 S 
ATOM     76  O   UNL A   1      39.264  35.942  38.293  1.00  0.00    -0.237 OA
ATOM     77  O   UNL A   1      41.390  35.305  37.226  1.00  0.00    -0.237 OA
ATOM     78  O   UNL A   1      39.659  36.477  35.923  1.00  0.00    -0.744 OA
ENDBRANCH  72  75
ENDBRANCH  54  68
BRANCH  55  79
ATOM     79  C   UNL A   1      41.989  26.409  27.560  1.00  0.00     0.023 A 
ATOM     80  C   UNL A   1      42.878  26.876  26.573  1.00  0.00     0.012 A 
ATOM     81  C   UNL A   1      41.538  25.077  27.505  1.00  0.00     0.148 A 
ATOM     82  C   UNL A   1      43.306  26.032  25.547  1.00  0.00     0.002 A 
ATOM     83  C   UNL A   1      42.008  24.227  26.512  1.00  0.00     0.091 A 
ATOM     84  F   UNL A   1      40.676  24.660  28.444  1.00  0.00    -0.205 F 
ATOM     85  C   UNL A   1      42.884  24.705  25.526  1.00  0.00     0.022 A 
BRANCH  83  86
ATOM     86  S   UNL A   1      41.616  22.474  26.492  1.00  0.00     0.127 S 
ATOM     87  O   UNL A   1      42.402  22.007  25.353  1.00  0.00    -0.237 OA
ATOM     88  O   UNL A   1      42.105  22.036  27.800  1.00  0.00    -0.237 OA
ATOM     89  O   UNL A   1      40.169  22.400  26.339  1.00  0.00    -0.744 OA
ENDBRANCH  83  86
ENDBRANCH  55  79
BRANCH  67  90
ATOM     90  C   UNL A   1      44.365  27.362  34.055  1.00  0.00     0.023 A 
ATOM     91  C   UNL A   1      45.559  28.109  34.066  1.00  0.00     0.012 A 
ATOM     92  C   UNL A   1      44.258  26.199  34.839  1.00  0.00     0.148 A 
ATOM     93  C   UNL A   1      46.637  27.700  34.848  1.00  0.00     0.002 A 
ATOM     94  C   UNL A   1      45.325  25.815  35.641  1.00  0.00     0.091 A 
ATOM     95  F   UNL A   1      43.111  25.506  34.801  1.00  0.00    -0.205 F 
ATOM     96  C   UNL A   1      46.517  26.562  35.643  1.00  0.00     0.022 A 
BRANCH  94  97
ATOM     97  S   UNL A   1      45.243  24.409  36.754  1.00  0.00     0.127 S 
ATOM     98  O   UNL A   1      44.167  24.810  37.660  1.00  0.00    -0.237 OA
ATOM     99  O   UNL A   1      44.902  23.315  35.845  1.00  0.00    -0.237 OA
ATOM    100  O   UNL A   1      46.561  24.301  37.367  1.00  0.00    -0.744 OA
ENDBRANCH  94  97
ENDBRANCH  67  90
ENDBRANCH  41  42
ENDBRANCH  33  36
ENDBRANCH  31  32
ENDBRANCH  30  31
ENDBRANCH   1  30
TORSDOF 17
ENDMDL
MODEL 2
REMARK VINA RESULT:     -12.4      0.554      7.519
REMARK SMILES CC(C)(C)c1cc(Nc2ccccc2C(=O)NCCCCNC(=O)c2ccc(-c3c4nc(c(-c5cccc(S(=O)(=O)[O-])c5F)c5ccc([nH]5)c(-c5cccc(S(=O)(=O)[O-])c5F)c5nc(c(-c6cccc(S(=O)(=O)[O-])c6F)c6ccc3[nH]6)C=C5)C=C4)cc2)cc2c1OCC2(C)C
REMARK SMILES IDX 19 1 18 2 17 3 15 4 16 5 14 7 9 8 10 9 11 10 13 11 12 12
REMARK SMILES IDX 8 13 7 15 5 16 6 17 90 18 89 19 91 20 88 21 93 22 92 23
REMARK SMILES IDX 94 24 95 25 2 26 1 27 3 28 4 29 20 30 21 31 22 32 23 33
REMARK SMILES IDX 24 35 25 36 26 37 87 38 27 39 86 40 28 41 29 42 30 43 80 44
REMARK SMILES IDX 31 45 85 46 79 47 81 48 32 49 84 50 78 51 77 52 33 54 65 55
REMARK SMILES IDX 45 56 64 57 46 58 49 59 63 60 82 61 47 62 48 63 62 65 83 66
REMARK SMILES IDX 50 67 34 68 35 69 43 70 36 71 38 72 44 73 37 74 39 75 40 76
REMARK SMILES IDX 41 77 42 78 66 79 67 80 75 81 68 82 70 83 76 84 69 85 71 86
REMARK SMILES IDX 72 87 73 88 74 89 51 90 52 91 60 92 53 93 55 94 61 95 54 96
REMARK SMILES IDX 56 97 57 98 58 99 59 100
REMARK H PARENT 17 6 8 14 22 34 81 53 49 64
REMARK Flexibility Score: inf
ROOT
ATOM      1  C   UNL A   1      33.484  27.660  24.971  1.00  0.00     0.023 C 
ENDROOT
BRANCH   1   2
ATOM      2  C   UNL A   1      33.819  27.150  23.577  1.00  0.00     0.116 C 
BRANCH   2   3
ATOM      3  N   UNL A   1      32.775  27.146  22.595  1.00  0.00    -0.352 N 
ATOM      4  C   UNL A   1      31.510  26.616  22.673  1.00  0.00     0.253 C 
ATOM      5  O   UNL A   1      30.776  26.831  21.702  1.00  0.00    -0.269 OA
ATOM      6  H   UNL A   1      32.996  27.586  21.743  1.00  0.00     0.163 HD
BRANCH   4   7
ATOM      7  C   UNL A   1      30.964  25.755  23.781  1.00  0.00     0.063 A 
ATOM      8  C   UNL A   1      31.152  24.381  24.051  1.00  0.00     0.051 A 
ATOM      9  C   UNL A   1      30.655  23.853  25.271  1.00  0.00     0.027 A 
ATOM     10  C   UNL A   1      29.906  24.614  26.163  1.00  0.00     0.002 A 
ATOM     11  C   UNL A   1      30.191  26.504  24.708  1.00  0.00     0.016 A 
ATOM     12  C   UNL A   1      29.653  25.942  25.868  1.00  0.00     0.001 A 
BRANCH   8  13
ATOM     13  N   UNL A   1      31.737  23.435  23.179  1.00  0.00    -0.355 N 
ATOM     14  H   UNL A   1      31.380  23.382  22.263  1.00  0.00     0.167 HD
BRANCH  13  15
ATOM     15  C   UNL A   1      32.802  22.556  23.515  1.00  0.00     0.039 A 
ATOM     16  C   UNL A   1      33.547  20.264  24.137  1.00  0.00     0.002 A 
ATOM     17  C   UNL A   1      32.590  21.157  23.585  1.00  0.00     0.034 A 
ATOM     18  C   UNL A   1      34.759  20.840  24.523  1.00  0.00     0.127 A 
ATOM     19  C   UNL A   1      34.998  22.199  24.436  1.00  0.00     0.006 A 
ATOM     20  O   UNL A   1      35.827  20.147  25.026  1.00  0.00    -0.492 OA
ATOM     21  C   UNL A   1      34.035  23.059  23.947  1.00  0.00     0.034 A 
ATOM     22  C   UNL A   1      36.355  22.538  24.947  1.00  0.00     0.028 C 
ATOM     23  C   UNL A   1      36.836  21.130  25.346  1.00  0.00     0.240 C 
ATOM     24  C   UNL A   1      37.219  23.142  23.837  1.00  0.00     0.020 C 
ATOM     25  C   UNL A   1      36.302  23.477  26.157  1.00  0.00     0.020 C 
BRANCH  16  26
ATOM     26  C   UNL A   1      33.276  18.763  24.348  1.00  0.00    -0.009 C 
ATOM     27  C   UNL A   1      32.245  18.182  23.363  1.00  0.00     0.016 C 
ATOM     28  C   UNL A   1      32.694  18.493  25.759  1.00  0.00     0.016 C 
ATOM     29  C   UNL A   1      34.582  17.966  24.167  1.00  0.00     0.016 C 
ENDBRANCH  16  26
ENDBRANCH  13  15
ENDBRANCH   8  13
ENDBRANCH   4   7
ENDBRANCH   2   3
ENDBRANCH   1   2
BRANCH   1  30
ATOM     30  C   UNL A   1      32.901  29.065  25.092  1.00  0.00     0.023 C 
BRANCH  30  31
ATOM     31  C   UNL A   1      32.293  29.470  26.432  1.00  0.00     0.116 C 
BRANCH  31  32
ATOM     32  N   UNL A   1      32.235  30.904  26.691  1.00  0.00    -0.352 N 
ATOM     33  C   UNL A   1      33.173  31.769  27.217  1.00  0.00     0.251 C 
ATOM     34  H   UNL A   1      31.381  31.328  26.449  1.00  0.00     0.163 HD
ATOM     35  O   UNL A   1      32.908  32.962  27.351  1.00  0.00    -0.269 OA
BRANCH  33  36
ATOM     36  C   UNL A   1      34.478  31.253  27.665  1.00  0.00     0.039 A 
ATOM     37  C   UNL A   1      34.642  29.889  27.870  1.00  0.00     0.014 A 
ATOM     38  C   UNL A   1      35.523  32.140  27.940  1.00  0.00     0.014 A 
ATOM     39  C   UNL A   1      35.734  29.444  28.596  1.00  0.00     0.010 A 
ATOM     40  C   UNL A   1      36.686  31.665  28.557  1.00  0.00     0.010 A 
ATOM     41  C   UNL A   1      36.768  30.326  28.963  1.00  0.00    -0.014 A 
BRANCH  41  42
ATOM     42  C   UNL A   1      37.888  29.796  29.787  1.00  0.00     0.031 A 
ATOM     43  C   UNL A   1      38.967  28.935  29.180  1.00  0.00     0.074 A 
ATOM     44  C   UNL A   1      37.990  30.201  31.070  1.00  0.00     0.049 A 
ATOM     45  N   UNL A   1      40.071  28.501  29.734  1.00  0.00    -0.248 NA
ATOM     46  C   UNL A   1      38.797  28.498  27.783  1.00  0.00     0.031 C 
ATOM     47  C   UNL A   1      36.998  31.022  31.773  1.00  0.00     0.029 A 
ATOM     48  N   UNL A   1      38.991  30.034  31.994  1.00  0.00    -0.354 N 
ATOM     49  C   UNL A   1      40.693  27.702  28.780  1.00  0.00     0.074 A 
ATOM     50  C   UNL A   1      39.853  27.714  27.606  1.00  0.00     0.031 C 
ATOM     51  C   UNL A   1      37.485  31.374  32.970  1.00  0.00     0.029 A 
ATOM     52  C   UNL A   1      38.788  30.745  33.154  1.00  0.00     0.049 A 
ATOM     53  H   UNL A   1      39.777  29.461  31.840  1.00  0.00     0.167 HD
ATOM     54  C   UNL A   1      41.867  27.035  28.871  1.00  0.00     0.034 A 
ATOM     55  C   UNL A   1      39.564  30.886  34.245  1.00  0.00     0.034 A 
ATOM     56  C   UNL A   1      42.744  27.094  30.010  1.00  0.00     0.049 A 
ATOM     57  C   UNL A   1      40.879  30.167  34.300  1.00  0.00     0.074 A 
ATOM     58  C   UNL A   1      43.980  26.492  30.168  1.00  0.00     0.029 A 
ATOM     59  N   UNL A   1      42.489  27.803  31.170  1.00  0.00    -0.354 N 
ATOM     60  N   UNL A   1      41.471  29.470  33.361  1.00  0.00    -0.248 NA
ATOM     61  C   UNL A   1      41.630  30.248  35.560  1.00  0.00     0.031 C 
ATOM     62  C   UNL A   1      44.474  26.837  31.429  1.00  0.00     0.029 A 
ATOM     63  C   UNL A   1      43.543  27.652  32.052  1.00  0.00     0.049 A 
ATOM     64  H   UNL A   1      41.677  28.334  31.343  1.00  0.00     0.167 HD
ATOM     65  C   UNL A   1      42.664  29.028  33.916  1.00  0.00     0.074 A 
ATOM     66  C   UNL A   1      42.726  29.562  35.262  1.00  0.00     0.031 C 
ATOM     67  C   UNL A   1      43.608  28.229  33.369  1.00  0.00     0.034 A 
BRANCH  54  68
ATOM     68  C   UNL A   1      42.325  26.215  27.698  1.00  0.00     0.023 A 
ATOM     69  C   UNL A   1      43.280  26.754  26.813  1.00  0.00     0.012 A 
ATOM     70  C   UNL A   1      41.932  24.869  27.563  1.00  0.00     0.148 A 
ATOM     71  C   UNL A   1      43.838  25.962  25.809  1.00  0.00     0.002 A 
ATOM     72  C   UNL A   1      42.512  24.080  26.577  1.00  0.00     0.091 A 
ATOM     73  F   UNL A   1      41.021  24.383  28.418  1.00  0.00    -0.205 F 
ATOM     74  C   UNL A   1      43.463  24.624  25.699  1.00  0.00     0.022 A 
BRANCH  72  75
ATOM     75  S   UNL A   1      42.144  22.331  26.382  1.00  0.00     0.127 S 
ATOM     76  O   UNL A   1      42.947  21.990  25.207  1.00  0.00    -0.237 OA
ATOM     77  O   UNL A   1      42.639  21.774  27.641  1.00  0.00    -0.237 OA
ATOM     78  O   UNL A   1      40.704  22.239  26.189  1.00  0.00    -0.744 OA
ENDBRANCH  72  75
ENDBRANCH  54  68
BRANCH  55  79
ATOM     79  C   UNL A   1      39.130  31.786  35.347  1.00  0.00     0.023 A 
ATOM     80  C   UNL A   1      38.298  31.279  36.363  1.00  0.00     0.012 A 
ATOM     81  C   UNL A   1      39.593  33.112  35.434  1.00  0.00     0.148 A 
ATOM     82  C   UNL A   1      37.931  32.079  37.445  1.00  0.00     0.002 A 
ATOM     83  C   UNL A   1      39.267  33.888  36.540  1.00  0.00     0.091 A 
ATOM     84  F   UNL A   1      40.368  33.580  34.445  1.00  0.00    -0.205 F 
ATOM     85  C   UNL A   1      38.427  33.377  37.541  1.00  0.00     0.022 A 
BRANCH  83  86
ATOM     86  S   UNL A   1      39.970  35.520  36.803  1.00  0.00     0.127 S 
ATOM     87  O   UNL A   1      41.402  35.230  36.802  1.00  0.00    -0.237 OA
ATOM     88  O   UNL A   1      39.488  36.253  35.632  1.00  0.00    -0.237 OA
ATOM     89  O   UNL A   1      39.416  35.983  38.068  1.00  0.00    -0.744 OA
ENDBRANCH  83  86
ENDBRANCH  55  79
BRANCH  67  90
ATOM     90  C   UNL A   1      44.796  27.867  34.213  1.00  0.00     0.023 A 
ATOM     91  C   UNL A   1      45.878  28.764  34.285  1.00  0.00     0.012 A 
ATOM     92  C   UNL A   1      44.784  26.714  35.018  1.00  0.00     0.148 A 
ATOM     93  C   UNL A   1      46.942  28.513  35.148  1.00  0.00     0.002 A 
ATOM     94  C   UNL A   1      45.833  26.487  35.900  1.00  0.00     0.091 A 
ATOM     95  F   UNL A   1      43.743  25.877  34.920  1.00  0.00    -0.205 F 
ATOM     96  C   UNL A   1      46.915  27.383  35.964  1.00  0.00     0.022 A 
BRANCH  94  97
ATOM     97  S   UNL A   1      45.855  25.101  37.042  1.00  0.00     0.127 S 
ATOM     98  O   UNL A   1      46.325  24.016  36.181  1.00  0.00    -0.237 OA
ATOM     99  O   UNL A   1      46.818  25.546  38.048  1.00  0.00    -0.237 OA
ATOM    100  O   UNL A   1      44.489  24.958  37.529  1.00  0.00    -0.744 OA
ENDBRANCH  94  97
ENDBRANCH  67  90
ENDBRANCH  41  42
ENDBRANCH  33  36
ENDBRANCH  31  32
ENDBRANCH  30  31
ENDBRANCH   1  30
TORSDOF 17
ENDMDL
MODEL 3
REMARK VINA RESULT:     -12.4      1.349      2.428
REMARK SMILES CC(C)(C)c1cc(Nc2ccccc2C(=O)NCCCCNC(=O)c2ccc(-c3c4nc(c(-c5cccc(S(=O)(=O)[O-])c5F)c5ccc([nH]5)c(-c5cccc(S(=O)(=O)[O-])c5F)c5nc(c(-c6cccc(S(=O)(=O)[O-])c6F)c6ccc3[nH]6)C=C5)C=C4)cc2)cc2c1OCC2(C)C
REMARK SMILES IDX 19 1 18 2 17 3 15 4 16 5 14 7 9 8 10 9 11 10 13 11 12 12
REMARK SMILES IDX 8 13 7 15 5 16 6 17 90 18 89 19 91 20 88 21 93 22 92 23
REMARK SMILES IDX 94 24 95 25 2 26 1 27 3 28 4 29 20 30 21 31 22 32 23 33
REMARK SMILES IDX 24 35 25 36 26 37 87 38 27 39 86 40 28 41 29 42 30 43 80 44
REMARK SMILES IDX 31 45 85 46 79 47 81 48 32 49 84 50 78 51 77 52 33 54 65 55
REMARK SMILES IDX 45 56 64 57 46 58 49 59 63 60 82 61 47 62 48 63 62 65 83 66
REMARK SMILES IDX 50 67 34 68 35 69 43 70 36 71 38 72 44 73 37 74 39 75 40 76
REMARK SMILES IDX 41 77 42 78 66 79 67 80 75 81 68 82 70 83 76 84 69 85 71 86
REMARK SMILES IDX 72 87 73 88 74 89 51 90 52 91 60 92 53 93 55 94 61 95 54 96
REMARK SMILES IDX 56 97 57 98 58 99 59 100
REMARK H PARENT 17 6 8 14 22 34 81 53 49 64
REMARK Flexibility Score: inf
ROOT
ATOM      1  C   UNL A   1      32.238  29.053  23.825  1.00  0.00     0.023 C 
ENDROOT
BRANCH   1   2
ATOM      2  C   UNL A   1      32.940  27.711  23.967  1.00  0.00     0.116 C 
BRANCH   2   3
ATOM      3  N   UNL A   1      32.729  26.731  22.942  1.00  0.00    -0.352 N 
ATOM      4  C   UNL A   1      31.933  25.612  22.961  1.00  0.00     0.253 C 
ATOM      5  O   UNL A   1      31.869  24.980  21.900  1.00  0.00    -0.269 OA
ATOM      6  H   UNL A   1      33.225  26.883  22.106  1.00  0.00     0.163 HD
BRANCH   4   7
ATOM      7  C   UNL A   1      31.199  25.051  24.149  1.00  0.00     0.063 A 
ATOM      8  C   UNL A   1      31.096  23.722  24.620  1.00  0.00     0.051 A 
ATOM      9  C   UNL A   1      30.475  23.491  25.874  1.00  0.00     0.027 A 
ATOM     10  C   UNL A   1      29.879  24.509  26.611  1.00  0.00     0.002 A 
ATOM     11  C   UNL A   1      30.575  26.067  24.920  1.00  0.00     0.016 A 
ATOM     12  C   UNL A   1      29.909  25.802  26.119  1.00  0.00     0.001 A 
BRANCH   8  13
ATOM     13  N   UNL A   1      31.494  22.560  23.920  1.00  0.00    -0.355 N 
ATOM     14  H   UNL A   1      30.974  22.311  23.123  1.00  0.00     0.167 HD
BRANCH  13  15
ATOM     15  C   UNL A   1      32.587  21.723  24.273  1.00  0.00     0.039 A 
ATOM     16  C   UNL A   1      35.039  21.457  24.604  1.00  0.00     0.002 A 
ATOM     17  C   UNL A   1      33.879  22.266  24.480  1.00  0.00     0.034 A 
ATOM     18  C   UNL A   1      34.818  20.079  24.605  1.00  0.00     0.127 A 
ATOM     19  C   UNL A   1      33.563  19.526  24.435  1.00  0.00     0.006 A 
ATOM     20  O   UNL A   1      35.794  19.132  24.766  1.00  0.00    -0.492 OA
ATOM     21  C   UNL A   1      32.452  20.329  24.261  1.00  0.00     0.034 A 
ATOM     22  C   UNL A   1      33.626  18.039  24.444  1.00  0.00     0.028 C 
ATOM     23  C   UNL A   1      35.141  17.850  24.641  1.00  0.00     0.240 C 
ATOM     24  C   UNL A   1      32.822  17.467  25.615  1.00  0.00     0.020 C 
ATOM     25  C   UNL A   1      33.151  17.429  23.120  1.00  0.00     0.020 C 
BRANCH  16  26
ATOM     26  C   UNL A   1      36.465  22.035  24.689  1.00  0.00    -0.009 C 
ATOM     27  C   UNL A   1      37.528  20.989  25.070  1.00  0.00     0.016 C 
ATOM     28  C   UNL A   1      36.559  23.132  25.780  1.00  0.00     0.016 C 
ATOM     29  C   UNL A   1      36.871  22.625  23.326  1.00  0.00     0.016 C 
ENDBRANCH  16  26
ENDBRANCH  13  15
ENDBRANCH   8  13
ENDBRANCH   4   7
ENDBRANCH   2   3
ENDBRANCH   1   2
BRANCH   1  30
ATOM     30  C   UNL A   1      31.470  29.585  25.033  1.00  0.00     0.023 C 
BRANCH  30  31
ATOM     31  C   UNL A   1      32.276  30.004  26.259  1.00  0.00     0.116 C 
BRANCH  31  32
ATOM     32  N   UNL A   1      32.023  31.355  26.748  1.00  0.00    -0.352 N 
ATOM     33  C   UNL A   1      32.848  32.255  27.390  1.00  0.00     0.251 C 
ATOM     34  H   UNL A   1      31.107  31.679  26.594  1.00  0.00     0.163 HD
ATOM     35  O   UNL A   1      32.420  33.359  27.721  1.00  0.00    -0.269 OA
BRANCH  33  36
ATOM     36  C   UNL A   1      34.231  31.875  27.724  1.00  0.00     0.039 A 
ATOM     37  C   UNL A   1      34.536  30.541  27.965  1.00  0.00     0.014 A 
ATOM     38  C   UNL A   1      35.214  32.861  27.858  1.00  0.00     0.014 A 
ATOM     39  C   UNL A   1      35.729  30.227  28.594  1.00  0.00     0.010 A 
ATOM     40  C   UNL A   1      36.469  32.517  28.373  1.00  0.00     0.010 A 
ATOM     41  C   UNL A   1      36.710  31.211  28.820  1.00  0.00    -0.014 A 
BRANCH  41  42
ATOM     42  C   UNL A   1      37.948  30.818  29.548  1.00  0.00     0.031 A 
ATOM     43  C   UNL A   1      38.162  31.201  30.991  1.00  0.00     0.074 A 
ATOM     44  C   UNL A   1      38.827  30.005  28.927  1.00  0.00     0.049 A 
ATOM     45  N   UNL A   1      39.125  30.830  31.797  1.00  0.00    -0.248 NA
ATOM     46  C   UNL A   1      37.187  32.111  31.616  1.00  0.00     0.031 C 
ATOM     47  C   UNL A   1      38.734  29.580  27.527  1.00  0.00     0.029 A 
ATOM     48  N   UNL A   1      39.933  29.342  29.398  1.00  0.00    -0.354 N 
ATOM     49  C   UNL A   1      38.903  31.500  32.996  1.00  0.00     0.074 A 
ATOM     50  C   UNL A   1      37.711  32.296  32.821  1.00  0.00     0.031 C 
ATOM     51  C   UNL A   1      39.670  28.653  27.283  1.00  0.00     0.029 A 
ATOM     52  C   UNL A   1      40.478  28.471  28.483  1.00  0.00     0.049 A 
ATOM     53  H   UNL A   1      40.300  29.478  30.302  1.00  0.00     0.167 HD
ATOM     54  C   UNL A   1      39.620  31.442  34.142  1.00  0.00     0.034 A 
ATOM     55  C   UNL A   1      41.508  27.611  28.596  1.00  0.00     0.034 A 
ATOM     56  C   UNL A   1      40.756  30.584  34.342  1.00  0.00     0.049 A 
ATOM     57  C   UNL A   1      42.258  27.539  29.892  1.00  0.00     0.074 A 
ATOM     58  C   UNL A   1      41.512  30.421  35.490  1.00  0.00     0.029 A 
ATOM     59  N   UNL A   1      41.290  29.739  33.384  1.00  0.00    -0.354 N 
ATOM     60  N   UNL A   1      41.989  28.136  31.027  1.00  0.00    -0.248 NA
ATOM     61  C   UNL A   1      43.451  26.682  29.925  1.00  0.00     0.031 C 
ATOM     62  C   UNL A   1      42.506  29.475  35.226  1.00  0.00     0.029 A 
ATOM     63  C   UNL A   1      42.367  29.052  33.914  1.00  0.00     0.049 A 
ATOM     64  H   UNL A   1      40.953  29.642  32.464  1.00  0.00     0.167 HD
ATOM     65  C   UNL A   1      42.980  27.729  31.910  1.00  0.00     0.074 A 
ATOM     66  C   UNL A   1      43.837  26.809  31.188  1.00  0.00     0.031 C 
ATOM     67  C   UNL A   1      43.178  28.106  33.194  1.00  0.00     0.034 A 
BRANCH  54  68
ATOM     68  C   UNL A   1      39.186  32.283  35.310  1.00  0.00     0.023 A 
ATOM     69  C   UNL A   1      38.370  31.711  36.305  1.00  0.00     0.012 A 
ATOM     70  C   UNL A   1      39.707  33.579  35.497  1.00  0.00     0.148 A 
ATOM     71  C   UNL A   1      38.081  32.416  37.473  1.00  0.00     0.002 A 
ATOM     72  C   UNL A   1      39.436  34.264  36.675  1.00  0.00     0.091 A 
ATOM     73  F   UNL A   1      40.479  34.100  34.533  1.00  0.00    -0.205 F 
ATOM     74  C   UNL A   1      38.622  33.685  37.663  1.00  0.00     0.022 A 
BRANCH  72  75
ATOM     75  S   UNL A   1      40.128  35.881  37.047  1.00  0.00     0.127 S 
ATOM     76  O   UNL A   1      39.707  36.657  35.880  1.00  0.00    -0.237 OA
ATOM     77  O   UNL A   1      39.440  36.227  38.290  1.00  0.00    -0.237 OA
ATOM     78  O   UNL A   1      41.566  35.688  37.170  1.00  0.00    -0.744 OA
ENDBRANCH  72  75
ENDBRANCH  54  68
BRANCH  55  79
ATOM     79  C   UNL A   1      41.850  26.717  27.456  1.00  0.00     0.023 A 
ATOM     80  C   UNL A   1      42.580  27.236  26.370  1.00  0.00     0.012 A 
ATOM     81  C   UNL A   1      41.523  25.349  27.475  1.00  0.00     0.148 A 
ATOM     82  C   UNL A   1      42.973  26.406  25.319  1.00  0.00     0.002 A 
ATOM     83  C   UNL A   1      41.962  24.517  26.452  1.00  0.00     0.091 A 
ATOM     84  F   UNL A   1      40.810  24.881  28.510  1.00  0.00    -0.205 F 
ATOM     85  C   UNL A   1      42.679  25.046  25.368  1.00  0.00     0.022 A 
BRANCH  83  86
ATOM     86  S   UNL A   1      41.738  22.736  26.507  1.00  0.00     0.127 S 
ATOM     87  O   UNL A   1      40.282  22.620  26.511  1.00  0.00    -0.237 OA
ATOM     88  O   UNL A   1      42.388  22.308  25.267  1.00  0.00    -0.237 OA
ATOM     89  O   UNL A   1      42.415  22.296  27.719  1.00  0.00    -0.744 OA
ENDBRANCH  83  86
ENDBRANCH  55  79
BRANCH  67  90
ATOM     90  C   UNL A   1      44.364  27.539  33.917  1.00  0.00     0.023 A 
ATOM     91  C   UNL A   1      44.231  26.304  34.580  1.00  0.00     0.012 A 
ATOM     92  C   UNL A   1      45.624  28.159  33.835  1.00  0.00     0.148 A 
ATOM     93  C   UNL A   1      45.341  25.694  35.160  1.00  0.00     0.002 A 
ATOM     94  C   UNL A   1      46.733  27.530  34.388  1.00  0.00     0.091 A 
ATOM     95  F   UNL A   1      45.716  29.338  33.204  1.00  0.00    -0.205 F 
ATOM     96  C   UNL A   1      46.592  26.300  35.054  1.00  0.00     0.022 A 
BRANCH  94  97
ATOM     97  S   UNL A   1      48.395  28.193  34.241  1.00  0.00     0.127 S 
ATOM     98  O   UNL A   1      49.182  27.174  34.934  1.00  0.00    -0.237 OA
ATOM     99  O   UNL A   1      48.585  28.232  32.792  1.00  0.00    -0.237 OA
ATOM    100  O   UNL A   1      48.367  29.499  34.887  1.00  0.00    -0.744 OA
ENDBRANCH  94  97
ENDBRANCH  67  90
ENDBRANCH  41  42
ENDBRANCH  33  36
ENDBRANCH  31  32
ENDBRANCH  30  31
ENDBRANCH   1  30
TORSDOF 17
ENDMDL
