MODEL 1
REMARK VINA RESULT:     -13.8      0.000      0.000
REMARK SMILES Cc1ccc(-c2nc(NC(=O)[C@H]3[C@@H](C(=O)NCCCCNC(=O)c4ccc(-c5c6nc(c(-c7cccc(S(=O)(=O)[O-])c7F)c7ccc([nH]7)c(-c7cccc(S(=O)(=O)[O-])c7F)c7nc(c(-c8cccc(S(=O)(=O)[O-])c8F)c8ccc5[nH]8)C=C7)C=C6)cc4)[C@@H]4CC[C@H]3O4)sc2C)cc1
REMARK SMILES IDX 18 1 17 2 16 3 14 4 15 5 13 7 12 8 90 9 87 10 89 11 91 12
REMARK SMILES IDX 88 13 10 14 9 15 11 17 8 18 6 19 7 20 93 21 92 22 94 23 5 24
REMARK SMILES IDX 1 25 2 26 3 27 96 28 4 29 95 30 19 31 20 32 21 33 22 34
REMARK SMILES IDX 23 36 24 37 25 38 86 39 26 40 85 41 27 42 28 43 29 44 79 45
REMARK SMILES IDX 30 46 84 47 78 48 80 49 31 50 83 51 77 52 76 53 32 55 64 56
REMARK SMILES IDX 44 57 63 58 45 59 48 60 62 61 81 62 46 63 47 64 61 66 82 67
REMARK SMILES IDX 49 68 33 69 34 70 42 71 35 72 37 73 43 74 36 75 38 76 39 77
REMARK SMILES IDX 40 78 41 79 65 80 66 81 74 82 67 83 69 84 75 85 68 86 70 87
REMARK SMILES IDX 71 88 72 89 73 90 50 91 51 92 59 93 52 94 54 95 60 96 53 97
REMARK SMILES IDX 55 98 56 99 57 100 58 101
REMARK H PARENT 16 6 9 16 21 35 80 54 48 65
REMARK Flexibility Score: inf
ROOT
ATOM      1  C   UNL A   1      36.772  23.123  23.707  1.00  0.00     0.023 C 
ENDROOT
BRANCH   1   2
ATOM      2  C   UNL A   1      35.650  23.951  24.341  1.00  0.00     0.116 C 
BRANCH   2   3
ATOM      3  N   UNL A   1      34.488  24.317  23.546  1.00  0.00    -0.356 N 
ATOM      4  C   UNL A   1      33.990  25.584  23.375  1.00  0.00     0.226 C 
ATOM      5  O   UNL A   1      33.850  26.047  22.243  1.00  0.00    -0.275 OA
ATOM      6  H   UNL A   1      34.012  23.586  23.089  1.00  0.00     0.163 HD
BRANCH   4   7
ATOM      7  C   UNL A   1      33.674  26.390  24.595  1.00  0.00     0.122 C 
ATOM      8  C   UNL A   1      32.922  25.866  25.817  1.00  0.00     0.123 C 
ATOM      9  C   UNL A   1      32.548  27.234  26.433  1.00  0.00     0.132 C 
ATOM     10  C   UNL A   1      32.997  27.779  24.381  1.00  0.00     0.132 C 
ATOM     11  C   UNL A   1      33.751  28.223  26.550  1.00  0.00     0.035 C 
ATOM     12  O   UNL A   1      31.850  27.762  25.286  1.00  0.00    -0.373 OA
ATOM     13  C   UNL A   1      33.818  28.821  25.132  1.00  0.00     0.035 C 
BRANCH   8  14
ATOM     14  C   UNL A   1      31.699  24.912  26.058  1.00  0.00     0.232 C 
ATOM     15  N   UNL A   1      31.302  23.673  25.674  1.00  0.00    -0.302 N 
ATOM     16  H   UNL A   1      30.399  23.479  26.011  1.00  0.00     0.172 HD
ATOM     17  O   UNL A   1      30.827  25.440  26.793  1.00  0.00    -0.274 OA
BRANCH  15  18
ATOM     18  C   UNL A   1      31.787  22.612  24.957  1.00  0.00     0.190 A 
ATOM     19  C   UNL A   1      32.583  20.597  24.368  1.00  0.00     0.086 A 
ATOM     20  N   UNL A   1      32.291  21.484  25.440  1.00  0.00    -0.220 NA
ATOM     21  C   UNL A   1      32.083  21.049  23.156  1.00  0.00     0.031 A 
ATOM     22  S   UNL A   1      31.771  22.689  23.308  1.00  0.00    -0.101 S 
ATOM     23  C   UNL A   1      31.812  20.462  21.823  1.00  0.00     0.059 C 
BRANCH  19  24
ATOM     24  C   UNL A   1      33.294  19.313  24.477  1.00  0.00     0.001 A 
ATOM     25  C   UNL A   1      35.187  15.459  25.133  1.00  0.00     0.044 C 
ATOM     26  C   UNL A   1      34.540  16.790  24.881  1.00  0.00    -0.051 A 
ATOM     27  C   UNL A   1      35.300  17.942  24.624  1.00  0.00     0.004 A 
ATOM     28  C   UNL A   1      33.152  16.893  24.872  1.00  0.00     0.004 A 
ATOM     29  C   UNL A   1      34.684  19.196  24.426  1.00  0.00     0.010 A 
ATOM     30  C   UNL A   1      32.547  18.129  24.648  1.00  0.00     0.010 A 
ENDBRANCH  19  24
ENDBRANCH  15  18
ENDBRANCH   8  14
ENDBRANCH   4   7
ENDBRANCH   2   3
ENDBRANCH   1   2
BRANCH   1  31
ATOM     31  C   UNL A   1      37.408  22.022  24.547  1.00  0.00     0.023 C 
BRANCH  31  32
ATOM     32  C   UNL A   1      37.762  22.452  25.954  1.00  0.00     0.116 C 
BRANCH  32  33
ATOM     33  N   UNL A   1      39.172  22.277  26.264  1.00  0.00    -0.352 N 
ATOM     34  C   UNL A   1      40.178  23.223  26.445  1.00  0.00     0.251 C 
ATOM     35  H   UNL A   1      39.461  21.341  26.361  1.00  0.00     0.163 HD
ATOM     36  O   UNL A   1      41.326  22.879  26.442  1.00  0.00    -0.269 OA
BRANCH  34  37
ATOM     37  C   UNL A   1      39.769  24.608  26.814  1.00  0.00     0.039 A 
ATOM     38  C   UNL A   1      40.506  25.648  26.234  1.00  0.00     0.014 A 
ATOM     39  C   UNL A   1      38.979  24.839  27.931  1.00  0.00     0.014 A 
ATOM     40  C   UNL A   1      40.679  26.832  26.941  1.00  0.00     0.010 A 
ATOM     41  C   UNL A   1      39.258  25.940  28.698  1.00  0.00     0.010 A 
ATOM     42  C   UNL A   1      40.150  26.908  28.222  1.00  0.00    -0.014 A 
BRANCH  42  43
ATOM     43  C   UNL A   1      40.366  28.002  29.145  1.00  0.00     0.031 A 
ATOM     44  C   UNL A   1      39.448  29.148  29.073  1.00  0.00     0.074 A 
ATOM     45  C   UNL A   1      41.228  27.846  30.172  1.00  0.00     0.049 A 
ATOM     46  N   UNL A   1      39.673  30.285  29.629  1.00  0.00    -0.248 NA
ATOM     47  C   UNL A   1      38.184  29.086  28.347  1.00  0.00     0.031 C 
ATOM     48  C   UNL A   1      41.287  28.629  31.399  1.00  0.00     0.029 A 
ATOM     49  N   UNL A   1      42.381  27.058  30.213  1.00  0.00    -0.354 N 
ATOM     50  C   UNL A   1      38.497  30.999  29.575  1.00  0.00     0.074 A 
ATOM     51  C   UNL A   1      37.621  30.238  28.716  1.00  0.00     0.031 C 
ATOM     52  C   UNL A   1      42.519  28.516  31.920  1.00  0.00     0.029 A 
ATOM     53  C   UNL A   1      43.327  27.800  30.947  1.00  0.00     0.049 A 
ATOM     54  H   UNL A   1      42.506  26.167  29.812  1.00  0.00     0.167 HD
ATOM     55  C   UNL A   1      38.346  32.077  30.390  1.00  0.00     0.034 A 
ATOM     56  C   UNL A   1      44.497  28.250  30.402  1.00  0.00     0.034 A 
ATOM     57  C   UNL A   1      39.571  32.326  31.162  1.00  0.00     0.049 A 
ATOM     58  C   UNL A   1      44.604  29.772  30.381  1.00  0.00     0.074 A 
ATOM     59  C   UNL A   1      40.005  31.981  32.431  1.00  0.00     0.029 A 
ATOM     60  N   UNL A   1      40.697  32.745  30.479  1.00  0.00    -0.354 N 
ATOM     61  N   UNL A   1      43.708  30.590  30.864  1.00  0.00    -0.248 NA
ATOM     62  C   UNL A   1      45.700  30.485  29.723  1.00  0.00     0.031 C 
ATOM     63  C   UNL A   1      41.422  32.154  32.476  1.00  0.00     0.029 A 
ATOM     64  C   UNL A   1      41.843  32.623  31.244  1.00  0.00     0.049 A 
ATOM     65  H   UNL A   1      40.686  33.089  29.556  1.00  0.00     0.167 HD
ATOM     66  C   UNL A   1      43.988  31.870  30.452  1.00  0.00     0.074 A 
ATOM     67  C   UNL A   1      45.270  31.757  29.778  1.00  0.00     0.031 C 
ATOM     68  C   UNL A   1      43.130  32.923  30.627  1.00  0.00     0.034 A 
BRANCH  55  69
ATOM     69  C   UNL A   1      37.012  32.712  30.704  1.00  0.00     0.023 A 
ATOM     70  C   UNL A   1      36.484  32.485  31.994  1.00  0.00     0.012 A 
ATOM     71  C   UNL A   1      36.204  33.465  29.820  1.00  0.00     0.148 A 
ATOM     72  C   UNL A   1      35.197  32.883  32.358  1.00  0.00     0.002 A 
ATOM     73  C   UNL A   1      34.888  33.795  30.156  1.00  0.00     0.091 A 
ATOM     74  F   UNL A   1      36.725  33.936  28.681  1.00  0.00    -0.205 F 
ATOM     75  C   UNL A   1      34.383  33.504  31.426  1.00  0.00     0.022 A 
BRANCH  73  76
ATOM     76  S   UNL A   1      33.732  34.496  28.965  1.00  0.00     0.127 S 
ATOM     77  O   UNL A   1      34.525  35.569  28.359  1.00  0.00    -0.237 OA
ATOM     78  O   UNL A   1      33.465  33.367  28.079  1.00  0.00    -0.237 OA
ATOM     79  O   UNL A   1      32.597  34.975  29.747  1.00  0.00    -0.744 OA
ENDBRANCH  73  76
ENDBRANCH  55  69
BRANCH  56  80
ATOM     80  C   UNL A   1      45.039  27.332  29.354  1.00  0.00     0.023 A 
ATOM     81  C   UNL A   1      45.398  26.027  29.774  1.00  0.00     0.012 A 
ATOM     82  C   UNL A   1      44.822  27.567  27.985  1.00  0.00     0.148 A 
ATOM     83  C   UNL A   1      45.389  24.957  28.877  1.00  0.00     0.002 A 
ATOM     84  C   UNL A   1      44.831  26.496  27.094  1.00  0.00     0.091 A 
ATOM     85  F   UNL A   1      44.526  28.810  27.586  1.00  0.00    -0.205 F 
ATOM     86  C   UNL A   1      45.067  25.188  27.545  1.00  0.00     0.022 A 
BRANCH  84  87
ATOM     87  S   UNL A   1      44.417  26.714  25.360  1.00  0.00     0.127 S 
ATOM     88  O   UNL A   1      43.873  25.401  25.027  1.00  0.00    -0.237 OA
ATOM     89  O   UNL A   1      43.434  27.795  25.408  1.00  0.00    -0.237 OA
ATOM     90  O   UNL A   1      45.672  27.075  24.719  1.00  0.00    -0.744 OA
ENDBRANCH  84  87
ENDBRANCH  56  80
BRANCH  68  91
ATOM     91  C   UNL A   1      43.462  34.349  30.231  1.00  0.00     0.023 A 
ATOM     92  C   UNL A   1      43.643  35.337  31.220  1.00  0.00     0.012 A 
ATOM     93  C   UNL A   1      43.446  34.789  28.883  1.00  0.00     0.148 A 
ATOM     94  C   UNL A   1      43.850  36.681  30.889  1.00  0.00     0.002 A 
ATOM     95  C   UNL A   1      43.536  36.140  28.565  1.00  0.00     0.091 A 
ATOM     96  F   UNL A   1      43.397  33.894  27.889  1.00  0.00    -0.205 F 
ATOM     97  C   UNL A   1      43.772  37.087  29.563  1.00  0.00     0.022 A 
BRANCH  95  98
ATOM     98  S   UNL A   1      43.222  36.758  26.904  1.00  0.00     0.127 S 
ATOM     99  O   UNL A   1      41.973  37.499  27.092  1.00  0.00    -0.237 OA
ATOM    100  O   UNL A   1      44.397  37.594  26.667  1.00  0.00    -0.237 OA
ATOM    101  O   UNL A   1      43.097  35.580  26.057  1.00  0.00    -0.744 OA
ENDBRANCH  95  98
ENDBRANCH  68  91
ENDBRANCH  42  43
ENDBRANCH  34  37
ENDBRANCH  32  33
ENDBRANCH  31  32
ENDBRANCH   1  31
TORSDOF 17
ENDMDL
MODEL 2
REMARK VINA RESULT:     -13.5      4.114      9.332
REMARK SMILES Cc1ccc(-c2nc(NC(=O)[C@H]3[C@@H](C(=O)NCCCCNC(=O)c4ccc(-c5c6nc(c(-c7cccc(S(=O)(=O)[O-])c7F)c7ccc([nH]7)c(-c7cccc(S(=O)(=O)[O-])c7F)c7nc(c(-c8cccc(S(=O)(=O)[O-])c8F)c8ccc5[nH]8)C=C7)C=C6)cc4)[C@@H]4CC[C@H]3O4)sc2C)cc1
REMARK SMILES IDX 18 1 17 2 16 3 14 4 15 5 13 7 12 8 90 9 87 10 89 11 91 12
REMARK SMILES IDX 88 13 10 14 9 15 11 17 8 18 6 19 7 20 93 21 92 22 94 23 5 24
REMARK SMILES IDX 1 25 2 26 3 27 96 28 4 29 95 30 19 31 20 32 21 33 22 34
REMARK SMILES IDX 23 36 24 37 25 38 86 39 26 40 85 41 27 42 28 43 29 44 79 45
REMARK SMILES IDX 30 46 84 47 78 48 80 49 31 50 83 51 77 52 76 53 32 55 64 56
REMARK SMILES IDX 44 57 63 58 45 59 48 60 62 61 81 62 46 63 47 64 61 66 82 67
REMARK SMILES IDX 49 68 33 69 34 70 42 71 35 72 37 73 43 74 36 75 38 76 39 77
REMARK SMILES IDX 40 78 41 79 65 80 66 81 74 82 67 83 69 84 75 85 68 86 70 87
REMARK SMILES IDX 71 88 72 89 73 90 50 91 51 92 59 93 52 94 54 95 60 96 53 97
REMARK SMILES IDX 55 98 56 99 57 100 58 101
REMARK H PARENT 16 6 9 16 21 35 80 54 48 65
REMARK Flexibility Score: inf
ROOT
ATOM      1  C   UNL A   1      32.074  30.104  26.595  1.00  0.00     0.023 C 
ENDROOT
BRANCH   1   2
ATOM      2  C   UNL A   1      32.267  29.804  25.106  1.00  0.00     0.116 C 
BRANCH   2   3
ATOM      3  N   UNL A   1      33.542  29.287  24.634  1.00  0.00    -0.356 N 
ATOM      4  C   UNL A   1      33.749  28.567  23.485  1.00  0.00     0.226 C 
ATOM      5  O   UNL A   1      34.563  28.956  22.647  1.00  0.00    -0.275 OA
ATOM      6  H   UNL A   1      34.332  29.471  25.193  1.00  0.00     0.163 HD
BRANCH   4   7
ATOM      7  C   UNL A   1      32.929  27.336  23.266  1.00  0.00     0.122 C 
ATOM      8  C   UNL A   1      32.297  26.497  24.376  1.00  0.00     0.123 C 
ATOM      9  C   UNL A   1      32.034  25.219  23.547  1.00  0.00     0.132 C 
ATOM     10  C   UNL A   1      33.527  26.231  22.341  1.00  0.00     0.132 C 
ATOM     11  C   UNL A   1      31.315  25.487  22.187  1.00  0.00     0.035 C 
ATOM     12  O   UNL A   1      33.393  25.001  23.118  1.00  0.00    -0.373 OA
ATOM     13  C   UNL A   1      32.486  25.898  21.277  1.00  0.00     0.035 C 
BRANCH   8  14
ATOM     14  C   UNL A   1      32.729  26.026  25.810  1.00  0.00     0.232 C 
ATOM     15  N   UNL A   1      33.339  24.953  26.372  1.00  0.00    -0.302 N 
ATOM     16  H   UNL A   1      33.350  25.036  27.353  1.00  0.00     0.172 HD
ATOM     17  O   UNL A   1      32.407  26.858  26.695  1.00  0.00    -0.274 OA
BRANCH  15  18
ATOM     18  C   UNL A   1      33.945  23.790  25.980  1.00  0.00     0.190 A 
ATOM     19  C   UNL A   1      34.324  21.704  25.240  1.00  0.00     0.086 A 
ATOM     20  N   UNL A   1      33.356  22.631  25.714  1.00  0.00    -0.220 NA
ATOM     21  C   UNL A   1      35.550  22.301  24.989  1.00  0.00     0.031 A 
ATOM     22  S   UNL A   1      35.586  23.764  25.806  1.00  0.00    -0.101 S 
ATOM     23  C   UNL A   1      36.779  21.951  24.241  1.00  0.00     0.059 C 
BRANCH  19  24
ATOM     24  C   UNL A   1      34.098  20.273  24.986  1.00  0.00     0.001 A 
ATOM     25  C   UNL A   1      33.663  16.084  23.920  1.00  0.00     0.044 C 
ATOM     26  C   UNL A   1      33.805  17.526  24.312  1.00  0.00    -0.051 A 
ATOM     27  C   UNL A   1      32.686  18.331  24.581  1.00  0.00     0.004 A 
ATOM     28  C   UNL A   1      35.073  18.085  24.445  1.00  0.00     0.004 A 
ATOM     29  C   UNL A   1      32.829  19.695  24.913  1.00  0.00     0.010 A 
ATOM     30  C   UNL A   1      35.210  19.426  24.799  1.00  0.00     0.010 A 
ENDBRANCH  19  24
ENDBRANCH  15  18
ENDBRANCH   8  14
ENDBRANCH   4   7
ENDBRANCH   2   3
ENDBRANCH   1   2
BRANCH   1  31
ATOM     31  C   UNL A   1      33.052  31.063  27.263  1.00  0.00     0.023 C 
BRANCH  31  32
ATOM     32  C   UNL A   1      34.425  30.472  27.497  1.00  0.00     0.116 C 
BRANCH  32  33
ATOM     33  N   UNL A   1      35.434  31.477  27.791  1.00  0.00    -0.352 N 
ATOM     34  C   UNL A   1      36.706  31.340  28.342  1.00  0.00     0.251 C 
ATOM     35  H   UNL A   1      35.177  32.399  27.566  1.00  0.00     0.163 HD
ATOM     36  O   UNL A   1      37.288  32.308  28.743  1.00  0.00    -0.269 OA
BRANCH  34  37
ATOM     37  C   UNL A   1      37.364  30.007  28.246  1.00  0.00     0.039 A 
ATOM     38  C   UNL A   1      37.402  29.247  29.421  1.00  0.00     0.014 A 
ATOM     39  C   UNL A   1      38.203  29.706  27.183  1.00  0.00     0.014 A 
ATOM     40  C   UNL A   1      38.473  28.388  29.639  1.00  0.00     0.010 A 
ATOM     41  C   UNL A   1      39.333  28.974  27.444  1.00  0.00     0.010 A 
ATOM     42  C   UNL A   1      39.488  28.361  28.692  1.00  0.00    -0.014 A 
BRANCH  42  43
ATOM     43  C   UNL A   1      40.735  27.642  28.834  1.00  0.00     0.031 A 
ATOM     44  C   UNL A   1      40.714  26.186  28.622  1.00  0.00     0.074 A 
ATOM     45  C   UNL A   1      41.894  28.328  28.921  1.00  0.00     0.049 A 
ATOM     46  N   UNL A   1      41.663  25.395  28.971  1.00  0.00    -0.248 NA
ATOM     47  C   UNL A   1      39.586  25.511  27.988  1.00  0.00     0.031 C 
ATOM     48  C   UNL A   1      43.238  27.826  28.666  1.00  0.00     0.029 A 
ATOM     49  N   UNL A   1      42.102  29.595  29.471  1.00  0.00    -0.354 N 
ATOM     50  C   UNL A   1      41.411  24.178  28.379  1.00  0.00     0.074 A 
ATOM     51  C   UNL A   1      40.080  24.282  27.831  1.00  0.00     0.031 C 
ATOM     52  C   UNL A   1      44.117  28.611  29.307  1.00  0.00     0.029 A 
ATOM     53  C   UNL A   1      43.346  29.529  30.129  1.00  0.00     0.049 A 
ATOM     54  H   UNL A   1      41.502  30.374  29.412  1.00  0.00     0.167 HD
ATOM     55  C   UNL A   1      42.421  23.272  28.286  1.00  0.00     0.034 A 
ATOM     56  C   UNL A   1      43.477  29.687  31.480  1.00  0.00     0.034 A 
ATOM     57  C   UNL A   1      43.637  23.772  28.942  1.00  0.00     0.049 A 
ATOM     58  C   UNL A   1      44.018  28.443  32.180  1.00  0.00     0.074 A 
ATOM     59  C   UNL A   1      44.775  24.427  28.503  1.00  0.00     0.029 A 
ATOM     60  N   UNL A   1      43.622  23.919  30.316  1.00  0.00    -0.354 N 
ATOM     61  N   UNL A   1      44.370  27.340  31.577  1.00  0.00    -0.248 NA
ATOM     62  C   UNL A   1      44.114  28.328  33.636  1.00  0.00     0.031 C 
ATOM     63  C   UNL A   1      45.414  25.012  29.639  1.00  0.00     0.029 A 
ATOM     64  C   UNL A   1      44.676  24.694  30.766  1.00  0.00     0.049 A 
ATOM     65  H   UNL A   1      42.942  23.519  30.906  1.00  0.00     0.167 HD
ATOM     66  C   UNL A   1      44.558  26.349  32.509  1.00  0.00     0.074 A 
ATOM     67  C   UNL A   1      44.430  27.030  33.786  1.00  0.00     0.031 C 
ATOM     68  C   UNL A   1      44.739  25.032  32.183  1.00  0.00     0.034 A 
BRANCH  55  69
ATOM     69  C   UNL A   1      42.397  22.080  27.358  1.00  0.00     0.023 A 
ATOM     70  C   UNL A   1      41.338  21.162  27.524  1.00  0.00     0.012 A 
ATOM     71  C   UNL A   1      43.361  21.754  26.375  1.00  0.00     0.148 A 
ATOM     72  C   UNL A   1      41.284  19.947  26.839  1.00  0.00     0.002 A 
ATOM     73  C   UNL A   1      43.351  20.505  25.747  1.00  0.00     0.091 A 
ATOM     74  F   UNL A   1      44.246  22.676  25.980  1.00  0.00    -0.205 F 
ATOM     75  C   UNL A   1      42.312  19.599  25.979  1.00  0.00     0.022 A 
BRANCH  73  76
ATOM     76  S   UNL A   1      44.707  19.933  24.707  1.00  0.00     0.127 S 
ATOM     77  O   UNL A   1      44.524  20.732  23.493  1.00  0.00    -0.237 OA
ATOM     78  O   UNL A   1      45.883  20.292  25.495  1.00  0.00    -0.237 OA
ATOM     79  O   UNL A   1      44.483  18.506  24.511  1.00  0.00    -0.744 OA
ENDBRANCH  73  76
ENDBRANCH  55  69
BRANCH  56  80
ATOM     80  C   UNL A   1      42.472  30.633  32.053  1.00  0.00     0.023 A 
ATOM     81  C   UNL A   1      41.314  30.057  32.633  1.00  0.00     0.012 A 
ATOM     82  C   UNL A   1      42.812  31.954  32.389  1.00  0.00     0.148 A 
ATOM     83  C   UNL A   1      40.607  30.724  33.634  1.00  0.00     0.002 A 
ATOM     84  C   UNL A   1      42.090  32.619  33.378  1.00  0.00     0.091 A 
ATOM     85  F   UNL A   1      43.880  32.511  31.807  1.00  0.00    -0.205 F 
ATOM     86  C   UNL A   1      41.020  31.990  34.033  1.00  0.00     0.022 A 
BRANCH  84  87
ATOM     87  S   UNL A   1      42.568  34.253  33.952  1.00  0.00     0.127 S 
ATOM     88  O   UNL A   1      41.722  34.402  35.132  1.00  0.00    -0.237 OA
ATOM     89  O   UNL A   1      43.992  34.079  34.232  1.00  0.00    -0.237 OA
ATOM     90  O   UNL A   1      42.282  35.140  32.835  1.00  0.00    -0.744 OA
ENDBRANCH  84  87
ENDBRANCH  56  80
BRANCH  68  91
ATOM     91  C   UNL A   1      45.010  23.945  33.206  1.00  0.00     0.023 A 
ATOM     92  C   UNL A   1      43.969  23.094  33.630  1.00  0.00     0.012 A 
ATOM     93  C   UNL A   1      46.246  23.836  33.893  1.00  0.00     0.148 A 
ATOM     94  C   UNL A   1      44.159  22.149  34.645  1.00  0.00     0.002 A 
ATOM     95  C   UNL A   1      46.394  22.976  34.976  1.00  0.00     0.091 A 
ATOM     96  F   UNL A   1      47.310  24.526  33.466  1.00  0.00    -0.205 F 
ATOM     97  C   UNL A   1      45.363  22.106  35.334  1.00  0.00     0.022 A 
BRANCH  95  98
ATOM     98  S   UNL A   1      47.838  23.025  36.050  1.00  0.00     0.127 S 
ATOM     99  O   UNL A   1      48.904  22.610  35.136  1.00  0.00    -0.237 OA
ATOM    100  O   UNL A   1      47.879  24.434  36.433  1.00  0.00    -0.237 OA
ATOM    101  O   UNL A   1      47.569  22.080  37.123  1.00  0.00    -0.744 OA
ENDBRANCH  95  98
ENDBRANCH  68  91
ENDBRANCH  42  43
ENDBRANCH  34  37
ENDBRANCH  32  33
ENDBRANCH  31  32
ENDBRANCH   1  31
TORSDOF 17
ENDMDL
MODEL 3
REMARK VINA RESULT:     -13.4      4.115      9.192
REMARK SMILES Cc1ccc(-c2nc(NC(=O)[C@H]3[C@@H](C(=O)NCCCCNC(=O)c4ccc(-c5c6nc(c(-c7cccc(S(=O)(=O)[O-])c7F)c7ccc([nH]7)c(-c7cccc(S(=O)(=O)[O-])c7F)c7nc(c(-c8cccc(S(=O)(=O)[O-])c8F)c8ccc5[nH]8)C=C7)C=C6)cc4)[C@@H]4CC[C@H]3O4)sc2C)cc1
REMARK SMILES IDX 18 1 17 2 16 3 14 4 15 5 13 7 12 8 90 9 87 10 89 11 91 12
REMARK SMILES IDX 88 13 10 14 9 15 11 17 8 18 6 19 7 20 93 21 92 22 94 23 5 24
REMARK SMILES IDX 1 25 2 26 3 27 96 28 4 29 95 30 19 31 20 32 21 33 22 34
REMARK SMILES IDX 23 36 24 37 25 38 86 39 26 40 85 41 27 42 28 43 29 44 79 45
REMARK SMILES IDX 30 46 84 47 78 48 80 49 31 50 83 51 77 52 76 53 32 55 64 56
REMARK SMILES IDX 44 57 63 58 45 59 48 60 62 61 81 62 46 63 47 64 61 66 82 67
REMARK SMILES IDX 49 68 33 69 34 70 42 71 35 72 37 73 43 74 36 75 38 76 39 77
REMARK SMILES IDX 40 78 41 79 65 80 66 81 74 82 67 83 69 84 75 85 68 86 70 87
REMARK SMILES IDX 71 88 72 89 73 90 50 91 51 92 59 93 52 94 54 95 60 96 53 97
REMARK SMILES IDX 55 98 56 99 57 100 58 101
REMARK H PARENT 16 6 9 16 21 35 80 54 48 65
REMARK Flexibility Score: inf
ROOT
ATOM      1  C   UNL A   1      31.831  30.689  26.855  1.00  0.00     0.023 C 
ENDROOT
BRANCH   1   2
ATOM      2  C   UNL A   1      31.630  29.448  25.980  1.00  0.00     0.116 C 
BRANCH   2   3
ATOM      3  N   UNL A   1      32.238  28.186  26.368  1.00  0.00    -0.356 N 
ATOM      4  C   UNL A   1      33.027  27.389  25.577  1.00  0.00     0.226 C 
ATOM      5  O   UNL A   1      34.157  27.072  25.948  1.00  0.00    -0.275 OA
ATOM      6  H   UNL A   1      32.068  27.872  27.286  1.00  0.00     0.163 HD
BRANCH   4   7
ATOM      7  C   UNL A   1      32.492  26.965  24.246  1.00  0.00     0.122 C 
ATOM      8  C   UNL A   1      31.080  26.433  24.001  1.00  0.00     0.123 C 
ATOM      9  C   UNL A   1      31.340  25.783  22.623  1.00  0.00     0.132 C 
ATOM     10  C   UNL A   1      33.352  25.965  23.413  1.00  0.00     0.132 C 
ATOM     11  C   UNL A   1      32.069  26.722  21.610  1.00  0.00     0.035 C 
ATOM     12  O   UNL A   1      32.413  24.913  23.035  1.00  0.00    -0.373 OA
ATOM     13  C   UNL A   1      33.544  26.559  22.022  1.00  0.00     0.035 C 
BRANCH   8  14
ATOM     14  C   UNL A   1      30.088  25.489  24.768  1.00  0.00     0.232 C 
ATOM     15  N   UNL A   1      30.107  24.249  25.319  1.00  0.00    -0.302 N 
ATOM     16  H   UNL A   1      29.213  24.005  25.651  1.00  0.00     0.172 HD
ATOM     17  O   UNL A   1      28.950  26.005  24.895  1.00  0.00    -0.274 OA
BRANCH  15  18
ATOM     18  C   UNL A   1      31.000  23.238  25.552  1.00  0.00     0.190 A 
ATOM     19  C   UNL A   1      32.397  21.500  25.294  1.00  0.00     0.086 A 
ATOM     20  N   UNL A   1      31.377  22.293  24.701  1.00  0.00    -0.220 NA
ATOM     21  C   UNL A   1      32.860  22.037  26.485  1.00  0.00     0.031 A 
ATOM     22  S   UNL A   1      31.715  23.130  27.036  1.00  0.00    -0.101 S 
ATOM     23  C   UNL A   1      34.046  21.854  27.355  1.00  0.00     0.059 C 
BRANCH  19  24
ATOM     24  C   UNL A   1      32.965  20.263  24.735  1.00  0.00     0.001 A 
ATOM     25  C   UNL A   1      34.313  16.428  23.202  1.00  0.00     0.044 C 
ATOM     26  C   UNL A   1      33.864  17.766  23.716  1.00  0.00    -0.051 A 
ATOM     27  C   UNL A   1      34.686  18.552  24.539  1.00  0.00     0.004 A 
ATOM     28  C   UNL A   1      32.616  18.263  23.353  1.00  0.00     0.004 A 
ATOM     29  C   UNL A   1      34.241  19.791  25.047  1.00  0.00     0.010 A 
ATOM     30  C   UNL A   1      32.191  19.500  23.836  1.00  0.00     0.010 A 
ENDBRANCH  19  24
ENDBRANCH  15  18
ENDBRANCH   8  14
ENDBRANCH   4   7
ENDBRANCH   2   3
ENDBRANCH   1   2
BRANCH   1  31
ATOM     31  C   UNL A   1      33.192  31.373  26.822  1.00  0.00     0.023 C 
BRANCH  31  32
ATOM     32  C   UNL A   1      34.219  30.737  27.734  1.00  0.00     0.116 C 
BRANCH  32  33
ATOM     33  N   UNL A   1      35.120  31.705  28.338  1.00  0.00    -0.352 N 
ATOM     34  C   UNL A   1      36.305  31.513  29.044  1.00  0.00     0.251 C 
ATOM     35  H   UNL A   1      34.849  32.645  28.231  1.00  0.00     0.163 HD
ATOM     36  O   UNL A   1      36.772  32.414  29.681  1.00  0.00    -0.269 OA
BRANCH  34  37
ATOM     37  C   UNL A   1      37.041  30.234  28.829  1.00  0.00     0.039 A 
ATOM     38  C   UNL A   1      37.111  29.367  29.926  1.00  0.00     0.014 A 
ATOM     39  C   UNL A   1      37.907  30.087  27.755  1.00  0.00     0.014 A 
ATOM     40  C   UNL A   1      38.227  28.553  30.076  1.00  0.00     0.010 A 
ATOM     41  C   UNL A   1      39.074  29.399  27.962  1.00  0.00     0.010 A 
ATOM     42  C   UNL A   1      39.252  28.676  29.147  1.00  0.00    -0.014 A 
BRANCH  42  43
ATOM     43  C   UNL A   1      40.538  28.018  29.238  1.00  0.00     0.031 A 
ATOM     44  C   UNL A   1      40.599  26.587  28.905  1.00  0.00     0.074 A 
ATOM     45  C   UNL A   1      41.655  28.759  29.392  1.00  0.00     0.049 A 
ATOM     46  N   UNL A   1      41.591  25.824  29.194  1.00  0.00    -0.248 NA
ATOM     47  C   UNL A   1      39.513  25.906  28.208  1.00  0.00     0.031 C 
ATOM     48  C   UNL A   1      43.026  28.356  29.106  1.00  0.00     0.029 A 
ATOM     49  N   UNL A   1      41.789  29.985  30.048  1.00  0.00    -0.354 N 
ATOM     50  C   UNL A   1      41.409  24.648  28.501  1.00  0.00     0.074 A 
ATOM     51  C   UNL A   1      40.076  24.724  27.953  1.00  0.00     0.031 C 
ATOM     52  C   UNL A   1      43.858  29.133  29.818  1.00  0.00     0.029 A 
ATOM     53  C   UNL A   1      43.033  29.934  30.707  1.00  0.00     0.049 A 
ATOM     54  H   UNL A   1      41.147  30.732  30.049  1.00  0.00     0.167 HD
ATOM     55  C   UNL A   1      42.469  23.811  28.341  1.00  0.00     0.034 A 
ATOM     56  C   UNL A   1      43.151  29.985  32.068  1.00  0.00     0.034 A 
ATOM     57  C   UNL A   1      43.653  24.322  29.046  1.00  0.00     0.049 A 
ATOM     58  C   UNL A   1      43.759  28.719  32.666  1.00  0.00     0.074 A 
ATOM     59  C   UNL A   1      44.754  25.074  28.673  1.00  0.00     0.029 A 
ATOM     60  N   UNL A   1      43.625  24.352  30.427  1.00  0.00    -0.354 N 
ATOM     61  N   UNL A   1      44.174  27.692  31.976  1.00  0.00    -0.248 NA
ATOM     62  C   UNL A   1      43.857  28.487  34.108  1.00  0.00     0.031 C 
ATOM     63  C   UNL A   1      45.355  25.597  29.858  1.00  0.00     0.029 A 
ATOM     64  C   UNL A   1      44.632  25.145  30.949  1.00  0.00     0.049 A 
ATOM     65  H   UNL A   1      42.967  23.867  30.976  1.00  0.00     0.167 HD
ATOM     66  C   UNL A   1      44.415  26.638  32.823  1.00  0.00     0.074 A 
ATOM     67  C   UNL A   1      44.244  27.202  34.152  1.00  0.00     0.031 C 
ATOM     68  C   UNL A   1      44.671  25.365  32.389  1.00  0.00     0.034 A 
BRANCH  55  69
ATOM     69  C   UNL A   1      42.516  22.702  27.316  1.00  0.00     0.023 A 
ATOM     70  C   UNL A   1      41.578  21.657  27.462  1.00  0.00     0.012 A 
ATOM     71  C   UNL A   1      43.442  22.569  26.255  1.00  0.00     0.148 A 
ATOM     72  C   UNL A   1      41.614  20.502  26.680  1.00  0.00     0.002 A 
ATOM     73  C   UNL A   1      43.529  21.381  25.523  1.00  0.00     0.091 A 
ATOM     74  F   UNL A   1      44.191  23.616  25.891  1.00  0.00    -0.205 F 
ATOM     75  C   UNL A   1      42.615  20.346  25.735  1.00  0.00     0.022 A 
BRANCH  73  76
ATOM     76  S   UNL A   1      44.867  21.055  24.362  1.00  0.00     0.127 S 
ATOM     77  O   UNL A   1      44.586  19.678  23.946  1.00  0.00    -0.237 OA
ATOM     78  O   UNL A   1      44.640  22.058  23.326  1.00  0.00    -0.237 OA
ATOM     79  O   UNL A   1      46.101  21.196  25.127  1.00  0.00    -0.744 OA
ENDBRANCH  73  76
ENDBRANCH  55  69
BRANCH  56  80
ATOM     80  C   UNL A   1      42.091  30.821  32.710  1.00  0.00     0.023 A 
ATOM     81  C   UNL A   1      42.053  32.191  32.348  1.00  0.00     0.012 A 
ATOM     82  C   UNL A   1      40.952  30.244  33.295  1.00  0.00     0.148 A 
ATOM     83  C   UNL A   1      40.865  32.919  32.423  1.00  0.00     0.002 A 
ATOM     84  C   UNL A   1      39.774  30.983  33.381  1.00  0.00     0.091 A 
ATOM     85  F   UNL A   1      41.005  28.962  33.677  1.00  0.00    -0.205 F 
ATOM     86  C   UNL A   1      39.717  32.302  32.904  1.00  0.00     0.022 A 
BRANCH  84  87
ATOM     87  S   UNL A   1      38.247  30.253  33.984  1.00  0.00     0.127 S 
ATOM     88  O   UNL A   1      38.507  30.188  35.419  1.00  0.00    -0.237 OA
ATOM     89  O   UNL A   1      37.250  31.243  33.582  1.00  0.00    -0.237 OA
ATOM     90  O   UNL A   1      38.141  28.980  33.287  1.00  0.00    -0.744 OA
ENDBRANCH  84  87
ENDBRANCH  56  80
BRANCH  68  91
ATOM     91  C   UNL A   1      45.000  24.214  33.320  1.00  0.00     0.023 A 
ATOM     92  C   UNL A   1      43.987  23.326  33.735  1.00  0.00     0.012 A 
ATOM     93  C   UNL A   1      46.269  24.069  33.935  1.00  0.00     0.148 A 
ATOM     94  C   UNL A   1      44.233  22.315  34.672  1.00  0.00     0.002 A 
ATOM     95  C   UNL A   1      46.477  23.138  34.948  1.00  0.00     0.091 A 
ATOM     96  F   UNL A   1      47.306  24.797  33.505  1.00  0.00    -0.205 F 
ATOM     97  C   UNL A   1      45.470  22.236  35.296  1.00  0.00     0.022 A 
BRANCH  95  98
ATOM     98  S   UNL A   1      47.973  23.127  35.949  1.00  0.00     0.127 S 
ATOM     99  O   UNL A   1      47.952  24.471  36.532  1.00  0.00    -0.237 OA
ATOM    100  O   UNL A   1      47.694  22.049  36.895  1.00  0.00    -0.237 OA
ATOM    101  O   UNL A   1      49.071  22.895  35.022  1.00  0.00    -0.744 OA
ENDBRANCH  95  98
ENDBRANCH  68  91
ENDBRANCH  42  43
ENDBRANCH  34  37
ENDBRANCH  32  33
ENDBRANCH  31  32
ENDBRANCH   1  31
TORSDOF 17
ENDMDL
