MODEL 1
REMARK VINA RESULT:     -10.7      0.000      0.000
REMARK SMILES CC[C@@](C)(NC(=O)[C@@H](C)NC(=O)c1ccco1)C(=O)NCCCCNC(=O)c1ccc(-c2c3nc(c(-c4cccc(S(=O)(=O)[O-])c4F)c4ccc([nH]4)c(-c4cccc(S(=O)(=O)[O-])c4F)c4nc(c(-c5cccc(S(=O)(=O)[O-])c5F)c5ccc2[nH]5)C=C4)C=C3)cc1
REMARK SMILES IDX 22 1 21 2 20 3 18 4 19 5 3 7 4 8 2 9 1 10 5 11 6 12 7 14
REMARK SMILES IDX 8 15 9 16 10 17 11 18 12 20 13 21 14 22 17 23 15 24 16 25
REMARK SMILES IDX 23 26 24 27 25 28 26 29 27 31 28 32 29 33 90 34 30 35 89 36
REMARK SMILES IDX 31 37 32 38 33 39 83 40 34 41 88 42 82 43 84 44 35 45 87 46
REMARK SMILES IDX 81 47 80 48 36 50 68 51 48 52 67 53 49 54 52 55 66 56 85 57
REMARK SMILES IDX 50 58 51 59 65 61 86 62 53 63 37 64 38 65 46 66 39 67 41 68
REMARK SMILES IDX 47 69 40 70 42 71 43 72 44 73 45 74 69 75 70 76 78 77 71 78
REMARK SMILES IDX 73 79 79 80 72 81 74 82 75 83 76 84 77 85 54 86 55 87 63 88
REMARK SMILES IDX 56 89 58 90 64 91 57 92 59 93 60 94 61 95 62 96
REMARK H PARENT 20 6 5 13 10 19 25 30 84 49 52 60
REMARK Flexibility Score: inf
ROOT
ATOM      1  C   UNL A   1      36.846  19.752  25.034  1.00  0.00     0.023 C 
ENDROOT
BRANCH   1   2
ATOM      2  C   UNL A   1      36.268  21.163  25.148  1.00  0.00     0.116 C 
BRANCH   2   3
ATOM      3  N   UNL A   1      35.481  21.431  26.344  1.00  0.00    -0.354 N 
ATOM      4  C   UNL A   1      34.419  22.256  26.592  1.00  0.00     0.245 C 
ATOM      5  O   UNL A   1      33.930  22.208  27.725  1.00  0.00    -0.272 OA
ATOM      6  H   UNL A   1      35.770  20.915  27.130  1.00  0.00     0.163 HD
BRANCH   4   7
ATOM      7  C   UNL A   1      33.883  23.263  25.552  1.00  0.00     0.116 C 
ATOM      8  C   UNL A   1      34.960  24.342  25.280  1.00  0.00     0.045 C 
BRANCH   7   9
ATOM      9  C   UNL A   1      33.527  22.647  24.168  1.00  0.00     0.035 C 
ATOM     10  C   UNL A   1      34.211  23.231  22.934  1.00  0.00     0.007 C 
ENDBRANCH   7   9
BRANCH   7  11
ATOM     11  N   UNL A   1      32.657  23.882  26.110  1.00  0.00    -0.340 N 
ATOM     12  C   UNL A   1      32.084  25.114  26.025  1.00  0.00     0.243 C 
ATOM     13  H   UNL A   1      32.139  23.261  26.669  1.00  0.00     0.164 HD
ATOM     14  O   UNL A   1      31.313  25.361  26.968  1.00  0.00    -0.273 OA
BRANCH  12  15
ATOM     15  C   UNL A   1      32.368  26.259  24.989  1.00  0.00     0.168 C 
ATOM     16  C   UNL A   1      33.510  27.168  25.428  1.00  0.00     0.041 C 
BRANCH  15  17
ATOM     17  N   UNL A   1      32.528  25.964  23.571  1.00  0.00    -0.338 N 
ATOM     18  C   UNL A   1      31.849  26.478  22.486  1.00  0.00     0.287 C 
ATOM     19  H   UNL A   1      33.221  25.299  23.356  1.00  0.00     0.164 HD
ATOM     20  O   UNL A   1      32.061  25.943  21.397  1.00  0.00    -0.266 OA
BRANCH  18  21
ATOM     21  C   UNL A   1      30.905  27.560  22.668  1.00  0.00     0.191 A 
ATOM     22  C   UNL A   1      30.973  28.917  22.413  1.00  0.00     0.056 A 
ATOM     23  O   UNL A   1      29.649  27.251  23.122  1.00  0.00    -0.459 OA
ATOM     24  C   UNL A   1      29.698  29.457  22.719  1.00  0.00     0.043 A 
ATOM     25  C   UNL A   1      28.930  28.402  23.148  1.00  0.00     0.196 A 
ENDBRANCH  18  21
ENDBRANCH  15  17
ENDBRANCH  12  15
ENDBRANCH   7  11
ENDBRANCH   4   7
ENDBRANCH   2   3
ENDBRANCH   1   2
BRANCH   1  26
ATOM     26  C   UNL A   1      38.342  19.656  24.780  1.00  0.00     0.023 C 
BRANCH  26  27
ATOM     27  C   UNL A   1      39.260  20.216  25.852  1.00  0.00     0.116 C 
BRANCH  27  28
ATOM     28  N   UNL A   1      40.443  19.398  26.046  1.00  0.00    -0.352 N 
ATOM     29  C   UNL A   1      41.743  19.777  26.287  1.00  0.00     0.251 C 
ATOM     30  H   UNL A   1      40.291  18.427  25.998  1.00  0.00     0.163 HD
ATOM     31  O   UNL A   1      42.628  18.925  26.215  1.00  0.00    -0.269 OA
BRANCH  29  32
ATOM     32  C   UNL A   1      42.100  21.181  26.622  1.00  0.00     0.039 A 
ATOM     33  C   UNL A   1      42.314  21.516  27.964  1.00  0.00     0.014 A 
ATOM     34  C   UNL A   1      42.159  22.185  25.652  1.00  0.00     0.014 A 
ATOM     35  C   UNL A   1      42.609  22.838  28.324  1.00  0.00     0.010 A 
ATOM     36  C   UNL A   1      42.550  23.479  25.998  1.00  0.00     0.010 A 
ATOM     37  C   UNL A   1      42.743  23.832  27.341  1.00  0.00    -0.014 A 
BRANCH  37  38
ATOM     38  C   UNL A   1      43.018  25.250  27.701  1.00  0.00     0.031 A 
ATOM     39  C   UNL A   1      44.423  25.795  27.610  1.00  0.00     0.074 A 
ATOM     40  C   UNL A   1      42.028  26.038  28.168  1.00  0.00     0.049 A 
ATOM     41  N   UNL A   1      44.870  26.988  27.912  1.00  0.00    -0.248 NA
ATOM     42  C   UNL A   1      45.472  24.870  27.146  1.00  0.00     0.031 C 
ATOM     43  C   UNL A   1      40.643  25.618  28.383  1.00  0.00     0.029 A 
ATOM     44  N   UNL A   1      42.042  27.353  28.565  1.00  0.00    -0.354 N 
ATOM     45  C   UNL A   1      46.247  26.940  27.725  1.00  0.00     0.074 A 
ATOM     46  C   UNL A   1      46.570  25.592  27.314  1.00  0.00     0.031 C 
ATOM     47  C   UNL A   1      39.937  26.658  28.862  1.00  0.00     0.029 A 
ATOM     48  C   UNL A   1      40.823  27.809  29.010  1.00  0.00     0.049 A 
ATOM     49  H   UNL A   1      42.849  27.916  28.535  1.00  0.00     0.167 HD
ATOM     50  C   UNL A   1      47.161  27.933  27.846  1.00  0.00     0.034 A 
ATOM     51  C   UNL A   1      40.457  29.020  29.479  1.00  0.00     0.034 A 
ATOM     52  C   UNL A   1      46.833  29.292  28.176  1.00  0.00     0.049 A 
ATOM     53  C   UNL A   1      41.477  30.127  29.532  1.00  0.00     0.074 A 
ATOM     54  C   UNL A   1      47.669  30.394  28.214  1.00  0.00     0.029 A 
ATOM     55  N   UNL A   1      45.567  29.738  28.521  1.00  0.00    -0.354 N 
ATOM     56  N   UNL A   1      42.740  30.104  29.184  1.00  0.00    -0.248 NA
ATOM     57  C   UNL A   1      41.011  31.439  30.007  1.00  0.00     0.031 C 
ATOM     58  C   UNL A   1      46.910  31.507  28.590  1.00  0.00     0.029 A 
ATOM     59  C   UNL A   1      45.599  31.098  28.776  1.00  0.00     0.049 A 
ATOM     60  H   UNL A   1      44.763  29.171  28.576  1.00  0.00     0.167 HD
ATOM     61  C   UNL A   1      43.211  31.399  29.365  1.00  0.00     0.074 A 
ATOM     62  C   UNL A   1      42.091  32.190  29.832  1.00  0.00     0.031 C 
ATOM     63  C   UNL A   1      44.462  31.887  29.178  1.00  0.00     0.034 A 
BRANCH  50  64
ATOM     64  C   UNL A   1      48.600  27.602  27.546  1.00  0.00     0.023 A 
ATOM     65  C   UNL A   1      49.403  27.031  28.554  1.00  0.00     0.012 A 
ATOM     66  C   UNL A   1      49.142  27.800  26.261  1.00  0.00     0.148 A 
ATOM     67  C   UNL A   1      50.731  26.693  28.301  1.00  0.00     0.002 A 
ATOM     68  C   UNL A   1      50.456  27.421  26.004  1.00  0.00     0.091 A 
ATOM     69  F   UNL A   1      48.373  28.364  25.320  1.00  0.00    -0.205 F 
ATOM     70  C   UNL A   1      51.254  26.878  27.024  1.00  0.00     0.022 A 
BRANCH  68  71
ATOM     71  S   UNL A   1      51.196  27.548  24.372  1.00  0.00     0.127 S 
ATOM     72  O   UNL A   1      51.202  28.995  24.160  1.00  0.00    -0.237 OA
ATOM     73  O   UNL A   1      52.520  26.959  24.584  1.00  0.00    -0.237 OA
ATOM     74  O   UNL A   1      50.333  26.786  23.481  1.00  0.00    -0.744 OA
ENDBRANCH  68  71
ENDBRANCH  50  64
BRANCH  51  75
ATOM     75  C   UNL A   1      39.034  29.275  29.844  1.00  0.00     0.023 A 
ATOM     76  C   UNL A   1      38.602  28.990  31.155  1.00  0.00     0.012 A 
ATOM     77  C   UNL A   1      38.118  29.824  28.924  1.00  0.00     0.148 A 
ATOM     78  C   UNL A   1      37.280  29.220  31.536  1.00  0.00     0.002 A 
ATOM     79  C   UNL A   1      36.816  30.101  29.326  1.00  0.00     0.091 A 
ATOM     80  F   UNL A   1      38.542  30.072  27.677  1.00  0.00    -0.205 F 
ATOM     81  C   UNL A   1      36.391  29.785  30.626  1.00  0.00     0.022 A 
BRANCH  79  82
ATOM     82  S   UNL A   1      35.641  30.949  28.263  1.00  0.00     0.127 S 
ATOM     83  O   UNL A   1      34.584  31.303  29.205  1.00  0.00    -0.237 OA
ATOM     84  O   UNL A   1      36.434  32.079  27.772  1.00  0.00    -0.237 OA
ATOM     85  O   UNL A   1      35.280  29.985  27.232  1.00  0.00    -0.744 OA
ENDBRANCH  79  82
ENDBRANCH  51  75
BRANCH  63  86
ATOM     86  C   UNL A   1      44.695  33.350  29.451  1.00  0.00     0.023 A 
ATOM     87  C   UNL A   1      45.174  33.753  30.713  1.00  0.00     0.012 A 
ATOM     88  C   UNL A   1      44.526  34.311  28.435  1.00  0.00     0.148 A 
ATOM     89  C   UNL A   1      45.454  35.095  30.969  1.00  0.00     0.002 A 
ATOM     90  C   UNL A   1      44.848  35.640  28.684  1.00  0.00     0.091 A 
ATOM     91  F   UNL A   1      44.051  33.910  27.246  1.00  0.00    -0.205 F 
ATOM     92  C   UNL A   1      45.302  36.036  29.952  1.00  0.00     0.022 A 
BRANCH  90  93
ATOM     93  S   UNL A   1      44.772  36.900  27.405  1.00  0.00     0.127 S 
ATOM     94  O   UNL A   1      45.071  38.114  28.163  1.00  0.00    -0.237 OA
ATOM     95  O   UNL A   1      45.832  36.480  26.486  1.00  0.00    -0.237 OA
ATOM     96  O   UNL A   1      43.429  36.822  26.848  1.00  0.00    -0.744 OA
ENDBRANCH  90  93
ENDBRANCH  63  86
ENDBRANCH  37  38
ENDBRANCH  29  32
ENDBRANCH  27  28
ENDBRANCH  26  27
ENDBRANCH   1  26
TORSDOF 19
ENDMDL
MODEL 2
REMARK VINA RESULT:     -10.5      6.044     10.639
REMARK SMILES CC[C@@](C)(NC(=O)[C@@H](C)NC(=O)c1ccco1)C(=O)NCCCCNC(=O)c1ccc(-c2c3nc(c(-c4cccc(S(=O)(=O)[O-])c4F)c4ccc([nH]4)c(-c4cccc(S(=O)(=O)[O-])c4F)c4nc(c(-c5cccc(S(=O)(=O)[O-])c5F)c5ccc2[nH]5)C=C4)C=C3)cc1
REMARK SMILES IDX 22 1 21 2 20 3 18 4 19 5 3 7 4 8 2 9 1 10 5 11 6 12 7 14
REMARK SMILES IDX 8 15 9 16 10 17 11 18 12 20 13 21 14 22 17 23 15 24 16 25
REMARK SMILES IDX 23 26 24 27 25 28 26 29 27 31 28 32 29 33 90 34 30 35 89 36
REMARK SMILES IDX 31 37 32 38 33 39 83 40 34 41 88 42 82 43 84 44 35 45 87 46
REMARK SMILES IDX 81 47 80 48 36 50 68 51 48 52 67 53 49 54 52 55 66 56 85 57
REMARK SMILES IDX 50 58 51 59 65 61 86 62 53 63 37 64 38 65 46 66 39 67 41 68
REMARK SMILES IDX 47 69 40 70 42 71 43 72 44 73 45 74 69 75 70 76 78 77 71 78
REMARK SMILES IDX 73 79 79 80 72 81 74 82 75 83 76 84 77 85 54 86 55 87 63 88
REMARK SMILES IDX 56 89 58 90 64 91 57 92 59 93 60 94 61 95 62 96
REMARK H PARENT 20 6 5 13 10 19 25 30 84 49 52 60
REMARK Flexibility Score: inf
ROOT
ATOM      1  C   UNL A   1      34.017  31.189  27.895  1.00  0.00     0.023 C 
ENDROOT
BRANCH   1   2
ATOM      2  C   UNL A   1      33.731  29.861  27.193  1.00  0.00     0.116 C 
BRANCH   2   3
ATOM      3  N   UNL A   1      33.787  29.888  25.737  1.00  0.00    -0.354 N 
ATOM      4  C   UNL A   1      33.324  29.037  24.774  1.00  0.00     0.245 C 
ATOM      5  O   UNL A   1      33.486  29.384  23.599  1.00  0.00    -0.272 OA
ATOM      6  H   UNL A   1      34.250  30.678  25.375  1.00  0.00     0.163 HD
BRANCH   4   7
ATOM      7  C   UNL A   1      32.693  27.667  25.103  1.00  0.00     0.116 C 
ATOM      8  C   UNL A   1      33.754  26.762  25.778  1.00  0.00     0.045 C 
BRANCH   7   9
ATOM      9  C   UNL A   1      31.485  27.722  26.081  1.00  0.00     0.035 C 
ATOM     10  C   UNL A   1      30.714  26.427  26.331  1.00  0.00     0.007 C 
ENDBRANCH   7   9
BRANCH   7  11
ATOM     11  N   UNL A   1      32.229  27.063  23.831  1.00  0.00    -0.340 N 
ATOM     12  C   UNL A   1      31.161  27.262  23.011  1.00  0.00     0.243 C 
ATOM     13  H   UNL A   1      32.831  26.356  23.505  1.00  0.00     0.164 HD
ATOM     14  O   UNL A   1      30.906  26.279  22.294  1.00  0.00    -0.273 OA
BRANCH  12  15
ATOM     15  C   UNL A   1      30.179  28.486  22.958  1.00  0.00     0.168 C 
ATOM     16  C   UNL A   1      30.499  29.436  21.811  1.00  0.00     0.041 C 
BRANCH  15  17
ATOM     17  N   UNL A   1      28.736  28.291  23.013  1.00  0.00    -0.338 N 
ATOM     18  C   UNL A   1      27.726  29.229  23.061  1.00  0.00     0.287 C 
ATOM     19  H   UNL A   1      28.439  27.353  23.017  1.00  0.00     0.164 HD
ATOM     20  O   UNL A   1      26.588  28.806  23.267  1.00  0.00    -0.266 OA
BRANCH  18  21
ATOM     21  C   UNL A   1      28.036  30.636  22.922  1.00  0.00     0.191 A 
ATOM     22  C   UNL A   1      28.560  31.571  23.796  1.00  0.00     0.056 A 
ATOM     23  O   UNL A   1      27.858  31.218  21.694  1.00  0.00    -0.459 OA
ATOM     24  C   UNL A   1      28.716  32.775  23.063  1.00  0.00     0.043 A 
ATOM     25  C   UNL A   1      28.272  32.508  21.790  1.00  0.00     0.196 A 
ENDBRANCH  18  21
ENDBRANCH  15  17
ENDBRANCH  12  15
ENDBRANCH   7  11
ENDBRANCH   4   7
ENDBRANCH   2   3
ENDBRANCH   1   2
BRANCH   1  26
ATOM     26  C   UNL A   1      32.970  32.280  27.723  1.00  0.00     0.023 C 
BRANCH  26  27
ATOM     27  C   UNL A   1      33.475  33.706  27.601  1.00  0.00     0.116 C 
BRANCH  27  28
ATOM     28  N   UNL A   1      33.050  34.537  28.712  1.00  0.00    -0.352 N 
ATOM     29  C   UNL A   1      33.489  34.552  30.016  1.00  0.00     0.251 C 
ATOM     30  H   UNL A   1      32.342  35.187  28.502  1.00  0.00     0.163 HD
ATOM     31  O   UNL A   1      32.849  35.195  30.847  1.00  0.00    -0.269 OA
BRANCH  29  32
ATOM     32  C   UNL A   1      34.704  33.807  30.441  1.00  0.00     0.039 A 
ATOM     33  C   UNL A   1      34.553  32.718  31.308  1.00  0.00     0.014 A 
ATOM     34  C   UNL A   1      35.989  34.201  30.061  1.00  0.00     0.014 A 
ATOM     35  C   UNL A   1      35.678  32.018  31.765  1.00  0.00     0.010 A 
ATOM     36  C   UNL A   1      37.100  33.444  30.436  1.00  0.00     0.010 A 
ATOM     37  C   UNL A   1      36.964  32.367  31.323  1.00  0.00    -0.014 A 
BRANCH  37  38
ATOM     38  C   UNL A   1      38.177  31.663  31.824  1.00  0.00     0.031 A 
ATOM     39  C   UNL A   1      38.806  32.077  33.132  1.00  0.00     0.074 A 
ATOM     40  C   UNL A   1      38.756  30.695  31.084  1.00  0.00     0.049 A 
ATOM     41  N   UNL A   1      39.880  31.613  33.718  1.00  0.00    -0.248 NA
ATOM     42  C   UNL A   1      38.159  33.178  33.867  1.00  0.00     0.031 C 
ATOM     43  C   UNL A   1      38.301  30.252  29.766  1.00  0.00     0.029 A 
ATOM     44  N   UNL A   1      39.866  29.924  31.330  1.00  0.00    -0.354 N 
ATOM     45  C   UNL A   1      40.065  32.394  34.854  1.00  0.00     0.074 A 
ATOM     46  C   UNL A   1      39.011  33.382  34.862  1.00  0.00     0.031 C 
ATOM     47  C   UNL A   1      39.118  29.280  29.323  1.00  0.00     0.029 A 
ATOM     48  C   UNL A   1      40.165  29.047  30.313  1.00  0.00     0.049 A 
ATOM     49  H   UNL A   1      40.398  29.993  32.155  1.00  0.00     0.167 HD
ATOM     50  C   UNL A   1      41.001  32.279  35.826  1.00  0.00     0.034 A 
ATOM     51  C   UNL A   1      41.167  28.152  30.194  1.00  0.00     0.034 A 
ATOM     52  C   UNL A   1      42.001  31.248  35.863  1.00  0.00     0.049 A 
ATOM     53  C   UNL A   1      42.152  27.994  31.323  1.00  0.00     0.074 A 
ATOM     54  C   UNL A   1      42.923  30.979  36.859  1.00  0.00     0.029 A 
ATOM     55  N   UNL A   1      42.208  30.312  34.862  1.00  0.00    -0.354 N 
ATOM     56  N   UNL A   1      42.202  28.627  32.469  1.00  0.00    -0.248 NA
ATOM     57  C   UNL A   1      43.194  26.970  31.159  1.00  0.00     0.031 C 
ATOM     58  C   UNL A   1      43.695  29.883  36.456  1.00  0.00     0.029 A 
ATOM     59  C   UNL A   1      43.245  29.465  35.214  1.00  0.00     0.049 A 
ATOM     60  H   UNL A   1      41.693  30.257  34.024  1.00  0.00     0.167 HD
ATOM     61  C   UNL A   1      43.256  28.059  33.175  1.00  0.00     0.074 A 
ATOM     62  C   UNL A   1      43.804  27.012  32.337  1.00  0.00     0.031 C 
ATOM     63  C   UNL A   1      43.739  28.385  34.399  1.00  0.00     0.034 A 
BRANCH  50  64
ATOM     64  C   UNL A   1      40.944  33.253  36.974  1.00  0.00     0.023 A 
ATOM     65  C   UNL A   1      40.082  32.992  38.059  1.00  0.00     0.012 A 
ATOM     66  C   UNL A   1      41.776  34.389  37.011  1.00  0.00     0.148 A 
ATOM     67  C   UNL A   1      40.022  33.862  39.147  1.00  0.00     0.002 A 
ATOM     68  C   UNL A   1      41.742  35.230  38.119  1.00  0.00     0.091 A 
ATOM     69  F   UNL A   1      42.574  34.634  35.963  1.00  0.00    -0.205 F 
ATOM     70  C   UNL A   1      40.860  34.974  39.181  1.00  0.00     0.022 A 
BRANCH  68  71
ATOM     71  S   UNL A   1      42.837  36.644  38.293  1.00  0.00     0.127 S 
ATOM     72  O   UNL A   1      42.154  37.422  39.326  1.00  0.00    -0.237 OA
ATOM     73  O   UNL A   1      44.086  36.018  38.729  1.00  0.00    -0.237 OA
ATOM     74  O   UNL A   1      42.899  37.265  36.977  1.00  0.00    -0.744 OA
ENDBRANCH  68  71
ENDBRANCH  50  64
BRANCH  51  75
ATOM     75  C   UNL A   1      41.231  27.265  28.996  1.00  0.00     0.023 A 
ATOM     76  C   UNL A   1      40.385  26.140  28.931  1.00  0.00     0.012 A 
ATOM     77  C   UNL A   1      42.091  27.541  27.914  1.00  0.00     0.148 A 
ATOM     78  C   UNL A   1      40.413  25.291  27.825  1.00  0.00     0.002 A 
ATOM     79  C   UNL A   1      42.075  26.720  26.791  1.00  0.00     0.091 A 
ATOM     80  F   UNL A   1      42.902  28.605  28.000  1.00  0.00    -0.205 F 
ATOM     81  C   UNL A   1      41.248  25.586  26.752  1.00  0.00     0.022 A 
BRANCH  79  82
ATOM     82  S   UNL A   1      43.019  27.098  25.310  1.00  0.00     0.127 S 
ATOM     83  O   UNL A   1      42.902  25.855  24.553  1.00  0.00    -0.237 OA
ATOM     84  O   UNL A   1      42.275  28.230  24.753  1.00  0.00    -0.237 OA
ATOM     85  O   UNL A   1      44.357  27.438  25.775  1.00  0.00    -0.744 OA
ENDBRANCH  79  82
ENDBRANCH  51  75
BRANCH  63  86
ATOM     86  C   UNL A   1      44.903  27.592  34.930  1.00  0.00     0.023 A 
ATOM     87  C   UNL A   1      46.215  28.065  34.729  1.00  0.00     0.012 A 
ATOM     88  C   UNL A   1      44.697  26.431  35.701  1.00  0.00     0.148 A 
ATOM     89  C   UNL A   1      47.305  27.379  35.264  1.00  0.00     0.002 A 
ATOM     90  C   UNL A   1      45.785  25.776  36.267  1.00  0.00     0.091 A 
ATOM     91  F   UNL A   1      43.442  25.985  35.865  1.00  0.00    -0.205 F 
ATOM     92  C   UNL A   1      47.090  26.243  36.041  1.00  0.00     0.022 A 
BRANCH  90  93
ATOM     93  S   UNL A   1      45.592  24.363  37.358  1.00  0.00     0.127 S 
ATOM     94  O   UNL A   1      46.980  24.062  37.707  1.00  0.00    -0.237 OA
ATOM     95  O   UNL A   1      44.795  24.917  38.454  1.00  0.00    -0.237 OA
ATOM     96  O   UNL A   1      44.906  23.345  36.573  1.00  0.00    -0.744 OA
ENDBRANCH  90  93
ENDBRANCH  63  86
ENDBRANCH  37  38
ENDBRANCH  29  32
ENDBRANCH  27  28
ENDBRANCH  26  27
ENDBRANCH   1  26
TORSDOF 19
ENDMDL
MODEL 3
REMARK VINA RESULT:     -10.5      1.463      7.654
REMARK SMILES CC[C@@](C)(NC(=O)[C@@H](C)NC(=O)c1ccco1)C(=O)NCCCCNC(=O)c1ccc(-c2c3nc(c(-c4cccc(S(=O)(=O)[O-])c4F)c4ccc([nH]4)c(-c4cccc(S(=O)(=O)[O-])c4F)c4nc(c(-c5cccc(S(=O)(=O)[O-])c5F)c5ccc2[nH]5)C=C4)C=C3)cc1
REMARK SMILES IDX 22 1 21 2 20 3 18 4 19 5 3 7 4 8 2 9 1 10 5 11 6 12 7 14
REMARK SMILES IDX 8 15 9 16 10 17 11 18 12 20 13 21 14 22 17 23 15 24 16 25
REMARK SMILES IDX 23 26 24 27 25 28 26 29 27 31 28 32 29 33 90 34 30 35 89 36
REMARK SMILES IDX 31 37 32 38 33 39 83 40 34 41 88 42 82 43 84 44 35 45 87 46
REMARK SMILES IDX 81 47 80 48 36 50 68 51 48 52 67 53 49 54 52 55 66 56 85 57
REMARK SMILES IDX 50 58 51 59 65 61 86 62 53 63 37 64 38 65 46 66 39 67 41 68
REMARK SMILES IDX 47 69 40 70 42 71 43 72 44 73 45 74 69 75 70 76 78 77 71 78
REMARK SMILES IDX 73 79 79 80 72 81 74 82 75 83 76 84 77 85 54 86 55 87 63 88
REMARK SMILES IDX 56 89 58 90 64 91 57 92 59 93 60 94 61 95 62 96
REMARK H PARENT 20 6 5 13 10 19 25 30 84 49 52 60
REMARK Flexibility Score: inf
ROOT
ATOM      1  C   UNL A   1      37.042  20.517  24.329  1.00  0.00     0.023 C 
ENDROOT
BRANCH   1   2
ATOM      2  C   UNL A   1      35.971  21.155  25.214  1.00  0.00     0.116 C 
BRANCH   2   3
ATOM      3  N   UNL A   1      34.790  20.341  25.466  1.00  0.00    -0.354 N 
ATOM      4  C   UNL A   1      33.451  20.575  25.316  1.00  0.00     0.245 C 
ATOM      5  O   UNL A   1      32.690  19.636  25.569  1.00  0.00    -0.272 OA
ATOM      6  H   UNL A   1      34.996  19.443  25.810  1.00  0.00     0.163 HD
BRANCH   4   7
ATOM      7  C   UNL A   1      32.883  21.956  24.926  1.00  0.00     0.116 C 
ATOM      8  C   UNL A   1      32.823  22.069  23.382  1.00  0.00     0.045 C 
BRANCH   7   9
ATOM      9  C   UNL A   1      31.442  22.240  25.438  1.00  0.00     0.035 C 
ATOM     10  C   UNL A   1      31.286  22.773  26.860  1.00  0.00     0.007 C 
ENDBRANCH   7   9
BRANCH   7  11
ATOM     11  N   UNL A   1      33.784  22.993  25.486  1.00  0.00    -0.340 N 
ATOM     12  C   UNL A   1      34.043  24.296  25.192  1.00  0.00     0.243 C 
ATOM     13  H   UNL A   1      34.316  22.662  26.245  1.00  0.00     0.164 HD
ATOM     14  O   UNL A   1      35.153  24.678  25.600  1.00  0.00    -0.273 OA
BRANCH  12  15
ATOM     15  C   UNL A   1      33.195  25.293  24.324  1.00  0.00     0.168 C 
ATOM     16  C   UNL A   1      33.692  25.377  22.886  1.00  0.00     0.041 C 
BRANCH  15  17
ATOM     17  N   UNL A   1      31.740  25.223  24.310  1.00  0.00    -0.338 N 
ATOM     18  C   UNL A   1      30.818  25.995  24.986  1.00  0.00     0.287 C 
ATOM     19  H   UNL A   1      31.359  24.522  23.734  1.00  0.00     0.164 HD
ATOM     20  O   UNL A   1      29.644  25.628  24.931  1.00  0.00    -0.266 OA
BRANCH  18  21
ATOM     21  C   UNL A   1      31.256  27.141  25.754  1.00  0.00     0.191 A 
ATOM     22  C   UNL A   1      31.498  28.460  25.414  1.00  0.00     0.056 A 
ATOM     23  O   UNL A   1      31.427  26.986  27.105  1.00  0.00    -0.459 OA
ATOM     24  C   UNL A   1      31.825  29.139  26.615  1.00  0.00     0.043 A 
ATOM     25  C   UNL A   1      31.770  28.197  27.614  1.00  0.00     0.196 A 
ENDBRANCH  18  21
ENDBRANCH  15  17
ENDBRANCH  12  15
ENDBRANCH   7  11
ENDBRANCH   4   7
ENDBRANCH   2   3
ENDBRANCH   1   2
BRANCH   1  26
ATOM     26  C   UNL A   1      37.936  19.482  24.995  1.00  0.00     0.023 C 
BRANCH  26  27
ATOM     27  C   UNL A   1      38.905  19.984  26.049  1.00  0.00     0.116 C 
BRANCH  27  28
ATOM     28  N   UNL A   1      40.115  19.186  26.108  1.00  0.00    -0.352 N 
ATOM     29  C   UNL A   1      41.428  19.587  26.202  1.00  0.00     0.251 C 
ATOM     30  H   UNL A   1      39.976  18.212  26.077  1.00  0.00     0.163 HD
ATOM     31  O   UNL A   1      42.314  18.750  26.030  1.00  0.00    -0.269 OA
BRANCH  29  32
ATOM     32  C   UNL A   1      41.797  20.997  26.496  1.00  0.00     0.039 A 
ATOM     33  C   UNL A   1      41.876  21.904  25.432  1.00  0.00     0.014 A 
ATOM     34  C   UNL A   1      42.132  21.426  27.782  1.00  0.00     0.014 A 
ATOM     35  C   UNL A   1      42.262  23.231  25.663  1.00  0.00     0.010 A 
ATOM     36  C   UNL A   1      42.420  22.770  28.026  1.00  0.00     0.010 A 
ATOM     37  C   UNL A   1      42.525  23.682  26.966  1.00  0.00    -0.014 A 
BRANCH  37  38
ATOM     38  C   UNL A   1      42.974  25.077  27.232  1.00  0.00     0.031 A 
ATOM     39  C   UNL A   1      42.036  26.061  27.888  1.00  0.00     0.074 A 
ATOM     40  C   UNL A   1      44.196  25.486  26.834  1.00  0.00     0.049 A 
ATOM     41  N   UNL A   1      42.227  27.325  28.171  1.00  0.00    -0.248 NA
ATOM     42  C   UNL A   1      40.695  25.569  28.250  1.00  0.00     0.031 C 
ATOM     43  C   UNL A   1      45.171  24.664  26.117  1.00  0.00     0.029 A 
ATOM     44  N   UNL A   1      44.816  26.705  26.959  1.00  0.00    -0.354 N 
ATOM     45  C   UNL A   1      41.023  27.787  28.691  1.00  0.00     0.074 A 
ATOM     46  C   UNL A   1      40.096  26.679  28.658  1.00  0.00     0.031 C 
ATOM     47  C   UNL A   1      46.272  25.397  25.876  1.00  0.00     0.029 A 
ATOM     48  C   UNL A   1      46.072  26.746  26.398  1.00  0.00     0.049 A 
ATOM     49  H   UNL A   1      44.401  27.477  27.407  1.00  0.00     0.167 HD
ATOM     50  C   UNL A   1      40.722  29.010  29.188  1.00  0.00     0.034 A 
ATOM     51  C   UNL A   1      46.965  27.754  26.319  1.00  0.00     0.034 A 
ATOM     52  C   UNL A   1      41.664  30.090  29.297  1.00  0.00     0.049 A 
ATOM     53  C   UNL A   1      46.632  29.083  26.947  1.00  0.00     0.074 A 
ATOM     54  C   UNL A   1      41.488  31.329  29.887  1.00  0.00     0.029 A 
ATOM     55  N   UNL A   1      42.961  30.058  28.810  1.00  0.00    -0.354 N 
ATOM     56  N   UNL A   1      45.549  29.444  27.589  1.00  0.00    -0.248 NA
ATOM     57  C   UNL A   1      47.661  30.130  26.872  1.00  0.00     0.031 C 
ATOM     58  C   UNL A   1      42.678  32.052  29.749  1.00  0.00     0.029 A 
ATOM     59  C   UNL A   1      43.597  31.257  29.082  1.00  0.00     0.049 A 
ATOM     60  H   UNL A   1      43.370  29.296  28.339  1.00  0.00     0.167 HD
ATOM     61  C   UNL A   1      45.777  30.745  28.023  1.00  0.00     0.074 A 
ATOM     62  C   UNL A   1      47.113  31.102  27.590  1.00  0.00     0.031 C 
ATOM     63  C   UNL A   1      44.949  31.576  28.703  1.00  0.00     0.034 A 
BRANCH  50  64
ATOM     64  C   UNL A   1      39.330  29.226  29.724  1.00  0.00     0.023 A 
ATOM     65  C   UNL A   1      39.048  28.902  31.067  1.00  0.00     0.012 A 
ATOM     66  C   UNL A   1      38.321  29.799  28.927  1.00  0.00     0.148 A 
ATOM     67  C   UNL A   1      37.777  29.112  31.599  1.00  0.00     0.002 A 
ATOM     68  C   UNL A   1      37.067  30.045  29.476  1.00  0.00     0.091 A 
ATOM     69  F   UNL A   1      38.598  30.082  27.646  1.00  0.00    -0.205 F 
ATOM     70  C   UNL A   1      36.790  29.693  30.807  1.00  0.00     0.022 A 
BRANCH  68  71
ATOM     71  S   UNL A   1      35.753  30.860  28.561  1.00  0.00     0.127 S 
ATOM     72  O   UNL A   1      36.485  31.924  27.874  1.00  0.00    -0.237 OA
ATOM     73  O   UNL A   1      35.273  29.789  27.685  1.00  0.00    -0.237 OA
ATOM     74  O   UNL A   1      34.787  31.303  29.557  1.00  0.00    -0.744 OA
ENDBRANCH  68  71
ENDBRANCH  50  64
BRANCH  51  75
ATOM     75  C   UNL A   1      48.301  27.515  25.702  1.00  0.00     0.023 A 
ATOM     76  C   UNL A   1      49.379  27.139  26.528  1.00  0.00     0.012 A 
ATOM     77  C   UNL A   1      48.507  27.622  24.312  1.00  0.00     0.148 A 
ATOM     78  C   UNL A   1      50.643  26.902  25.987  1.00  0.00     0.002 A 
ATOM     79  C   UNL A   1      49.756  27.332  23.773  1.00  0.00     0.091 A 
ATOM     80  F   UNL A   1      47.475  27.998  23.543  1.00  0.00    -0.205 F 
ATOM     81  C   UNL A   1      50.828  26.987  24.610  1.00  0.00     0.022 A 
BRANCH  79  82
ATOM     82  S   UNL A   1      50.052  27.288  22.001  1.00  0.00     0.127 S 
ATOM     83  O   UNL A   1      49.881  28.690  21.632  1.00  0.00    -0.237 OA
ATOM     84  O   UNL A   1      51.430  26.797  21.933  1.00  0.00    -0.237 OA
ATOM     85  O   UNL A   1      49.064  26.362  21.462  1.00  0.00    -0.744 OA
ENDBRANCH  79  82
ENDBRANCH  51  75
BRANCH  63  86
ATOM     86  C   UNL A   1      45.462  32.949  29.051  1.00  0.00     0.023 A 
ATOM     87  C   UNL A   1      46.275  33.118  30.189  1.00  0.00     0.012 A 
ATOM     88  C   UNL A   1      45.212  34.050  28.208  1.00  0.00     0.148 A 
ATOM     89  C   UNL A   1      46.810  34.369  30.497  1.00  0.00     0.002 A 
ATOM     90  C   UNL A   1      45.784  35.283  28.498  1.00  0.00     0.091 A 
ATOM     91  F   UNL A   1      44.419  33.872  27.141  1.00  0.00    -0.205 F 
ATOM     92  C   UNL A   1      46.575  35.447  29.647  1.00  0.00     0.022 A 
BRANCH  90  93
ATOM     93  S   UNL A   1      45.610  36.700  27.407  1.00  0.00     0.127 S 
ATOM     94  O   UNL A   1      46.531  36.359  26.325  1.00  0.00    -0.237 OA
ATOM     95  O   UNL A   1      44.193  36.645  27.042  1.00  0.00    -0.237 OA
ATOM     96  O   UNL A   1      45.978  37.863  28.204  1.00  0.00    -0.744 OA
ENDBRANCH  90  93
ENDBRANCH  63  86
ENDBRANCH  37  38
ENDBRANCH  29  32
ENDBRANCH  27  28
ENDBRANCH  26  27
ENDBRANCH   1  26
TORSDOF 19
ENDMDL
