MODEL 1
REMARK VINA RESULT:     -12.7      0.000      0.000
REMARK SMILES COc1cccc([C@@H]2C[N@@H+](Cc3nccn3C)C[C@H]2C(=O)NCCCCNC(=O)c2ccc(-c3c4nc(c(-c5cccc(S(=O)(=O)[O-])c5F)c5ccc([nH]5)c(-c5cccc(S(=O)(=O)[O-])c5F)c5nc(c(-c6cccc(S(=O)(=O)[O-])c6F)c6ccc3[nH]6)C=C5)C=C4)cc2)c1
REMARK SMILES IDX 25 1 24 2 23 3 22 4 20 5 21 6 19 8 8 9 9 10 10 11 18 12 7 14
REMARK SMILES IDX 3 15 4 16 93 17 5 18 6 19 2 20 1 21 11 22 12 23 13 24 16 25
REMARK SMILES IDX 14 26 15 27 17 28 26 29 27 30 28 31 29 33 30 34 31 35 92 36
REMARK SMILES IDX 32 37 91 38 33 39 34 40 35 41 85 42 36 43 90 44 84 45 86 46
REMARK SMILES IDX 37 47 89 48 83 49 82 50 38 52 70 53 50 54 69 55 51 56 54 57
REMARK SMILES IDX 68 58 87 59 52 60 53 61 67 63 88 64 55 65 39 66 40 67 48 68
REMARK SMILES IDX 41 69 43 70 49 71 42 72 44 73 45 74 46 75 47 76 71 77 72 78
REMARK SMILES IDX 80 79 73 80 75 81 81 82 74 83 76 84 77 85 78 86 79 87 56 88
REMARK SMILES IDX 57 89 65 90 58 91 60 92 66 93 59 94 61 95 62 96 63 97 64 98
REMARK H PARENT 22 7 10 13 27 32 86 51 54 62
REMARK Flexibility Score: inf
ROOT
ATOM      1  C   UNL A   1      31.694  28.990  27.039  1.00  0.00     0.023 C 
ENDROOT
BRANCH   1   2
ATOM      2  C   UNL A   1      31.882  27.465  26.919  1.00  0.00     0.023 C 
BRANCH   2   3
ATOM      3  C   UNL A   1      30.725  26.636  26.340  1.00  0.00     0.116 C 
BRANCH   3   4
ATOM      4  N   UNL A   1      30.997  25.198  26.350  1.00  0.00    -0.356 N 
ATOM      5  C   UNL A   1      32.094  24.440  26.101  1.00  0.00     0.229 C 
ATOM      6  O   UNL A   1      32.338  23.597  26.979  1.00  0.00    -0.275 OA
ATOM      7  H   UNL A   1      30.208  24.661  26.592  1.00  0.00     0.163 HD
BRANCH   5   8
ATOM      8  C   UNL A   1      32.989  24.431  24.857  1.00  0.00     0.146 C 
ATOM      9  C   UNL A   1      32.762  23.381  23.772  1.00  0.00     0.092 C 
ATOM     10  C   UNL A   1      33.632  23.915  22.612  1.00  0.00     0.271 C 
ATOM     11  N   UNL A   1      33.691  25.381  22.753  1.00  0.00    -0.327 N 
ATOM     12  C   UNL A   1      33.259  25.730  24.115  1.00  0.00     0.277 C 
ATOM     13  H   UNL A   1      34.652  25.706  22.652  1.00  0.00     0.348 HD
BRANCH   9  14
ATOM     14  C   UNL A   1      33.197  21.987  24.192  1.00  0.00    -0.035 A 
ATOM     15  C   UNL A   1      34.974  20.430  24.830  1.00  0.00     0.119 A 
ATOM     16  C   UNL A   1      34.026  19.423  24.985  1.00  0.00     0.046 A 
ATOM     17  C   UNL A   1      34.559  21.693  24.414  1.00  0.00     0.050 A 
ATOM     18  C   UNL A   1      32.673  19.692  24.765  1.00  0.00     0.004 A 
ATOM     19  C   UNL A   1      32.258  20.968  24.375  1.00  0.00     0.004 A 
BRANCH  15  20
ATOM     20  O   UNL A   1      36.276  20.083  25.074  1.00  0.00    -0.497 OA
ATOM     21  C   UNL A   1      37.195  21.174  25.086  1.00  0.00     0.278 C 
ENDBRANCH  15  20
ENDBRANCH   9  14
BRANCH  11  22
ATOM     22  C   UNL A   1      33.037  26.107  21.653  1.00  0.00     0.339 C 
BRANCH  22  23
ATOM     23  C   UNL A   1      32.082  27.158  22.123  1.00  0.00     0.164 A 
ATOM     24  N   UNL A   1      30.766  27.014  22.162  1.00  0.00    -0.236 NA
ATOM     25  N   UNL A   1      32.450  28.333  22.725  1.00  0.00    -0.333 N 
ATOM     26  C   UNL A   1      30.308  27.998  22.984  1.00  0.00     0.131 A 
ATOM     27  C   UNL A   1      31.350  28.784  23.394  1.00  0.00     0.107 A 
ATOM     28  C   UNL A   1      33.741  28.977  22.705  1.00  0.00     0.151 C 
ENDBRANCH  22  23
ENDBRANCH  11  22
ENDBRANCH   5   8
ENDBRANCH   3   4
ENDBRANCH   2   3
ENDBRANCH   1   2
BRANCH   1  29
ATOM     29  C   UNL A   1      32.784  29.948  26.560  1.00  0.00     0.116 C 
BRANCH  29  30
ATOM     30  N   UNL A   1      32.739  31.292  27.121  1.00  0.00    -0.352 N 
ATOM     31  C   UNL A   1      33.738  32.030  27.720  1.00  0.00     0.251 C 
ATOM     32  H   UNL A   1      31.864  31.740  27.063  1.00  0.00     0.163 HD
ATOM     33  O   UNL A   1      33.521  33.176  28.103  1.00  0.00    -0.269 OA
BRANCH  31  34
ATOM     34  C   UNL A   1      35.042  31.391  27.969  1.00  0.00     0.039 A 
ATOM     35  C   UNL A   1      36.186  32.193  28.007  1.00  0.00     0.014 A 
ATOM     36  C   UNL A   1      35.101  30.045  28.323  1.00  0.00     0.014 A 
ATOM     37  C   UNL A   1      37.372  31.667  28.522  1.00  0.00     0.010 A 
ATOM     38  C   UNL A   1      36.251  29.560  28.933  1.00  0.00     0.010 A 
ATOM     39  C   UNL A   1      37.396  30.367  29.052  1.00  0.00    -0.014 A 
BRANCH  39  40
ATOM     40  C   UNL A   1      38.593  29.833  29.757  1.00  0.00     0.031 A 
ATOM     41  C   UNL A   1      38.927  30.320  31.142  1.00  0.00     0.074 A 
ATOM     42  C   UNL A   1      39.444  29.008  29.112  1.00  0.00     0.049 A 
ATOM     43  N   UNL A   1      39.972  30.053  31.880  1.00  0.00    -0.248 NA
ATOM     44  C   UNL A   1      37.992  31.278  31.756  1.00  0.00     0.031 C 
ATOM     45  C   UNL A   1      39.305  28.554  27.725  1.00  0.00     0.029 A 
ATOM     46  N   UNL A   1      40.612  28.418  29.532  1.00  0.00    -0.354 N 
ATOM     47  C   UNL A   1      39.849  30.852  33.011  1.00  0.00     0.074 A 
ATOM     48  C   UNL A   1      38.659  31.652  32.837  1.00  0.00     0.031 C 
ATOM     49  C   UNL A   1      40.330  27.741  27.420  1.00  0.00     0.029 A 
ATOM     50  C   UNL A   1      41.211  27.628  28.577  1.00  0.00     0.049 A 
ATOM     51  H   UNL A   1      40.986  28.549  30.433  1.00  0.00     0.167 HD
ATOM     52  C   UNL A   1      40.627  30.883  34.120  1.00  0.00     0.034 A 
ATOM     53  C   UNL A   1      42.334  26.884  28.635  1.00  0.00     0.034 A 
ATOM     54  C   UNL A   1      41.748  30.012  34.333  1.00  0.00     0.049 A 
ATOM     55  C   UNL A   1      43.107  26.834  29.927  1.00  0.00     0.074 A 
ATOM     56  C   UNL A   1      42.530  29.876  35.465  1.00  0.00     0.029 A 
ATOM     57  N   UNL A   1      42.235  29.113  33.398  1.00  0.00    -0.354 N 
ATOM     58  N   UNL A   1      42.875  27.468  31.050  1.00  0.00    -0.248 NA
ATOM     59  C   UNL A   1      44.267  25.932  29.977  1.00  0.00     0.031 C 
ATOM     60  C   UNL A   1      43.489  28.888  35.215  1.00  0.00     0.029 A 
ATOM     61  C   UNL A   1      43.297  28.405  33.930  1.00  0.00     0.049 A 
ATOM     62  H   UNL A   1      41.877  28.994  32.488  1.00  0.00     0.167 HD
ATOM     63  C   UNL A   1      43.831  27.013  31.951  1.00  0.00     0.074 A 
ATOM     64  C   UNL A   1      44.636  26.034  31.247  1.00  0.00     0.031 C 
ATOM     65  C   UNL A   1      44.037  27.382  33.239  1.00  0.00     0.034 A 
BRANCH  52  66
ATOM     66  C   UNL A   1      40.227  31.830  35.221  1.00  0.00     0.023 A 
ATOM     67  C   UNL A   1      40.833  33.102  35.291  1.00  0.00     0.012 A 
ATOM     68  C   UNL A   1      39.243  31.480  36.165  1.00  0.00     0.148 A 
ATOM     69  C   UNL A   1      40.504  33.991  36.313  1.00  0.00     0.002 A 
ATOM     70  C   UNL A   1      38.886  32.392  37.153  1.00  0.00     0.091 A 
ATOM     71  F   UNL A   1      38.694  30.260  36.096  1.00  0.00    -0.205 F 
ATOM     72  C   UNL A   1      39.525  33.640  37.237  1.00  0.00     0.022 A 
BRANCH  70  73
ATOM     73  S   UNL A   1      37.581  32.065  38.343  1.00  0.00     0.127 S 
ATOM     74  O   UNL A   1      38.244  32.391  39.605  1.00  0.00    -0.237 OA
ATOM     75  O   UNL A   1      36.546  33.016  37.936  1.00  0.00    -0.237 OA
ATOM     76  O   UNL A   1      37.221  30.666  38.166  1.00  0.00    -0.744 OA
ENDBRANCH  70  73
ENDBRANCH  52  66
BRANCH  53  77
ATOM     77  C   UNL A   1      42.730  26.034  27.475  1.00  0.00     0.023 A 
ATOM     78  C   UNL A   1      43.617  26.561  26.514  1.00  0.00     0.012 A 
ATOM     79  C   UNL A   1      42.268  24.713  27.327  1.00  0.00     0.148 A 
ATOM     80  C   UNL A   1      44.007  25.802  25.409  1.00  0.00     0.002 A 
ATOM     81  C   UNL A   1      42.700  23.944  26.251  1.00  0.00     0.091 A 
ATOM     82  F   UNL A   1      41.417  24.230  28.244  1.00  0.00    -0.205 F 
ATOM     83  C   UNL A   1      43.557  24.492  25.282  1.00  0.00     0.022 A 
BRANCH  81  84
ATOM     84  S   UNL A   1      42.274  22.207  26.078  1.00  0.00     0.127 S 
ATOM     85  O   UNL A   1      43.016  21.835  24.876  1.00  0.00    -0.237 OA
ATOM     86  O   UNL A   1      42.792  21.639  27.323  1.00  0.00    -0.237 OA
ATOM     87  O   UNL A   1      40.822  22.174  25.965  1.00  0.00    -0.744 OA
ENDBRANCH  81  84
ENDBRANCH  53  77
BRANCH  65  88
ATOM     88  C   UNL A   1      45.143  26.702  33.998  1.00  0.00     0.023 A 
ATOM     89  C   UNL A   1      46.451  27.221  33.941  1.00  0.00     0.012 A 
ATOM     90  C   UNL A   1      44.864  25.613  34.847  1.00  0.00     0.148 A 
ATOM     91  C   UNL A   1      47.471  26.650  34.701  1.00  0.00     0.002 A 
ATOM     92  C   UNL A   1      45.877  25.078  35.635  1.00  0.00     0.091 A 
ATOM     93  F   UNL A   1      43.617  25.120  34.869  1.00  0.00    -0.205 F 
ATOM     94  C   UNL A   1      47.181  25.589  35.556  1.00  0.00     0.022 A 
BRANCH  92  95
ATOM     95  S   UNL A   1      45.566  23.778  36.836  1.00  0.00     0.127 S 
ATOM     96  O   UNL A   1      44.592  24.416  37.720  1.00  0.00    -0.237 OA
ATOM     97  O   UNL A   1      45.022  22.705  36.001  1.00  0.00    -0.237 OA
ATOM     98  O   UNL A   1      46.858  23.475  37.437  1.00  0.00    -0.744 OA
ENDBRANCH  92  95
ENDBRANCH  65  88
ENDBRANCH  39  40
ENDBRANCH  31  34
ENDBRANCH  29  30
ENDBRANCH   1  29
TORSDOF 18
ENDMDL
MODEL 2
REMARK VINA RESULT:     -12.6      1.343      3.437
REMARK SMILES COc1cccc([C@@H]2C[N@@H+](Cc3nccn3C)C[C@H]2C(=O)NCCCCNC(=O)c2ccc(-c3c4nc(c(-c5cccc(S(=O)(=O)[O-])c5F)c5ccc([nH]5)c(-c5cccc(S(=O)(=O)[O-])c5F)c5nc(c(-c6cccc(S(=O)(=O)[O-])c6F)c6ccc3[nH]6)C=C5)C=C4)cc2)c1
REMARK SMILES IDX 25 1 24 2 23 3 22 4 20 5 21 6 19 8 8 9 9 10 10 11 18 12 7 14
REMARK SMILES IDX 3 15 4 16 93 17 5 18 6 19 2 20 1 21 11 22 12 23 13 24 16 25
REMARK SMILES IDX 14 26 15 27 17 28 26 29 27 30 28 31 29 33 30 34 31 35 92 36
REMARK SMILES IDX 32 37 91 38 33 39 34 40 35 41 85 42 36 43 90 44 84 45 86 46
REMARK SMILES IDX 37 47 89 48 83 49 82 50 38 52 70 53 50 54 69 55 51 56 54 57
REMARK SMILES IDX 68 58 87 59 52 60 53 61 67 63 88 64 55 65 39 66 40 67 48 68
REMARK SMILES IDX 41 69 43 70 49 71 42 72 44 73 45 74 46 75 47 76 71 77 72 78
REMARK SMILES IDX 80 79 73 80 75 81 81 82 74 83 76 84 77 85 78 86 79 87 56 88
REMARK SMILES IDX 57 89 65 90 58 91 60 92 66 93 59 94 61 95 62 96 63 97 64 98
REMARK H PARENT 22 7 10 13 27 32 86 51 54 62
REMARK Flexibility Score: inf
ROOT
ATOM      1  C   UNL A   1      31.766  29.368  26.410  1.00  0.00     0.023 C 
ENDROOT
BRANCH   1   2
ATOM      2  C   UNL A   1      32.102  28.285  27.454  1.00  0.00     0.023 C 
BRANCH   2   3
ATOM      3  C   UNL A   1      32.251  26.835  26.970  1.00  0.00     0.116 C 
BRANCH   3   4
ATOM      4  N   UNL A   1      30.968  26.209  26.650  1.00  0.00    -0.356 N 
ATOM      5  C   UNL A   1      30.605  25.041  26.061  1.00  0.00     0.229 C 
ATOM      6  O   UNL A   1      29.758  24.395  26.698  1.00  0.00    -0.275 OA
ATOM      7  H   UNL A   1      30.196  26.756  26.921  1.00  0.00     0.163 HD
BRANCH   5   8
ATOM      8  C   UNL A   1      31.028  24.483  24.698  1.00  0.00     0.146 C 
ATOM      9  C   UNL A   1      32.297  25.006  24.030  1.00  0.00     0.092 C 
ATOM     10  C   UNL A   1      32.507  23.990  22.885  1.00  0.00     0.271 C 
ATOM     11  N   UNL A   1      31.923  22.711  23.326  1.00  0.00    -0.327 N 
ATOM     12  C   UNL A   1      31.038  22.980  24.472  1.00  0.00     0.277 C 
ATOM     13  H   UNL A   1      31.342  22.316  22.587  1.00  0.00     0.348 HD
BRANCH   9  14
ATOM     14  C   UNL A   1      32.148  26.420  23.493  1.00  0.00    -0.035 A 
ATOM     15  C   UNL A   1      30.740  28.188  22.556  1.00  0.00     0.119 A 
ATOM     16  C   UNL A   1      31.844  29.034  22.512  1.00  0.00     0.046 A 
ATOM     17  C   UNL A   1      30.903  26.886  23.022  1.00  0.00     0.050 A 
ATOM     18  C   UNL A   1      33.087  28.591  22.969  1.00  0.00     0.004 A 
ATOM     19  C   UNL A   1      33.240  27.293  23.462  1.00  0.00     0.004 A 
BRANCH  15  20
ATOM     20  O   UNL A   1      29.558  28.705  22.096  1.00  0.00    -0.497 OA
ATOM     21  C   UNL A   1      29.173  29.942  22.694  1.00  0.00     0.278 C 
ENDBRANCH  15  20
ENDBRANCH   9  14
BRANCH  11  22
ATOM     22  C   UNL A   1      32.913  21.639  23.503  1.00  0.00     0.339 C 
BRANCH  22  23
ATOM     23  C   UNL A   1      33.781  21.827  24.707  1.00  0.00     0.164 A 
ATOM     24  N   UNL A   1      33.435  21.496  25.942  1.00  0.00    -0.236 NA
ATOM     25  N   UNL A   1      35.097  22.207  24.668  1.00  0.00    -0.333 N 
ATOM     26  C   UNL A   1      34.593  21.457  26.656  1.00  0.00     0.131 A 
ATOM     27  C   UNL A   1      35.642  21.832  25.861  1.00  0.00     0.107 A 
ATOM     28  C   UNL A   1      35.808  22.846  23.588  1.00  0.00     0.151 C 
ENDBRANCH  22  23
ENDBRANCH  11  22
ENDBRANCH   5   8
ENDBRANCH   3   4
ENDBRANCH   2   3
ENDBRANCH   1   2
BRANCH   1  29
ATOM     29  C   UNL A   1      32.768  30.476  26.088  1.00  0.00     0.116 C 
BRANCH  29  30
ATOM     30  N   UNL A   1      32.612  31.711  26.845  1.00  0.00    -0.352 N 
ATOM     31  C   UNL A   1      33.522  32.378  27.638  1.00  0.00     0.251 C 
ATOM     32  H   UNL A   1      31.725  32.133  26.780  1.00  0.00     0.163 HD
ATOM     33  O   UNL A   1      33.219  33.441  28.174  1.00  0.00    -0.269 OA
BRANCH  31  34
ATOM     34  C   UNL A   1      34.830  31.753  27.899  1.00  0.00     0.039 A 
ATOM     35  C   UNL A   1      35.957  32.573  28.004  1.00  0.00     0.014 A 
ATOM     36  C   UNL A   1      34.905  30.395  28.200  1.00  0.00     0.014 A 
ATOM     37  C   UNL A   1      37.137  32.048  28.533  1.00  0.00     0.010 A 
ATOM     38  C   UNL A   1      36.045  29.906  28.824  1.00  0.00     0.010 A 
ATOM     39  C   UNL A   1      37.171  30.727  29.010  1.00  0.00    -0.014 A 
BRANCH  39  40
ATOM     40  C   UNL A   1      38.356  30.187  29.728  1.00  0.00     0.031 A 
ATOM     41  C   UNL A   1      38.642  30.624  31.140  1.00  0.00     0.074 A 
ATOM     42  C   UNL A   1      39.241  29.403  29.076  1.00  0.00     0.049 A 
ATOM     43  N   UNL A   1      39.670  30.346  31.898  1.00  0.00    -0.248 NA
ATOM     44  C   UNL A   1      37.672  31.541  31.764  1.00  0.00     0.031 C 
ATOM     45  C   UNL A   1      39.149  29.001  27.669  1.00  0.00     0.029 A 
ATOM     46  N   UNL A   1      40.406  28.817  29.507  1.00  0.00    -0.354 N 
ATOM     47  C   UNL A   1      39.501  31.097  33.055  1.00  0.00     0.074 A 
ATOM     48  C   UNL A   1      38.302  31.883  32.878  1.00  0.00     0.031 C 
ATOM     49  C   UNL A   1      40.197  28.219  27.362  1.00  0.00     0.029 A 
ATOM     50  C   UNL A   1      41.047  28.076  28.540  1.00  0.00     0.049 A 
ATOM     51  H   UNL A   1      40.752  28.918  30.423  1.00  0.00     0.167 HD
ATOM     52  C   UNL A   1      40.246  31.098  34.186  1.00  0.00     0.034 A 
ATOM     53  C   UNL A   1      42.181  27.349  28.601  1.00  0.00     0.034 A 
ATOM     54  C   UNL A   1      41.376  30.238  34.398  1.00  0.00     0.049 A 
ATOM     55  C   UNL A   1      42.918  27.261  29.912  1.00  0.00     0.074 A 
ATOM     56  C   UNL A   1      42.128  30.070  35.546  1.00  0.00     0.029 A 
ATOM     57  N   UNL A   1      41.906  29.385  33.442  1.00  0.00    -0.354 N 
ATOM     58  N   UNL A   1      42.643  27.845  31.052  1.00  0.00    -0.248 NA
ATOM     59  C   UNL A   1      44.092  26.377  29.960  1.00  0.00     0.031 C 
ATOM     60  C   UNL A   1      43.111  29.109  35.285  1.00  0.00     0.029 A 
ATOM     61  C   UNL A   1      42.965  28.675  33.977  1.00  0.00     0.049 A 
ATOM     62  H   UNL A   1      41.576  29.296  32.519  1.00  0.00     0.167 HD
ATOM     63  C   UNL A   1      43.581  27.371  31.962  1.00  0.00     0.074 A 
ATOM     64  C   UNL A   1      44.422  26.435  31.244  1.00  0.00     0.031 C 
ATOM     65  C   UNL A   1      43.743  27.693  33.268  1.00  0.00     0.034 A 
BRANCH  52  66
ATOM     66  C   UNL A   1      39.798  31.993  35.311  1.00  0.00     0.023 A 
ATOM     67  C   UNL A   1      40.235  33.334  35.342  1.00  0.00     0.012 A 
ATOM     68  C   UNL A   1      38.932  31.525  36.318  1.00  0.00     0.148 A 
ATOM     69  C   UNL A   1      39.859  34.181  36.383  1.00  0.00     0.002 A 
ATOM     70  C   UNL A   1      38.523  32.390  37.327  1.00  0.00     0.091 A 
ATOM     71  F   UNL A   1      38.545  30.243  36.285  1.00  0.00    -0.205 F 
ATOM     72  C   UNL A   1      38.997  33.712  37.370  1.00  0.00     0.022 A 
BRANCH  70  73
ATOM     73  S   UNL A   1      37.353  31.905  38.601  1.00  0.00     0.127 S 
ATOM     74  O   UNL A   1      36.261  32.851  38.374  1.00  0.00    -0.237 OA
ATOM     75  O   UNL A   1      37.049  30.523  38.230  1.00  0.00    -0.237 OA
ATOM     76  O   UNL A   1      38.058  32.051  39.866  1.00  0.00    -0.744 OA
ENDBRANCH  70  73
ENDBRANCH  52  66
BRANCH  53  77
ATOM     77  C   UNL A   1      42.625  26.552  27.420  1.00  0.00     0.023 A 
ATOM     78  C   UNL A   1      43.445  27.167  26.452  1.00  0.00     0.012 A 
ATOM     79  C   UNL A   1      42.274  25.199  27.260  1.00  0.00     0.148 A 
ATOM     80  C   UNL A   1      43.877  26.460  25.329  1.00  0.00     0.002 A 
ATOM     81  C   UNL A   1      42.749  24.485  26.164  1.00  0.00     0.091 A 
ATOM     82  F   UNL A   1      41.485  24.632  28.184  1.00  0.00    -0.205 F 
ATOM     83  C   UNL A   1      43.537  25.118  25.189  1.00  0.00     0.022 A 
BRANCH  81  84
ATOM     84  S   UNL A   1      42.469  22.721  25.970  1.00  0.00     0.127 S 
ATOM     85  O   UNL A   1      43.041  22.469  24.651  1.00  0.00    -0.237 OA
ATOM     86  O   UNL A   1      43.230  22.166  27.090  1.00  0.00    -0.237 OA
ATOM     87  O   UNL A   1      41.027  22.544  26.084  1.00  0.00    -0.744 OA
ENDBRANCH  81  84
ENDBRANCH  53  77
BRANCH  65  88
ATOM     88  C   UNL A   1      44.839  27.002  34.032  1.00  0.00     0.023 A 
ATOM     89  C   UNL A   1      46.145  27.529  34.011  1.00  0.00     0.012 A 
ATOM     90  C   UNL A   1      44.552  25.892  34.851  1.00  0.00     0.148 A 
ATOM     91  C   UNL A   1      47.154  26.947  34.776  1.00  0.00     0.002 A 
ATOM     92  C   UNL A   1      45.553  25.346  35.646  1.00  0.00     0.091 A 
ATOM     93  F   UNL A   1      43.307  25.393  34.840  1.00  0.00    -0.205 F 
ATOM     94  C   UNL A   1      46.856  25.866  35.602  1.00  0.00     0.022 A 
BRANCH  92  95
ATOM     95  S   UNL A   1      45.228  24.018  36.811  1.00  0.00     0.127 S 
ATOM     96  O   UNL A   1      44.689  22.979  35.937  1.00  0.00    -0.237 OA
ATOM     97  O   UNL A   1      46.563  23.735  37.344  1.00  0.00    -0.237 OA
ATOM     98  O   UNL A   1      44.297  24.565  37.788  1.00  0.00    -0.744 OA
ENDBRANCH  92  95
ENDBRANCH  65  88
ENDBRANCH  39  40
ENDBRANCH  31  34
ENDBRANCH  29  30
ENDBRANCH   1  29
TORSDOF 18
ENDMDL
MODEL 3
REMARK VINA RESULT:     -12.6      4.925      9.751
REMARK SMILES COc1cccc([C@@H]2C[N@@H+](Cc3nccn3C)C[C@H]2C(=O)NCCCCNC(=O)c2ccc(-c3c4nc(c(-c5cccc(S(=O)(=O)[O-])c5F)c5ccc([nH]5)c(-c5cccc(S(=O)(=O)[O-])c5F)c5nc(c(-c6cccc(S(=O)(=O)[O-])c6F)c6ccc3[nH]6)C=C5)C=C4)cc2)c1
REMARK SMILES IDX 25 1 24 2 23 3 22 4 20 5 21 6 19 8 8 9 9 10 10 11 18 12 7 14
REMARK SMILES IDX 3 15 4 16 93 17 5 18 6 19 2 20 1 21 11 22 12 23 13 24 16 25
REMARK SMILES IDX 14 26 15 27 17 28 26 29 27 30 28 31 29 33 30 34 31 35 92 36
REMARK SMILES IDX 32 37 91 38 33 39 34 40 35 41 85 42 36 43 90 44 84 45 86 46
REMARK SMILES IDX 37 47 89 48 83 49 82 50 38 52 70 53 50 54 69 55 51 56 54 57
REMARK SMILES IDX 68 58 87 59 52 60 53 61 67 63 88 64 55 65 39 66 40 67 48 68
REMARK SMILES IDX 41 69 43 70 49 71 42 72 44 73 45 74 46 75 47 76 71 77 72 78
REMARK SMILES IDX 80 79 73 80 75 81 81 82 74 83 76 84 77 85 78 86 79 87 56 88
REMARK SMILES IDX 57 89 65 90 58 91 60 92 66 93 59 94 61 95 62 96 63 97 64 98
REMARK H PARENT 22 7 10 13 27 32 86 51 54 62
REMARK Flexibility Score: inf
ROOT
ATOM      1  C   UNL A   1      35.791  21.902  23.989  1.00  0.00     0.023 C 
ENDROOT
BRANCH   1   2
ATOM      2  C   UNL A   1      35.070  22.906  23.067  1.00  0.00     0.023 C 
BRANCH   2   3
ATOM      3  C   UNL A   1      33.560  22.731  22.845  1.00  0.00     0.116 C 
BRANCH   3   4
ATOM      4  N   UNL A   1      33.031  23.623  21.813  1.00  0.00    -0.356 N 
ATOM      5  C   UNL A   1      32.806  24.959  21.741  1.00  0.00     0.229 C 
ATOM      6  O   UNL A   1      33.268  25.496  20.721  1.00  0.00    -0.275 OA
ATOM      7  H   UNL A   1      32.783  23.148  20.987  1.00  0.00     0.163 HD
BRANCH   5   8
ATOM      8  C   UNL A   1      31.992  25.846  22.688  1.00  0.00     0.146 C 
ATOM      9  C   UNL A   1      32.672  26.480  23.899  1.00  0.00     0.092 C 
ATOM     10  C   UNL A   1      31.613  27.501  24.372  1.00  0.00     0.271 C 
ATOM     11  N   UNL A   1      30.842  27.908  23.184  1.00  0.00    -0.327 N 
ATOM     12  C   UNL A   1      31.090  26.928  22.115  1.00  0.00     0.277 C 
ATOM     13  H   UNL A   1      29.842  27.882  23.387  1.00  0.00     0.348 HD
BRANCH   9  14
ATOM     14  C   UNL A   1      32.997  25.476  24.992  1.00  0.00    -0.035 A 
ATOM     15  C   UNL A   1      32.251  23.812  26.624  1.00  0.00     0.119 A 
ATOM     16  C   UNL A   1      33.573  23.603  27.005  1.00  0.00     0.046 A 
ATOM     17  C   UNL A   1      31.970  24.759  25.643  1.00  0.00     0.050 A 
ATOM     18  C   UNL A   1      34.605  24.306  26.377  1.00  0.00     0.004 A 
ATOM     19  C   UNL A   1      34.320  25.235  25.373  1.00  0.00     0.004 A 
BRANCH  15  20
ATOM     20  O   UNL A   1      31.305  23.075  27.284  1.00  0.00    -0.497 OA
ATOM     21  C   UNL A   1      30.266  22.554  26.456  1.00  0.00     0.278 C 
ENDBRANCH  15  20
ENDBRANCH   9  14
BRANCH  11  22
ATOM     22  C   UNL A   1      31.013  29.324  22.825  1.00  0.00     0.339 C 
BRANCH  22  23
ATOM     23  C   UNL A   1      29.722  30.022  22.534  1.00  0.00     0.164 A 
ATOM     24  N   UNL A   1      28.940  29.755  21.499  1.00  0.00    -0.236 NA
ATOM     25  N   UNL A   1      29.104  30.903  23.383  1.00  0.00    -0.333 N 
ATOM     26  C   UNL A   1      27.729  30.300  21.797  1.00  0.00     0.131 A 
ATOM     27  C   UNL A   1      27.798  30.959  22.994  1.00  0.00     0.107 A 
ATOM     28  C   UNL A   1      29.678  31.619  24.495  1.00  0.00     0.151 C 
ENDBRANCH  22  23
ENDBRANCH  11  22
ENDBRANCH   5   8
ENDBRANCH   3   4
ENDBRANCH   2   3
ENDBRANCH   1   2
BRANCH   1  29
ATOM     29  C   UNL A   1      37.057  22.309  24.742  1.00  0.00     0.116 C 
BRANCH  29  30
ATOM     30  N   UNL A   1      37.999  21.234  25.024  1.00  0.00    -0.352 N 
ATOM     31  C   UNL A   1      39.056  21.199  25.908  1.00  0.00     0.251 C 
ATOM     32  H   UNL A   1      37.860  20.408  24.505  1.00  0.00     0.163 HD
ATOM     33  O   UNL A   1      39.726  20.179  26.039  1.00  0.00    -0.269 OA
BRANCH  31  34
ATOM     34  C   UNL A   1      39.421  22.432  26.628  1.00  0.00     0.039 A 
ATOM     35  C   UNL A   1      40.531  22.410  27.478  1.00  0.00     0.014 A 
ATOM     36  C   UNL A   1      38.771  23.629  26.334  1.00  0.00     0.014 A 
ATOM     37  C   UNL A   1      41.064  23.615  27.936  1.00  0.00     0.010 A 
ATOM     38  C   UNL A   1      39.368  24.827  26.704  1.00  0.00     0.010 A 
ATOM     39  C   UNL A   1      40.527  24.837  27.498  1.00  0.00    -0.014 A 
BRANCH  39  40
ATOM     40  C   UNL A   1      41.170  26.136  27.833  1.00  0.00     0.031 A 
ATOM     41  C   UNL A   1      42.590  26.404  27.407  1.00  0.00     0.074 A 
ATOM     42  C   UNL A   1      40.527  27.025  28.619  1.00  0.00     0.049 A 
ATOM     43  N   UNL A   1      43.355  27.426  27.684  1.00  0.00    -0.248 NA
ATOM     44  C   UNL A   1      43.256  25.356  26.613  1.00  0.00     0.031 C 
ATOM     45  C   UNL A   1      39.194  26.840  29.202  1.00  0.00     0.029 A 
ATOM     46  N   UNL A   1      40.916  28.258  29.083  1.00  0.00    -0.354 N 
ATOM     47  C   UNL A   1      44.602  27.119  27.153  1.00  0.00     0.074 A 
ATOM     48  C   UNL A   1      44.506  25.793  26.587  1.00  0.00     0.031 C 
ATOM     49  C   UNL A   1      38.871  27.927  29.922  1.00  0.00     0.029 A 
ATOM     50  C   UNL A   1      39.975  28.879  29.872  1.00  0.00     0.049 A 
ATOM     51  H   UNL A   1      41.789  28.660  28.871  1.00  0.00     0.167 HD
ATOM     52  C   UNL A   1      45.716  27.887  27.095  1.00  0.00     0.034 A 
ATOM     53  C   UNL A   1      39.993  30.086  30.472  1.00  0.00     0.034 A 
ATOM     54  C   UNL A   1      45.776  29.242  27.565  1.00  0.00     0.049 A 
ATOM     55  C   UNL A   1      41.194  30.976  30.279  1.00  0.00     0.074 A 
ATOM     56  C   UNL A   1      46.812  30.150  27.448  1.00  0.00     0.029 A 
ATOM     57  N   UNL A   1      44.745  29.891  28.227  1.00  0.00    -0.354 N 
ATOM     58  N   UNL A   1      42.302  30.733  29.623  1.00  0.00    -0.248 NA
ATOM     59  C   UNL A   1      41.129  32.322  30.866  1.00  0.00     0.031 C 
ATOM     60  C   UNL A   1      46.405  31.353  28.036  1.00  0.00     0.029 A 
ATOM     61  C   UNL A   1      45.113  31.194  28.511  1.00  0.00     0.049 A 
ATOM     62  H   UNL A   1      43.878  29.486  28.459  1.00  0.00     0.167 HD
ATOM     63  C   UNL A   1      43.047  31.904  29.682  1.00  0.00     0.074 A 
ATOM     64  C   UNL A   1      42.256  32.865  30.424  1.00  0.00     0.031 C 
ATOM     65  C   UNL A   1      44.282  32.158  29.184  1.00  0.00     0.034 A 
BRANCH  52  66
ATOM     66  C   UNL A   1      46.927  27.304  26.415  1.00  0.00     0.023 A 
ATOM     67  C   UNL A   1      47.064  27.436  25.017  1.00  0.00     0.012 A 
ATOM     68  C   UNL A   1      47.935  26.654  27.150  1.00  0.00     0.148 A 
ATOM     69  C   UNL A   1      48.159  26.885  24.355  1.00  0.00     0.002 A 
ATOM     70  C   UNL A   1      49.050  26.149  26.487  1.00  0.00     0.091 A 
ATOM     71  F   UNL A   1      47.779  26.518  28.474  1.00  0.00    -0.205 F 
ATOM     72  C   UNL A   1      49.156  26.250  25.090  1.00  0.00     0.022 A 
BRANCH  70  73
ATOM     73  S   UNL A   1      50.425  25.383  27.353  1.00  0.00     0.127 S 
ATOM     74  O   UNL A   1      49.785  24.209  27.943  1.00  0.00    -0.237 OA
ATOM     75  O   UNL A   1      51.351  25.087  26.260  1.00  0.00    -0.237 OA
ATOM     76  O   UNL A   1      50.905  26.380  28.300  1.00  0.00    -0.744 OA
ENDBRANCH  70  73
ENDBRANCH  52  66
BRANCH  53  77
ATOM     77  C   UNL A   1      38.792  30.574  31.211  1.00  0.00     0.023 A 
ATOM     78  C   UNL A   1      38.731  30.391  32.608  1.00  0.00     0.012 A 
ATOM     79  C   UNL A   1      37.735  31.236  30.561  1.00  0.00     0.148 A 
ATOM     80  C   UNL A   1      37.622  30.825  33.337  1.00  0.00     0.002 A 
ATOM     81  C   UNL A   1      36.656  31.712  31.300  1.00  0.00     0.091 A 
ATOM     82  F   UNL A   1      37.804  31.393  29.231  1.00  0.00    -0.205 F 
ATOM     83  C   UNL A   1      36.591  31.493  32.686  1.00  0.00     0.022 A 
BRANCH  81  84
ATOM     84  S   UNL A   1      35.345  32.695  30.564  1.00  0.00     0.127 S 
ATOM     85  O   UNL A   1      34.921  31.848  29.453  1.00  0.00    -0.237 OA
ATOM     86  O   UNL A   1      34.385  32.797  31.663  1.00  0.00    -0.237 OA
ATOM     87  O   UNL A   1      35.969  33.960  30.198  1.00  0.00    -0.744 OA
ENDBRANCH  81  84
ENDBRANCH  53  77
BRANCH  65  88
ATOM     88  C   UNL A   1      44.848  33.539  29.376  1.00  0.00     0.023 A 
ATOM     89  C   UNL A   1      45.592  33.833  30.534  1.00  0.00     0.012 A 
ATOM     90  C   UNL A   1      44.728  34.509  28.362  1.00  0.00     0.148 A 
ATOM     91  C   UNL A   1      46.190  35.083  30.690  1.00  0.00     0.002 A 
ATOM     92  C   UNL A   1      45.365  35.736  28.505  1.00  0.00     0.091 A 
ATOM     93  F   UNL A   1      43.996  34.216  27.277  1.00  0.00    -0.205 F 
ATOM     94  C   UNL A   1      46.088  36.028  29.672  1.00  0.00     0.022 A 
BRANCH  92  95
ATOM     95  S   UNL A   1      45.366  36.969  27.198  1.00  0.00     0.127 S 
ATOM     96  O   UNL A   1      43.938  37.117  26.927  1.00  0.00    -0.237 OA
ATOM     97  O   UNL A   1      45.985  38.122  27.856  1.00  0.00    -0.237 OA
ATOM     98  O   UNL A   1      46.157  36.401  26.116  1.00  0.00    -0.744 OA
ENDBRANCH  92  95
ENDBRANCH  65  88
ENDBRANCH  39  40
ENDBRANCH  31  34
ENDBRANCH  29  30
ENDBRANCH   1  29
TORSDOF 18
ENDMDL
