MODEL 1
REMARK VINA RESULT:     -11.4      0.000      0.000
REMARK SMILES O=C(/C=C/c1ccc(S(=O)(=O)Nc2ccc3c(c2)OCCO3)cc1)NCCCCNC(=O)c1ccc(-c2c3nc(c(-c4cccc(S(=O)(=O)[O-])c4F)c4ccc([nH]4)c(-c4cccc(S(=O)(=O)[O-])c4F)c4nc(c(-c5cccc(S(=O)(=O)[O-])c5F)c5ccc2[nH]5)C=C4)C=C3)cc1
REMARK SMILES IDX 27 1 26 2 25 3 1 4 2 5 3 7 4 8 5 9 6 10 24 11 7 12 23 13
REMARK SMILES IDX 8 14 9 15 10 16 11 17 12 18 13 20 14 21 18 22 15 23 17 24
REMARK SMILES IDX 16 25 19 26 22 27 20 28 21 29 28 30 29 31 30 32 31 33 32 35
REMARK SMILES IDX 33 36 34 37 95 38 35 39 94 40 36 41 37 42 38 43 88 44 39 45
REMARK SMILES IDX 93 46 87 47 89 48 40 49 92 50 86 51 85 52 41 54 73 55 53 56
REMARK SMILES IDX 72 57 54 58 57 59 71 60 90 61 55 62 56 63 70 65 91 66 58 67
REMARK SMILES IDX 42 68 43 69 51 70 44 71 46 72 52 73 45 74 47 75 48 76 49 77
REMARK SMILES IDX 50 78 74 79 75 80 83 81 76 82 78 83 84 84 77 85 79 86 80 87
REMARK SMILES IDX 81 88 82 89 59 90 60 91 68 92 61 93 63 94 69 95 62 96 64 97
REMARK SMILES IDX 65 98 66 99 67 100
REMARK H PARENT 25 6 12 19 30 34 89 53 57 64
REMARK Flexibility Score: inf
ROOT
ATOM      1  C   UNL A   1      42.167  21.482  27.016  1.00  0.00     0.023 C 
ENDROOT
BRANCH   1   2
ATOM      2  C   UNL A   1      40.901  21.820  27.801  1.00  0.00     0.116 C 
BRANCH   2   3
ATOM      3  N   UNL A   1      39.811  22.240  26.936  1.00  0.00    -0.353 N 
ATOM      4  O   UNL A   1      39.787  24.403  27.691  1.00  0.00    -0.270 OA
ATOM      5  C   UNL A   1      39.330  23.519  26.971  1.00  0.00     0.243 C 
ATOM      6  H   UNL A   1      39.411  21.591  26.315  1.00  0.00     0.163 HD
BRANCH   5   7
ATOM      7  C   UNL A   1      38.225  23.868  26.039  1.00  0.00     0.072 C 
ATOM      8  C   UNL A   1      36.902  23.664  26.163  1.00  0.00     0.014 C 
BRANCH   8   9
ATOM      9  C   UNL A   1      35.895  24.063  25.147  1.00  0.00    -0.025 A 
ATOM     10  C   UNL A   1      35.014  25.121  25.422  1.00  0.00     0.009 A 
ATOM     11  C   UNL A   1      35.755  23.411  23.912  1.00  0.00     0.009 A 
ATOM     12  C   UNL A   1      33.993  25.470  24.521  1.00  0.00     0.023 A 
ATOM     13  C   UNL A   1      34.781  23.798  22.982  1.00  0.00     0.023 A 
ATOM     14  C   UNL A   1      33.861  24.790  23.305  1.00  0.00     0.087 A 
BRANCH  14  15
ATOM     15  S   UNL A   1      32.504  25.206  22.220  1.00  0.00     0.261 S 
ATOM     16  O   UNL A   1      32.102  26.566  22.544  1.00  0.00    -0.201 OA
ATOM     17  O   UNL A   1      32.895  24.859  20.876  1.00  0.00    -0.201 OA
BRANCH  15  18
ATOM     18  N   UNL A   1      31.113  24.242  22.598  1.00  0.00    -0.279 N 
ATOM     19  H   UNL A   1      30.237  24.415  22.182  1.00  0.00     0.180 HD
BRANCH  18  20
ATOM     20  C   UNL A   1      31.300  23.182  23.546  1.00  0.00     0.053 A 
ATOM     21  C   UNL A   1      31.779  21.962  23.054  1.00  0.00     0.031 A 
ATOM     22  C   UNL A   1      31.169  23.398  24.913  1.00  0.00     0.077 A 
ATOM     23  C   UNL A   1      32.357  21.046  23.930  1.00  0.00     0.052 A 
ATOM     24  C   UNL A   1      31.805  22.520  25.778  1.00  0.00     0.163 A 
ATOM     25  C   UNL A   1      32.454  21.386  25.274  1.00  0.00     0.161 A 
ATOM     26  O   UNL A   1      31.881  22.916  27.085  1.00  0.00    -0.486 OA
ATOM     27  O   UNL A   1      33.319  20.655  26.050  1.00  0.00    -0.486 OA
ATOM     28  C   UNL A   1      32.872  22.209  27.842  1.00  0.00     0.271 C 
ATOM     29  C   UNL A   1      33.941  21.572  26.965  1.00  0.00     0.271 C 
ENDBRANCH  18  20
ENDBRANCH  15  18
ENDBRANCH  14  15
ENDBRANCH   8   9
ENDBRANCH   5   7
ENDBRANCH   2   3
ENDBRANCH   1   2
BRANCH   1  30
ATOM     30  C   UNL A   1      42.057  20.239  26.130  1.00  0.00     0.023 C 
BRANCH  30  31
ATOM     31  C   UNL A   1      43.173  19.212  26.301  1.00  0.00     0.116 C 
BRANCH  31  32
ATOM     32  N   UNL A   1      43.779  18.813  25.039  1.00  0.00    -0.352 N 
ATOM     33  C   UNL A   1      44.519  19.565  24.156  1.00  0.00     0.251 C 
ATOM     34  H   UNL A   1      43.640  17.873  24.782  1.00  0.00     0.163 HD
ATOM     35  O   UNL A   1      44.840  19.091  23.069  1.00  0.00    -0.269 OA
BRANCH  33  36
ATOM     36  C   UNL A   1      44.904  20.952  24.503  1.00  0.00     0.039 A 
ATOM     37  C   UNL A   1      44.561  21.985  23.626  1.00  0.00     0.014 A 
ATOM     38  C   UNL A   1      45.590  21.237  25.686  1.00  0.00     0.014 A 
ATOM     39  C   UNL A   1      44.848  23.311  23.969  1.00  0.00     0.010 A 
ATOM     40  C   UNL A   1      45.811  22.561  26.058  1.00  0.00     0.010 A 
ATOM     41  C   UNL A   1      45.443  23.613  25.205  1.00  0.00    -0.014 A 
BRANCH  41  42
ATOM     42  C   UNL A   1      45.667  25.020  25.631  1.00  0.00     0.031 A 
ATOM     43  C   UNL A   1      47.062  25.577  25.722  1.00  0.00     0.074 A 
ATOM     44  C   UNL A   1      44.619  25.771  26.026  1.00  0.00     0.049 A 
ATOM     45  N   UNL A   1      47.454  26.753  26.138  1.00  0.00    -0.248 NA
ATOM     46  C   UNL A   1      48.164  24.687  25.321  1.00  0.00     0.031 C 
ATOM     47  C   UNL A   1      43.225  25.323  26.065  1.00  0.00     0.029 A 
ATOM     48  N   UNL A   1      44.568  27.058  26.502  1.00  0.00    -0.354 N 
ATOM     49  C   UNL A   1      48.843  26.736  26.080  1.00  0.00     0.074 A 
ATOM     50  C   UNL A   1      49.227  25.418  25.623  1.00  0.00     0.031 C 
ATOM     51  C   UNL A   1      42.458  26.317  26.539  1.00  0.00     0.029 A 
ATOM     52  C   UNL A   1      43.303  27.461  26.866  1.00  0.00     0.049 A 
ATOM     53  H   UNL A   1      45.359  27.638  26.576  1.00  0.00     0.167 HD
ATOM     54  C   UNL A   1      49.720  27.732  26.352  1.00  0.00     0.034 A 
ATOM     55  C   UNL A   1      42.873  28.617  27.410  1.00  0.00     0.034 A 
ATOM     56  C   UNL A   1      49.335  29.055  26.765  1.00  0.00     0.049 A 
ATOM     57  C   UNL A   1      43.860  29.723  27.662  1.00  0.00     0.074 A 
ATOM     58  C   UNL A   1      50.144  30.157  26.981  1.00  0.00     0.029 A 
ATOM     59  N   UNL A   1      48.036  29.457  27.031  1.00  0.00    -0.354 N 
ATOM     60  N   UNL A   1      45.153  29.738  27.448  1.00  0.00    -0.248 NA
ATOM     61  C   UNL A   1      43.325  30.985  28.192  1.00  0.00     0.031 C 
ATOM     62  C   UNL A   1      49.334  31.220  27.397  1.00  0.00     0.029 A 
ATOM     63  C   UNL A   1      48.019  30.786  27.415  1.00  0.00     0.049 A 
ATOM     64  H   UNL A   1      47.240  28.880  26.957  1.00  0.00     0.167 HD
ATOM     65  C   UNL A   1      45.581  31.017  27.786  1.00  0.00     0.074 A 
ATOM     66  C   UNL A   1      44.404  31.755  28.196  1.00  0.00     0.031 C 
ATOM     67  C   UNL A   1      46.837  31.528  27.771  1.00  0.00     0.034 A 
BRANCH  54  68
ATOM     68  C   UNL A   1      51.185  27.446  26.152  1.00  0.00     0.023 A 
ATOM     69  C   UNL A   1      51.981  27.096  27.262  1.00  0.00     0.012 A 
ATOM     70  C   UNL A   1      51.764  27.467  24.868  1.00  0.00     0.148 A 
ATOM     71  C   UNL A   1      53.336  26.807  27.104  1.00  0.00     0.002 A 
ATOM     72  C   UNL A   1      53.105  27.135  24.712  1.00  0.00     0.091 A 
ATOM     73  F   UNL A   1      50.998  27.822  23.827  1.00  0.00    -0.205 F 
ATOM     74  C   UNL A   1      53.894  26.816  25.829  1.00  0.00     0.022 A 
BRANCH  72  75
ATOM     75  S   UNL A   1      53.900  27.042  23.104  1.00  0.00     0.127 S 
ATOM     76  O   UNL A   1      55.274  26.708  23.473  1.00  0.00    -0.237 OA
ATOM     77  O   UNL A   1      53.162  25.957  22.456  1.00  0.00    -0.237 OA
ATOM     78  O   UNL A   1      53.716  28.350  22.491  1.00  0.00    -0.744 OA
ENDBRANCH  72  75
ENDBRANCH  54  68
BRANCH  55  79
ATOM     79  C   UNL A   1      41.422  28.806  27.695  1.00  0.00     0.023 A 
ATOM     80  C   UNL A   1      40.550  29.152  26.645  1.00  0.00     0.012 A 
ATOM     81  C   UNL A   1      40.898  28.610  28.987  1.00  0.00     0.148 A 
ATOM     82  C   UNL A   1      39.186  29.331  26.883  1.00  0.00     0.002 A 
ATOM     83  C   UNL A   1      39.531  28.734  29.206  1.00  0.00     0.091 A 
ATOM     84  F   UNL A   1      41.747  28.292  29.975  1.00  0.00    -0.205 F 
ATOM     85  C   UNL A   1      38.675  29.111  28.160  1.00  0.00     0.022 A 
BRANCH  83  86
ATOM     86  S   UNL A   1      38.771  28.336  30.784  1.00  0.00     0.127 S 
ATOM     87  O   UNL A   1      38.897  26.881  30.817  1.00  0.00    -0.237 OA
ATOM     88  O   UNL A   1      39.634  29.051  31.724  1.00  0.00    -0.237 OA
ATOM     89  O   UNL A   1      37.412  28.853  30.706  1.00  0.00    -0.744 OA
ENDBRANCH  83  86
ENDBRANCH  55  79
BRANCH  67  90
ATOM     90  C   UNL A   1      47.011  32.968  28.179  1.00  0.00     0.023 A 
ATOM     91  C   UNL A   1      47.152  33.299  29.541  1.00  0.00     0.012 A 
ATOM     92  C   UNL A   1      47.110  33.983  27.207  1.00  0.00     0.148 A 
ATOM     93  C   UNL A   1      47.359  34.621  29.932  1.00  0.00     0.002 A 
ATOM     94  C   UNL A   1      47.365  35.292  27.601  1.00  0.00     0.091 A 
ATOM     95  F   UNL A   1      46.954  33.652  25.918  1.00  0.00    -0.205 F 
ATOM     96  C   UNL A   1      47.477  35.614  28.963  1.00  0.00     0.022 A 
BRANCH  94  97
ATOM     97  S   UNL A   1      47.627  36.619  26.419  1.00  0.00     0.127 S 
ATOM     98  O   UNL A   1      48.704  36.076  25.594  1.00  0.00    -0.237 OA
ATOM     99  O   UNL A   1      46.328  36.701  25.749  1.00  0.00    -0.237 OA
ATOM    100  O   UNL A   1      47.974  37.794  27.206  1.00  0.00    -0.744 OA
ENDBRANCH  94  97
ENDBRANCH  67  90
ENDBRANCH  41  42
ENDBRANCH  33  36
ENDBRANCH  31  32
ENDBRANCH  30  31
ENDBRANCH   1  30
TORSDOF 18
ENDMDL
MODEL 2
REMARK VINA RESULT:     -11.4      6.908     12.231
REMARK SMILES O=C(/C=C/c1ccc(S(=O)(=O)Nc2ccc3c(c2)OCCO3)cc1)NCCCCNC(=O)c1ccc(-c2c3nc(c(-c4cccc(S(=O)(=O)[O-])c4F)c4ccc([nH]4)c(-c4cccc(S(=O)(=O)[O-])c4F)c4nc(c(-c5cccc(S(=O)(=O)[O-])c5F)c5ccc2[nH]5)C=C4)C=C3)cc1
REMARK SMILES IDX 27 1 26 2 25 3 1 4 2 5 3 7 4 8 5 9 6 10 24 11 7 12 23 13
REMARK SMILES IDX 8 14 9 15 10 16 11 17 12 18 13 20 14 21 18 22 15 23 17 24
REMARK SMILES IDX 16 25 19 26 22 27 20 28 21 29 28 30 29 31 30 32 31 33 32 35
REMARK SMILES IDX 33 36 34 37 95 38 35 39 94 40 36 41 37 42 38 43 88 44 39 45
REMARK SMILES IDX 93 46 87 47 89 48 40 49 92 50 86 51 85 52 41 54 73 55 53 56
REMARK SMILES IDX 72 57 54 58 57 59 71 60 90 61 55 62 56 63 70 65 91 66 58 67
REMARK SMILES IDX 42 68 43 69 51 70 44 71 46 72 52 73 45 74 47 75 48 76 49 77
REMARK SMILES IDX 50 78 74 79 75 80 83 81 76 82 78 83 84 84 77 85 79 86 80 87
REMARK SMILES IDX 81 88 82 89 59 90 60 91 68 92 61 93 63 94 69 95 62 96 64 97
REMARK SMILES IDX 65 98 66 99 67 100
REMARK H PARENT 25 6 12 19 30 34 89 53 57 64
REMARK Flexibility Score: inf
ROOT
ATOM      1  C   UNL A   1      35.160  33.914  28.004  1.00  0.00     0.023 C 
ENDROOT
BRANCH   1   2
ATOM      2  C   UNL A   1      35.433  32.810  29.024  1.00  0.00     0.116 C 
BRANCH   2   3
ATOM      3  N   UNL A   1      34.826  31.545  28.645  1.00  0.00    -0.353 N 
ATOM      4  O   UNL A   1      36.701  30.735  27.607  1.00  0.00    -0.270 OA
ATOM      5  C   UNL A   1      35.526  30.606  27.940  1.00  0.00     0.243 C 
ATOM      6  H   UNL A   1      33.894  31.362  28.900  1.00  0.00     0.163 HD
BRANCH   5   7
ATOM      7  C   UNL A   1      34.833  29.331  27.610  1.00  0.00     0.072 C 
ATOM      8  C   UNL A   1      33.701  29.126  26.914  1.00  0.00     0.014 C 
BRANCH   8   9
ATOM      9  C   UNL A   1      33.110  27.789  26.655  1.00  0.00    -0.025 A 
ATOM     10  C   UNL A   1      33.909  26.771  26.113  1.00  0.00     0.009 A 
ATOM     11  C   UNL A   1      31.761  27.489  26.904  1.00  0.00     0.009 A 
ATOM     12  C   UNL A   1      33.362  25.520  25.775  1.00  0.00     0.023 A 
ATOM     13  C   UNL A   1      31.227  26.221  26.630  1.00  0.00     0.023 A 
ATOM     14  C   UNL A   1      32.010  25.252  26.013  1.00  0.00     0.087 A 
BRANCH  14  15
ATOM     15  S   UNL A   1      31.332  23.681  25.498  1.00  0.00     0.261 S 
ATOM     16  O   UNL A   1      32.457  22.794  25.248  1.00  0.00    -0.201 OA
ATOM     17  O   UNL A   1      30.306  23.316  26.443  1.00  0.00    -0.201 OA
BRANCH  15  18
ATOM     18  N   UNL A   1      30.554  23.837  23.955  1.00  0.00    -0.279 N 
ATOM     19  H   UNL A   1      30.002  23.114  23.581  1.00  0.00     0.180 HD
BRANCH  18  20
ATOM     20  C   UNL A   1      30.756  25.072  23.252  1.00  0.00     0.053 A 
ATOM     21  C   UNL A   1      29.799  26.077  23.439  1.00  0.00     0.031 A 
ATOM     22  C   UNL A   1      31.926  25.323  22.546  1.00  0.00     0.077 A 
ATOM     23  C   UNL A   1      30.120  27.397  23.132  1.00  0.00     0.052 A 
ATOM     24  C   UNL A   1      32.274  26.643  22.305  1.00  0.00     0.163 A 
ATOM     25  C   UNL A   1      31.398  27.676  22.663  1.00  0.00     0.161 A 
ATOM     26  O   UNL A   1      33.549  26.855  21.857  1.00  0.00    -0.486 OA
ATOM     27  O   UNL A   1      31.813  28.984  22.699  1.00  0.00    -0.486 OA
ATOM     28  C   UNL A   1      33.993  28.210  22.011  1.00  0.00     0.271 C 
ATOM     29  C   UNL A   1      33.203  28.974  23.064  1.00  0.00     0.271 C 
ENDBRANCH  18  20
ENDBRANCH  15  18
ENDBRANCH  14  15
ENDBRANCH   8   9
ENDBRANCH   5   7
ENDBRANCH   2   3
ENDBRANCH   1   2
BRANCH   1  30
ATOM     30  C   UNL A   1      34.157  34.974  28.463  1.00  0.00     0.023 C 
BRANCH  30  31
ATOM     31  C   UNL A   1      33.074  34.481  29.419  1.00  0.00     0.116 C 
BRANCH  31  32
ATOM     32  N   UNL A   1      32.871  35.365  30.556  1.00  0.00    -0.352 N 
ATOM     33  C   UNL A   1      33.523  35.384  31.767  1.00  0.00     0.251 C 
ATOM     34  H   UNL A   1      32.169  36.046  30.443  1.00  0.00     0.163 HD
ATOM     35  O   UNL A   1      33.125  36.122  32.665  1.00  0.00    -0.269 OA
BRANCH  33  36
ATOM     36  C   UNL A   1      34.686  34.496  31.999  1.00  0.00     0.039 A 
ATOM     37  C   UNL A   1      35.966  34.969  31.693  1.00  0.00     0.014 A 
ATOM     38  C   UNL A   1      34.520  33.212  32.522  1.00  0.00     0.014 A 
ATOM     39  C   UNL A   1      37.083  34.177  31.974  1.00  0.00     0.010 A 
ATOM     40  C   UNL A   1      35.638  32.453  32.866  1.00  0.00     0.010 A 
ATOM     41  C   UNL A   1      36.931  32.927  32.596  1.00  0.00    -0.014 A 
BRANCH  41  42
ATOM     42  C   UNL A   1      38.110  32.112  32.993  1.00  0.00     0.031 A 
ATOM     43  C   UNL A   1      38.867  32.428  34.254  1.00  0.00     0.074 A 
ATOM     44  C   UNL A   1      38.557  31.142  32.168  1.00  0.00     0.049 A 
ATOM     45  N   UNL A   1      39.955  31.873  34.723  1.00  0.00    -0.248 NA
ATOM     46  C   UNL A   1      38.352  33.530  35.084  1.00  0.00     0.031 C 
ATOM     47  C   UNL A   1      37.963  30.791  30.877  1.00  0.00     0.029 A 
ATOM     48  N   UNL A   1      39.634  30.298  32.279  1.00  0.00    -0.354 N 
ATOM     49  C   UNL A   1      40.273  32.575  35.880  1.00  0.00     0.074 A 
ATOM     50  C   UNL A   1      39.283  33.620  36.023  1.00  0.00     0.031 C 
ATOM     51  C   UNL A   1      38.683  29.807  30.316  1.00  0.00     0.029 A 
ATOM     52  C   UNL A   1      39.805  29.476  31.189  1.00  0.00     0.049 A 
ATOM     53  H   UNL A   1      40.228  30.282  33.063  1.00  0.00     0.167 HD
ATOM     54  C   UNL A   1      41.278  32.354  36.762  1.00  0.00     0.034 A 
ATOM     55  C   UNL A   1      40.760  28.565  30.917  1.00  0.00     0.034 A 
ATOM     56  C   UNL A   1      42.236  31.288  36.642  1.00  0.00     0.049 A 
ATOM     57  C   UNL A   1      41.840  28.308  31.932  1.00  0.00     0.074 A 
ATOM     58  C   UNL A   1      43.238  30.930  37.528  1.00  0.00     0.029 A 
ATOM     59  N   UNL A   1      42.319  30.412  35.571  1.00  0.00    -0.354 N 
ATOM     60  N   UNL A   1      42.029  28.877  33.097  1.00  0.00    -0.248 NA
ATOM     61  C   UNL A   1      42.817  27.256  31.613  1.00  0.00     0.031 C 
ATOM     62  C   UNL A   1      43.940  29.849  36.982  1.00  0.00     0.029 A 
ATOM     63  C   UNL A   1      43.358  29.519  35.768  1.00  0.00     0.049 A 
ATOM     64  H   UNL A   1      41.726  30.425  34.785  1.00  0.00     0.167 HD
ATOM     65  C   UNL A   1      43.122  28.233  33.664  1.00  0.00     0.074 A 
ATOM     66  C   UNL A   1      43.539  27.213  32.724  1.00  0.00     0.031 C 
ATOM     67  C   UNL A   1      43.733  28.474  34.851  1.00  0.00     0.034 A 
BRANCH  54  68
ATOM     68  C   UNL A   1      41.356  33.249  37.971  1.00  0.00     0.023 A 
ATOM     69  C   UNL A   1      40.688  32.874  39.155  1.00  0.00     0.012 A 
ATOM     70  C   UNL A   1      42.129  34.426  37.958  1.00  0.00     0.148 A 
ATOM     71  C   UNL A   1      40.758  33.674  40.295  1.00  0.00     0.002 A 
ATOM     72  C   UNL A   1      42.229  35.196  39.112  1.00  0.00     0.091 A 
ATOM     73  F   UNL A   1      42.740  34.779  36.818  1.00  0.00    -0.205 F 
ATOM     74  C   UNL A   1      41.536  34.828  40.276  1.00  0.00     0.022 A 
BRANCH  72  75
ATOM     75  S   UNL A   1      43.269  36.658  39.214  1.00  0.00     0.127 S 
ATOM     76  O   UNL A   1      43.034  37.091  40.591  1.00  0.00    -0.237 OA
ATOM     77  O   UNL A   1      44.602  36.108  38.967  1.00  0.00    -0.237 OA
ATOM     78  O   UNL A   1      42.786  37.565  38.181  1.00  0.00    -0.744 OA
ENDBRANCH  72  75
ENDBRANCH  54  68
BRANCH  55  79
ATOM     79  C   UNL A   1      40.699  27.783  29.649  1.00  0.00     0.023 A 
ATOM     80  C   UNL A   1      39.733  26.769  29.508  1.00  0.00     0.012 A 
ATOM     81  C   UNL A   1      41.564  28.063  28.574  1.00  0.00     0.148 A 
ATOM     82  C   UNL A   1      39.651  26.025  28.329  1.00  0.00     0.002 A 
ATOM     83  C   UNL A   1      41.441  27.357  27.383  1.00  0.00     0.091 A 
ATOM     84  F   UNL A   1      42.484  29.025  28.734  1.00  0.00    -0.205 F 
ATOM     85  C   UNL A   1      40.496  26.326  27.264  1.00  0.00     0.022 A 
BRANCH  83  86
ATOM     86  S   UNL A   1      42.392  27.771  25.918  1.00  0.00     0.127 S 
ATOM     87  O   UNL A   1      41.908  26.782  24.958  1.00  0.00    -0.237 OA
ATOM     88  O   UNL A   1      41.963  29.146  25.657  1.00  0.00    -0.237 OA
ATOM     89  O   UNL A   1      43.790  27.645  26.309  1.00  0.00    -0.744 OA
ENDBRANCH  83  86
ENDBRANCH  55  79
BRANCH  67  90
ATOM     90  C   UNL A   1      44.903  27.601  35.226  1.00  0.00     0.023 A 
ATOM     91  C   UNL A   1      46.217  28.054  34.998  1.00  0.00     0.012 A 
ATOM     92  C   UNL A   1      44.700  26.365  35.871  1.00  0.00     0.148 A 
ATOM     93  C   UNL A   1      47.311  27.278  35.380  1.00  0.00     0.002 A 
ATOM     94  C   UNL A   1      45.794  25.619  36.293  1.00  0.00     0.091 A 
ATOM     95  F   UNL A   1      43.442  25.942  36.062  1.00  0.00    -0.205 F 
ATOM     96  C   UNL A   1      47.100  26.069  36.037  1.00  0.00     0.022 A 
BRANCH  94  97
ATOM     97  S   UNL A   1      45.619  24.097  37.230  1.00  0.00     0.127 S 
ATOM     98  O   UNL A   1      44.880  23.253  36.293  1.00  0.00    -0.237 OA
ATOM     99  O   UNL A   1      47.012  23.699  37.442  1.00  0.00    -0.237 OA
ATOM    100  O   UNL A   1      44.904  24.455  38.446  1.00  0.00    -0.744 OA
ENDBRANCH  94  97
ENDBRANCH  67  90
ENDBRANCH  41  42
ENDBRANCH  33  36
ENDBRANCH  31  32
ENDBRANCH  30  31
ENDBRANCH   1  30
TORSDOF 18
ENDMDL
MODEL 3
REMARK VINA RESULT:     -11.1      7.199     12.412
REMARK SMILES O=C(/C=C/c1ccc(S(=O)(=O)Nc2ccc3c(c2)OCCO3)cc1)NCCCCNC(=O)c1ccc(-c2c3nc(c(-c4cccc(S(=O)(=O)[O-])c4F)c4ccc([nH]4)c(-c4cccc(S(=O)(=O)[O-])c4F)c4nc(c(-c5cccc(S(=O)(=O)[O-])c5F)c5ccc2[nH]5)C=C4)C=C3)cc1
REMARK SMILES IDX 27 1 26 2 25 3 1 4 2 5 3 7 4 8 5 9 6 10 24 11 7 12 23 13
REMARK SMILES IDX 8 14 9 15 10 16 11 17 12 18 13 20 14 21 18 22 15 23 17 24
REMARK SMILES IDX 16 25 19 26 22 27 20 28 21 29 28 30 29 31 30 32 31 33 32 35
REMARK SMILES IDX 33 36 34 37 95 38 35 39 94 40 36 41 37 42 38 43 88 44 39 45
REMARK SMILES IDX 93 46 87 47 89 48 40 49 92 50 86 51 85 52 41 54 73 55 53 56
REMARK SMILES IDX 72 57 54 58 57 59 71 60 90 61 55 62 56 63 70 65 91 66 58 67
REMARK SMILES IDX 42 68 43 69 51 70 44 71 46 72 52 73 45 74 47 75 48 76 49 77
REMARK SMILES IDX 50 78 74 79 75 80 83 81 76 82 78 83 84 84 77 85 79 86 80 87
REMARK SMILES IDX 81 88 82 89 59 90 60 91 68 92 61 93 63 94 69 95 62 96 64 97
REMARK SMILES IDX 65 98 66 99 67 100
REMARK H PARENT 25 6 12 19 30 34 89 53 57 64
REMARK Flexibility Score: inf
ROOT
ATOM      1  C   UNL A   1      34.861  33.068  29.260  1.00  0.00     0.023 C 
ENDROOT
BRANCH   1   2
ATOM      2  C   UNL A   1      35.559  32.668  27.962  1.00  0.00     0.116 C 
BRANCH   2   3
ATOM      3  N   UNL A   1      34.993  31.462  27.379  1.00  0.00    -0.353 N 
ATOM      4  O   UNL A   1      36.387  30.032  28.502  1.00  0.00    -0.270 OA
ATOM      5  C   UNL A   1      35.480  30.225  27.697  1.00  0.00     0.243 C 
ATOM      6  H   UNL A   1      34.246  31.539  26.744  1.00  0.00     0.163 HD
BRANCH   5   7
ATOM      7  C   UNL A   1      34.829  29.044  27.068  1.00  0.00     0.072 C 
ATOM      8  C   UNL A   1      33.536  28.678  27.065  1.00  0.00     0.014 C 
BRANCH   8   9
ATOM      9  C   UNL A   1      33.013  27.461  26.394  1.00  0.00    -0.025 A 
ATOM     10  C   UNL A   1      31.774  26.931  26.788  1.00  0.00     0.009 A 
ATOM     11  C   UNL A   1      33.714  26.783  25.385  1.00  0.00     0.009 A 
ATOM     12  C   UNL A   1      31.288  25.732  26.236  1.00  0.00     0.023 A 
ATOM     13  C   UNL A   1      33.202  25.623  24.785  1.00  0.00     0.023 A 
ATOM     14  C   UNL A   1      32.017  25.063  25.247  1.00  0.00     0.087 A 
BRANCH  14  15
ATOM     15  S   UNL A   1      31.407  23.503  24.626  1.00  0.00     0.261 S 
ATOM     16  O   UNL A   1      30.648  22.884  25.700  1.00  0.00    -0.201 OA
ATOM     17  O   UNL A   1      30.795  23.751  23.344  1.00  0.00    -0.201 OA
BRANCH  15  18
ATOM     18  N   UNL A   1      32.725  22.410  24.344  1.00  0.00    -0.279 N 
ATOM     19  H   UNL A   1      33.662  22.708  24.397  1.00  0.00     0.180 HD
BRANCH  18  20
ATOM     20  C   UNL A   1      32.383  21.053  24.028  1.00  0.00     0.053 A 
ATOM     21  C   UNL A   1      32.132  20.754  22.684  1.00  0.00     0.031 A 
ATOM     22  C   UNL A   1      32.456  20.045  24.982  1.00  0.00     0.077 A 
ATOM     23  C   UNL A   1      32.194  19.432  22.250  1.00  0.00     0.052 A 
ATOM     24  C   UNL A   1      32.587  18.737  24.542  1.00  0.00     0.163 A 
ATOM     25  C   UNL A   1      32.525  18.447  23.174  1.00  0.00     0.161 A 
ATOM     26  O   UNL A   1      32.927  17.815  25.495  1.00  0.00    -0.486 OA
ATOM     27  O   UNL A   1      32.923  17.229  22.683  1.00  0.00    -0.486 OA
ATOM     28  C   UNL A   1      33.444  16.593  24.952  1.00  0.00     0.271 C 
ATOM     29  C   UNL A   1      33.978  16.756  23.536  1.00  0.00     0.271 C 
ENDBRANCH  18  20
ENDBRANCH  15  18
ENDBRANCH  14  15
ENDBRANCH   8   9
ENDBRANCH   5   7
ENDBRANCH   2   3
ENDBRANCH   1   2
BRANCH   1  30
ATOM     30  C   UNL A   1      33.609  33.928  29.074  1.00  0.00     0.023 C 
BRANCH  30  31
ATOM     31  C   UNL A   1      33.765  35.400  29.446  1.00  0.00     0.116 C 
BRANCH  31  32
ATOM     32  N   UNL A   1      32.889  35.809  30.534  1.00  0.00    -0.352 N 
ATOM     33  C   UNL A   1      32.996  35.546  31.879  1.00  0.00     0.251 C 
ATOM     34  H   UNL A   1      32.110  36.351  30.269  1.00  0.00     0.163 HD
ATOM     35  O   UNL A   1      32.084  35.863  32.639  1.00  0.00    -0.269 OA
BRANCH  33  36
ATOM     36  C   UNL A   1      34.195  34.856  32.409  1.00  0.00     0.039 A 
ATOM     37  C   UNL A   1      34.027  33.669  33.127  1.00  0.00     0.014 A 
ATOM     38  C   UNL A   1      35.476  35.368  32.193  1.00  0.00     0.014 A 
ATOM     39  C   UNL A   1      35.149  32.961  33.571  1.00  0.00     0.010 A 
ATOM     40  C   UNL A   1      36.593  34.627  32.574  1.00  0.00     0.010 A 
ATOM     41  C   UNL A   1      36.442  33.416  33.266  1.00  0.00    -0.014 A 
BRANCH  41  42
ATOM     42  C   UNL A   1      37.646  32.629  33.643  1.00  0.00     0.031 A 
ATOM     43  C   UNL A   1      38.474  33.024  34.836  1.00  0.00     0.074 A 
ATOM     44  C   UNL A   1      38.049  31.610  32.856  1.00  0.00     0.049 A 
ATOM     45  N   UNL A   1      39.590  32.501  35.275  1.00  0.00    -0.248 NA
ATOM     46  C   UNL A   1      38.003  34.175  35.624  1.00  0.00     0.031 C 
ATOM     47  C   UNL A   1      37.383  31.178  31.626  1.00  0.00     0.029 A 
ATOM     48  N   UNL A   1      39.135  30.775  32.956  1.00  0.00    -0.354 N 
ATOM     49  C   UNL A   1      39.972  33.274  36.365  1.00  0.00     0.074 A 
ATOM     50  C   UNL A   1      38.986  34.325  36.499  1.00  0.00     0.031 C 
ATOM     51  C   UNL A   1      38.073  30.161  31.086  1.00  0.00     0.029 A 
ATOM     52  C   UNL A   1      39.245  29.886  31.911  1.00  0.00     0.049 A 
ATOM     53  H   UNL A   1      39.774  30.809  33.704  1.00  0.00     0.167 HD
ATOM     54  C   UNL A   1      41.027  33.109  37.199  1.00  0.00     0.034 A 
ATOM     55  C   UNL A   1      40.188  28.961  31.642  1.00  0.00     0.034 A 
ATOM     56  C   UNL A   1      41.982  32.039  37.090  1.00  0.00     0.049 A 
ATOM     57  C   UNL A   1      41.326  28.769  32.606  1.00  0.00     0.074 A 
ATOM     58  C   UNL A   1      43.035  31.738  37.936  1.00  0.00     0.029 A 
ATOM     59  N   UNL A   1      42.006  31.098  36.073  1.00  0.00    -0.354 N 
ATOM     60  N   UNL A   1      41.579  29.411  33.721  1.00  0.00    -0.248 NA
ATOM     61  C   UNL A   1      42.287  27.700  32.297  1.00  0.00     0.031 C 
ATOM     62  C   UNL A   1      43.708  30.626  37.419  1.00  0.00     0.029 A 
ATOM     63  C   UNL A   1      43.058  30.219  36.264  1.00  0.00     0.049 A 
ATOM     64  H   UNL A   1      41.368  31.061  35.323  1.00  0.00     0.167 HD
ATOM     65  C   UNL A   1      42.707  28.804  34.262  1.00  0.00     0.074 A 
ATOM     66  C   UNL A   1      43.073  27.728  33.365  1.00  0.00     0.031 C 
ATOM     67  C   UNL A   1      43.384  29.119  35.394  1.00  0.00     0.034 A 
BRANCH  54  68
ATOM     68  C   UNL A   1      41.170  34.079  38.342  1.00  0.00     0.023 A 
ATOM     69  C   UNL A   1      40.368  33.919  39.491  1.00  0.00     0.012 A 
ATOM     70  C   UNL A   1      42.130  35.109  38.310  1.00  0.00     0.148 A 
ATOM     71  C   UNL A   1      40.492  34.790  40.573  1.00  0.00     0.002 A 
ATOM     72  C   UNL A   1      42.279  35.946  39.410  1.00  0.00     0.091 A 
ATOM     73  F   UNL A   1      42.870  35.259  37.202  1.00  0.00    -0.205 F 
ATOM     74  C   UNL A   1      41.454  35.795  40.536  1.00  0.00     0.022 A 
BRANCH  72  75
ATOM     75  S   UNL A   1      43.541  37.222  39.493  1.00  0.00     0.127 S 
ATOM     76  O   UNL A   1      43.157  38.089  38.380  1.00  0.00    -0.237 OA
ATOM     77  O   UNL A   1      43.314  37.796  40.819  1.00  0.00    -0.237 OA
ATOM     78  O   UNL A   1      44.816  36.534  39.340  1.00  0.00    -0.744 OA
ENDBRANCH  72  75
ENDBRANCH  54  68
BRANCH  55  79
ATOM     79  C   UNL A   1      40.057  28.102  30.431  1.00  0.00     0.023 A 
ATOM     80  C   UNL A   1      39.124  27.047  30.429  1.00  0.00     0.012 A 
ATOM     81  C   UNL A   1      40.821  28.345  29.275  1.00  0.00     0.148 A 
ATOM     82  C   UNL A   1      38.977  26.230  29.307  1.00  0.00     0.002 A 
ATOM     83  C   UNL A   1      40.631  27.564  28.141  1.00  0.00     0.091 A 
ATOM     84  F   UNL A   1      41.712  29.346  29.302  1.00  0.00    -0.205 F 
ATOM     85  C   UNL A   1      39.722  26.495  28.160  1.00  0.00     0.022 A 
BRANCH  83  86
ATOM     86  S   UNL A   1      41.446  27.920  26.581  1.00  0.00     0.127 S 
ATOM     87  O   UNL A   1      40.900  29.234  26.252  1.00  0.00    -0.237 OA
ATOM     88  O   UNL A   1      42.856  27.918  26.969  1.00  0.00    -0.237 OA
ATOM     89  O   UNL A   1      41.069  26.834  25.685  1.00  0.00    -0.744 OA
ENDBRANCH  83  86
ENDBRANCH  55  79
BRANCH  67  90
ATOM     90  C   UNL A   1      44.578  28.273  35.754  1.00  0.00     0.023 A 
ATOM     91  C   UNL A   1      45.856  28.622  35.273  1.00  0.00     0.012 A 
ATOM     92  C   UNL A   1      44.444  27.177  36.629  1.00  0.00     0.148 A 
ATOM     93  C   UNL A   1      46.977  27.875  35.632  1.00  0.00     0.002 A 
ATOM     94  C   UNL A   1      45.573  26.467  37.022  1.00  0.00     0.091 A 
ATOM     95  F   UNL A   1      43.218  26.848  37.060  1.00  0.00    -0.205 F 
ATOM     96  C   UNL A   1      46.838  26.807  36.515  1.00  0.00     0.022 A 
BRANCH  94  97
ATOM     97  S   UNL A   1      45.502  25.137  38.227  1.00  0.00     0.127 S 
ATOM     98  O   UNL A   1      44.686  24.145  37.530  1.00  0.00    -0.237 OA
ATOM     99  O   UNL A   1      46.913  24.773  38.373  1.00  0.00    -0.237 OA
ATOM    100  O   UNL A   1      44.902  25.712  39.423  1.00  0.00    -0.744 OA
ENDBRANCH  94  97
ENDBRANCH  67  90
ENDBRANCH  41  42
ENDBRANCH  33  36
ENDBRANCH  31  32
ENDBRANCH  30  31
ENDBRANCH   1  30
TORSDOF 18
ENDMDL
