MODEL 1
REMARK VINA RESULT:     -11.4      0.000      0.000
REMARK SMILES C[C@H]1[C@H](C(=O)NCCCCNC(=O)c2ccc(-c3c4nc(c(-c5cccc(S(=O)(=O)[O-])c5F)c5ccc([nH]5)c(-c5cccc(S(=O)(=O)[O-])c5F)c5nc(c(-c6cccc(S(=O)(=O)[O-])c6F)c6ccc3[nH]6)C=C5)C=C4)cc2)CCN1C(=O)[C@H]1CC=CCC1
REMARK SMILES IDX 9 1 8 2 7 3 6 4 4 5 5 6 3 8 1 9 2 10 79 11 77 12 78 13 80 14
REMARK SMILES IDX 81 15 82 16 83 17 87 18 84 19 86 20 85 21 10 22 11 23 12 24
REMARK SMILES IDX 13 26 14 27 15 28 76 29 16 30 75 31 17 32 18 33 19 34 69 35
REMARK SMILES IDX 20 36 74 37 68 38 70 39 21 40 73 41 67 42 66 43 22 45 54 46
REMARK SMILES IDX 34 47 53 48 35 49 38 50 52 51 71 52 36 53 37 54 51 56 72 57
REMARK SMILES IDX 39 58 23 59 24 60 32 61 25 62 27 63 33 64 26 65 28 66 29 67
REMARK SMILES IDX 30 68 31 69 55 70 56 71 64 72 57 73 59 74 65 75 58 76 60 77
REMARK SMILES IDX 61 78 62 79 63 80 40 81 41 82 49 83 42 84 44 85 50 86 43 87
REMARK SMILES IDX 45 88 46 89 47 90 48 91
REMARK H PARENT 6 7 11 25 70 44 38 55
REMARK Flexibility Score: inf
ROOT
ATOM      1  C   UNL A   1      33.636  28.479  25.870  1.00  0.00     0.023 C 
ENDROOT
BRANCH   1   2
ATOM      2  C   UNL A   1      32.868  29.337  24.879  1.00  0.00     0.023 C 
BRANCH   2   3
ATOM      3  C   UNL A   1      31.722  28.647  24.149  1.00  0.00     0.116 C 
BRANCH   3   4
ATOM      4  N   UNL A   1      31.035  27.680  24.983  1.00  0.00    -0.356 N 
ATOM      5  C   UNL A   1      30.779  26.361  24.801  1.00  0.00     0.225 C 
ATOM      6  O   UNL A   1      30.203  25.766  25.718  1.00  0.00    -0.275 OA
ATOM      7  H   UNL A   1      30.697  28.045  25.833  1.00  0.00     0.163 HD
BRANCH   5   8
ATOM      8  C   UNL A   1      31.127  25.600  23.529  1.00  0.00     0.102 C 
ATOM      9  C   UNL A   1      33.078  25.942  22.006  1.00  0.00     0.032 C 
ATOM     10  C   UNL A   1      32.640  25.371  23.359  1.00  0.00     0.094 C 
ATOM     11  N   UNL A   1      32.812  23.922  23.411  1.00  0.00    -0.339 N 
ATOM     12  C   UNL A   1      30.451  24.243  23.351  1.00  0.00     0.037 C 
ATOM     13  C   UNL A   1      31.570  23.269  23.019  1.00  0.00     0.120 C 
BRANCH  11  14
ATOM     14  C   UNL A   1      33.901  23.145  23.734  1.00  0.00     0.226 C 
ATOM     15  O   UNL A   1      33.726  21.936  23.954  1.00  0.00    -0.275 OA
BRANCH  14  16
ATOM     16  C   UNL A   1      35.342  23.673  23.883  1.00  0.00     0.083 C 
ATOM     17  C   UNL A   1      35.708  24.312  25.223  1.00  0.00     0.040 C 
ATOM     18  C   UNL A   1      36.446  22.810  23.268  1.00  0.00     0.018 C 
ATOM     19  C   UNL A   1      36.696  23.553  26.055  1.00  0.00    -0.030 C 
ATOM     20  C   UNL A   1      37.240  21.933  24.237  1.00  0.00     0.028 C 
ATOM     21  C   UNL A   1      37.384  22.494  25.612  1.00  0.00    -0.031 C 
ENDBRANCH  14  16
ENDBRANCH  11  14
ENDBRANCH   5   8
ENDBRANCH   3   4
ENDBRANCH   2   3
ENDBRANCH   1   2
BRANCH   1  22
ATOM     22  C   UNL A   1      33.418  28.866  27.320  1.00  0.00     0.116 C 
BRANCH  22  23
ATOM     23  N   UNL A   1      33.562  30.300  27.547  1.00  0.00    -0.352 N 
ATOM     24  C   UNL A   1      34.600  30.996  28.120  1.00  0.00     0.251 C 
ATOM     25  H   UNL A   1      32.804  30.851  27.247  1.00  0.00     0.163 HD
ATOM     26  O   UNL A   1      34.470  32.189  28.388  1.00  0.00    -0.269 OA
BRANCH  24  27
ATOM     27  C   UNL A   1      35.862  30.294  28.430  1.00  0.00     0.039 A 
ATOM     28  C   UNL A   1      36.958  30.437  27.578  1.00  0.00     0.014 A 
ATOM     29  C   UNL A   1      35.970  29.533  29.595  1.00  0.00     0.014 A 
ATOM     30  C   UNL A   1      38.187  29.883  27.942  1.00  0.00     0.010 A 
ATOM     31  C   UNL A   1      37.216  29.094  30.014  1.00  0.00     0.010 A 
ATOM     32  C   UNL A   1      38.337  29.246  29.186  1.00  0.00    -0.014 A 
BRANCH  32  33
ATOM     33  C   UNL A   1      39.643  28.714  29.646  1.00  0.00     0.031 A 
ATOM     34  C   UNL A   1      40.391  29.419  30.747  1.00  0.00     0.074 A 
ATOM     35  C   UNL A   1      40.207  27.672  29.002  1.00  0.00     0.049 A 
ATOM     36  N   UNL A   1      41.585  29.176  31.221  1.00  0.00    -0.248 NA
ATOM     37  C   UNL A   1      39.729  30.581  31.369  1.00  0.00     0.031 C 
ATOM     38  C   UNL A   1      39.629  26.967  27.855  1.00  0.00     0.029 A 
ATOM     39  N   UNL A   1      41.409  27.040  29.204  1.00  0.00    -0.354 N 
ATOM     40  C   UNL A   1      41.834  30.179  32.150  1.00  0.00     0.074 A 
ATOM     41  C   UNL A   1      40.690  31.062  32.142  1.00  0.00     0.031 C 
ATOM     42  C   UNL A   1      40.469  25.995  27.466  1.00  0.00     0.029 A 
ATOM     43  C   UNL A   1      41.657  26.024  28.311  1.00  0.00     0.049 A 
ATOM     44  H   UNL A   1      42.035  27.291  29.921  1.00  0.00     0.167 HD
ATOM     45  C   UNL A   1      42.901  30.331  32.971  1.00  0.00     0.034 A 
ATOM     46  C   UNL A   1      42.723  25.210  28.188  1.00  0.00     0.034 A 
ATOM     47  C   UNL A   1      43.999  29.408  33.029  1.00  0.00     0.049 A 
ATOM     48  C   UNL A   1      43.861  25.350  29.164  1.00  0.00     0.074 A 
ATOM     49  C   UNL A   1      45.075  29.406  33.898  1.00  0.00     0.029 A 
ATOM     50  N   UNL A   1      44.160  28.321  32.184  1.00  0.00    -0.354 N 
ATOM     51  N   UNL A   1      44.001  26.204  30.149  1.00  0.00    -0.248 NA
ATOM     52  C   UNL A   1      44.969  24.393  29.035  1.00  0.00     0.031 C 
ATOM     53  C   UNL A   1      45.896  28.322  33.569  1.00  0.00     0.029 A 
ATOM     54  C   UNL A   1      45.321  27.639  32.508  1.00  0.00     0.049 A 
ATOM     55  H   UNL A   1      43.542  28.070  31.461  1.00  0.00     0.167 HD
ATOM     56  C   UNL A   1      45.192  25.865  30.780  1.00  0.00     0.074 A 
ATOM     57  C   UNL A   1      45.724  24.714  30.078  1.00  0.00     0.031 C 
ATOM     58  C   UNL A   1      45.802  26.463  31.834  1.00  0.00     0.034 A 
BRANCH  45  59
ATOM     59  C   UNL A   1      42.892  31.501  33.920  1.00  0.00     0.023 A 
ATOM     60  C   UNL A   1      43.395  32.747  33.491  1.00  0.00     0.012 A 
ATOM     61  C   UNL A   1      42.348  31.385  35.213  1.00  0.00     0.148 A 
ATOM     62  C   UNL A   1      43.395  33.848  34.347  1.00  0.00     0.002 A 
ATOM     63  C   UNL A   1      42.308  32.499  36.044  1.00  0.00     0.091 A 
ATOM     64  F   UNL A   1      41.895  30.188  35.613  1.00  0.00    -0.205 F 
ATOM     65  C   UNL A   1      42.843  33.725  35.618  1.00  0.00     0.022 A 
BRANCH  63  66
ATOM     66  S   UNL A   1      41.544  32.468  37.670  1.00  0.00     0.127 S 
ATOM     67  O   UNL A   1      41.673  33.865  38.082  1.00  0.00    -0.237 OA
ATOM     68  O   UNL A   1      40.178  32.047  37.360  1.00  0.00    -0.237 OA
ATOM     69  O   UNL A   1      42.310  31.510  38.455  1.00  0.00    -0.744 OA
ENDBRANCH  63  66
ENDBRANCH  45  59
BRANCH  46  70
ATOM     70  C   UNL A   1      42.726  24.136  27.154  1.00  0.00     0.023 A 
ATOM     71  C   UNL A   1      43.379  24.364  25.927  1.00  0.00     0.012 A 
ATOM     72  C   UNL A   1      42.118  22.887  27.387  1.00  0.00     0.148 A 
ATOM     73  C   UNL A   1      43.400  23.380  24.937  1.00  0.00     0.002 A 
ATOM     74  C   UNL A   1      42.190  21.892  26.417  1.00  0.00     0.091 A 
ATOM     75  F   UNL A   1      41.493  22.692  28.555  1.00  0.00    -0.205 F 
ATOM     76  C   UNL A   1      42.814  22.142  25.185  1.00  0.00     0.022 A 
BRANCH  74  77
ATOM     77  S   UNL A   1      41.580  20.226  26.702  1.00  0.00     0.127 S 
ATOM     78  O   UNL A   1      40.153  20.461  26.911  1.00  0.00    -0.237 OA
ATOM     79  O   UNL A   1      41.916  19.560  25.443  1.00  0.00    -0.237 OA
ATOM     80  O   UNL A   1      42.318  19.732  27.857  1.00  0.00    -0.744 OA
ENDBRANCH  74  77
ENDBRANCH  46  70
BRANCH  58  81
ATOM     81  C   UNL A   1      47.096  25.867  32.321  1.00  0.00     0.023 A 
ATOM     82  C   UNL A   1      48.315  26.291  31.759  1.00  0.00     0.012 A 
ATOM     83  C   UNL A   1      47.106  24.952  33.392  1.00  0.00     0.148 A 
ATOM     84  C   UNL A   1      49.526  25.790  32.235  1.00  0.00     0.002 A 
ATOM     85  C   UNL A   1      48.318  24.494  33.893  1.00  0.00     0.091 A 
ATOM     86  F   UNL A   1      45.933  24.548  33.900  1.00  0.00    -0.205 F 
ATOM     87  C   UNL A   1      49.528  24.903  33.310  1.00  0.00     0.022 A 
BRANCH  85  88
ATOM     88  S   UNL A   1      48.420  23.429  35.337  1.00  0.00     0.127 S 
ATOM     89  O   UNL A   1      47.775  22.210  34.853  1.00  0.00    -0.237 OA
ATOM     90  O   UNL A   1      49.865  23.316  35.539  1.00  0.00    -0.237 OA
ATOM     91  O   UNL A   1      47.715  24.130  36.402  1.00  0.00    -0.744 OA
ENDBRANCH  85  88
ENDBRANCH  58  81
ENDBRANCH  32  33
ENDBRANCH  24  27
ENDBRANCH  22  23
ENDBRANCH   1  22
TORSDOF 16
ENDMDL
MODEL 2
REMARK VINA RESULT:     -11.4      2.392      3.143
REMARK SMILES C[C@H]1[C@H](C(=O)NCCCCNC(=O)c2ccc(-c3c4nc(c(-c5cccc(S(=O)(=O)[O-])c5F)c5ccc([nH]5)c(-c5cccc(S(=O)(=O)[O-])c5F)c5nc(c(-c6cccc(S(=O)(=O)[O-])c6F)c6ccc3[nH]6)C=C5)C=C4)cc2)CCN1C(=O)[C@H]1CC=CCC1
REMARK SMILES IDX 9 1 8 2 7 3 6 4 4 5 5 6 3 8 1 9 2 10 79 11 77 12 78 13 80 14
REMARK SMILES IDX 81 15 82 16 83 17 87 18 84 19 86 20 85 21 10 22 11 23 12 24
REMARK SMILES IDX 13 26 14 27 15 28 76 29 16 30 75 31 17 32 18 33 19 34 69 35
REMARK SMILES IDX 20 36 74 37 68 38 70 39 21 40 73 41 67 42 66 43 22 45 54 46
REMARK SMILES IDX 34 47 53 48 35 49 38 50 52 51 71 52 36 53 37 54 51 56 72 57
REMARK SMILES IDX 39 58 23 59 24 60 32 61 25 62 27 63 33 64 26 65 28 66 29 67
REMARK SMILES IDX 30 68 31 69 55 70 56 71 64 72 57 73 59 74 65 75 58 76 60 77
REMARK SMILES IDX 61 78 62 79 63 80 40 81 41 82 49 83 42 84 44 85 50 86 43 87
REMARK SMILES IDX 45 88 46 89 47 90 48 91
REMARK H PARENT 6 7 11 25 70 44 38 55
REMARK Flexibility Score: inf
ROOT
ATOM      1  C   UNL A   1      31.534  29.321  25.452  1.00  0.00     0.023 C 
ENDROOT
BRANCH   1   2
ATOM      2  C   UNL A   1      32.239  29.369  24.107  1.00  0.00     0.023 C 
BRANCH   2   3
ATOM      3  C   UNL A   1      31.504  28.710  22.946  1.00  0.00     0.116 C 
BRANCH   3   4
ATOM      4  N   UNL A   1      32.397  27.982  22.067  1.00  0.00    -0.356 N 
ATOM      5  C   UNL A   1      32.948  26.747  22.172  1.00  0.00     0.225 C 
ATOM      6  O   UNL A   1      33.650  26.360  21.231  1.00  0.00    -0.275 OA
ATOM      7  H   UNL A   1      32.648  28.469  21.248  1.00  0.00     0.163 HD
BRANCH   5   8
ATOM      8  C   UNL A   1      32.778  25.847  23.388  1.00  0.00     0.102 C 
ATOM      9  C   UNL A   1      31.796  23.551  23.488  1.00  0.00     0.032 C 
ATOM     10  C   UNL A   1      33.031  24.360  23.077  1.00  0.00     0.094 C 
ATOM     11  N   UNL A   1      34.200  24.000  23.874  1.00  0.00    -0.339 N 
ATOM     12  C   UNL A   1      33.629  26.195  24.606  1.00  0.00     0.037 C 
ATOM     13  C   UNL A   1      34.306  24.897  25.017  1.00  0.00     0.120 C 
BRANCH  11  14
ATOM     14  C   UNL A   1      35.132  22.999  23.723  1.00  0.00     0.226 C 
ATOM     15  O   UNL A   1      35.914  23.053  22.760  1.00  0.00    -0.275 OA
BRANCH  14  16
ATOM     16  C   UNL A   1      35.262  21.774  24.651  1.00  0.00     0.083 C 
ATOM     17  C   UNL A   1      35.775  22.033  26.068  1.00  0.00     0.040 C 
ATOM     18  C   UNL A   1      34.142  20.735  24.562  1.00  0.00     0.018 C 
ATOM     19  C   UNL A   1      34.778  21.825  27.167  1.00  0.00    -0.030 C 
ATOM     20  C   UNL A   1      33.082  20.784  25.663  1.00  0.00     0.028 C 
ATOM     21  C   UNL A   1      33.578  21.261  26.986  1.00  0.00    -0.031 C 
ENDBRANCH  14  16
ENDBRANCH  11  14
ENDBRANCH   5   8
ENDBRANCH   3   4
ENDBRANCH   2   3
ENDBRANCH   1   2
BRANCH   1  22
ATOM     22  C   UNL A   1      32.379  29.816  26.610  1.00  0.00     0.116 C 
BRANCH  22  23
ATOM     23  N   UNL A   1      32.353  31.268  26.746  1.00  0.00    -0.352 N 
ATOM     24  C   UNL A   1      33.237  32.104  27.385  1.00  0.00     0.251 C 
ATOM     25  H   UNL A   1      31.589  31.716  26.316  1.00  0.00     0.163 HD
ATOM     26  O   UNL A   1      32.959  33.290  27.546  1.00  0.00    -0.269 OA
BRANCH  24  27
ATOM     27  C   UNL A   1      34.512  31.560  27.896  1.00  0.00     0.039 A 
ATOM     28  C   UNL A   1      35.598  32.416  28.090  1.00  0.00     0.014 A 
ATOM     29  C   UNL A   1      34.611  30.208  28.228  1.00  0.00     0.014 A 
ATOM     30  C   UNL A   1      36.756  31.926  28.698  1.00  0.00     0.010 A 
ATOM     31  C   UNL A   1      35.710  29.758  28.943  1.00  0.00     0.010 A 
ATOM     32  C   UNL A   1      36.804  30.604  29.172  1.00  0.00    -0.014 A 
BRANCH  32  33
ATOM     33  C   UNL A   1      37.984  30.069  29.893  1.00  0.00     0.031 A 
ATOM     34  C   UNL A   1      38.266  30.520  31.303  1.00  0.00     0.074 A 
ATOM     35  C   UNL A   1      38.859  29.271  29.249  1.00  0.00     0.049 A 
ATOM     36  N   UNL A   1      39.293  30.252  32.065  1.00  0.00    -0.248 NA
ATOM     37  C   UNL A   1      37.287  31.432  31.922  1.00  0.00     0.031 C 
ATOM     38  C   UNL A   1      38.751  28.843  27.852  1.00  0.00     0.029 A 
ATOM     39  N   UNL A   1      40.031  28.698  29.678  1.00  0.00    -0.354 N 
ATOM     40  C   UNL A   1      39.110  30.998  33.224  1.00  0.00     0.074 A 
ATOM     41  C   UNL A   1      37.899  31.767  33.047  1.00  0.00     0.031 C 
ATOM     42  C   UNL A   1      39.802  28.068  27.544  1.00  0.00     0.029 A 
ATOM     43  C   UNL A   1      40.676  27.966  28.708  1.00  0.00     0.049 A 
ATOM     44  H   UNL A   1      40.377  28.802  30.593  1.00  0.00     0.167 HD
ATOM     45  C   UNL A   1      39.857  31.012  34.353  1.00  0.00     0.034 A 
ATOM     46  C   UNL A   1      41.840  27.291  28.753  1.00  0.00     0.034 A 
ATOM     47  C   UNL A   1      41.016  30.188  34.551  1.00  0.00     0.049 A 
ATOM     48  C   UNL A   1      42.612  27.259  30.046  1.00  0.00     0.074 A 
ATOM     49  C   UNL A   1      41.781  30.041  35.694  1.00  0.00     0.029 A 
ATOM     50  N   UNL A   1      41.576  29.368  33.583  1.00  0.00    -0.354 N 
ATOM     51  N   UNL A   1      42.331  27.839  31.188  1.00  0.00    -0.248 NA
ATOM     52  C   UNL A   1      43.839  26.451  30.068  1.00  0.00     0.031 C 
ATOM     53  C   UNL A   1      42.814  29.141  35.412  1.00  0.00     0.029 A 
ATOM     54  C   UNL A   1      42.680  28.714  34.100  1.00  0.00     0.049 A 
ATOM     55  H   UNL A   1      41.239  29.267  32.664  1.00  0.00     0.167 HD
ATOM     56  C   UNL A   1      43.324  27.437  32.074  1.00  0.00     0.074 A 
ATOM     57  C   UNL A   1      44.202  26.547  31.340  1.00  0.00     0.031 C 
ATOM     58  C   UNL A   1      43.506  27.787  33.371  1.00  0.00     0.034 A 
BRANCH  45  59
ATOM     59  C   UNL A   1      39.399  31.895  35.484  1.00  0.00     0.023 A 
ATOM     60  C   UNL A   1      39.746  33.262  35.482  1.00  0.00     0.012 A 
ATOM     61  C   UNL A   1      38.591  31.390  36.520  1.00  0.00     0.148 A 
ATOM     62  C   UNL A   1      39.332  34.104  36.513  1.00  0.00     0.002 A 
ATOM     63  C   UNL A   1      38.142  32.245  37.521  1.00  0.00     0.091 A 
ATOM     64  F   UNL A   1      38.290  30.084  36.519  1.00  0.00    -0.205 F 
ATOM     65  C   UNL A   1      38.522  33.597  37.526  1.00  0.00     0.022 A 
BRANCH  63  66
ATOM     66  S   UNL A   1      37.029  31.711  38.825  1.00  0.00     0.127 S 
ATOM     67  O   UNL A   1      37.880  31.836  40.008  1.00  0.00    -0.237 OA
ATOM     68  O   UNL A   1      35.956  32.702  38.738  1.00  0.00    -0.237 OA
ATOM     69  O   UNL A   1      36.630  30.353  38.481  1.00  0.00    -0.744 OA
ENDBRANCH  63  66
ENDBRANCH  45  59
BRANCH  46  70
ATOM     70  C   UNL A   1      42.303  26.521  27.564  1.00  0.00     0.023 A 
ATOM     71  C   UNL A   1      43.086  27.168  26.587  1.00  0.00     0.012 A 
ATOM     72  C   UNL A   1      42.003  25.154  27.407  1.00  0.00     0.148 A 
ATOM     73  C   UNL A   1      43.535  26.478  25.460  1.00  0.00     0.002 A 
ATOM     74  C   UNL A   1      42.499  24.459  26.309  1.00  0.00     0.091 A 
ATOM     75  F   UNL A   1      41.249  24.558  28.340  1.00  0.00    -0.205 F 
ATOM     76  C   UNL A   1      43.250  25.122  25.327  1.00  0.00     0.022 A 
BRANCH  74  77
ATOM     77  S   UNL A   1      42.295  22.683  26.123  1.00  0.00     0.127 S 
ATOM     78  O   UNL A   1      42.971  22.177  27.315  1.00  0.00    -0.237 OA
ATOM     79  O   UNL A   1      40.838  22.543  26.135  1.00  0.00    -0.237 OA
ATOM     80  O   UNL A   1      42.918  22.349  24.850  1.00  0.00    -0.744 OA
ENDBRANCH  74  77
ENDBRANCH  46  70
BRANCH  58  81
ATOM     81  C   UNL A   1      44.676  27.183  34.099  1.00  0.00     0.023 A 
ATOM     82  C   UNL A   1      45.919  27.846  34.097  1.00  0.00     0.012 A 
ATOM     83  C   UNL A   1      44.520  26.004  34.854  1.00  0.00     0.148 A 
ATOM     84  C   UNL A   1      46.998  27.328  34.812  1.00  0.00     0.002 A 
ATOM     85  C   UNL A   1      45.586  25.521  35.603  1.00  0.00     0.091 A 
ATOM     86  F   UNL A   1      43.334  25.379  34.828  1.00  0.00    -0.205 F 
ATOM     87  C   UNL A   1      46.829  26.174  35.574  1.00  0.00     0.022 A 
BRANCH  85  88
ATOM     88  S   UNL A   1      45.430  24.099  36.691  1.00  0.00     0.127 S 
ATOM     89  O   UNL A   1      44.914  23.081  35.778  1.00  0.00    -0.237 OA
ATOM     90  O   UNL A   1      46.811  23.886  37.125  1.00  0.00    -0.237 OA
ATOM     91  O   UNL A   1      44.520  24.507  37.753  1.00  0.00    -0.744 OA
ENDBRANCH  85  88
ENDBRANCH  58  81
ENDBRANCH  32  33
ENDBRANCH  24  27
ENDBRANCH  22  23
ENDBRANCH   1  22
TORSDOF 16
ENDMDL
MODEL 3
REMARK VINA RESULT:     -11.4      2.541      4.287
REMARK SMILES C[C@H]1[C@H](C(=O)NCCCCNC(=O)c2ccc(-c3c4nc(c(-c5cccc(S(=O)(=O)[O-])c5F)c5ccc([nH]5)c(-c5cccc(S(=O)(=O)[O-])c5F)c5nc(c(-c6cccc(S(=O)(=O)[O-])c6F)c6ccc3[nH]6)C=C5)C=C4)cc2)CCN1C(=O)[C@H]1CC=CCC1
REMARK SMILES IDX 9 1 8 2 7 3 6 4 4 5 5 6 3 8 1 9 2 10 79 11 77 12 78 13 80 14
REMARK SMILES IDX 81 15 82 16 83 17 87 18 84 19 86 20 85 21 10 22 11 23 12 24
REMARK SMILES IDX 13 26 14 27 15 28 76 29 16 30 75 31 17 32 18 33 19 34 69 35
REMARK SMILES IDX 20 36 74 37 68 38 70 39 21 40 73 41 67 42 66 43 22 45 54 46
REMARK SMILES IDX 34 47 53 48 35 49 38 50 52 51 71 52 36 53 37 54 51 56 72 57
REMARK SMILES IDX 39 58 23 59 24 60 32 61 25 62 27 63 33 64 26 65 28 66 29 67
REMARK SMILES IDX 30 68 31 69 55 70 56 71 64 72 57 73 59 74 65 75 58 76 60 77
REMARK SMILES IDX 61 78 62 79 63 80 40 81 41 82 49 83 42 84 44 85 50 86 43 87
REMARK SMILES IDX 45 88 46 89 47 90 48 91
REMARK H PARENT 6 7 11 25 70 44 38 55
REMARK Flexibility Score: inf
ROOT
ATOM      1  C   UNL A   1      31.693  28.966  27.196  1.00  0.00     0.023 C 
ENDROOT
BRANCH   1   2
ATOM      2  C   UNL A   1      31.916  27.472  27.034  1.00  0.00     0.023 C 
BRANCH   2   3
ATOM      3  C   UNL A   1      31.135  26.801  25.910  1.00  0.00     0.116 C 
BRANCH   3   4
ATOM      4  N   UNL A   1      31.600  25.454  25.641  1.00  0.00    -0.356 N 
ATOM      5  C   UNL A   1      32.381  24.957  24.650  1.00  0.00     0.225 C 
ATOM      6  O   UNL A   1      32.655  23.754  24.697  1.00  0.00    -0.275 OA
ATOM      7  H   UNL A   1      31.295  24.781  26.292  1.00  0.00     0.163 HD
BRANCH   5   8
ATOM      8  C   UNL A   1      32.896  25.788  23.483  1.00  0.00     0.102 C 
ATOM      9  C   UNL A   1      31.996  25.913  21.155  1.00  0.00     0.032 C 
ATOM     10  C   UNL A   1      31.767  26.357  22.603  1.00  0.00     0.094 C 
ATOM     11  N   UNL A   1      31.872  27.807  22.744  1.00  0.00    -0.339 N 
ATOM     12  C   UNL A   1      33.809  26.958  23.842  1.00  0.00     0.037 C 
ATOM     13  C   UNL A   1      33.234  28.164  23.116  1.00  0.00     0.120 C 
BRANCH  11  14
ATOM     14  C   UNL A   1      30.944  28.808  22.568  1.00  0.00     0.226 C 
ATOM     15  O   UNL A   1      30.987  29.485  21.528  1.00  0.00    -0.275 OA
BRANCH  14  16
ATOM     16  C   UNL A   1      29.857  29.186  23.595  1.00  0.00     0.083 C 
ATOM     17  C   UNL A   1      29.754  30.663  23.978  1.00  0.00     0.040 C 
ATOM     18  C   UNL A   1      28.511  28.472  23.450  1.00  0.00     0.018 C 
ATOM     19  C   UNL A   1      28.513  31.366  23.521  1.00  0.00    -0.030 C 
ATOM     20  C   UNL A   1      27.392  29.266  22.776  1.00  0.00     0.028 C 
ATOM     21  C   UNL A   1      27.456  30.741  22.989  1.00  0.00    -0.031 C 
ENDBRANCH  14  16
ENDBRANCH  11  14
ENDBRANCH   5   8
ENDBRANCH   3   4
ENDBRANCH   2   3
ENDBRANCH   1   2
BRANCH   1  22
ATOM     22  C   UNL A   1      32.539  29.820  26.272  1.00  0.00     0.116 C 
BRANCH  22  23
ATOM     23  N   UNL A   1      32.424  31.245  26.559  1.00  0.00    -0.352 N 
ATOM     24  C   UNL A   1      33.232  32.053  27.325  1.00  0.00     0.251 C 
ATOM     25  H   UNL A   1      31.654  31.696  26.144  1.00  0.00     0.163 HD
ATOM     26  O   UNL A   1      32.879  33.198  27.598  1.00  0.00    -0.269 OA
BRANCH  24  27
ATOM     27  C   UNL A   1      34.512  31.524  27.836  1.00  0.00     0.039 A 
ATOM     28  C   UNL A   1      35.594  32.389  28.012  1.00  0.00     0.014 A 
ATOM     29  C   UNL A   1      34.623  30.177  28.186  1.00  0.00     0.014 A 
ATOM     30  C   UNL A   1      36.759  31.916  28.620  1.00  0.00     0.010 A 
ATOM     31  C   UNL A   1      35.729  29.745  28.901  1.00  0.00     0.010 A 
ATOM     32  C   UNL A   1      36.818  30.601  29.111  1.00  0.00    -0.014 A 
BRANCH  32  33
ATOM     33  C   UNL A   1      38.006  30.083  29.833  1.00  0.00     0.031 A 
ATOM     34  C   UNL A   1      38.291  30.552  31.237  1.00  0.00     0.074 A 
ATOM     35  C   UNL A   1      38.885  29.286  29.193  1.00  0.00     0.049 A 
ATOM     36  N   UNL A   1      39.323  30.300  31.997  1.00  0.00    -0.248 NA
ATOM     37  C   UNL A   1      37.306  31.461  31.851  1.00  0.00     0.031 C 
ATOM     38  C   UNL A   1      38.775  28.843  27.801  1.00  0.00     0.029 A 
ATOM     39  N   UNL A   1      40.064  28.728  29.623  1.00  0.00    -0.354 N 
ATOM     40  C   UNL A   1      39.139  31.057  33.149  1.00  0.00     0.074 A 
ATOM     41  C   UNL A   1      37.920  31.813  32.970  1.00  0.00     0.031 C 
ATOM     42  C   UNL A   1      39.832  28.074  27.497  1.00  0.00     0.029 A 
ATOM     43  C   UNL A   1      40.712  27.992  28.658  1.00  0.00     0.049 A 
ATOM     44  H   UNL A   1      40.413  28.845  30.535  1.00  0.00     0.167 HD
ATOM     45  C   UNL A   1      39.890  31.088  34.274  1.00  0.00     0.034 A 
ATOM     46  C   UNL A   1      41.882  27.327  28.704  1.00  0.00     0.034 A 
ATOM     47  C   UNL A   1      41.058  30.277  34.476  1.00  0.00     0.049 A 
ATOM     48  C   UNL A   1      42.659  27.315  29.994  1.00  0.00     0.074 A 
ATOM     49  C   UNL A   1      41.828  30.148  35.617  1.00  0.00     0.029 A 
ATOM     50  N   UNL A   1      41.620  29.452  33.514  1.00  0.00    -0.354 N 
ATOM     51  N   UNL A   1      42.378  27.904  31.131  1.00  0.00    -0.248 NA
ATOM     52  C   UNL A   1      43.893  26.518  30.019  1.00  0.00     0.031 C 
ATOM     53  C   UNL A   1      42.868  29.254  35.340  1.00  0.00     0.029 A 
ATOM     54  C   UNL A   1      42.732  28.812  34.032  1.00  0.00     0.049 A 
ATOM     55  H   UNL A   1      41.280  29.339  32.598  1.00  0.00     0.167 HD
ATOM     56  C   UNL A   1      43.379  27.521  32.017  1.00  0.00     0.074 A 
ATOM     57  C   UNL A   1      44.261  26.631  31.289  1.00  0.00     0.031 C 
ATOM     58  C   UNL A   1      43.563  27.886  33.309  1.00  0.00     0.034 A 
BRANCH  45  59
ATOM     59  C   UNL A   1      39.429  31.979  35.398  1.00  0.00     0.023 A 
ATOM     60  C   UNL A   1      38.550  31.468  36.374  1.00  0.00     0.012 A 
ATOM     61  C   UNL A   1      39.897  33.302  35.516  1.00  0.00     0.148 A 
ATOM     62  C   UNL A   1      38.110  32.269  37.427  1.00  0.00     0.002 A 
ATOM     63  C   UNL A   1      39.492  34.080  36.595  1.00  0.00     0.091 A 
ATOM     64  F   UNL A   1      40.714  33.780  34.567  1.00  0.00    -0.205 F 
ATOM     65  C   UNL A   1      38.589  33.570  37.542  1.00  0.00     0.022 A 
BRANCH  63  66
ATOM     66  S   UNL A   1      40.114  35.741  36.880  1.00  0.00     0.127 S 
ATOM     67  O   UNL A   1      39.602  36.452  35.710  1.00  0.00    -0.237 OA
ATOM     68  O   UNL A   1      39.468  36.099  38.142  1.00  0.00    -0.237 OA
ATOM     69  O   UNL A   1      41.564  35.619  36.953  1.00  0.00    -0.744 OA
ENDBRANCH  63  66
ENDBRANCH  45  59
BRANCH  46  70
ATOM     70  C   UNL A   1      42.346  26.549  27.521  1.00  0.00     0.023 A 
ATOM     71  C   UNL A   1      43.134  27.188  26.543  1.00  0.00     0.012 A 
ATOM     72  C   UNL A   1      42.042  25.183  27.371  1.00  0.00     0.148 A 
ATOM     73  C   UNL A   1      43.585  26.490  25.422  1.00  0.00     0.002 A 
ATOM     74  C   UNL A   1      42.540  24.479  26.279  1.00  0.00     0.091 A 
ATOM     75  F   UNL A   1      41.283  24.594  28.305  1.00  0.00    -0.205 F 
ATOM     76  C   UNL A   1      43.296  25.135  25.295  1.00  0.00     0.022 A 
BRANCH  74  77
ATOM     77  S   UNL A   1      42.330  22.703  26.102  1.00  0.00     0.127 S 
ATOM     78  O   UNL A   1      42.915  22.463  24.785  1.00  0.00    -0.237 OA
ATOM     79  O   UNL A   1      43.113  22.191  27.227  1.00  0.00    -0.237 OA
ATOM     80  O   UNL A   1      40.897  22.466  26.212  1.00  0.00    -0.744 OA
ENDBRANCH  74  77
ENDBRANCH  46  70
BRANCH  58  81
ATOM     81  C   UNL A   1      44.741  27.299  34.039  1.00  0.00     0.023 A 
ATOM     82  C   UNL A   1      45.971  27.986  34.046  1.00  0.00     0.012 A 
ATOM     83  C   UNL A   1      44.605  26.113  34.786  1.00  0.00     0.148 A 
ATOM     84  C   UNL A   1      47.058  27.484  34.761  1.00  0.00     0.002 A 
ATOM     85  C   UNL A   1      45.677  25.646  35.536  1.00  0.00     0.091 A 
ATOM     86  F   UNL A   1      43.431  25.466  34.751  1.00  0.00    -0.205 F 
ATOM     87  C   UNL A   1      46.907  26.322  35.516  1.00  0.00     0.022 A 
BRANCH  85  88
ATOM     88  S   UNL A   1      45.543  24.215  36.615  1.00  0.00     0.127 S 
ATOM     89  O   UNL A   1      46.866  24.184  37.235  1.00  0.00    -0.237 OA
ATOM     90  O   UNL A   1      44.456  24.604  37.515  1.00  0.00    -0.237 OA
ATOM     91  O   UNL A   1      45.231  23.087  35.747  1.00  0.00    -0.744 OA
ENDBRANCH  85  88
ENDBRANCH  58  81
ENDBRANCH  32  33
ENDBRANCH  24  27
ENDBRANCH  22  23
ENDBRANCH   1  22
TORSDOF 16
ENDMDL
