MODEL 1
REMARK VINA RESULT:      -9.8      0.000      0.000
REMARK SMILES O=C(CCCOc1ccc([N+](=O)[O-])cc1F)NCCCCNC(=O)c1ccc(-c2c3nc(c(-c4cccc(S(=O)(=O)[O-])c4F)c4ccc([nH]4)c(-c4cccc(S(=O)(=O)[O-])c4F)c4nc(c(-c5cccc(S(=O)(=O)[O-])c5F)c5ccc2[nH]5)C=C4)C=C3)cc1
REMARK SMILES IDX 18 1 17 2 1 3 2 4 3 6 4 7 5 8 6 9 7 10 8 11 15 12 9 13 14 14
REMARK SMILES IDX 16 15 10 16 11 17 12 18 13 19 19 20 20 21 21 22 22 23 23 24
REMARK SMILES IDX 24 26 25 27 26 28 87 29 27 30 86 31 28 32 29 33 30 34 80 35
REMARK SMILES IDX 31 36 85 37 79 38 81 39 32 40 84 41 78 42 77 43 33 45 65 46
REMARK SMILES IDX 45 47 64 48 46 49 49 50 63 51 82 52 47 53 48 54 62 56 83 57
REMARK SMILES IDX 50 58 34 59 35 60 43 61 36 62 38 63 44 64 37 65 39 66 40 67
REMARK SMILES IDX 41 68 42 69 66 70 67 71 75 72 68 73 70 74 76 75 69 76 71 77
REMARK SMILES IDX 72 78 73 79 74 80 51 81 52 82 60 83 53 84 55 85 61 86 54 87
REMARK SMILES IDX 56 88 57 89 58 90 59 91
REMARK H PARENT 17 5 22 25 81 44 49 55
REMARK Flexibility Score: inf
ROOT
ATOM      1  C   UNL A   1      32.936  35.390  28.794  1.00  0.00     0.116 C 
ENDROOT
BRANCH   1   2
ATOM      2  N   UNL A   1      32.915  35.290  30.240  1.00  0.00    -0.356 N 
ATOM      3  O   UNL A   1      32.923  37.556  30.582  1.00  0.00    -0.275 OA
ATOM      4  C   UNL A   1      32.894  36.414  31.032  1.00  0.00     0.220 C 
ATOM      5  H   UNL A   1      32.915  34.400  30.662  1.00  0.00     0.163 HD
BRANCH   4   6
ATOM      6  C   UNL A   1      32.878  36.141  32.522  1.00  0.00     0.103 C 
BRANCH   6   7
ATOM      7  C   UNL A   1      34.225  35.719  33.119  1.00  0.00     0.051 C 
BRANCH   7   8
ATOM      8  C   UNL A   1      34.681  34.263  32.925  1.00  0.00     0.230 C 
BRANCH   8   9
ATOM      9  O   UNL A   1      36.080  34.136  32.615  1.00  0.00    -0.490 OA
BRANCH   9  10
ATOM     10  C   UNL A   1      36.677  33.077  33.236  1.00  0.00     0.155 A 
ATOM     11  C   UNL A   1      36.668  31.804  32.670  1.00  0.00     0.056 A 
ATOM     12  C   UNL A   1      37.289  33.285  34.471  1.00  0.00     0.171 A 
ATOM     13  C   UNL A   1      37.410  30.778  33.269  1.00  0.00     0.089 A 
ATOM     14  C   UNL A   1      38.054  32.291  35.065  1.00  0.00     0.128 A 
ATOM     15  F   UNL A   1      37.254  34.499  35.040  1.00  0.00    -0.203 F 
ATOM     16  C   UNL A   1      38.141  31.045  34.437  1.00  0.00     0.272 A 
BRANCH  16  17
ATOM     17  N   UNL A   1      39.066  30.039  34.971  1.00  0.00     0.062 N 
ATOM     18  O   UNL A   1      39.659  29.313  34.164  1.00  0.00    -0.258 OA
ATOM     19  O   UNL A   1      39.237  30.017  36.199  1.00  0.00    -0.258 OA
ENDBRANCH  16  17
ENDBRANCH   9  10
ENDBRANCH   8   9
ENDBRANCH   7   8
ENDBRANCH   6   7
ENDBRANCH   4   6
ENDBRANCH   1   2
BRANCH   1  20
ATOM     20  C   UNL A   1      33.884  34.386  28.143  1.00  0.00     0.023 C 
BRANCH  20  21
ATOM     21  C   UNL A   1      35.049  33.919  29.018  1.00  0.00     0.023 C 
BRANCH  21  22
ATOM     22  C   UNL A   1      34.932  32.521  29.610  1.00  0.00     0.116 C 
BRANCH  22  23
ATOM     23  N   UNL A   1      34.270  31.587  28.717  1.00  0.00    -0.352 N 
ATOM     24  C   UNL A   1      34.767  30.474  28.082  1.00  0.00     0.251 C 
ATOM     25  H   UNL A   1      33.321  31.781  28.539  1.00  0.00     0.163 HD
ATOM     26  O   UNL A   1      34.079  29.901  27.243  1.00  0.00    -0.269 OA
BRANCH  24  27
ATOM     27  C   UNL A   1      36.131  29.977  28.382  1.00  0.00     0.039 A 
ATOM     28  C   UNL A   1      37.129  30.137  27.416  1.00  0.00     0.014 A 
ATOM     29  C   UNL A   1      36.432  29.342  29.590  1.00  0.00     0.014 A 
ATOM     30  C   UNL A   1      38.437  29.718  27.686  1.00  0.00     0.010 A 
ATOM     31  C   UNL A   1      37.750  28.995  29.888  1.00  0.00     0.010 A 
ATOM     32  C   UNL A   1      38.767  29.175  28.938  1.00  0.00    -0.014 A 
BRANCH  32  33
ATOM     33  C   UNL A   1      40.171  28.813  29.276  1.00  0.00     0.031 A 
ATOM     34  C   UNL A   1      40.832  27.625  28.631  1.00  0.00     0.074 A 
ATOM     35  C   UNL A   1      40.828  29.509  30.226  1.00  0.00     0.049 A 
ATOM     36  N   UNL A   1      42.026  27.132  28.844  1.00  0.00    -0.248 NA
ATOM     37  C   UNL A   1      40.048  26.880  27.633  1.00  0.00     0.031 C 
ATOM     38  C   UNL A   1      40.277  30.639  30.976  1.00  0.00     0.029 A 
ATOM     39  N   UNL A   1      42.094  29.356  30.739  1.00  0.00    -0.354 N 
ATOM     40  C   UNL A   1      42.123  26.005  28.037  1.00  0.00     0.074 A 
ATOM     41  C   UNL A   1      40.856  25.868  27.351  1.00  0.00     0.031 C 
ATOM     42  C   UNL A   1      41.200  31.084  31.844  1.00  0.00     0.029 A 
ATOM     43  C   UNL A   1      42.396  30.251  31.740  1.00  0.00     0.049 A 
ATOM     44  H   UNL A   1      42.724  28.670  30.421  1.00  0.00     0.167 HD
ATOM     45  C   UNL A   1      43.180  25.178  27.858  1.00  0.00     0.034 A 
ATOM     46  C   UNL A   1      43.504  30.387  32.496  1.00  0.00     0.034 A 
ATOM     47  C   UNL A   1      44.454  25.344  28.503  1.00  0.00     0.049 A 
ATOM     48  C   UNL A   1      44.674  29.473  32.258  1.00  0.00     0.074 A 
ATOM     49  C   UNL A   1      45.610  24.607  28.316  1.00  0.00     0.029 A 
ATOM     50  N   UNL A   1      44.743  26.303  29.461  1.00  0.00    -0.354 N 
ATOM     51  N   UNL A   1      44.796  28.501  31.387  1.00  0.00    -0.248 NA
ATOM     52  C   UNL A   1      45.873  29.692  33.082  1.00  0.00     0.031 C 
ATOM     53  C   UNL A   1      46.589  25.099  29.183  1.00  0.00     0.029 A 
ATOM     54  C   UNL A   1      46.053  26.168  29.885  1.00  0.00     0.049 A 
ATOM     55  H   UNL A   1      44.109  26.980  29.791  1.00  0.00     0.167 HD
ATOM     56  C   UNL A   1      46.090  28.014  31.534  1.00  0.00     0.074 A 
ATOM     57  C   UNL A   1      46.720  28.809  32.568  1.00  0.00     0.031 C 
ATOM     58  C   UNL A   1      46.693  26.992  30.879  1.00  0.00     0.034 A 
BRANCH  45  59
ATOM     59  C   UNL A   1      43.033  24.041  26.879  1.00  0.00     0.023 A 
ATOM     60  C   UNL A   1      43.649  24.129  25.614  1.00  0.00     0.012 A 
ATOM     61  C   UNL A   1      42.375  22.850  27.245  1.00  0.00     0.148 A 
ATOM     62  C   UNL A   1      43.592  23.062  24.720  1.00  0.00     0.002 A 
ATOM     63  C   UNL A   1      42.364  21.773  26.368  1.00  0.00     0.091 A 
ATOM     64  F   UNL A   1      41.780  22.791  28.446  1.00  0.00    -0.205 F 
ATOM     65  C   UNL A   1      42.962  21.880  25.101  1.00  0.00     0.022 A 
BRANCH  63  66
ATOM     66  S   UNL A   1      41.657  20.177  26.796  1.00  0.00     0.127 S 
ATOM     67  O   UNL A   1      40.327  20.562  27.267  1.00  0.00    -0.237 OA
ATOM     68  O   UNL A   1      41.671  19.481  25.509  1.00  0.00    -0.237 OA
ATOM     69  O   UNL A   1      42.535  19.607  27.808  1.00  0.00    -0.744 OA
ENDBRANCH  63  66
ENDBRANCH  45  59
BRANCH  46  70
ATOM     70  C   UNL A   1      43.573  31.484  33.501  1.00  0.00     0.023 A 
ATOM     71  C   UNL A   1      44.084  32.740  33.120  1.00  0.00     0.012 A 
ATOM     72  C   UNL A   1      43.070  31.316  34.806  1.00  0.00     0.148 A 
ATOM     73  C   UNL A   1      44.107  33.803  34.023  1.00  0.00     0.002 A 
ATOM     74  C   UNL A   1      43.041  32.394  35.682  1.00  0.00     0.091 A 
ATOM     75  F   UNL A   1      42.598  30.110  35.151  1.00  0.00    -0.205 F 
ATOM     76  C   UNL A   1      43.574  33.635  35.298  1.00  0.00     0.022 A 
BRANCH  74  77
ATOM     77  S   UNL A   1      42.240  32.313  37.288  1.00  0.00     0.127 S 
ATOM     78  O   UNL A   1      43.022  33.272  38.062  1.00  0.00    -0.237 OA
ATOM     79  O   UNL A   1      40.879  32.741  36.966  1.00  0.00    -0.237 OA
ATOM     80  O   UNL A   1      42.347  30.923  37.714  1.00  0.00    -0.744 OA
ENDBRANCH  74  77
ENDBRANCH  46  70
BRANCH  58  81
ATOM     81  C   UNL A   1      48.124  26.668  31.225  1.00  0.00     0.023 A 
ATOM     82  C   UNL A   1      48.403  25.667  32.175  1.00  0.00     0.012 A 
ATOM     83  C   UNL A   1      49.185  27.265  30.516  1.00  0.00     0.148 A 
ATOM     84  C   UNL A   1      49.719  25.277  32.428  1.00  0.00     0.002 A 
ATOM     85  C   UNL A   1      50.488  26.837  30.736  1.00  0.00     0.091 A 
ATOM     86  F   UNL A   1      48.898  28.227  29.627  1.00  0.00    -0.205 F 
ATOM     87  C   UNL A   1      50.759  25.850  31.698  1.00  0.00     0.022 A 
BRANCH  85  88
ATOM     88  S   UNL A   1      51.879  27.437  29.770  1.00  0.00     0.127 S 
ATOM     89  O   UNL A   1      52.964  26.578  30.243  1.00  0.00    -0.237 OA
ATOM     90  O   UNL A   1      51.443  27.168  28.399  1.00  0.00    -0.237 OA
ATOM     91  O   UNL A   1      52.018  28.850  30.096  1.00  0.00    -0.744 OA
ENDBRANCH  85  88
ENDBRANCH  58  81
ENDBRANCH  32  33
ENDBRANCH  24  27
ENDBRANCH  22  23
ENDBRANCH  21  22
ENDBRANCH  20  21
ENDBRANCH   1  20
TORSDOF 19
ENDMDL
MODEL 2
REMARK VINA RESULT:      -9.8      4.208     11.155
REMARK SMILES O=C(CCCOc1ccc([N+](=O)[O-])cc1F)NCCCCNC(=O)c1ccc(-c2c3nc(c(-c4cccc(S(=O)(=O)[O-])c4F)c4ccc([nH]4)c(-c4cccc(S(=O)(=O)[O-])c4F)c4nc(c(-c5cccc(S(=O)(=O)[O-])c5F)c5ccc2[nH]5)C=C4)C=C3)cc1
REMARK SMILES IDX 18 1 17 2 1 3 2 4 3 6 4 7 5 8 6 9 7 10 8 11 15 12 9 13 14 14
REMARK SMILES IDX 16 15 10 16 11 17 12 18 13 19 19 20 20 21 21 22 22 23 23 24
REMARK SMILES IDX 24 26 25 27 26 28 87 29 27 30 86 31 28 32 29 33 30 34 80 35
REMARK SMILES IDX 31 36 85 37 79 38 81 39 32 40 84 41 78 42 77 43 33 45 65 46
REMARK SMILES IDX 45 47 64 48 46 49 49 50 63 51 82 52 47 53 48 54 62 56 83 57
REMARK SMILES IDX 50 58 34 59 35 60 43 61 36 62 38 63 44 64 37 65 39 66 40 67
REMARK SMILES IDX 41 68 42 69 66 70 67 71 75 72 68 73 70 74 76 75 69 76 71 77
REMARK SMILES IDX 72 78 73 79 74 80 51 81 52 82 60 83 53 84 55 85 61 86 54 87
REMARK SMILES IDX 56 88 57 89 58 90 59 91
REMARK H PARENT 17 5 22 25 81 44 49 55
REMARK Flexibility Score: inf
ROOT
ATOM      1  C   UNL A   1      44.294  23.125  28.765  1.00  0.00     0.116 C 
ENDROOT
BRANCH   1   2
ATOM      2  N   UNL A   1      45.356  23.829  28.074  1.00  0.00    -0.356 N 
ATOM      3  O   UNL A   1      45.737  25.309  29.782  1.00  0.00    -0.275 OA
ATOM      4  C   UNL A   1      46.016  24.882  28.665  1.00  0.00     0.220 C 
ATOM      5  H   UNL A   1      45.609  23.549  27.165  1.00  0.00     0.163 HD
BRANCH   4   6
ATOM      6  C   UNL A   1      47.095  25.515  27.811  1.00  0.00     0.103 C 
BRANCH   6   7
ATOM      7  C   UNL A   1      47.489  24.716  26.565  1.00  0.00     0.051 C 
BRANCH   7   8
ATOM      8  C   UNL A   1      47.053  25.251  25.191  1.00  0.00     0.230 C 
BRANCH   8   9
ATOM      9  O   UNL A   1      45.691  24.931  24.856  1.00  0.00    -0.490 OA
BRANCH   9  10
ATOM     10  C   UNL A   1      45.494  23.604  24.607  1.00  0.00     0.155 A 
ATOM     11  C   UNL A   1      46.565  22.739  24.387  1.00  0.00     0.056 A 
ATOM     12  C   UNL A   1      44.187  23.119  24.557  1.00  0.00     0.171 A 
ATOM     13  C   UNL A   1      46.327  21.363  24.276  1.00  0.00     0.089 A 
ATOM     14  C   UNL A   1      43.933  21.757  24.478  1.00  0.00     0.128 A 
ATOM     15  F   UNL A   1      43.155  23.960  24.719  1.00  0.00    -0.203 F 
ATOM     16  C   UNL A   1      45.015  20.877  24.374  1.00  0.00     0.272 A 
BRANCH  16  17
ATOM     17  N   UNL A   1      44.768  19.432  24.446  1.00  0.00     0.062 N 
ATOM     18  O   UNL A   1      45.738  18.690  24.644  1.00  0.00    -0.258 OA
ATOM     19  O   UNL A   1      43.592  19.049  24.357  1.00  0.00    -0.258 OA
ENDBRANCH  16  17
ENDBRANCH   9  10
ENDBRANCH   8   9
ENDBRANCH   7   8
ENDBRANCH   6   7
ENDBRANCH   4   6
ENDBRANCH   1   2
BRANCH   1  20
ATOM     20  C   UNL A   1      42.930  23.316  28.109  1.00  0.00     0.023 C 
BRANCH  20  21
ATOM     21  C   UNL A   1      42.363  22.086  27.398  1.00  0.00     0.023 C 
BRANCH  21  22
ATOM     22  C   UNL A   1      41.042  21.547  27.929  1.00  0.00     0.116 C 
BRANCH  22  23
ATOM     23  N   UNL A   1      39.988  21.560  26.930  1.00  0.00    -0.352 N 
ATOM     24  C   UNL A   1      39.239  22.610  26.456  1.00  0.00     0.251 C 
ATOM     25  H   UNL A   1      39.779  20.684  26.533  1.00  0.00     0.163 HD
ATOM     26  O   UNL A   1      38.287  22.385  25.716  1.00  0.00    -0.269 OA
BRANCH  24  27
ATOM     27  C   UNL A   1      39.553  24.004  26.851  1.00  0.00     0.039 A 
ATOM     28  C   UNL A   1      39.195  24.435  28.132  1.00  0.00     0.014 A 
ATOM     29  C   UNL A   1      40.178  24.893  25.971  1.00  0.00     0.014 A 
ATOM     30  C   UNL A   1      39.518  25.731  28.548  1.00  0.00     0.010 A 
ATOM     31  C   UNL A   1      40.567  26.157  26.413  1.00  0.00     0.010 A 
ATOM     32  C   UNL A   1      40.239  26.593  27.705  1.00  0.00    -0.014 A 
BRANCH  32  33
ATOM     33  C   UNL A   1      40.672  27.940  28.167  1.00  0.00     0.031 A 
ATOM     34  C   UNL A   1      42.131  28.308  28.195  1.00  0.00     0.074 A 
ATOM     35  C   UNL A   1      39.755  28.809  28.638  1.00  0.00     0.049 A 
ATOM     36  N   UNL A   1      42.692  29.413  28.615  1.00  0.00    -0.248 NA
ATOM     37  C   UNL A   1      43.087  27.300  27.709  1.00  0.00     0.031 C 
ATOM     38  C   UNL A   1      38.317  28.551  28.728  1.00  0.00     0.029 A 
ATOM     39  N   UNL A   1      39.897  30.078  29.147  1.00  0.00    -0.354 N 
ATOM     40  C   UNL A   1      44.062  29.221  28.477  1.00  0.00     0.074 A 
ATOM     41  C   UNL A   1      44.251  27.882  27.963  1.00  0.00     0.031 C 
ATOM     42  C   UNL A   1      37.708  29.628  29.250  1.00  0.00     0.029 A 
ATOM     43  C   UNL A   1      38.713  30.640  29.566  1.00  0.00     0.049 A 
ATOM     44  H   UNL A   1      40.764  30.540  29.209  1.00  0.00     0.167 HD
ATOM     45  C   UNL A   1      45.070  30.091  28.726  1.00  0.00     0.034 A 
ATOM     46  C   UNL A   1      38.459  31.832  30.143  1.00  0.00     0.034 A 
ATOM     47  C   UNL A   1      44.878  31.438  29.192  1.00  0.00     0.049 A 
ATOM     48  C   UNL A   1      39.592  32.791  30.383  1.00  0.00     0.074 A 
ATOM     49  C   UNL A   1      45.834  32.420  29.387  1.00  0.00     0.029 A 
ATOM     50  N   UNL A   1      43.658  31.994  29.541  1.00  0.00    -0.354 N 
ATOM     51  N   UNL A   1      40.866  32.643  30.112  1.00  0.00    -0.248 NA
ATOM     52  C   UNL A   1      39.253  34.093  30.978  1.00  0.00     0.031 C 
ATOM     53  C   UNL A   1      45.197  33.558  29.885  1.00  0.00     0.029 A 
ATOM     54  C   UNL A   1      43.837  33.299  29.964  1.00  0.00     0.049 A 
ATOM     55  H   UNL A   1      42.792  31.529  29.494  1.00  0.00     0.167 HD
ATOM     56  C   UNL A   1      41.475  33.840  30.472  1.00  0.00     0.074 A 
ATOM     57  C   UNL A   1      40.427  34.710  30.965  1.00  0.00     0.031 C 
ATOM     58  C   UNL A   1      42.786  34.179  30.409  1.00  0.00     0.034 A 
BRANCH  45  59
ATOM     59  C   UNL A   1      46.481  29.640  28.447  1.00  0.00     0.023 A 
ATOM     60  C   UNL A   1      47.071  29.938  27.202  1.00  0.00     0.012 A 
ATOM     61  C   UNL A   1      47.253  29.015  29.445  1.00  0.00     0.148 A 
ATOM     62  C   UNL A   1      48.399  29.599  26.945  1.00  0.00     0.002 A 
ATOM     63  C   UNL A   1      48.589  28.724  29.200  1.00  0.00     0.091 A 
ATOM     64  F   UNL A   1      46.669  28.724  30.617  1.00  0.00    -0.205 F 
ATOM     65  C   UNL A   1      49.161  29.004  27.947  1.00  0.00     0.022 A 
BRANCH  63  66
ATOM     66  S   UNL A   1      49.681  28.040  30.453  1.00  0.00     0.127 S 
ATOM     67  O   UNL A   1      49.595  29.054  31.503  1.00  0.00    -0.237 OA
ATOM     68  O   UNL A   1      49.024  26.772  30.773  1.00  0.00    -0.237 OA
ATOM     69  O   UNL A   1      50.986  27.907  29.820  1.00  0.00    -0.744 OA
ENDBRANCH  63  66
ENDBRANCH  45  59
BRANCH  46  70
ATOM     70  C   UNL A   1      37.052  32.203  30.466  1.00  0.00     0.023 A 
ATOM     71  C   UNL A   1      36.555  31.966  31.762  1.00  0.00     0.012 A 
ATOM     72  C   UNL A   1      36.231  32.853  29.524  1.00  0.00     0.148 A 
ATOM     73  C   UNL A   1      35.261  32.354  32.111  1.00  0.00     0.002 A 
ATOM     74  C   UNL A   1      34.965  33.291  29.895  1.00  0.00     0.091 A 
ATOM     75  F   UNL A   1      36.720  33.059  28.294  1.00  0.00    -0.205 F 
ATOM     76  C   UNL A   1      34.472  33.029  31.182  1.00  0.00     0.022 A 
BRANCH  74  77
ATOM     77  S   UNL A   1      33.937  34.296  28.817  1.00  0.00     0.127 S 
ATOM     78  O   UNL A   1      32.859  34.694  29.717  1.00  0.00    -0.237 OA
ATOM     79  O   UNL A   1      34.858  35.370  28.442  1.00  0.00    -0.237 OA
ATOM     80  O   UNL A   1      33.549  33.425  27.715  1.00  0.00    -0.744 OA
ENDBRANCH  74  77
ENDBRANCH  46  70
BRANCH  58  81
ATOM     81  C   UNL A   1      43.189  35.560  30.858  1.00  0.00     0.023 A 
ATOM     82  C   UNL A   1      43.575  35.775  32.195  1.00  0.00     0.012 A 
ATOM     83  C   UNL A   1      43.305  36.611  29.926  1.00  0.00     0.148 A 
ATOM     84  C   UNL A   1      44.055  37.020  32.603  1.00  0.00     0.002 A 
ATOM     85  C   UNL A   1      43.831  37.833  30.328  1.00  0.00     0.091 A 
ATOM     86  F   UNL A   1      42.916  36.390  28.662  1.00  0.00    -0.205 F 
ATOM     87  C   UNL A   1      44.197  38.043  31.667  1.00  0.00     0.022 A 
BRANCH  85  88
ATOM     88  S   UNL A   1      44.152  39.173  29.174  1.00  0.00     0.127 S 
ATOM     89  O   UNL A   1      44.986  40.065  29.979  1.00  0.00    -0.237 OA
ATOM     90  O   UNL A   1      44.862  38.487  28.093  1.00  0.00    -0.237 OA
ATOM     91  O   UNL A   1      42.850  39.707  28.801  1.00  0.00    -0.744 OA
ENDBRANCH  85  88
ENDBRANCH  58  81
ENDBRANCH  32  33
ENDBRANCH  24  27
ENDBRANCH  22  23
ENDBRANCH  21  22
ENDBRANCH  20  21
ENDBRANCH   1  20
TORSDOF 19
ENDMDL
MODEL 3
REMARK VINA RESULT:      -9.6      2.088      2.525
REMARK SMILES O=C(CCCOc1ccc([N+](=O)[O-])cc1F)NCCCCNC(=O)c1ccc(-c2c3nc(c(-c4cccc(S(=O)(=O)[O-])c4F)c4ccc([nH]4)c(-c4cccc(S(=O)(=O)[O-])c4F)c4nc(c(-c5cccc(S(=O)(=O)[O-])c5F)c5ccc2[nH]5)C=C4)C=C3)cc1
REMARK SMILES IDX 18 1 17 2 1 3 2 4 3 6 4 7 5 8 6 9 7 10 8 11 15 12 9 13 14 14
REMARK SMILES IDX 16 15 10 16 11 17 12 18 13 19 19 20 20 21 21 22 22 23 23 24
REMARK SMILES IDX 24 26 25 27 26 28 87 29 27 30 86 31 28 32 29 33 30 34 80 35
REMARK SMILES IDX 31 36 85 37 79 38 81 39 32 40 84 41 78 42 77 43 33 45 65 46
REMARK SMILES IDX 45 47 64 48 46 49 49 50 63 51 82 52 47 53 48 54 62 56 83 57
REMARK SMILES IDX 50 58 34 59 35 60 43 61 36 62 38 63 44 64 37 65 39 66 40 67
REMARK SMILES IDX 41 68 42 69 66 70 67 71 75 72 68 73 70 74 76 75 69 76 71 77
REMARK SMILES IDX 72 78 73 79 74 80 51 81 52 82 60 83 53 84 55 85 61 86 54 87
REMARK SMILES IDX 56 88 57 89 58 90 59 91
REMARK H PARENT 17 5 22 25 81 44 49 55
REMARK Flexibility Score: inf
ROOT
ATOM      1  C   UNL A   1      33.093  35.446  28.804  1.00  0.00     0.116 C 
ENDROOT
BRANCH   1   2
ATOM      2  N   UNL A   1      32.884  35.338  30.234  1.00  0.00    -0.356 N 
ATOM      3  O   UNL A   1      32.904  37.600  30.596  1.00  0.00    -0.275 OA
ATOM      4  C   UNL A   1      32.790  36.457  31.028  1.00  0.00     0.220 C 
ATOM      5  H   UNL A   1      32.810  34.446  30.644  1.00  0.00     0.163 HD
BRANCH   4   6
ATOM      6  C   UNL A   1      32.578  36.175  32.501  1.00  0.00     0.103 C 
BRANCH   6   7
ATOM      7  C   UNL A   1      33.854  36.155  33.348  1.00  0.00     0.051 C 
BRANCH   7   8
ATOM      8  C   UNL A   1      34.787  34.938  33.228  1.00  0.00     0.230 C 
BRANCH   8   9
ATOM      9  O   UNL A   1      36.156  35.229  33.562  1.00  0.00    -0.490 OA
BRANCH   9  10
ATOM     10  C   UNL A   1      36.766  34.229  34.262  1.00  0.00     0.155 A 
ATOM     11  C   UNL A   1      36.724  34.188  35.654  1.00  0.00     0.056 A 
ATOM     12  C   UNL A   1      37.456  33.244  33.557  1.00  0.00     0.171 A 
ATOM     13  C   UNL A   1      37.240  33.073  36.326  1.00  0.00     0.089 A 
ATOM     14  C   UNL A   1      37.947  32.117  34.201  1.00  0.00     0.128 A 
ATOM     15  F   UNL A   1      37.539  33.311  32.221  1.00  0.00    -0.203 F 
ATOM     16  C   UNL A   1      37.802  32.020  35.589  1.00  0.00     0.272 A 
BRANCH  16  17
ATOM     17  N   UNL A   1      38.177  30.769  36.259  1.00  0.00     0.062 N 
ATOM     18  O   UNL A   1      37.672  30.532  37.364  1.00  0.00    -0.258 OA
ATOM     19  O   UNL A   1      38.936  30.001  35.650  1.00  0.00    -0.258 OA
ENDBRANCH  16  17
ENDBRANCH   9  10
ENDBRANCH   8   9
ENDBRANCH   7   8
ENDBRANCH   6   7
ENDBRANCH   4   6
ENDBRANCH   1   2
BRANCH   1  20
ATOM     20  C   UNL A   1      34.247  34.582  28.304  1.00  0.00     0.023 C 
BRANCH  20  21
ATOM     21  C   UNL A   1      35.133  33.975  29.393  1.00  0.00     0.023 C 
BRANCH  21  22
ATOM     22  C   UNL A   1      34.793  32.555  29.826  1.00  0.00     0.116 C 
BRANCH  22  23
ATOM     23  N   UNL A   1      34.217  31.763  28.755  1.00  0.00    -0.352 N 
ATOM     24  C   UNL A   1      34.753  30.711  28.052  1.00  0.00     0.251 C 
ATOM     25  H   UNL A   1      33.303  32.019  28.491  1.00  0.00     0.163 HD
ATOM     26  O   UNL A   1      34.157  30.272  27.074  1.00  0.00    -0.269 OA
BRANCH  24  27
ATOM     27  C   UNL A   1      36.055  30.121  28.447  1.00  0.00     0.039 A 
ATOM     28  C   UNL A   1      37.166  30.339  27.627  1.00  0.00     0.014 A 
ATOM     29  C   UNL A   1      36.189  29.344  29.601  1.00  0.00     0.014 A 
ATOM     30  C   UNL A   1      38.417  29.833  27.996  1.00  0.00     0.010 A 
ATOM     31  C   UNL A   1      37.449  28.905  30.007  1.00  0.00     0.010 A 
ATOM     32  C   UNL A   1      38.577  29.141  29.207  1.00  0.00    -0.014 A 
BRANCH  32  33
ATOM     33  C   UNL A   1      39.918  28.678  29.660  1.00  0.00     0.031 A 
ATOM     34  C   UNL A   1      40.612  27.539  28.964  1.00  0.00     0.074 A 
ATOM     35  C   UNL A   1      40.480  29.234  30.753  1.00  0.00     0.049 A 
ATOM     36  N   UNL A   1      41.754  26.971  29.255  1.00  0.00    -0.248 NA
ATOM     37  C   UNL A   1      39.927  26.946  27.804  1.00  0.00     0.031 C 
ATOM     38  C   UNL A   1      39.881  30.300  31.559  1.00  0.00     0.029 A 
ATOM     39  N   UNL A   1      41.669  28.968  31.387  1.00  0.00    -0.354 N 
ATOM     40  C   UNL A   1      41.909  25.936  28.340  1.00  0.00     0.074 A 
ATOM     41  C   UNL A   1      40.729  25.933  27.503  1.00  0.00     0.031 C 
ATOM     42  C   UNL A   1      40.708  30.603  32.572  1.00  0.00     0.029 A 
ATOM     43  C   UNL A   1      41.880  29.732  32.512  1.00  0.00     0.049 A 
ATOM     44  H   UNL A   1      42.310  28.292  31.067  1.00  0.00     0.167 HD
ATOM     45  C   UNL A   1      42.951  25.085  28.190  1.00  0.00     0.034 A 
ATOM     46  C   UNL A   1      42.894  29.732  33.400  1.00  0.00     0.034 A 
ATOM     47  C   UNL A   1      44.144  25.119  28.993  1.00  0.00     0.049 A 
ATOM     48  C   UNL A   1      44.053  28.797  33.195  1.00  0.00     0.074 A 
ATOM     49  C   UNL A   1      45.290  24.354  28.856  1.00  0.00     0.029 A 
ATOM     50  N   UNL A   1      44.349  25.953  30.081  1.00  0.00    -0.354 N 
ATOM     51  N   UNL A   1      44.244  27.922  32.239  1.00  0.00    -0.248 NA
ATOM     52  C   UNL A   1      45.151  28.867  34.171  1.00  0.00     0.031 C 
ATOM     53  C   UNL A   1      46.173  24.702  29.880  1.00  0.00     0.029 A 
ATOM     54  C   UNL A   1      45.594  25.711  30.634  1.00  0.00     0.049 A 
ATOM     55  H   UNL A   1      43.703  26.618  30.411  1.00  0.00     0.167 HD
ATOM     56  C   UNL A   1      45.495  27.362  32.477  1.00  0.00     0.074 A 
ATOM     57  C   UNL A   1      46.023  28.008  33.660  1.00  0.00     0.031 C 
ATOM     58  C   UNL A   1      46.137  26.390  31.782  1.00  0.00     0.034 A 
BRANCH  45  59
ATOM     59  C   UNL A   1      42.884  24.070  27.078  1.00  0.00     0.023 A 
ATOM     60  C   UNL A   1      43.553  24.326  25.863  1.00  0.00     0.012 A 
ATOM     61  C   UNL A   1      42.250  22.827  27.268  1.00  0.00     0.148 A 
ATOM     62  C   UNL A   1      43.570  23.373  24.846  1.00  0.00     0.002 A 
ATOM     63  C   UNL A   1      42.312  21.863  26.269  1.00  0.00     0.091 A 
ATOM     64  F   UNL A   1      41.604  22.608  28.423  1.00  0.00    -0.205 F 
ATOM     65  C   UNL A   1      42.961  22.138  25.053  1.00  0.00     0.022 A 
BRANCH  63  66
ATOM     66  S   UNL A   1      41.638  20.209  26.470  1.00  0.00     0.127 S 
ATOM     67  O   UNL A   1      42.216  19.811  27.753  1.00  0.00    -0.237 OA
ATOM     68  O   UNL A   1      40.198  20.467  26.503  1.00  0.00    -0.237 OA
ATOM     69  O   UNL A   1      42.095  19.446  25.318  1.00  0.00    -0.744 OA
ENDBRANCH  63  66
ENDBRANCH  45  59
BRANCH  46  70
ATOM     70  C   UNL A   1      42.879  30.709  34.526  1.00  0.00     0.023 A 
ATOM     71  C   UNL A   1      42.383  30.309  35.782  1.00  0.00     0.012 A 
ATOM     72  C   UNL A   1      43.419  32.002  34.382  1.00  0.00     0.148 A 
ATOM     73  C   UNL A   1      42.409  31.182  36.869  1.00  0.00     0.002 A 
ATOM     74  C   UNL A   1      43.497  32.846  35.483  1.00  0.00     0.091 A 
ATOM     75  F   UNL A   1      43.877  32.365  33.176  1.00  0.00    -0.205 F 
ATOM     76  C   UNL A   1      42.979  32.445  36.724  1.00  0.00     0.022 A 
BRANCH  74  77
ATOM     77  S   UNL A   1      44.347  34.429  35.428  1.00  0.00     0.127 S 
ATOM     78  O   UNL A   1      43.249  35.348  35.141  1.00  0.00    -0.237 OA
ATOM     79  O   UNL A   1      44.894  34.522  36.781  1.00  0.00    -0.237 OA
ATOM     80  O   UNL A   1      45.352  34.301  34.380  1.00  0.00    -0.744 OA
ENDBRANCH  74  77
ENDBRANCH  46  70
BRANCH  58  81
ATOM     81  C   UNL A   1      47.505  25.964  32.251  1.00  0.00     0.023 A 
ATOM     82  C   UNL A   1      48.644  26.668  31.815  1.00  0.00     0.012 A 
ATOM     83  C   UNL A   1      47.646  24.951  33.221  1.00  0.00     0.148 A 
ATOM     84  C   UNL A   1      49.906  26.358  32.323  1.00  0.00     0.002 A 
ATOM     85  C   UNL A   1      48.899  24.682  33.759  1.00  0.00     0.091 A 
ATOM     86  F   UNL A   1      46.551  24.282  33.611  1.00  0.00    -0.205 F 
ATOM     87  C   UNL A   1      50.031  25.377  33.305  1.00  0.00     0.022 A 
BRANCH  85  88
ATOM     88  S   UNL A   1      49.143  23.514  35.103  1.00  0.00     0.127 S 
ATOM     89  O   UNL A   1      50.439  22.931  34.759  1.00  0.00    -0.237 OA
ATOM     90  O   UNL A   1      49.161  24.391  36.275  1.00  0.00    -0.237 OA
ATOM     91  O   UNL A   1      48.014  22.596  35.051  1.00  0.00    -0.744 OA
ENDBRANCH  85  88
ENDBRANCH  58  81
ENDBRANCH  32  33
ENDBRANCH  24  27
ENDBRANCH  22  23
ENDBRANCH  21  22
ENDBRANCH  20  21
ENDBRANCH   1  20
TORSDOF 19
ENDMDL
