MODEL 1
REMARK VINA RESULT:     -11.9      0.000      0.000
REMARK SMILES CN(CC(F)(F)F)C(=O)N1CC(n2cc(C(=O)NCCCCNC(=O)c3ccc(-c4c5nc(c(-c6cccc(S(=O)(=O)[O-])c6F)c6ccc([nH]6)c(-c6cccc(S(=O)(=O)[O-])c6F)c6nc(c(-c7cccc(S(=O)(=O)[O-])c7F)c7ccc4[nH]7)C=C6)C=C5)cc3)nn2)C1
REMARK SMILES IDX 20 1 19 2 18 3 16 4 17 5 15 7 13 8 14 9 90 10 89 11 12 12
REMARK SMILES IDX 8 13 9 14 10 15 11 16 91 17 2 18 1 19 3 20 4 21 5 22 6 23
REMARK SMILES IDX 7 24 21 25 22 26 23 27 24 28 25 30 26 31 27 32 88 33 28 34
REMARK SMILES IDX 87 35 29 36 30 37 31 38 81 39 32 40 86 41 80 42 82 43 33 44
REMARK SMILES IDX 85 45 79 46 78 47 34 49 66 50 46 51 65 52 47 53 50 54 64 55
REMARK SMILES IDX 83 56 48 57 49 58 63 60 84 61 51 62 35 63 36 64 44 65 37 66
REMARK SMILES IDX 39 67 45 68 38 69 40 70 41 71 42 72 43 73 67 74 68 75 76 76
REMARK SMILES IDX 69 77 71 78 77 79 70 80 72 81 73 82 74 83 75 84 52 85 53 86
REMARK SMILES IDX 61 87 54 88 56 89 62 90 55 91 57 92 58 93 59 94 60 95
REMARK H PARENT 18 6 23 29 82 48 50 59
REMARK Flexibility Score: inf
ROOT
ATOM      1  C   UNL A   1      36.753  19.188  24.825  1.00  0.00     0.023 C 
ENDROOT
BRANCH   1   2
ATOM      2  C   UNL A   1      35.537  20.101  25.027  1.00  0.00     0.116 C 
BRANCH   2   3
ATOM      3  N   UNL A   1      34.296  19.351  25.041  1.00  0.00    -0.351 N 
ATOM      4  C   UNL A   1      32.982  19.741  25.006  1.00  0.00     0.273 C 
ATOM      5  O   UNL A   1      32.132  18.833  25.029  1.00  0.00    -0.267 OA
ATOM      6  H   UNL A   1      34.420  18.375  25.084  1.00  0.00     0.163 HD
BRANCH   4   7
ATOM      7  C   UNL A   1      32.575  21.141  24.963  1.00  0.00     0.170 A 
ATOM      8  N   UNL A   1      32.298  23.271  24.625  1.00  0.00    -0.245 N 
ATOM      9  C   UNL A   1      33.174  22.248  24.388  1.00  0.00     0.145 A 
ATOM     10  N   UNL A   1      31.269  22.872  25.377  1.00  0.00    -0.066 NA
ATOM     11  N   UNL A   1      31.431  21.576  25.607  1.00  0.00    -0.125 NA
BRANCH   8  12
ATOM     12  C   UNL A   1      32.474  24.599  24.131  1.00  0.00     0.148 C 
ATOM     13  C   UNL A   1      33.664  27.599  24.403  1.00  0.00     0.320 C 
ATOM     14  O   UNL A   1      34.078  27.913  23.285  1.00  0.00    -0.248 OA
ATOM     15  N   UNL A   1      33.482  26.289  24.746  1.00  0.00    -0.320 N 
ATOM     16  C   UNL A   1      33.911  25.105  23.994  1.00  0.00     0.150 C 
ATOM     17  C   UNL A   1      32.280  25.631  25.250  1.00  0.00     0.150 C 
BRANCH  13  18
ATOM     18  N   UNL A   1      33.400  28.551  25.373  1.00  0.00    -0.319 N 
ATOM     19  C   UNL A   1      34.060  28.391  26.659  1.00  0.00     0.149 C 
BRANCH  18  20
ATOM     20  C   UNL A   1      32.406  29.640  25.260  1.00  0.00     0.236 C 
BRANCH  20  21
ATOM     21  C   UNL A   1      32.182  30.463  26.529  1.00  0.00     0.406 C 
ATOM     22  F   UNL A   1      31.308  31.474  26.340  1.00  0.00    -0.169 F 
ATOM     23  F   UNL A   1      31.691  29.684  27.519  1.00  0.00    -0.169 F 
ATOM     24  F   UNL A   1      33.339  31.003  26.976  1.00  0.00    -0.169 F 
ENDBRANCH  20  21
ENDBRANCH  18  20
ENDBRANCH  13  18
ENDBRANCH   8  12
ENDBRANCH   4   7
ENDBRANCH   2   3
ENDBRANCH   1   2
BRANCH   1  25
ATOM     25  C   UNL A   1      38.089  19.911  24.580  1.00  0.00     0.023 C 
BRANCH  25  26
ATOM     26  C   UNL A   1      38.981  20.062  25.810  1.00  0.00     0.116 C 
BRANCH  26  27
ATOM     27  N   UNL A   1      40.064  19.071  25.860  1.00  0.00    -0.352 N 
ATOM     28  C   UNL A   1      41.415  19.294  26.024  1.00  0.00     0.251 C 
ATOM     29  H   UNL A   1      39.791  18.129  25.765  1.00  0.00     0.163 HD
ATOM     30  O   UNL A   1      42.243  18.440  25.695  1.00  0.00    -0.269 OA
BRANCH  28  31
ATOM     31  C   UNL A   1      41.854  20.569  26.608  1.00  0.00     0.039 A 
ATOM     32  C   UNL A   1      42.553  21.525  25.862  1.00  0.00     0.014 A 
ATOM     33  C   UNL A   1      41.478  20.822  27.922  1.00  0.00     0.014 A 
ATOM     34  C   UNL A   1      42.782  22.782  26.421  1.00  0.00     0.010 A 
ATOM     35  C   UNL A   1      41.564  22.101  28.405  1.00  0.00     0.010 A 
ATOM     36  C   UNL A   1      42.264  23.073  27.689  1.00  0.00    -0.014 A 
BRANCH  36  37
ATOM     37  C   UNL A   1      42.368  24.410  28.271  1.00  0.00     0.031 A 
ATOM     38  C   UNL A   1      41.210  25.327  28.058  1.00  0.00     0.074 A 
ATOM     39  C   UNL A   1      43.310  24.690  29.200  1.00  0.00     0.049 A 
ATOM     40  N   UNL A   1      41.212  26.500  27.508  1.00  0.00    -0.248 NA
ATOM     41  C   UNL A   1      39.870  24.856  28.441  1.00  0.00     0.031 C 
ATOM     42  C   UNL A   1      44.314  23.773  29.764  1.00  0.00     0.029 A 
ATOM     43  N   UNL A   1      43.446  25.797  29.979  1.00  0.00    -0.354 N 
ATOM     44  C   UNL A   1      39.918  27.002  27.669  1.00  0.00     0.074 A 
ATOM     45  C   UNL A   1      39.105  25.891  28.088  1.00  0.00     0.031 C 
ATOM     46  C   UNL A   1      44.729  24.245  30.958  1.00  0.00     0.029 A 
ATOM     47  C   UNL A   1      44.184  25.576  31.136  1.00  0.00     0.049 A 
ATOM     48  H   UNL A   1      43.057  26.671  29.745  1.00  0.00     0.167 HD
ATOM     49  C   UNL A   1      39.656  28.340  27.668  1.00  0.00     0.034 A 
ATOM     50  C   UNL A   1      44.304  26.407  32.195  1.00  0.00     0.034 A 
ATOM     51  C   UNL A   1      40.772  29.101  27.168  1.00  0.00     0.049 A 
ATOM     52  C   UNL A   1      43.958  27.764  31.721  1.00  0.00     0.074 A 
ATOM     53  C   UNL A   1      41.479  29.161  25.986  1.00  0.00     0.029 A 
ATOM     54  N   UNL A   1      41.544  29.745  28.103  1.00  0.00    -0.354 N 
ATOM     55  N   UNL A   1      44.654  28.414  30.829  1.00  0.00    -0.248 NA
ATOM     56  C   UNL A   1      42.610  28.254  31.943  1.00  0.00     0.031 C 
ATOM     57  C   UNL A   1      42.827  29.410  26.379  1.00  0.00     0.029 A 
ATOM     58  C   UNL A   1      42.853  29.528  27.771  1.00  0.00     0.049 A 
ATOM     59  H   UNL A   1      41.216  30.267  28.870  1.00  0.00     0.167 HD
ATOM     60  C   UNL A   1      43.705  29.085  30.072  1.00  0.00     0.074 A 
ATOM     61  C   UNL A   1      42.493  29.067  30.889  1.00  0.00     0.031 C 
ATOM     62  C   UNL A   1      43.908  29.328  28.742  1.00  0.00     0.034 A 
BRANCH  49  63
ATOM     63  C   UNL A   1      38.541  29.025  28.433  1.00  0.00     0.023 A 
ATOM     64  C   UNL A   1      37.664  29.859  27.699  1.00  0.00     0.012 A 
ATOM     65  C   UNL A   1      38.475  29.121  29.841  1.00  0.00     0.148 A 
ATOM     66  C   UNL A   1      36.811  30.774  28.327  1.00  0.00     0.002 A 
ATOM     67  C   UNL A   1      37.566  29.971  30.463  1.00  0.00     0.091 A 
ATOM     68  F   UNL A   1      39.384  28.498  30.597  1.00  0.00    -0.205 F 
ATOM     69  C   UNL A   1      36.754  30.824  29.713  1.00  0.00     0.022 A 
BRANCH  67  70
ATOM     70  S   UNL A   1      37.412  30.021  32.253  1.00  0.00     0.127 S 
ATOM     71  O   UNL A   1      37.184  28.615  32.567  1.00  0.00    -0.237 OA
ATOM     72  O   UNL A   1      38.718  30.544  32.656  1.00  0.00    -0.237 OA
ATOM     73  O   UNL A   1      36.304  30.933  32.511  1.00  0.00    -0.744 OA
ENDBRANCH  67  70
ENDBRANCH  49  63
BRANCH  50  74
ATOM     74  C   UNL A   1      44.491  26.076  33.622  1.00  0.00     0.023 A 
ATOM     75  C   UNL A   1      45.788  25.999  34.160  1.00  0.00     0.012 A 
ATOM     76  C   UNL A   1      43.394  26.088  34.514  1.00  0.00     0.148 A 
ATOM     77  C   UNL A   1      45.990  25.964  35.545  1.00  0.00     0.002 A 
ATOM     78  C   UNL A   1      43.599  26.043  35.889  1.00  0.00     0.091 A 
ATOM     79  F   UNL A   1      42.159  26.232  34.015  1.00  0.00    -0.205 F 
ATOM     80  C   UNL A   1      44.898  25.994  36.409  1.00  0.00     0.022 A 
BRANCH  78  81
ATOM     81  S   UNL A   1      42.236  26.088  37.060  1.00  0.00     0.127 S 
ATOM     82  O   UNL A   1      41.467  27.239  36.584  1.00  0.00    -0.237 OA
ATOM     83  O   UNL A   1      41.604  24.791  36.831  1.00  0.00    -0.237 OA
ATOM     84  O   UNL A   1      42.849  26.276  38.369  1.00  0.00    -0.744 OA
ENDBRANCH  78  81
ENDBRANCH  50  74
BRANCH  62  85
ATOM     85  C   UNL A   1      45.286  29.072  28.174  1.00  0.00     0.023 A 
ATOM     86  C   UNL A   1      46.339  29.997  28.339  1.00  0.00     0.012 A 
ATOM     87  C   UNL A   1      45.579  27.804  27.649  1.00  0.00     0.148 A 
ATOM     88  C   UNL A   1      47.648  29.676  27.969  1.00  0.00     0.002 A 
ATOM     89  C   UNL A   1      46.889  27.469  27.324  1.00  0.00     0.091 A 
ATOM     90  F   UNL A   1      44.572  26.927  27.514  1.00  0.00    -0.205 F 
ATOM     91  C   UNL A   1      47.926  28.406  27.474  1.00  0.00     0.022 A 
BRANCH  89  92
ATOM     92  S   UNL A   1      47.345  25.813  26.806  1.00  0.00     0.127 S 
ATOM     93  O   UNL A   1      48.744  25.988  26.422  1.00  0.00    -0.237 OA
ATOM     94  O   UNL A   1      47.139  25.036  28.029  1.00  0.00    -0.237 OA
ATOM     95  O   UNL A   1      46.438  25.466  25.719  1.00  0.00    -0.744 OA
ENDBRANCH  89  92
ENDBRANCH  62  85
ENDBRANCH  36  37
ENDBRANCH  28  31
ENDBRANCH  26  27
ENDBRANCH  25  26
ENDBRANCH   1  25
TORSDOF 18
ENDMDL
MODEL 2
REMARK VINA RESULT:     -11.9      4.768     10.130
REMARK SMILES CN(CC(F)(F)F)C(=O)N1CC(n2cc(C(=O)NCCCCNC(=O)c3ccc(-c4c5nc(c(-c6cccc(S(=O)(=O)[O-])c6F)c6ccc([nH]6)c(-c6cccc(S(=O)(=O)[O-])c6F)c6nc(c(-c7cccc(S(=O)(=O)[O-])c7F)c7ccc4[nH]7)C=C6)C=C5)cc3)nn2)C1
REMARK SMILES IDX 20 1 19 2 18 3 16 4 17 5 15 7 13 8 14 9 90 10 89 11 12 12
REMARK SMILES IDX 8 13 9 14 10 15 11 16 91 17 2 18 1 19 3 20 4 21 5 22 6 23
REMARK SMILES IDX 7 24 21 25 22 26 23 27 24 28 25 30 26 31 27 32 88 33 28 34
REMARK SMILES IDX 87 35 29 36 30 37 31 38 81 39 32 40 86 41 80 42 82 43 33 44
REMARK SMILES IDX 85 45 79 46 78 47 34 49 66 50 46 51 65 52 47 53 50 54 64 55
REMARK SMILES IDX 83 56 48 57 49 58 63 60 84 61 51 62 35 63 36 64 44 65 37 66
REMARK SMILES IDX 39 67 45 68 38 69 40 70 41 71 42 72 43 73 67 74 68 75 76 76
REMARK SMILES IDX 69 77 71 78 77 79 70 80 72 81 73 82 74 83 75 84 52 85 53 86
REMARK SMILES IDX 61 87 54 88 56 89 62 90 55 91 57 92 58 93 59 94 60 95
REMARK H PARENT 18 6 23 29 82 48 50 59
REMARK Flexibility Score: inf
ROOT
ATOM      1  C   UNL A   1      31.486  30.688  25.419  1.00  0.00     0.023 C 
ENDROOT
BRANCH   1   2
ATOM      2  C   UNL A   1      32.709  29.780  25.598  1.00  0.00     0.116 C 
BRANCH   2   3
ATOM      3  N   UNL A   1      33.400  29.555  24.342  1.00  0.00    -0.351 N 
ATOM      4  C   UNL A   1      33.788  28.410  23.695  1.00  0.00     0.273 C 
ATOM      5  O   UNL A   1      34.373  28.558  22.608  1.00  0.00    -0.267 OA
ATOM      6  H   UNL A   1      33.637  30.382  23.864  1.00  0.00     0.163 HD
BRANCH   4   7
ATOM      7  C   UNL A   1      33.554  27.077  24.240  1.00  0.00     0.170 A 
ATOM      8  N   UNL A   1      33.062  25.001  24.658  1.00  0.00    -0.245 N 
ATOM      9  C   UNL A   1      32.911  25.974  23.708  1.00  0.00     0.145 A 
ATOM     10  N   UNL A   1      33.667  25.473  25.752  1.00  0.00    -0.066 NA
ATOM     11  N   UNL A   1      33.959  26.745  25.520  1.00  0.00    -0.125 NA
BRANCH   8  12
ATOM     12  C   UNL A   1      32.619  23.654  24.493  1.00  0.00     0.148 C 
ATOM     13  C   UNL A   1      32.919  20.475  25.038  1.00  0.00     0.320 C 
ATOM     14  O   UNL A   1      31.781  20.049  25.251  1.00  0.00    -0.248 OA
ATOM     15  N   UNL A   1      33.213  21.802  25.178  1.00  0.00    -0.320 N 
ATOM     16  C   UNL A   1      32.363  22.844  25.765  1.00  0.00     0.150 C 
ATOM     17  C   UNL A   1      33.802  22.719  24.206  1.00  0.00     0.150 C 
BRANCH  13  18
ATOM     18  N   UNL A   1      33.957  19.629  24.685  1.00  0.00    -0.319 N 
ATOM     19  C   UNL A   1      35.308  20.080  24.972  1.00  0.00     0.149 C 
BRANCH  18  20
ATOM     20  C   UNL A   1      33.816  18.370  23.922  1.00  0.00     0.236 C 
BRANCH  20  21
ATOM     21  C   UNL A   1      33.887  17.087  24.751  1.00  0.00     0.406 C 
ATOM     22  F   UNL A   1      33.285  17.216  25.952  1.00  0.00    -0.169 F 
ATOM     23  F   UNL A   1      33.281  16.069  24.101  1.00  0.00    -0.169 F 
ATOM     24  F   UNL A   1      35.169  16.717  24.976  1.00  0.00    -0.169 F 
ENDBRANCH  20  21
ENDBRANCH  18  20
ENDBRANCH  13  18
ENDBRANCH   8  12
ENDBRANCH   4   7
ENDBRANCH   2   3
ENDBRANCH   1   2
BRANCH   1  25
ATOM     25  C   UNL A   1      31.194  31.640  26.592  1.00  0.00     0.023 C 
BRANCH  25  26
ATOM     26  C   UNL A   1      32.417  32.336  27.185  1.00  0.00     0.116 C 
BRANCH  26  27
ATOM     27  N   UNL A   1      32.189  33.758  27.470  1.00  0.00    -0.352 N 
ATOM     28  C   UNL A   1      32.861  34.566  28.363  1.00  0.00     0.251 C 
ATOM     29  H   UNL A   1      31.465  34.189  26.958  1.00  0.00     0.163 HD
ATOM     30  O   UNL A   1      32.358  35.618  28.768  1.00  0.00    -0.269 OA
BRANCH  28  31
ATOM     31  C   UNL A   1      34.195  34.156  28.820  1.00  0.00     0.039 A 
ATOM     32  C   UNL A   1      34.422  33.682  30.117  1.00  0.00     0.014 A 
ATOM     33  C   UNL A   1      35.219  34.186  27.880  1.00  0.00     0.014 A 
ATOM     34  C   UNL A   1      35.670  33.142  30.430  1.00  0.00     0.010 A 
ATOM     35  C   UNL A   1      36.385  33.514  28.142  1.00  0.00     0.010 A 
ATOM     36  C   UNL A   1      36.644  33.040  29.429  1.00  0.00    -0.014 A 
BRANCH  36  37
ATOM     37  C   UNL A   1      37.922  32.374  29.668  1.00  0.00     0.031 A 
ATOM     38  C   UNL A   1      38.036  30.956  29.215  1.00  0.00     0.074 A 
ATOM     39  C   UNL A   1      39.024  33.086  29.995  1.00  0.00     0.049 A 
ATOM     40  N   UNL A   1      38.335  29.914  29.922  1.00  0.00    -0.248 NA
ATOM     41  C   UNL A   1      37.709  30.646  27.814  1.00  0.00     0.031 C 
ATOM     42  C   UNL A   1      39.138  34.546  30.143  1.00  0.00     0.029 A 
ATOM     43  N   UNL A   1      40.319  32.675  30.073  1.00  0.00    -0.354 N 
ATOM     44  C   UNL A   1      38.445  28.854  29.018  1.00  0.00     0.074 A 
ATOM     45  C   UNL A   1      37.885  29.324  27.779  1.00  0.00     0.031 C 
ATOM     46  C   UNL A   1      40.427  34.911  29.990  1.00  0.00     0.029 A 
ATOM     47  C   UNL A   1      41.238  33.711  29.944  1.00  0.00     0.049 A 
ATOM     48  H   UNL A   1      40.580  31.736  30.206  1.00  0.00     0.167 HD
ATOM     49  C   UNL A   1      39.195  27.748  29.288  1.00  0.00     0.034 A 
ATOM     50  C   UNL A   1      42.573  33.595  29.763  1.00  0.00     0.034 A 
ATOM     51  C   UNL A   1      39.555  27.675  30.680  1.00  0.00     0.049 A 
ATOM     52  C   UNL A   1      42.957  32.246  30.228  1.00  0.00     0.074 A 
ATOM     53  C   UNL A   1      38.874  27.598  31.876  1.00  0.00     0.029 A 
ATOM     54  N   UNL A   1      40.842  28.030  31.002  1.00  0.00    -0.354 N 
ATOM     55  N   UNL A   1      42.851  31.854  31.468  1.00  0.00    -0.248 NA
ATOM     56  C   UNL A   1      43.093  31.186  29.246  1.00  0.00     0.031 C 
ATOM     57  C   UNL A   1      39.652  28.368  32.791  1.00  0.00     0.029 A 
ATOM     58  C   UNL A   1      40.781  28.831  32.109  1.00  0.00     0.049 A 
ATOM     59  H   UNL A   1      41.658  27.758  30.523  1.00  0.00     0.167 HD
ATOM     60  C   UNL A   1      42.456  30.528  31.378  1.00  0.00     0.074 A 
ATOM     61  C   UNL A   1      42.764  30.137  30.004  1.00  0.00     0.031 C 
ATOM     62  C   UNL A   1      41.651  29.967  32.330  1.00  0.00     0.034 A 
BRANCH  49  63
ATOM     63  C   UNL A   1      39.916  26.894  28.263  1.00  0.00     0.023 A 
ATOM     64  C   UNL A   1      39.703  25.495  28.315  1.00  0.00     0.012 A 
ATOM     65  C   UNL A   1      40.983  27.343  27.453  1.00  0.00     0.148 A 
ATOM     66  C   UNL A   1      40.538  24.593  27.643  1.00  0.00     0.002 A 
ATOM     67  C   UNL A   1      41.756  26.448  26.720  1.00  0.00     0.091 A 
ATOM     68  F   UNL A   1      41.354  28.626  27.486  1.00  0.00    -0.205 F 
ATOM     69  C   UNL A   1      41.561  25.071  26.836  1.00  0.00     0.022 A 
BRANCH  67  70
ATOM     70  S   UNL A   1      43.049  27.024  25.612  1.00  0.00     0.127 S 
ATOM     71  O   UNL A   1      43.463  25.779  24.975  1.00  0.00    -0.237 OA
ATOM     72  O   UNL A   1      42.319  27.952  24.748  1.00  0.00    -0.237 OA
ATOM     73  O   UNL A   1      44.029  27.667  26.478  1.00  0.00    -0.744 OA
ENDBRANCH  67  70
ENDBRANCH  49  63
BRANCH  50  74
ATOM     74  C   UNL A   1      43.494  34.486  29.028  1.00  0.00     0.023 A 
ATOM     75  C   UNL A   1      43.680  34.314  27.644  1.00  0.00     0.012 A 
ATOM     76  C   UNL A   1      43.994  35.663  29.632  1.00  0.00     0.148 A 
ATOM     77  C   UNL A   1      44.318  35.298  26.878  1.00  0.00     0.002 A 
ATOM     78  C   UNL A   1      44.636  36.632  28.868  1.00  0.00     0.091 A 
ATOM     79  F   UNL A   1      43.760  35.868  30.935  1.00  0.00    -0.205 F 
ATOM     80  C   UNL A   1      44.788  36.458  27.488  1.00  0.00     0.022 A 
BRANCH  78  81
ATOM     81  S   UNL A   1      45.258  38.157  29.588  1.00  0.00     0.127 S 
ATOM     82  O   UNL A   1      45.930  38.778  28.445  1.00  0.00    -0.237 OA
ATOM     83  O   UNL A   1      44.024  38.815  30.006  1.00  0.00    -0.237 OA
ATOM     84  O   UNL A   1      46.157  37.746  30.660  1.00  0.00    -0.744 OA
ENDBRANCH  78  81
ENDBRANCH  50  74
BRANCH  62  85
ATOM     85  C   UNL A   1      41.404  30.746  33.603  1.00  0.00     0.023 A 
ATOM     86  C   UNL A   1      42.333  30.742  34.666  1.00  0.00     0.012 A 
ATOM     87  C   UNL A   1      40.331  31.649  33.650  1.00  0.00     0.148 A 
ATOM     88  C   UNL A   1      42.185  31.600  35.759  1.00  0.00     0.002 A 
ATOM     89  C   UNL A   1      40.210  32.534  34.715  1.00  0.00     0.091 A 
ATOM     90  F   UNL A   1      39.465  31.655  32.624  1.00  0.00    -0.205 F 
ATOM     91  C   UNL A   1      41.130  32.507  35.777  1.00  0.00     0.022 A 
BRANCH  89  92
ATOM     92  S   UNL A   1      38.956  33.818  34.745  1.00  0.00     0.127 S 
ATOM     93  O   UNL A   1      39.190  34.442  36.046  1.00  0.00    -0.237 OA
ATOM     94  O   UNL A   1      39.328  34.644  33.595  1.00  0.00    -0.237 OA
ATOM     95  O   UNL A   1      37.676  33.135  34.600  1.00  0.00    -0.744 OA
ENDBRANCH  89  92
ENDBRANCH  62  85
ENDBRANCH  36  37
ENDBRANCH  28  31
ENDBRANCH  26  27
ENDBRANCH  25  26
ENDBRANCH   1  25
TORSDOF 18
ENDMDL
MODEL 3
REMARK VINA RESULT:     -11.8      4.157      9.879
REMARK SMILES CN(CC(F)(F)F)C(=O)N1CC(n2cc(C(=O)NCCCCNC(=O)c3ccc(-c4c5nc(c(-c6cccc(S(=O)(=O)[O-])c6F)c6ccc([nH]6)c(-c6cccc(S(=O)(=O)[O-])c6F)c6nc(c(-c7cccc(S(=O)(=O)[O-])c7F)c7ccc4[nH]7)C=C6)C=C5)cc3)nn2)C1
REMARK SMILES IDX 20 1 19 2 18 3 16 4 17 5 15 7 13 8 14 9 90 10 89 11 12 12
REMARK SMILES IDX 8 13 9 14 10 15 11 16 91 17 2 18 1 19 3 20 4 21 5 22 6 23
REMARK SMILES IDX 7 24 21 25 22 26 23 27 24 28 25 30 26 31 27 32 88 33 28 34
REMARK SMILES IDX 87 35 29 36 30 37 31 38 81 39 32 40 86 41 80 42 82 43 33 44
REMARK SMILES IDX 85 45 79 46 78 47 34 49 66 50 46 51 65 52 47 53 50 54 64 55
REMARK SMILES IDX 83 56 48 57 49 58 63 60 84 61 51 62 35 63 36 64 44 65 37 66
REMARK SMILES IDX 39 67 45 68 38 69 40 70 41 71 42 72 43 73 67 74 68 75 76 76
REMARK SMILES IDX 69 77 71 78 77 79 70 80 72 81 73 82 74 83 75 84 52 85 53 86
REMARK SMILES IDX 61 87 54 88 56 89 62 90 55 91 57 92 58 93 59 94 60 95
REMARK H PARENT 18 6 23 29 82 48 50 59
REMARK Flexibility Score: inf
ROOT
ATOM      1  C   UNL A   1      31.271  30.730  25.914  1.00  0.00     0.023 C 
ENDROOT
BRANCH   1   2
ATOM      2  C   UNL A   1      32.599  29.971  26.032  1.00  0.00     0.116 C 
BRANCH   2   3
ATOM      3  N   UNL A   1      33.291  29.897  24.760  1.00  0.00    -0.351 N 
ATOM      4  C   UNL A   1      33.199  29.019  23.710  1.00  0.00     0.273 C 
ATOM      5  O   UNL A   1      33.945  29.236  22.738  1.00  0.00    -0.267 OA
ATOM      6  H   UNL A   1      33.953  30.612  24.623  1.00  0.00     0.163 HD
BRANCH   4   7
ATOM      7  C   UNL A   1      32.296  27.874  23.714  1.00  0.00     0.170 A 
ATOM      8  N   UNL A   1      31.285  25.956  23.886  1.00  0.00    -0.245 N 
ATOM      9  C   UNL A   1      32.521  26.534  23.979  1.00  0.00     0.145 A 
ATOM     10  N   UNL A   1      30.360  26.836  23.495  1.00  0.00    -0.066 NA
ATOM     11  N   UNL A   1      30.963  28.010  23.369  1.00  0.00    -0.125 NA
BRANCH   8  12
ATOM     12  C   UNL A   1      31.029  24.580  24.167  1.00  0.00     0.148 C 
ATOM     13  C   UNL A   1      32.015  21.634  25.085  1.00  0.00     0.320 C 
ATOM     14  O   UNL A   1      31.142  21.193  25.835  1.00  0.00    -0.248 OA
ATOM     15  N   UNL A   1      32.130  22.975  24.848  1.00  0.00    -0.320 N 
ATOM     16  C   UNL A   1      31.438  24.064  25.547  1.00  0.00     0.150 C 
ATOM     17  C   UNL A   1      32.126  23.685  23.572  1.00  0.00     0.150 C 
BRANCH  13  18
ATOM     18  N   UNL A   1      32.940  20.802  24.477  1.00  0.00    -0.319 N 
ATOM     19  C   UNL A   1      32.550  19.418  24.262  1.00  0.00     0.149 C 
BRANCH  18  20
ATOM     20  C   UNL A   1      34.336  21.165  24.151  1.00  0.00     0.236 C 
BRANCH  20  21
ATOM     21  C   UNL A   1      35.336  21.037  25.301  1.00  0.00     0.406 C 
ATOM     22  F   UNL A   1      36.195  20.011  25.124  1.00  0.00    -0.169 F 
ATOM     23  F   UNL A   1      36.072  22.165  25.418  1.00  0.00    -0.169 F 
ATOM     24  F   UNL A   1      34.706  20.841  26.482  1.00  0.00    -0.169 F 
ENDBRANCH  20  21
ENDBRANCH  18  20
ENDBRANCH  13  18
ENDBRANCH   8  12
ENDBRANCH   4   7
ENDBRANCH   2   3
ENDBRANCH   1   2
BRANCH   1  25
ATOM     25  C   UNL A   1      31.149  31.987  26.794  1.00  0.00     0.023 C 
BRANCH  25  26
ATOM     26  C   UNL A   1      32.466  32.695  27.103  1.00  0.00     0.116 C 
BRANCH  26  27
ATOM     27  N   UNL A   1      32.287  34.099  27.491  1.00  0.00    -0.352 N 
ATOM     28  C   UNL A   1      32.943  34.800  28.482  1.00  0.00     0.251 C 
ATOM     29  H   UNL A   1      31.614  34.606  26.979  1.00  0.00     0.163 HD
ATOM     30  O   UNL A   1      32.466  35.839  28.945  1.00  0.00    -0.269 OA
BRANCH  28  31
ATOM     31  C   UNL A   1      34.229  34.288  28.974  1.00  0.00     0.039 A 
ATOM     32  C   UNL A   1      34.336  33.581  30.176  1.00  0.00     0.014 A 
ATOM     33  C   UNL A   1      35.335  34.471  28.151  1.00  0.00     0.014 A 
ATOM     34  C   UNL A   1      35.548  32.969  30.496  1.00  0.00     0.010 A 
ATOM     35  C   UNL A   1      36.471  33.741  28.388  1.00  0.00     0.010 A 
ATOM     36  C   UNL A   1      36.610  33.035  29.584  1.00  0.00    -0.014 A 
BRANCH  36  37
ATOM     37  C   UNL A   1      37.860  32.313  29.810  1.00  0.00     0.031 A 
ATOM     38  C   UNL A   1      37.941  30.924  29.269  1.00  0.00     0.074 A 
ATOM     39  C   UNL A   1      38.975  32.965  30.209  1.00  0.00     0.049 A 
ATOM     40  N   UNL A   1      38.189  29.829  29.914  1.00  0.00    -0.248 NA
ATOM     41  C   UNL A   1      37.642  30.716  27.843  1.00  0.00     0.031 C 
ATOM     42  C   UNL A   1      39.130  34.408  30.455  1.00  0.00     0.029 A 
ATOM     43  N   UNL A   1      40.254  32.508  30.292  1.00  0.00    -0.354 N 
ATOM     44  C   UNL A   1      38.290  28.827  28.945  1.00  0.00     0.074 A 
ATOM     45  C   UNL A   1      37.778  29.394  27.726  1.00  0.00     0.031 C 
ATOM     46  C   UNL A   1      40.434  34.740  30.358  1.00  0.00     0.029 A 
ATOM     47  C   UNL A   1      41.208  33.519  30.253  1.00  0.00     0.049 A 
ATOM     48  H   UNL A   1      40.481  31.554  30.370  1.00  0.00     0.167 HD
ATOM     49  C   UNL A   1      38.997  27.681  29.161  1.00  0.00     0.034 A 
ATOM     50  C   UNL A   1      42.542  33.371  30.098  1.00  0.00     0.034 A 
ATOM     51  C   UNL A   1      39.318  27.507  30.554  1.00  0.00     0.049 A 
ATOM     52  C   UNL A   1      42.872  31.983  30.483  1.00  0.00     0.074 A 
ATOM     53  C   UNL A   1      38.603  27.376  31.725  1.00  0.00     0.029 A 
ATOM     54  N   UNL A   1      40.606  27.798  30.929  1.00  0.00    -0.354 N 
ATOM     55  N   UNL A   1      42.721  31.516  31.692  1.00  0.00    -0.248 NA
ATOM     56  C   UNL A   1      43.000  30.984  29.437  1.00  0.00     0.031 C 
ATOM     57  C   UNL A   1      39.381  28.059  32.707  1.00  0.00     0.029 A 
ATOM     58  C   UNL A   1      40.541  28.528  32.084  1.00  0.00     0.049 A 
ATOM     59  H   UNL A   1      41.426  27.531  30.454  1.00  0.00     0.167 HD
ATOM     60  C   UNL A   1      42.287  30.212  31.507  1.00  0.00     0.074 A 
ATOM     61  C   UNL A   1      42.619  29.900  30.118  1.00  0.00     0.031 C 
ATOM     62  C   UNL A   1      41.440  29.618  32.400  1.00  0.00     0.034 A 
BRANCH  49  63
ATOM     63  C   UNL A   1      39.718  26.872  28.101  1.00  0.00     0.023 A 
ATOM     64  C   UNL A   1      39.440  25.485  28.039  1.00  0.00     0.012 A 
ATOM     65  C   UNL A   1      40.834  27.328  27.364  1.00  0.00     0.148 A 
ATOM     66  C   UNL A   1      40.258  24.596  27.331  1.00  0.00     0.002 A 
ATOM     67  C   UNL A   1      41.594  26.453  26.593  1.00  0.00     0.091 A 
ATOM     68  F   UNL A   1      41.261  28.586  27.507  1.00  0.00    -0.205 F 
ATOM     69  C   UNL A   1      41.332  25.082  26.599  1.00  0.00     0.022 A 
BRANCH  67  70
ATOM     70  S   UNL A   1      42.953  27.046  25.578  1.00  0.00     0.127 S 
ATOM     71  O   UNL A   1      42.274  28.001  24.709  1.00  0.00    -0.237 OA
ATOM     72  O   UNL A   1      43.843  27.639  26.577  1.00  0.00    -0.237 OA
ATOM     73  O   UNL A   1      43.493  25.854  24.937  1.00  0.00    -0.744 OA
ENDBRANCH  67  70
ENDBRANCH  49  63
BRANCH  50  74
ATOM     74  C   UNL A   1      43.510  34.277  29.445  1.00  0.00     0.023 A 
ATOM     75  C   UNL A   1      44.222  35.215  30.214  1.00  0.00     0.012 A 
ATOM     76  C   UNL A   1      43.924  34.049  28.112  1.00  0.00     0.148 A 
ATOM     77  C   UNL A   1      45.330  35.886  29.683  1.00  0.00     0.002 A 
ATOM     78  C   UNL A   1      45.019  34.725  27.586  1.00  0.00     0.091 A 
ATOM     79  F   UNL A   1      43.296  33.107  27.395  1.00  0.00    -0.205 F 
ATOM     80  C   UNL A   1      45.733  35.636  28.374  1.00  0.00     0.022 A 
BRANCH  78  81
ATOM     81  S   UNL A   1      45.599  34.444  25.908  1.00  0.00     0.127 S 
ATOM     82  O   UNL A   1      46.598  35.503  25.752  1.00  0.00    -0.237 OA
ATOM     83  O   UNL A   1      46.147  33.094  26.004  1.00  0.00    -0.237 OA
ATOM     84  O   UNL A   1      44.426  34.597  25.057  1.00  0.00    -0.744 OA
ENDBRANCH  78  81
ENDBRANCH  50  74
BRANCH  62  85
ATOM     85  C   UNL A   1      41.185  30.321  33.715  1.00  0.00     0.023 A 
ATOM     86  C   UNL A   1      42.142  30.325  34.751  1.00  0.00     0.012 A 
ATOM     87  C   UNL A   1      40.061  31.154  33.832  1.00  0.00     0.148 A 
ATOM     88  C   UNL A   1      41.975  31.122  35.887  1.00  0.00     0.002 A 
ATOM     89  C   UNL A   1      39.918  31.980  34.942  1.00  0.00     0.091 A 
ATOM     90  F   UNL A   1      39.166  31.154  32.831  1.00  0.00    -0.205 F 
ATOM     91  C   UNL A   1      40.868  31.960  35.976  1.00  0.00     0.022 A 
BRANCH  89  92
ATOM     92  S   UNL A   1      38.591  33.181  35.065  1.00  0.00     0.127 S 
ATOM     93  O   UNL A   1      39.112  34.108  36.068  1.00  0.00    -0.237 OA
ATOM     94  O   UNL A   1      38.531  33.721  33.707  1.00  0.00    -0.237 OA
ATOM     95  O   UNL A   1      37.405  32.433  35.463  1.00  0.00    -0.744 OA
ENDBRANCH  89  92
ENDBRANCH  62  85
ENDBRANCH  36  37
ENDBRANCH  28  31
ENDBRANCH  26  27
ENDBRANCH  25  26
ENDBRANCH   1  25
TORSDOF 18
ENDMDL
