MODEL 1
REMARK VINA RESULT:     -12.1      0.000      0.000
REMARK SMILES CSCC[C@H](NC(=O)Cc1c(C)c2cc(Cl)c(O)cc2oc1=O)C(=O)NCCCCNC(=O)c1ccc(-c2c3nc(c(-c4cccc(S(=O)(=O)[O-])c4F)c4ccc([nH]4)c(-c4cccc(S(=O)(=O)[O-])c4F)c4nc(c(-c5cccc(S(=O)(=O)[O-])c5F)c5ccc2[nH]5)C=C4)C=C3)cc1
REMARK SMILES IDX 28 1 27 2 26 3 24 4 25 5 5 7 4 8 3 9 2 10 1 11 6 12 7 13
REMARK SMILES IDX 8 15 9 16 10 17 11 18 22 19 12 20 13 21 21 22 23 23 14 24
REMARK SMILES IDX 20 25 15 26 19 27 16 28 17 29 18 30 29 32 30 33 31 34 32 35
REMARK SMILES IDX 33 37 34 38 35 39 96 40 36 41 95 42 37 43 38 44 39 45 89 46
REMARK SMILES IDX 40 47 94 48 88 49 90 50 41 51 93 52 87 53 86 54 42 56 74 57
REMARK SMILES IDX 54 58 73 59 55 60 58 61 72 62 91 63 56 64 57 65 71 67 92 68
REMARK SMILES IDX 59 69 43 70 44 71 52 72 45 73 47 74 53 75 46 76 48 77 49 78
REMARK SMILES IDX 50 79 51 80 75 81 76 82 84 83 77 84 79 85 85 86 78 87 80 88
REMARK SMILES IDX 81 89 82 90 83 91 60 92 61 93 69 94 62 95 64 96 70 97 63 98
REMARK SMILES IDX 65 99 66 100 67 101 68 102
REMARK H PARENT 26 6 6 14 18 31 31 36 90 55 58 66
REMARK Flexibility Score: inf
ROOT
ATOM      1  C   UNL A   1      31.486  30.325  26.164  1.00  0.00     0.023 C 
ENDROOT
BRANCH   1   2
ATOM      2  C   UNL A   1      32.871  29.673  26.148  1.00  0.00     0.116 C 
BRANCH   2   3
ATOM      3  N   UNL A   1      33.385  29.307  24.843  1.00  0.00    -0.354 N 
ATOM      4  C   UNL A   1      32.963  28.381  23.941  1.00  0.00     0.242 C 
ATOM      5  O   UNL A   1      33.370  28.464  22.777  1.00  0.00    -0.273 OA
ATOM      6  H   UNL A   1      34.178  29.819  24.560  1.00  0.00     0.163 HD
BRANCH   4   7
ATOM      7  C   UNL A   1      31.911  27.321  24.283  1.00  0.00     0.172 C 
BRANCH   7   8
ATOM      8  C   UNL A   1      30.523  27.896  23.930  1.00  0.00     0.046 C 
BRANCH   8   9
ATOM      9  C   UNL A   1      30.308  28.153  22.438  1.00  0.00     0.072 C 
BRANCH   9  10
ATOM     10  S   UNL A   1      29.783  29.861  22.080  1.00  0.00    -0.165 SA
ATOM     11  C   UNL A   1      28.001  29.705  22.346  1.00  0.00     0.085 C 
ENDBRANCH   9  10
ENDBRANCH   8   9
ENDBRANCH   7   8
BRANCH   7  12
ATOM     12  N   UNL A   1      31.932  26.782  25.644  1.00  0.00    -0.344 N 
ATOM     13  C   UNL A   1      32.124  25.479  26.014  1.00  0.00     0.225 C 
ATOM     14  H   UNL A   1      31.792  27.429  26.373  1.00  0.00     0.164 HD
ATOM     15  O   UNL A   1      31.470  25.063  26.974  1.00  0.00    -0.275 OA
BRANCH  13  16
ATOM     16  C   UNL A   1      33.232  24.635  25.377  1.00  0.00     0.143 C 
BRANCH  16  17
ATOM     17  C   UNL A   1      32.948  23.271  24.803  1.00  0.00     0.051 A 
ATOM     18  C   UNL A   1      33.039  22.106  25.480  1.00  0.00    -0.029 A 
ATOM     19  C   UNL A   1      32.718  23.281  23.321  1.00  0.00     0.340 A 
ATOM     20  C   UNL A   1      33.489  22.029  26.915  1.00  0.00     0.046 C 
ATOM     21  C   UNL A   1      32.776  20.839  24.767  1.00  0.00     0.023 A 
ATOM     22  O   UNL A   1      32.359  22.091  22.720  1.00  0.00    -0.422 OA
ATOM     23  O   UNL A   1      32.866  24.295  22.644  1.00  0.00    -0.246 OA
ATOM     24  C   UNL A   1      32.852  19.575  25.368  1.00  0.00     0.036 A 
ATOM     25  C   UNL A   1      32.450  20.878  23.413  1.00  0.00     0.142 A 
ATOM     26  C   UNL A   1      32.642  18.407  24.621  1.00  0.00     0.083 A 
ATOM     27  C   UNL A   1      32.229  19.729  22.651  1.00  0.00     0.095 A 
ATOM     28  Cl  UNL A   1      32.789  16.885  25.422  1.00  0.00    -0.080 Cl
ATOM     29  C   UNL A   1      32.341  18.487  23.261  1.00  0.00     0.137 A 
BRANCH  29  30
ATOM     30  O   UNL A   1      32.160  17.348  22.527  1.00  0.00    -0.506 OA
ATOM     31  H   UNL A   1      32.877  16.981  22.048  1.00  0.00     0.293 HD
ENDBRANCH  29  30
ENDBRANCH  16  17
ENDBRANCH  13  16
ENDBRANCH   7  12
ENDBRANCH   4   7
ENDBRANCH   2   3
ENDBRANCH   1   2
BRANCH   1  32
ATOM     32  C   UNL A   1      31.398  31.770  26.659  1.00  0.00     0.023 C 
BRANCH  32  33
ATOM     33  C   UNL A   1      32.722  32.457  26.924  1.00  0.00     0.116 C 
BRANCH  33  34
ATOM     34  N   UNL A   1      32.541  33.825  27.371  1.00  0.00    -0.352 N 
ATOM     35  C   UNL A   1      33.160  34.455  28.423  1.00  0.00     0.251 C 
ATOM     36  H   UNL A   1      31.897  34.367  26.860  1.00  0.00     0.163 HD
ATOM     37  O   UNL A   1      32.735  35.541  28.818  1.00  0.00    -0.269 OA
BRANCH  35  38
ATOM     38  C   UNL A   1      34.317  33.811  29.084  1.00  0.00     0.039 A 
ATOM     39  C   UNL A   1      35.591  34.380  28.995  1.00  0.00     0.014 A 
ATOM     40  C   UNL A   1      34.130  32.622  29.794  1.00  0.00     0.014 A 
ATOM     41  C   UNL A   1      36.690  33.693  29.494  1.00  0.00     0.010 A 
ATOM     42  C   UNL A   1      35.227  31.982  30.380  1.00  0.00     0.010 A 
ATOM     43  C   UNL A   1      36.523  32.497  30.209  1.00  0.00    -0.014 A 
BRANCH  43  44
ATOM     44  C   UNL A   1      37.714  31.846  30.813  1.00  0.00     0.031 A 
ATOM     45  C   UNL A   1      38.113  32.115  32.237  1.00  0.00     0.074 A 
ATOM     46  C   UNL A   1      38.417  30.971  30.065  1.00  0.00     0.049 A 
ATOM     47  N   UNL A   1      39.093  31.587  32.926  1.00  0.00    -0.248 NA
ATOM     48  C   UNL A   1      37.323  33.106  32.987  1.00  0.00     0.031 C 
ATOM     49  C   UNL A   1      38.138  30.660  28.660  1.00  0.00     0.029 A 
ATOM     50  N   UNL A   1      39.486  30.170  30.374  1.00  0.00    -0.354 N 
ATOM     51  C   UNL A   1      39.062  32.205  34.170  1.00  0.00     0.074 A 
ATOM     52  C   UNL A   1      37.975  33.159  34.141  1.00  0.00     0.031 C 
ATOM     53  C   UNL A   1      38.971  29.694  28.249  1.00  0.00     0.029 A 
ATOM     54  C   UNL A   1      39.885  29.361  29.335  1.00  0.00     0.049 A 
ATOM     55  H   UNL A   1      39.926  30.173  31.255  1.00  0.00     0.167 HD
ATOM     56  C   UNL A   1      39.853  31.978  35.246  1.00  0.00     0.034 A 
ATOM     57  C   UNL A   1      40.877  28.453  29.259  1.00  0.00     0.034 A 
ATOM     58  C   UNL A   1      40.897  30.987  35.281  1.00  0.00     0.049 A 
ATOM     59  C   UNL A   1      41.732  28.215  30.472  1.00  0.00     0.074 A 
ATOM     60  C   UNL A   1      41.710  30.638  36.345  1.00  0.00     0.029 A 
ATOM     61  N   UNL A   1      41.270  30.189  34.211  1.00  0.00    -0.354 N 
ATOM     62  N   UNL A   1      41.614  28.729  31.672  1.00  0.00    -0.248 NA
ATOM     63  C   UNL A   1      42.847  27.270  30.327  1.00  0.00     0.031 C 
ATOM     64  C   UNL A   1      42.588  29.642  35.911  1.00  0.00     0.029 A 
ATOM     65  C   UNL A   1      42.314  29.359  34.583  1.00  0.00     0.049 A 
ATOM     66  H   UNL A   1      40.855  30.210  33.318  1.00  0.00     0.167 HD
ATOM     67  C   UNL A   1      42.637  28.170  32.427  1.00  0.00     0.074 A 
ATOM     68  C   UNL A   1      43.340  27.248  31.559  1.00  0.00     0.031 C 
ATOM     69  C   UNL A   1      42.979  28.420  33.715  1.00  0.00     0.034 A 
BRANCH  56  70
ATOM     70  C   UNL A   1      39.593  32.772  36.500  1.00  0.00     0.023 A 
ATOM     71  C   UNL A   1      40.200  34.035  36.657  1.00  0.00     0.012 A 
ATOM     72  C   UNL A   1      38.682  32.317  37.475  1.00  0.00     0.148 A 
ATOM     73  C   UNL A   1      39.925  34.822  37.773  1.00  0.00     0.002 A 
ATOM     74  C   UNL A   1      38.383  33.125  38.566  1.00  0.00     0.091 A 
ATOM     75  F   UNL A   1      38.128  31.108  37.317  1.00  0.00    -0.205 F 
ATOM     76  C   UNL A   1      39.009  34.373  38.721  1.00  0.00     0.022 A 
BRANCH  74  77
ATOM     77  S   UNL A   1      37.160  32.675  39.804  1.00  0.00     0.127 S 
ATOM     78  O   UNL A   1      37.209  33.830  40.699  1.00  0.00    -0.237 OA
ATOM     79  O   UNL A   1      35.937  32.574  39.006  1.00  0.00    -0.237 OA
ATOM     80  O   UNL A   1      37.616  31.419  40.381  1.00  0.00    -0.744 OA
ENDBRANCH  74  77
ENDBRANCH  56  70
BRANCH  57  81
ATOM     81  C   UNL A   1      41.066  27.672  28.003  1.00  0.00     0.023 A 
ATOM     82  C   UNL A   1      41.643  28.299  26.882  1.00  0.00     0.012 A 
ATOM     83  C   UNL A   1      40.760  26.298  27.938  1.00  0.00     0.148 A 
ATOM     84  C   UNL A   1      41.907  27.574  25.719  1.00  0.00     0.002 A 
ATOM     85  C   UNL A   1      41.083  25.568  26.800  1.00  0.00     0.091 A 
ATOM     86  F   UNL A   1      40.189  25.723  29.006  1.00  0.00    -0.205 F 
ATOM     87  C   UNL A   1      41.643  26.207  25.683  1.00  0.00     0.022 A 
BRANCH  85  88
ATOM     88  S   UNL A   1      40.927  23.780  26.730  1.00  0.00     0.127 S 
ATOM     89  O   UNL A   1      39.498  23.613  26.480  1.00  0.00    -0.237 OA
ATOM     90  O   UNL A   1      41.794  23.444  25.600  1.00  0.00    -0.237 OA
ATOM     91  O   UNL A   1      41.408  23.294  28.017  1.00  0.00    -0.744 OA
ENDBRANCH  85  88
ENDBRANCH  57  81
BRANCH  69  92
ATOM     92  C   UNL A   1      44.183  27.707  34.271  1.00  0.00     0.023 A 
ATOM     93  C   UNL A   1      45.444  28.326  34.186  1.00  0.00     0.012 A 
ATOM     94  C   UNL A   1      44.047  26.501  34.985  1.00  0.00     0.148 A 
ATOM     95  C   UNL A   1      46.558  27.749  34.792  1.00  0.00     0.002 A 
ATOM     96  C   UNL A   1      45.153  25.956  35.627  1.00  0.00     0.091 A 
ATOM     97  F   UNL A   1      42.838  25.924  35.041  1.00  0.00    -0.205 F 
ATOM     98  C   UNL A   1      46.410  26.574  35.525  1.00  0.00     0.022 A 
BRANCH  96  99
ATOM     99  S   UNL A   1      45.044  24.500  36.675  1.00  0.00     0.127 S 
ATOM    100  O   UNL A   1      46.435  24.325  37.087  1.00  0.00    -0.237 OA
ATOM    101  O   UNL A   1      44.145  24.953  37.739  1.00  0.00    -0.237 OA
ATOM    102  O   UNL A   1      44.505  23.438  35.837  1.00  0.00    -0.744 OA
ENDBRANCH  96  99
ENDBRANCH  69  92
ENDBRANCH  43  44
ENDBRANCH  35  38
ENDBRANCH  33  34
ENDBRANCH  32  33
ENDBRANCH   1  32
TORSDOF 21
ENDMDL
MODEL 2
REMARK VINA RESULT:     -11.8      1.958      2.263
REMARK SMILES CSCC[C@H](NC(=O)Cc1c(C)c2cc(Cl)c(O)cc2oc1=O)C(=O)NCCCCNC(=O)c1ccc(-c2c3nc(c(-c4cccc(S(=O)(=O)[O-])c4F)c4ccc([nH]4)c(-c4cccc(S(=O)(=O)[O-])c4F)c4nc(c(-c5cccc(S(=O)(=O)[O-])c5F)c5ccc2[nH]5)C=C4)C=C3)cc1
REMARK SMILES IDX 28 1 27 2 26 3 24 4 25 5 5 7 4 8 3 9 2 10 1 11 6 12 7 13
REMARK SMILES IDX 8 15 9 16 10 17 11 18 22 19 12 20 13 21 21 22 23 23 14 24
REMARK SMILES IDX 20 25 15 26 19 27 16 28 17 29 18 30 29 32 30 33 31 34 32 35
REMARK SMILES IDX 33 37 34 38 35 39 96 40 36 41 95 42 37 43 38 44 39 45 89 46
REMARK SMILES IDX 40 47 94 48 88 49 90 50 41 51 93 52 87 53 86 54 42 56 74 57
REMARK SMILES IDX 54 58 73 59 55 60 58 61 72 62 91 63 56 64 57 65 71 67 92 68
REMARK SMILES IDX 59 69 43 70 44 71 52 72 45 73 47 74 53 75 46 76 48 77 49 78
REMARK SMILES IDX 50 79 51 80 75 81 76 82 84 83 77 84 79 85 85 86 78 87 80 88
REMARK SMILES IDX 81 89 82 90 83 91 60 92 61 93 69 94 62 95 64 96 70 97 63 98
REMARK SMILES IDX 65 99 66 100 67 101 68 102
REMARK H PARENT 26 6 6 14 18 31 31 36 90 55 58 66
REMARK Flexibility Score: inf
ROOT
ATOM      1  C   UNL A   1      31.490  31.071  26.088  1.00  0.00     0.023 C 
ENDROOT
BRANCH   1   2
ATOM      2  C   UNL A   1      32.626  30.129  26.495  1.00  0.00     0.116 C 
BRANCH   2   3
ATOM      3  N   UNL A   1      33.467  29.648  25.416  1.00  0.00    -0.354 N 
ATOM      4  C   UNL A   1      33.255  28.692  24.473  1.00  0.00     0.242 C 
ATOM      5  O   UNL A   1      33.988  28.673  23.478  1.00  0.00    -0.273 OA
ATOM      6  H   UNL A   1      34.345  30.090  25.357  1.00  0.00     0.163 HD
BRANCH   4   7
ATOM      7  C   UNL A   1      32.070  27.723  24.537  1.00  0.00     0.172 C 
BRANCH   7   8
ATOM      8  C   UNL A   1      30.804  28.489  24.096  1.00  0.00     0.046 C 
BRANCH   8   9
ATOM      9  C   UNL A   1      30.423  28.286  22.630  1.00  0.00     0.072 C 
BRANCH   9  10
ATOM     10  S   UNL A   1      29.687  29.773  21.875  1.00  0.00    -0.165 SA
ATOM     11  C   UNL A   1      28.142  29.869  22.810  1.00  0.00     0.085 C 
ENDBRANCH   9  10
ENDBRANCH   8   9
ENDBRANCH   7   8
BRANCH   7  12
ATOM     12  N   UNL A   1      31.854  27.024  25.804  1.00  0.00    -0.344 N 
ATOM     13  C   UNL A   1      31.911  25.674  26.025  1.00  0.00     0.225 C 
ATOM     14  H   UNL A   1      31.643  27.587  26.584  1.00  0.00     0.164 HD
ATOM     15  O   UNL A   1      31.096  25.198  26.819  1.00  0.00    -0.275 OA
BRANCH  13  16
ATOM     16  C   UNL A   1      33.050  24.831  25.447  1.00  0.00     0.143 C 
BRANCH  16  17
ATOM     17  C   UNL A   1      32.786  23.503  24.785  1.00  0.00     0.051 A 
ATOM     18  C   UNL A   1      32.824  22.303  25.402  1.00  0.00    -0.029 A 
ATOM     19  C   UNL A   1      32.645  23.595  23.294  1.00  0.00     0.340 A 
ATOM     20  C   UNL A   1      33.187  22.143  26.855  1.00  0.00     0.046 C 
ATOM     21  C   UNL A   1      32.590  21.079  24.607  1.00  0.00     0.023 A 
ATOM     22  O   UNL A   1      32.309  22.444  22.610  1.00  0.00    -0.422 OA
ATOM     23  O   UNL A   1      32.843  24.641  22.683  1.00  0.00    -0.246 OA
ATOM     24  C   UNL A   1      32.616  19.784  25.143  1.00  0.00     0.036 A 
ATOM     25  C   UNL A   1      32.345  21.195  23.241  1.00  0.00     0.142 A 
ATOM     26  C   UNL A   1      32.439  18.661  24.323  1.00  0.00     0.083 A 
ATOM     27  C   UNL A   1      32.157  20.091  22.406  1.00  0.00     0.095 A 
ATOM     28  Cl  UNL A   1      32.521  17.096  25.048  1.00  0.00    -0.080 Cl
ATOM     29  C   UNL A   1      32.220  18.816  22.954  1.00  0.00     0.137 A 
BRANCH  29  30
ATOM     30  O   UNL A   1      32.071  17.721  22.150  1.00  0.00    -0.506 OA
ATOM     31  H   UNL A   1      31.265  17.582  21.694  1.00  0.00     0.293 HD
ENDBRANCH  29  30
ENDBRANCH  16  17
ENDBRANCH  13  16
ENDBRANCH   7  12
ENDBRANCH   4   7
ENDBRANCH   2   3
ENDBRANCH   1   2
BRANCH   1  32
ATOM     32  C   UNL A   1      31.419  32.428  26.792  1.00  0.00     0.023 C 
BRANCH  32  33
ATOM     33  C   UNL A   1      32.719  32.928  27.388  1.00  0.00     0.116 C 
BRANCH  33  34
ATOM     34  N   UNL A   1      32.608  34.298  27.854  1.00  0.00    -0.352 N 
ATOM     35  C   UNL A   1      33.314  34.902  28.866  1.00  0.00     0.251 C 
ATOM     36  H   UNL A   1      31.947  34.861  27.390  1.00  0.00     0.163 HD
ATOM     37  O   UNL A   1      32.947  35.996  29.295  1.00  0.00    -0.269 OA
BRANCH  35  38
ATOM     38  C   UNL A   1      34.492  34.220  29.445  1.00  0.00     0.039 A 
ATOM     39  C   UNL A   1      34.346  33.347  30.526  1.00  0.00     0.014 A 
ATOM     40  C   UNL A   1      35.760  34.459  28.906  1.00  0.00     0.014 A 
ATOM     41  C   UNL A   1      35.471  32.826  31.152  1.00  0.00     0.010 A 
ATOM     42  C   UNL A   1      36.884  33.856  29.480  1.00  0.00     0.010 A 
ATOM     43  C   UNL A   1      36.753  33.057  30.627  1.00  0.00    -0.014 A 
BRANCH  43  44
ATOM     44  C   UNL A   1      37.922  32.400  31.267  1.00  0.00     0.031 A 
ATOM     45  C   UNL A   1      38.408  32.823  32.626  1.00  0.00     0.074 A 
ATOM     46  C   UNL A   1      38.522  31.382  30.618  1.00  0.00     0.049 A 
ATOM     47  N   UNL A   1      39.378  32.316  33.342  1.00  0.00    -0.248 NA
ATOM     48  C   UNL A   1      37.729  33.963  33.264  1.00  0.00     0.031 C 
ATOM     49  C   UNL A   1      38.154  30.911  29.280  1.00  0.00     0.029 A 
ATOM     50  N   UNL A   1      39.544  30.548  30.992  1.00  0.00    -0.354 N 
ATOM     51  C   UNL A   1      39.453  33.093  34.491  1.00  0.00     0.074 A 
ATOM     52  C   UNL A   1      38.438  34.117  34.374  1.00  0.00     0.031 C 
ATOM     53  C   UNL A   1      38.894  29.837  28.972  1.00  0.00     0.029 A 
ATOM     54  C   UNL A   1      39.833  29.579  30.058  1.00  0.00     0.049 A 
ATOM     55  H   UNL A   1      40.025  30.633  31.848  1.00  0.00     0.167 HD
ATOM     56  C   UNL A   1      40.276  32.949  35.557  1.00  0.00     0.034 A 
ATOM     57  C   UNL A   1      40.752  28.595  30.069  1.00  0.00     0.034 A 
ATOM     58  C   UNL A   1      41.245  31.893  35.687  1.00  0.00     0.049 A 
ATOM     59  C   UNL A   1      41.644  28.453  31.268  1.00  0.00     0.074 A 
ATOM     60  C   UNL A   1      42.081  31.625  36.756  1.00  0.00     0.029 A 
ATOM     61  N   UNL A   1      41.508  30.934  34.721  1.00  0.00    -0.354 N 
ATOM     62  N   UNL A   1      41.622  29.129  32.392  1.00  0.00    -0.248 NA
ATOM     63  C   UNL A   1      42.680  27.413  31.211  1.00  0.00     0.031 C 
ATOM     64  C   UNL A   1      42.863  30.514  36.428  1.00  0.00     0.029 A 
ATOM     65  C   UNL A   1      42.506  30.081  35.162  1.00  0.00     0.049 A 
ATOM     66  H   UNL A   1      41.053  30.869  33.850  1.00  0.00     0.167 HD
ATOM     67  C   UNL A   1      42.637  28.596  33.176  1.00  0.00     0.074 A 
ATOM     68  C   UNL A   1      43.229  27.515  32.415  1.00  0.00     0.031 C 
ATOM     69  C   UNL A   1      43.058  28.986  34.405  1.00  0.00     0.034 A 
BRANCH  56  70
ATOM     70  C   UNL A   1      40.135  33.920  36.701  1.00  0.00     0.023 A 
ATOM     71  C   UNL A   1      39.042  33.795  37.583  1.00  0.00     0.012 A 
ATOM     72  C   UNL A   1      41.124  34.891  36.960  1.00  0.00     0.148 A 
ATOM     73  C   UNL A   1      38.921  34.635  38.689  1.00  0.00     0.002 A 
ATOM     74  C   UNL A   1      41.017  35.698  38.086  1.00  0.00     0.091 A 
ATOM     75  F   UNL A   1      42.146  35.005  36.101  1.00  0.00    -0.205 F 
ATOM     76  C   UNL A   1      39.913  35.577  38.947  1.00  0.00     0.022 A 
BRANCH  74  77
ATOM     77  S   UNL A   1      42.278  36.891  38.551  1.00  0.00     0.127 S 
ATOM     78  O   UNL A   1      41.489  37.886  39.275  1.00  0.00    -0.237 OA
ATOM     79  O   UNL A   1      43.166  36.088  39.394  1.00  0.00    -0.237 OA
ATOM     80  O   UNL A   1      42.874  37.352  37.306  1.00  0.00    -0.744 OA
ENDBRANCH  74  77
ENDBRANCH  56  70
BRANCH  57  81
ATOM     81  C   UNL A   1      40.822  27.642  28.923  1.00  0.00     0.023 A 
ATOM     82  C   UNL A   1      39.833  26.647  28.793  1.00  0.00     0.012 A 
ATOM     83  C   UNL A   1      41.804  27.767  27.921  1.00  0.00     0.148 A 
ATOM     84  C   UNL A   1      39.826  25.793  27.690  1.00  0.00     0.002 A 
ATOM     85  C   UNL A   1      41.754  26.955  26.795  1.00  0.00     0.091 A 
ATOM     86  F   UNL A   1      42.751  28.704  28.073  1.00  0.00    -0.205 F 
ATOM     87  C   UNL A   1      40.774  25.957  26.683  1.00  0.00     0.022 A 
BRANCH  85  88
ATOM     88  S   UNL A   1      42.834  27.206  25.381  1.00  0.00     0.127 S 
ATOM     89  O   UNL A   1      42.220  28.362  24.736  1.00  0.00    -0.237 OA
ATOM     90  O   UNL A   1      44.121  27.470  26.026  1.00  0.00    -0.237 OA
ATOM     91  O   UNL A   1      42.789  25.959  24.628  1.00  0.00    -0.744 OA
ENDBRANCH  85  88
ENDBRANCH  57  81
BRANCH  69  92
ATOM     92  C   UNL A   1      44.232  28.261  35.006  1.00  0.00     0.023 A 
ATOM     93  C   UNL A   1      45.521  28.810  34.863  1.00  0.00     0.012 A 
ATOM     94  C   UNL A   1      44.047  27.122  35.813  1.00  0.00     0.148 A 
ATOM     95  C   UNL A   1      46.613  28.228  35.505  1.00  0.00     0.002 A 
ATOM     96  C   UNL A   1      45.132  26.575  36.487  1.00  0.00     0.091 A 
ATOM     97  F   UNL A   1      42.813  26.610  35.921  1.00  0.00    -0.205 F 
ATOM     98  C   UNL A   1      46.417  27.122  36.328  1.00  0.00     0.022 A 
BRANCH  96  99
ATOM     99  S   UNL A   1      44.965  25.212  37.646  1.00  0.00     0.127 S 
ATOM    100  O   UNL A   1      46.219  25.301  38.392  1.00  0.00    -0.237 OA
ATOM    101  O   UNL A   1      43.774  25.598  38.406  1.00  0.00    -0.237 OA
ATOM    102  O   UNL A   1      44.807  24.011  36.837  1.00  0.00    -0.744 OA
ENDBRANCH  96  99
ENDBRANCH  69  92
ENDBRANCH  43  44
ENDBRANCH  35  38
ENDBRANCH  33  34
ENDBRANCH  32  33
ENDBRANCH   1  32
TORSDOF 21
ENDMDL
MODEL 3
REMARK VINA RESULT:     -11.7      1.668      2.204
REMARK SMILES CSCC[C@H](NC(=O)Cc1c(C)c2cc(Cl)c(O)cc2oc1=O)C(=O)NCCCCNC(=O)c1ccc(-c2c3nc(c(-c4cccc(S(=O)(=O)[O-])c4F)c4ccc([nH]4)c(-c4cccc(S(=O)(=O)[O-])c4F)c4nc(c(-c5cccc(S(=O)(=O)[O-])c5F)c5ccc2[nH]5)C=C4)C=C3)cc1
REMARK SMILES IDX 28 1 27 2 26 3 24 4 25 5 5 7 4 8 3 9 2 10 1 11 6 12 7 13
REMARK SMILES IDX 8 15 9 16 10 17 11 18 22 19 12 20 13 21 21 22 23 23 14 24
REMARK SMILES IDX 20 25 15 26 19 27 16 28 17 29 18 30 29 32 30 33 31 34 32 35
REMARK SMILES IDX 33 37 34 38 35 39 96 40 36 41 95 42 37 43 38 44 39 45 89 46
REMARK SMILES IDX 40 47 94 48 88 49 90 50 41 51 93 52 87 53 86 54 42 56 74 57
REMARK SMILES IDX 54 58 73 59 55 60 58 61 72 62 91 63 56 64 57 65 71 67 92 68
REMARK SMILES IDX 59 69 43 70 44 71 52 72 45 73 47 74 53 75 46 76 48 77 49 78
REMARK SMILES IDX 50 79 51 80 75 81 76 82 84 83 77 84 79 85 85 86 78 87 80 88
REMARK SMILES IDX 81 89 82 90 83 91 60 92 61 93 69 94 62 95 64 96 70 97 63 98
REMARK SMILES IDX 65 99 66 100 67 101 68 102
REMARK H PARENT 26 6 6 14 18 31 31 36 90 55 58 66
REMARK Flexibility Score: inf
ROOT
ATOM      1  C   UNL A   1      31.727  30.746  26.786  1.00  0.00     0.023 C 
ENDROOT
BRANCH   1   2
ATOM      2  C   UNL A   1      31.464  30.054  25.446  1.00  0.00     0.116 C 
BRANCH   2   3
ATOM      3  N   UNL A   1      32.640  29.620  24.716  1.00  0.00    -0.354 N 
ATOM      4  C   UNL A   1      32.766  28.887  23.578  1.00  0.00     0.242 C 
ATOM      5  O   UNL A   1      33.849  28.906  22.982  1.00  0.00    -0.273 OA
ATOM      6  H   UNL A   1      33.494  29.905  25.113  1.00  0.00     0.163 HD
BRANCH   4   7
ATOM      7  C   UNL A   1      31.586  28.143  22.943  1.00  0.00     0.172 C 
BRANCH   7   8
ATOM      8  C   UNL A   1      30.639  29.193  22.326  1.00  0.00     0.046 C 
BRANCH   8   9
ATOM      9  C   UNL A   1      29.174  29.037  22.735  1.00  0.00     0.072 C 
BRANCH   9  10
ATOM     10  S   UNL A   1      28.312  30.634  22.910  1.00  0.00    -0.165 SA
ATOM     11  C   UNL A   1      28.238  31.143  21.176  1.00  0.00     0.085 C 
ENDBRANCH   9  10
ENDBRANCH   8   9
ENDBRANCH   7   8
BRANCH   7  12
ATOM     12  N   UNL A   1      30.857  27.206  23.799  1.00  0.00    -0.344 N 
ATOM     13  C   UNL A   1      30.982  25.844  23.831  1.00  0.00     0.225 C 
ATOM     14  H   UNL A   1      30.203  27.600  24.421  1.00  0.00     0.164 HD
ATOM     15  O   UNL A   1      29.953  25.187  24.005  1.00  0.00    -0.275 OA
BRANCH  13  16
ATOM     16  C   UNL A   1      32.363  25.181  23.828  1.00  0.00     0.143 C 
BRANCH  16  17
ATOM     17  C   UNL A   1      32.556  23.768  24.313  1.00  0.00     0.051 A 
ATOM     18  C   UNL A   1      32.645  22.677  23.523  1.00  0.00    -0.029 A 
ATOM     19  C   UNL A   1      32.465  23.629  25.805  1.00  0.00     0.340 A 
ATOM     20  C   UNL A   1      32.514  22.743  22.024  1.00  0.00     0.046 C 
ATOM     21  C   UNL A   1      32.786  21.346  24.149  1.00  0.00     0.023 A 
ATOM     22  O   UNL A   1      32.721  22.387  26.349  1.00  0.00    -0.422 OA
ATOM     23  O   UNL A   1      32.148  24.569  26.529  1.00  0.00    -0.246 OA
ATOM     24  C   UNL A   1      32.876  20.149  23.425  1.00  0.00     0.036 A 
ATOM     25  C   UNL A   1      32.815  21.251  25.538  1.00  0.00     0.142 A 
ATOM     26  C   UNL A   1      32.954  18.913  24.082  1.00  0.00     0.083 A 
ATOM     27  C   UNL A   1      32.901  20.032  26.215  1.00  0.00     0.095 A 
ATOM     28  Cl  UNL A   1      33.025  17.479  23.124  1.00  0.00    -0.080 Cl
ATOM     29  C   UNL A   1      32.956  18.856  25.477  1.00  0.00     0.137 A 
BRANCH  29  30
ATOM     30  O   UNL A   1      33.008  17.651  26.118  1.00  0.00    -0.506 OA
ATOM     31  H   UNL A   1      32.243  17.113  26.167  1.00  0.00     0.293 HD
ENDBRANCH  29  30
ENDBRANCH  16  17
ENDBRANCH  13  16
ENDBRANCH   7  12
ENDBRANCH   4   7
ENDBRANCH   2   3
ENDBRANCH   1   2
BRANCH   1  32
ATOM     32  C   UNL A   1      31.639  32.274  26.816  1.00  0.00     0.023 C 
BRANCH  32  33
ATOM     33  C   UNL A   1      32.871  32.994  27.324  1.00  0.00     0.116 C 
BRANCH  33  34
ATOM     34  N   UNL A   1      32.557  34.322  27.815  1.00  0.00    -0.352 N 
ATOM     35  C   UNL A   1      33.068  34.952  28.923  1.00  0.00     0.251 C 
ATOM     36  H   UNL A   1      31.898  34.833  27.291  1.00  0.00     0.163 HD
ATOM     37  O   UNL A   1      32.535  35.982  29.338  1.00  0.00    -0.269 OA
BRANCH  35  38
ATOM     38  C   UNL A   1      34.237  34.373  29.620  1.00  0.00     0.039 A 
ATOM     39  C   UNL A   1      35.528  34.569  29.122  1.00  0.00     0.014 A 
ATOM     40  C   UNL A   1      34.043  33.619  30.781  1.00  0.00     0.014 A 
ATOM     41  C   UNL A   1      36.601  33.902  29.699  1.00  0.00     0.010 A 
ATOM     42  C   UNL A   1      35.139  33.027  31.417  1.00  0.00     0.010 A 
ATOM     43  C   UNL A   1      36.425  33.139  30.865  1.00  0.00    -0.014 A 
BRANCH  43  44
ATOM     44  C   UNL A   1      37.615  32.524  31.508  1.00  0.00     0.031 A 
ATOM     45  C   UNL A   1      38.083  32.965  32.868  1.00  0.00     0.074 A 
ATOM     46  C   UNL A   1      38.252  31.527  30.861  1.00  0.00     0.049 A 
ATOM     47  N   UNL A   1      39.068  32.492  33.586  1.00  0.00    -0.248 NA
ATOM     48  C   UNL A   1      37.362  34.080  33.503  1.00  0.00     0.031 C 
ATOM     49  C   UNL A   1      37.904  31.043  29.523  1.00  0.00     0.029 A 
ATOM     50  N   UNL A   1      39.302  30.729  31.238  1.00  0.00    -0.354 N 
ATOM     51  C   UNL A   1      39.113  33.272  34.735  1.00  0.00     0.074 A 
ATOM     52  C   UNL A   1      38.063  34.259  34.615  1.00  0.00     0.031 C 
ATOM     53  C   UNL A   1      38.682  29.995  29.217  1.00  0.00     0.029 A 
ATOM     54  C   UNL A   1      39.627  29.771  30.305  1.00  0.00     0.049 A 
ATOM     55  H   UNL A   1      39.777  30.832  32.095  1.00  0.00     0.167 HD
ATOM     56  C   UNL A   1      39.938  33.157  35.803  1.00  0.00     0.034 A 
ATOM     57  C   UNL A   1      40.580  28.819  30.318  1.00  0.00     0.034 A 
ATOM     58  C   UNL A   1      40.944  32.136  35.936  1.00  0.00     0.049 A 
ATOM     59  C   UNL A   1      41.474  28.710  31.520  1.00  0.00     0.074 A 
ATOM     60  C   UNL A   1      41.786  31.898  37.007  1.00  0.00     0.029 A 
ATOM     61  N   UNL A   1      41.242  31.186  34.971  1.00  0.00    -0.354 N 
ATOM     62  N   UNL A   1      41.425  29.385  32.644  1.00  0.00    -0.248 NA
ATOM     63  C   UNL A   1      42.545  27.706  31.466  1.00  0.00     0.031 C 
ATOM     64  C   UNL A   1      42.608  30.815  36.682  1.00  0.00     0.029 A 
ATOM     65  C   UNL A   1      42.268  30.369  35.415  1.00  0.00     0.049 A 
ATOM     66  H   UNL A   1      40.792  31.104  34.099  1.00  0.00     0.167 HD
ATOM     67  C   UNL A   1      42.456  28.888  33.431  1.00  0.00     0.074 A 
ATOM     68  C   UNL A   1      43.088  27.828  32.671  1.00  0.00     0.031 C 
ATOM     69  C   UNL A   1      42.861  29.293  34.659  1.00  0.00     0.034 A 
BRANCH  56  70
ATOM     70  C   UNL A   1      39.761  34.123  36.946  1.00  0.00     0.023 A 
ATOM     71  C   UNL A   1      40.068  35.485  36.754  1.00  0.00     0.012 A 
ATOM     72  C   UNL A   1      39.206  33.706  38.173  1.00  0.00     0.148 A 
ATOM     73  C   UNL A   1      39.849  36.414  37.770  1.00  0.00     0.002 A 
ATOM     74  C   UNL A   1      38.954  34.645  39.168  1.00  0.00     0.091 A 
ATOM     75  F   UNL A   1      38.936  32.405  38.343  1.00  0.00    -0.205 F 
ATOM     76  C   UNL A   1      39.282  35.996  38.972  1.00  0.00     0.022 A 
BRANCH  74  77
ATOM     77  S   UNL A   1      38.156  34.224  40.723  1.00  0.00     0.127 S 
ATOM     78  O   UNL A   1      37.028  33.415  40.264  1.00  0.00    -0.237 OA
ATOM     79  O   UNL A   1      39.205  33.471  41.413  1.00  0.00    -0.237 OA
ATOM     80  O   UNL A   1      37.804  35.489  41.349  1.00  0.00    -0.744 OA
ENDBRANCH  74  77
ENDBRANCH  56  70
BRANCH  57  81
ATOM     81  C   UNL A   1      40.686  27.869  29.174  1.00  0.00     0.023 A 
ATOM     82  C   UNL A   1      39.813  26.765  29.112  1.00  0.00     0.012 A 
ATOM     83  C   UNL A   1      41.580  28.097  28.109  1.00  0.00     0.148 A 
ATOM     84  C   UNL A   1      39.834  25.904  28.014  1.00  0.00     0.002 A 
ATOM     85  C   UNL A   1      41.551  27.272  26.991  1.00  0.00     0.091 A 
ATOM     86  F   UNL A   1      42.419  29.139  28.196  1.00  0.00    -0.205 F 
ATOM     87  C   UNL A   1      40.689  26.166  26.947  1.00  0.00     0.022 A 
BRANCH  85  88
ATOM     88  S   UNL A   1      42.501  27.632  25.508  1.00  0.00     0.127 S 
ATOM     89  O   UNL A   1      41.907  28.890  25.069  1.00  0.00    -0.237 OA
ATOM     90  O   UNL A   1      43.861  27.744  26.039  1.00  0.00    -0.237 OA
ATOM     91  O   UNL A   1      42.297  26.489  24.627  1.00  0.00    -0.744 OA
ENDBRANCH  85  88
ENDBRANCH  57  81
BRANCH  69  92
ATOM     92  C   UNL A   1      44.058  28.610  35.264  1.00  0.00     0.023 A 
ATOM     93  C   UNL A   1      45.346  29.091  34.959  1.00  0.00     0.012 A 
ATOM     94  C   UNL A   1      43.905  27.592  36.223  1.00  0.00     0.148 A 
ATOM     95  C   UNL A   1      46.468  28.558  35.591  1.00  0.00     0.002 A 
ATOM     96  C   UNL A   1      45.024  27.097  36.883  1.00  0.00     0.091 A 
ATOM     97  F   UNL A   1      42.670  27.142  36.487  1.00  0.00    -0.205 F 
ATOM     98  C   UNL A   1      46.307  27.573  36.563  1.00  0.00     0.022 A 
BRANCH  96  99
ATOM     99  S   UNL A   1      44.911  25.901  38.219  1.00  0.00     0.127 S 
ATOM    100  O   UNL A   1      44.018  24.896  37.645  1.00  0.00    -0.237 OA
ATOM    101  O   UNL A   1      46.302  25.469  38.366  1.00  0.00    -0.237 OA
ATOM    102  O   UNL A   1      44.375  26.625  39.364  1.00  0.00    -0.744 OA
ENDBRANCH  96  99
ENDBRANCH  69  92
ENDBRANCH  43  44
ENDBRANCH  35  38
ENDBRANCH  33  34
ENDBRANCH  32  33
ENDBRANCH   1  32
TORSDOF 21
ENDMDL
