MODEL 1
REMARK VINA RESULT:      -8.1      0.000      0.000
REMARK SMILES CCCCCCNC(=O)Oc1cccc(-c2ccc([C@@H](C)C(=O)NCCCCNC(=O)c3ccc(-c4c5nc(c(-c6cccc(S(=O)(=O)[O-])c6F)c6ccc([nH]6)c(-c6cccc(S(=O)(=O)[O-])c6F)c6nc(c(-c7cccc(S(=O)(=O)[O-])c7F)c7ccc4[nH]7)C=C6)C=C5)cc3)cc2F)c1
REMARK SMILES IDX 20 1 21 2 19 3 16 4 17 5 96 6 18 7 95 8 97 9 15 10 11 11
REMARK SMILES IDX 12 12 98 13 13 14 14 15 10 16 8 17 7 18 9 20 6 21 5 22 4 23
REMARK SMILES IDX 3 24 2 25 1 26 22 27 23 28 24 29 25 31 26 32 27 33 28 34
REMARK SMILES IDX 29 35 30 36 31 38 32 39 33 40 94 41 34 42 93 43 35 44 36 45
REMARK SMILES IDX 37 46 87 47 38 48 92 49 86 50 88 51 39 52 91 53 85 54 84 55
REMARK SMILES IDX 40 57 72 58 52 59 71 60 53 61 56 62 70 63 89 64 54 65 55 66
REMARK SMILES IDX 69 68 90 69 57 70 41 71 42 72 50 73 43 74 45 75 51 76 44 77
REMARK SMILES IDX 46 78 47 79 48 80 49 81 73 82 74 83 82 84 75 85 77 86 83 87
REMARK SMILES IDX 76 88 78 89 79 90 80 91 81 92 58 93 59 94 67 95 60 96 62 97
REMARK SMILES IDX 68 98 61 99 63 100 64 101 65 102 66 103
REMARK H PARENT 7 19 24 30 29 37 88 56 56 67
REMARK Flexibility Score: inf
ROOT
ATOM      1  C   UNL A   1      37.373  31.216  29.307  1.00  0.00     0.105 C 
ATOM      2  C   UNL A   1      38.152  32.507  29.553  1.00  0.00     0.023 C 
ENDROOT
BRANCH   1   3
ATOM      3  C   UNL A   1      38.208  29.985  28.995  1.00  0.00    -0.033 A 
ATOM      4  C   UNL A   1      40.005  27.795  28.582  1.00  0.00     0.018 A 
ATOM      5  C   UNL A   1      38.903  27.696  29.446  1.00  0.00     0.012 A 
ATOM      6  C   UNL A   1      40.138  29.001  27.877  1.00  0.00     0.131 A 
ATOM      7  C   UNL A   1      37.998  28.750  29.613  1.00  0.00     0.005 A 
ATOM      8  C   UNL A   1      39.278  30.083  28.093  1.00  0.00     0.044 A 
ATOM      9  F   UNL A   1      41.114  29.157  26.969  1.00  0.00    -0.206 F 
BRANCH   4  10
ATOM     10  C   UNL A   1      40.979  26.687  28.478  1.00  0.00    -0.012 A 
ATOM     11  C   UNL A   1      41.755  24.627  27.442  1.00  0.00     0.133 A 
ATOM     12  C   UNL A   1      42.921  24.640  28.200  1.00  0.00     0.047 A 
ATOM     13  C   UNL A   1      40.788  25.626  27.577  1.00  0.00     0.056 A 
ATOM     14  C   UNL A   1      43.128  25.676  29.101  1.00  0.00     0.004 A 
ATOM     15  C   UNL A   1      42.165  26.681  29.243  1.00  0.00     0.009 A 
BRANCH  11  16
ATOM     16  O   UNL A   1      41.541  23.507  26.626  1.00  0.00    -0.410 OA
BRANCH  16  17
ATOM     17  C   UNL A   1      42.261  22.354  26.901  1.00  0.00     0.412 C 
ATOM     18  N   UNL A   1      43.183  22.063  25.933  1.00  0.00    -0.321 N 
ATOM     19  H   UNL A   1      43.716  21.246  26.062  1.00  0.00     0.167 HD
ATOM     20  O   UNL A   1      42.121  21.633  27.879  1.00  0.00    -0.224 OA
BRANCH  18  21
ATOM     21  C   UNL A   1      43.453  22.836  24.739  1.00  0.00     0.119 C 
BRANCH  21  22
ATOM     22  C   UNL A   1      44.931  23.203  24.619  1.00  0.00     0.021 C 
BRANCH  22  23
ATOM     23  C   UNL A   1      45.346  24.450  25.410  1.00  0.00     0.002 C 
BRANCH  23  24
ATOM     24  C   UNL A   1      44.449  25.679  25.218  1.00  0.00    -0.000 C 
BRANCH  24  25
ATOM     25  C   UNL A   1      45.061  27.012  25.653  1.00  0.00    -0.003 C 
ATOM     26  C   UNL A   1      44.033  28.007  26.166  1.00  0.00     0.004 C 
ENDBRANCH  24  25
ENDBRANCH  23  24
ENDBRANCH  22  23
ENDBRANCH  21  22
ENDBRANCH  18  21
ENDBRANCH  16  17
ENDBRANCH  11  16
ENDBRANCH   4  10
ENDBRANCH   1   3
BRANCH   1  27
ATOM     27  C   UNL A   1      36.160  31.389  28.378  1.00  0.00     0.227 C 
ATOM     28  O   UNL A   1      35.841  30.469  27.616  1.00  0.00    -0.274 OA
ATOM     29  N   UNL A   1      35.378  32.504  28.349  1.00  0.00    -0.356 N 
ATOM     30  H   UNL A   1      34.605  32.437  27.742  1.00  0.00     0.163 HD
BRANCH  29  31
ATOM     31  C   UNL A   1      35.476  33.769  29.045  1.00  0.00     0.116 C 
BRANCH  31  32
ATOM     32  C   UNL A   1      34.609  33.804  30.305  1.00  0.00     0.023 C 
BRANCH  32  33
ATOM     33  C   UNL A   1      35.386  33.843  31.618  1.00  0.00     0.023 C 
BRANCH  33  34
ATOM     34  C   UNL A   1      35.368  32.547  32.418  1.00  0.00     0.116 C 
BRANCH  34  35
ATOM     35  N   UNL A   1      35.744  32.707  33.818  1.00  0.00    -0.352 N 
ATOM     36  C   UNL A   1      36.953  32.411  34.406  1.00  0.00     0.251 C 
ATOM     37  H   UNL A   1      35.049  33.070  34.415  1.00  0.00     0.163 HD
ATOM     38  O   UNL A   1      37.103  32.518  35.618  1.00  0.00    -0.269 OA
BRANCH  36  39
ATOM     39  C   UNL A   1      38.053  31.921  33.550  1.00  0.00     0.039 A 
ATOM     40  C   UNL A   1      39.145  32.755  33.303  1.00  0.00     0.014 A 
ATOM     41  C   UNL A   1      38.043  30.605  33.081  1.00  0.00     0.014 A 
ATOM     42  C   UNL A   1      40.266  32.240  32.648  1.00  0.00     0.010 A 
ATOM     43  C   UNL A   1      39.193  30.072  32.512  1.00  0.00     0.010 A 
ATOM     44  C   UNL A   1      40.316  30.882  32.286  1.00  0.00    -0.014 A 
BRANCH  44  45
ATOM     45  C   UNL A   1      41.534  30.286  31.679  1.00  0.00     0.031 A 
ATOM     46  C   UNL A   1      42.134  29.038  32.271  1.00  0.00     0.074 A 
ATOM     47  C   UNL A   1      42.155  30.917  30.662  1.00  0.00     0.049 A 
ATOM     48  N   UNL A   1      43.229  28.410  31.933  1.00  0.00    -0.248 NA
ATOM     49  C   UNL A   1      41.428  28.432  33.415  1.00  0.00     0.031 C 
ATOM     50  C   UNL A   1      41.724  32.182  30.059  1.00  0.00     0.029 A 
ATOM     51  N   UNL A   1      43.300  30.598  29.974  1.00  0.00    -0.354 N 
ATOM     52  C   UNL A   1      43.367  27.368  32.842  1.00  0.00     0.074 A 
ATOM     53  C   UNL A   1      42.262  27.465  33.770  1.00  0.00     0.031 C 
ATOM     54  C   UNL A   1      42.591  32.528  29.092  1.00  0.00     0.029 A 
ATOM     55  C   UNL A   1      43.655  31.532  29.027  1.00  0.00     0.049 A 
ATOM     56  H   UNL A   1      43.819  29.780  30.144  1.00  0.00     0.167 HD
ATOM     57  C   UNL A   1      44.311  26.399  32.885  1.00  0.00     0.034 A 
ATOM     58  C   UNL A   1      44.724  31.585  28.207  1.00  0.00     0.034 A 
ATOM     59  C   UNL A   1      45.375  26.273  31.928  1.00  0.00     0.049 A 
ATOM     60  C   UNL A   1      45.728  30.464  28.244  1.00  0.00     0.074 A 
ATOM     61  C   UNL A   1      46.318  25.266  31.824  1.00  0.00     0.029 A 
ATOM     62  N   UNL A   1      45.644  27.182  30.919  1.00  0.00    -0.354 N 
ATOM     63  N   UNL A   1      45.743  29.394  29.001  1.00  0.00    -0.248 NA
ATOM     64  C   UNL A   1      46.845  30.538  27.289  1.00  0.00     0.031 C 
ATOM     65  C   UNL A   1      47.178  25.584  30.769  1.00  0.00     0.029 A 
ATOM     66  C   UNL A   1      46.747  26.767  30.193  1.00  0.00     0.049 A 
ATOM     67  H   UNL A   1      45.127  28.001  30.744  1.00  0.00     0.167 HD
ATOM     68  C   UNL A   1      46.841  28.649  28.587  1.00  0.00     0.074 A 
ATOM     69  C   UNL A   1      47.455  29.380  27.497  1.00  0.00     0.031 C 
ATOM     70  C   UNL A   1      47.310  27.474  29.073  1.00  0.00     0.034 A 
BRANCH  57  71
ATOM     71  C   UNL A   1      44.208  25.360  33.970  1.00  0.00     0.023 A 
ATOM     72  C   UNL A   1      43.476  24.177  33.737  1.00  0.00     0.012 A 
ATOM     73  C   UNL A   1      44.906  25.514  35.182  1.00  0.00     0.148 A 
ATOM     74  C   UNL A   1      43.417  23.177  34.706  1.00  0.00     0.002 A 
ATOM     75  C   UNL A   1      44.882  24.492  36.124  1.00  0.00     0.091 A 
ATOM     76  F   UNL A   1      45.580  26.654  35.391  1.00  0.00    -0.205 F 
ATOM     77  C   UNL A   1      44.129  23.329  35.892  1.00  0.00     0.022 A 
BRANCH  75  78
ATOM     78  S   UNL A   1      45.832  24.551  37.647  1.00  0.00     0.127 S 
ATOM     79  O   UNL A   1      44.901  23.946  38.598  1.00  0.00    -0.237 OA
ATOM     80  O   UNL A   1      46.991  23.720  37.316  1.00  0.00    -0.237 OA
ATOM     81  O   UNL A   1      46.134  25.955  37.881  1.00  0.00    -0.744 OA
ENDBRANCH  75  78
ENDBRANCH  57  71
BRANCH  58  82
ATOM     82  C   UNL A   1      44.881  32.714  27.244  1.00  0.00     0.023 A 
ATOM     83  C   UNL A   1      44.231  32.658  25.995  1.00  0.00     0.012 A 
ATOM     84  C   UNL A   1      45.675  33.835  27.552  1.00  0.00     0.148 A 
ATOM     85  C   UNL A   1      44.404  33.674  25.054  1.00  0.00     0.002 A 
ATOM     86  C   UNL A   1      45.797  34.871  26.634  1.00  0.00     0.091 A 
ATOM     87  F   UNL A   1      46.296  33.866  28.739  1.00  0.00    -0.205 F 
ATOM     88  C   UNL A   1      45.180  34.783  25.377  1.00  0.00     0.022 A 
BRANCH  86  89
ATOM     89  S   UNL A   1      46.670  36.393  27.015  1.00  0.00     0.127 S 
ATOM     90  O   UNL A   1      46.711  37.049  25.710  1.00  0.00    -0.237 OA
ATOM     91  O   UNL A   1      45.777  37.019  27.991  1.00  0.00    -0.237 OA
ATOM     92  O   UNL A   1      47.956  35.979  27.559  1.00  0.00    -0.744 OA
ENDBRANCH  86  89
ENDBRANCH  58  82
BRANCH  70  93
ATOM     93  C   UNL A   1      48.516  26.868  28.405  1.00  0.00     0.023 A 
ATOM     94  C   UNL A   1      48.355  26.027  27.287  1.00  0.00     0.012 A 
ATOM     95  C   UNL A   1      49.815  27.201  28.840  1.00  0.00     0.148 A 
ATOM     96  C   UNL A   1      49.467  25.501  26.632  1.00  0.00     0.002 A 
ATOM     97  C   UNL A   1      50.918  26.717  28.150  1.00  0.00     0.091 A 
ATOM     98  F   UNL A   1      49.945  27.990  29.916  1.00  0.00    -0.205 F 
ATOM     99  C   UNL A   1      50.746  25.855  27.055  1.00  0.00     0.022 A 
BRANCH  97 100
ATOM    100  S   UNL A   1      52.598  27.201  28.559  1.00  0.00     0.127 S 
ATOM    101  O   UNL A   1      53.381  26.327  27.686  1.00  0.00    -0.237 OA
ATOM    102  O   UNL A   1      52.614  28.614  28.180  1.00  0.00    -0.237 OA
ATOM    103  O   UNL A   1      52.752  26.955  29.986  1.00  0.00    -0.744 OA
ENDBRANCH  97 100
ENDBRANCH  70  93
ENDBRANCH  44  45
ENDBRANCH  36  39
ENDBRANCH  34  35
ENDBRANCH  33  34
ENDBRANCH  32  33
ENDBRANCH  31  32
ENDBRANCH  29  31
ENDBRANCH   1  27
TORSDOF 23
ENDMDL
MODEL 2
REMARK VINA RESULT:      -7.4      2.942     11.846
REMARK SMILES CCCCCCNC(=O)Oc1cccc(-c2ccc([C@@H](C)C(=O)NCCCCNC(=O)c3ccc(-c4c5nc(c(-c6cccc(S(=O)(=O)[O-])c6F)c6ccc([nH]6)c(-c6cccc(S(=O)(=O)[O-])c6F)c6nc(c(-c7cccc(S(=O)(=O)[O-])c7F)c7ccc4[nH]7)C=C6)C=C5)cc3)cc2F)c1
REMARK SMILES IDX 20 1 21 2 19 3 16 4 17 5 96 6 18 7 95 8 97 9 15 10 11 11
REMARK SMILES IDX 12 12 98 13 13 14 14 15 10 16 8 17 7 18 9 20 6 21 5 22 4 23
REMARK SMILES IDX 3 24 2 25 1 26 22 27 23 28 24 29 25 31 26 32 27 33 28 34
REMARK SMILES IDX 29 35 30 36 31 38 32 39 33 40 94 41 34 42 93 43 35 44 36 45
REMARK SMILES IDX 37 46 87 47 38 48 92 49 86 50 88 51 39 52 91 53 85 54 84 55
REMARK SMILES IDX 40 57 72 58 52 59 71 60 53 61 56 62 70 63 89 64 54 65 55 66
REMARK SMILES IDX 69 68 90 69 57 70 41 71 42 72 50 73 43 74 45 75 51 76 44 77
REMARK SMILES IDX 46 78 47 79 48 80 49 81 73 82 74 83 82 84 75 85 77 86 83 87
REMARK SMILES IDX 76 88 78 89 79 90 80 91 81 92 58 93 59 94 67 95 60 96 62 97
REMARK SMILES IDX 68 98 61 99 63 100 64 101 65 102 66 103
REMARK H PARENT 7 19 24 30 29 37 88 56 56 67
REMARK Flexibility Score: inf
ROOT
ATOM      1  C   UNL A   1      49.700  27.121  21.852  1.00  0.00     0.105 C 
ATOM      2  C   UNL A   1      49.288  26.869  20.403  1.00  0.00     0.023 C 
ENDROOT
BRANCH   1   3
ATOM      3  C   UNL A   1      48.607  26.947  22.893  1.00  0.00    -0.033 A 
ATOM      4  C   UNL A   1      46.765  26.684  25.069  1.00  0.00     0.018 A 
ATOM      5  C   UNL A   1      46.764  27.810  24.230  1.00  0.00     0.012 A 
ATOM      6  C   UNL A   1      47.669  25.662  24.740  1.00  0.00     0.131 A 
ATOM      7  C   UNL A   1      47.633  27.918  23.139  1.00  0.00     0.005 A 
ATOM      8  C   UNL A   1      48.588  25.796  23.694  1.00  0.00     0.044 A 
ATOM      9  F   UNL A   1      47.685  24.514  25.437  1.00  0.00    -0.206 F 
BRANCH   4  10
ATOM     10  C   UNL A   1      45.880  26.629  26.253  1.00  0.00    -0.012 A 
ATOM     11  C   UNL A   1      43.923  27.390  27.482  1.00  0.00     0.133 A 
ATOM     12  C   UNL A   1      44.117  26.425  28.464  1.00  0.00     0.047 A 
ATOM     13  C   UNL A   1      44.790  27.505  26.393  1.00  0.00     0.056 A 
ATOM     14  C   UNL A   1      45.191  25.551  28.349  1.00  0.00     0.004 A 
ATOM     15  C   UNL A   1      46.065  25.660  27.261  1.00  0.00     0.009 A 
BRANCH  11  16
ATOM     16  O   UNL A   1      42.891  28.315  27.697  1.00  0.00    -0.410 OA
BRANCH  16  17
ATOM     17  C   UNL A   1      42.102  28.673  26.613  1.00  0.00     0.412 C 
ATOM     18  N   UNL A   1      40.986  27.890  26.492  1.00  0.00    -0.321 N 
ATOM     19  H   UNL A   1      40.392  28.084  25.731  1.00  0.00     0.167 HD
ATOM     20  O   UNL A   1      42.334  29.571  25.818  1.00  0.00    -0.224 OA
BRANCH  18  21
ATOM     21  C   UNL A   1      40.592  26.807  27.367  1.00  0.00     0.119 C 
BRANCH  21  22
ATOM     22  C   UNL A   1      40.705  25.447  26.679  1.00  0.00     0.021 C 
BRANCH  22  23
ATOM     23  C   UNL A   1      41.792  25.366  25.600  1.00  0.00     0.002 C 
BRANCH  23  24
ATOM     24  C   UNL A   1      42.817  24.239  25.782  1.00  0.00    -0.000 C 
BRANCH  24  25
ATOM     25  C   UNL A   1      43.900  24.159  24.705  1.00  0.00    -0.003 C 
ATOM     26  C   UNL A   1      44.703  22.868  24.755  1.00  0.00     0.004 C 
ENDBRANCH  24  25
ENDBRANCH  23  24
ENDBRANCH  22  23
ENDBRANCH  21  22
ENDBRANCH  18  21
ENDBRANCH  16  17
ENDBRANCH  11  16
ENDBRANCH   4  10
ENDBRANCH   1   3
BRANCH   1  27
ATOM     27  C   UNL A   1      50.542  28.392  22.048  1.00  0.00     0.227 C 
ATOM     28  O   UNL A   1      50.209  29.437  21.476  1.00  0.00    -0.274 OA
ATOM     29  N   UNL A   1      51.644  28.458  22.845  1.00  0.00    -0.356 N 
ATOM     30  H   UNL A   1      52.039  29.358  22.912  1.00  0.00     0.163 HD
BRANCH  29  31
ATOM     31  C   UNL A   1      52.343  27.448  23.611  1.00  0.00     0.116 C 
BRANCH  31  32
ATOM     32  C   UNL A   1      53.672  27.961  24.167  1.00  0.00     0.023 C 
BRANCH  32  33
ATOM     33  C   UNL A   1      53.565  29.207  25.041  1.00  0.00     0.023 C 
BRANCH  33  34
ATOM     34  C   UNL A   1      53.860  28.987  26.519  1.00  0.00     0.116 C 
BRANCH  34  35
ATOM     35  N   UNL A   1      54.118  27.597  26.874  1.00  0.00    -0.352 N 
ATOM     36  C   UNL A   1      53.276  26.721  27.522  1.00  0.00     0.251 C 
ATOM     37  H   UNL A   1      55.001  27.241  26.620  1.00  0.00     0.163 HD
ATOM     38  O   UNL A   1      53.658  25.598  27.831  1.00  0.00    -0.269 OA
BRANCH  36  39
ATOM     39  C   UNL A   1      51.916  27.178  27.874  1.00  0.00     0.039 A 
ATOM     40  C   UNL A   1      50.822  26.644  27.192  1.00  0.00     0.014 A 
ATOM     41  C   UNL A   1      51.728  28.058  28.942  1.00  0.00     0.014 A 
ATOM     42  C   UNL A   1      49.530  26.934  27.636  1.00  0.00     0.010 A 
ATOM     43  C   UNL A   1      50.446  28.271  29.437  1.00  0.00     0.010 A 
ATOM     44  C   UNL A   1      49.333  27.714  28.789  1.00  0.00    -0.014 A 
BRANCH  44  45
ATOM     45  C   UNL A   1      47.975  27.954  29.340  1.00  0.00     0.031 A 
ATOM     46  C   UNL A   1      47.150  29.106  28.830  1.00  0.00     0.074 A 
ATOM     47  C   UNL A   1      47.522  27.201  30.363  1.00  0.00     0.049 A 
ATOM     48  N   UNL A   1      45.979  29.523  29.232  1.00  0.00    -0.248 NA
ATOM     49  C   UNL A   1      47.731  29.917  27.745  1.00  0.00     0.031 C 
ATOM     50  C   UNL A   1      48.263  26.113  31.008  1.00  0.00     0.029 A 
ATOM     51  N   UNL A   1      46.343  27.255  31.064  1.00  0.00    -0.354 N 
ATOM     52  C   UNL A   1      45.703  30.663  28.486  1.00  0.00     0.074 A 
ATOM     53  C   UNL A   1      46.843  30.894  27.628  1.00  0.00     0.031 C 
ATOM     54  C   UNL A   1      47.521  25.602  32.004  1.00  0.00     0.029 A 
ATOM     55  C   UNL A   1      46.268  26.345  32.094  1.00  0.00     0.049 A 
ATOM     56  H   UNL A   1      45.619  27.887  30.851  1.00  0.00     0.167 HD
ATOM     57  C   UNL A   1      44.589  31.431  28.492  1.00  0.00     0.034 A 
ATOM     58  C   UNL A   1      45.304  26.140  33.014  1.00  0.00     0.034 A 
ATOM     59  C   UNL A   1      43.435  31.166  29.306  1.00  0.00     0.049 A 
ATOM     60  C   UNL A   1      44.054  26.978  32.960  1.00  0.00     0.074 A 
ATOM     61  C   UNL A   1      42.218  31.823  29.307  1.00  0.00     0.029 A 
ATOM     62  N   UNL A   1      43.356  30.172  30.267  1.00  0.00    -0.354 N 
ATOM     63  N   UNL A   1      43.743  27.943  32.129  1.00  0.00    -0.248 NA
ATOM     64  C   UNL A   1      43.007  26.677  33.947  1.00  0.00     0.031 C 
ATOM     65  C   UNL A   1      41.413  31.245  30.293  1.00  0.00     0.029 A 
ATOM     66  C   UNL A   1      42.115  30.204  30.877  1.00  0.00     0.049 A 
ATOM     67  H   UNL A   1      44.076  29.536  30.483  1.00  0.00     0.167 HD
ATOM     68  C   UNL A   1      42.452  28.334  32.465  1.00  0.00     0.074 A 
ATOM     69  C   UNL A   1      42.031  27.487  33.562  1.00  0.00     0.031 C 
ATOM     70  C   UNL A   1      41.687  29.315  31.926  1.00  0.00     0.034 A 
BRANCH  57  71
ATOM     71  C   UNL A   1      44.535  32.605  27.551  1.00  0.00     0.023 A 
ATOM     72  C   UNL A   1      44.144  32.408  26.210  1.00  0.00     0.012 A 
ATOM     73  C   UNL A   1      44.786  33.911  28.013  1.00  0.00     0.148 A 
ATOM     74  C   UNL A   1      44.031  33.489  25.338  1.00  0.00     0.002 A 
ATOM     75  C   UNL A   1      44.625  34.989  27.151  1.00  0.00     0.091 A 
ATOM     76  F   UNL A   1      45.175  34.074  29.286  1.00  0.00    -0.205 F 
ATOM     77  C   UNL A   1      44.258  34.778  25.811  1.00  0.00     0.022 A 
BRANCH  75  78
ATOM     78  S   UNL A   1      44.811  36.694  27.681  1.00  0.00     0.127 S 
ATOM     79  O   UNL A   1      46.200  36.967  27.313  1.00  0.00    -0.237 OA
ATOM     80  O   UNL A   1      43.816  37.380  26.855  1.00  0.00    -0.237 OA
ATOM     81  O   UNL A   1      44.533  36.706  29.109  1.00  0.00    -0.744 OA
ENDBRANCH  75  78
ENDBRANCH  57  71
BRANCH  58  82
ATOM     82  C   UNL A   1      45.453  25.065  34.037  1.00  0.00     0.023 A 
ATOM     83  C   UNL A   1      44.991  23.765  33.753  1.00  0.00     0.012 A 
ATOM     84  C   UNL A   1      46.042  25.324  35.290  1.00  0.00     0.148 A 
ATOM     85  C   UNL A   1      45.069  22.755  34.713  1.00  0.00     0.002 A 
ATOM     86  C   UNL A   1      46.170  24.298  36.221  1.00  0.00     0.091 A 
ATOM     87  F   UNL A   1      46.465  26.569  35.548  1.00  0.00    -0.205 F 
ATOM     88  C   UNL A   1      45.665  23.019  35.942  1.00  0.00     0.022 A 
BRANCH  86  89
ATOM     89  S   UNL A   1      47.039  24.517  37.776  1.00  0.00     0.127 S 
ATOM     90  O   UNL A   1      46.976  23.173  38.346  1.00  0.00    -0.237 OA
ATOM     91  O   UNL A   1      48.367  24.934  37.326  1.00  0.00    -0.237 OA
ATOM     92  O   UNL A   1      46.299  25.547  38.494  1.00  0.00    -0.744 OA
ENDBRANCH  86  89
ENDBRANCH  58  82
BRANCH  70  93
ATOM     93  C   UNL A   1      40.296  29.502  32.471  1.00  0.00     0.023 A 
ATOM     94  C   UNL A   1      39.210  28.835  31.873  1.00  0.00     0.012 A 
ATOM     95  C   UNL A   1      40.083  30.277  33.629  1.00  0.00     0.148 A 
ATOM     96  C   UNL A   1      37.925  28.964  32.401  1.00  0.00     0.002 A 
ATOM     97  C   UNL A   1      38.811  30.356  34.179  1.00  0.00     0.091 A 
ATOM     98  F   UNL A   1      41.128  30.916  34.172  1.00  0.00    -0.205 F 
ATOM     99  C   UNL A   1      37.728  29.712  33.559  1.00  0.00     0.022 A 
BRANCH  97 100
ATOM    100  S   UNL A   1      38.481  31.212  35.724  1.00  0.00     0.127 S 
ATOM    101  O   UNL A   1      38.175  30.099  36.622  1.00  0.00    -0.237 OA
ATOM    102  O   UNL A   1      39.759  31.876  35.988  1.00  0.00    -0.237 OA
ATOM    103  O   UNL A   1      37.373  32.118  35.453  1.00  0.00    -0.744 OA
ENDBRANCH  97 100
ENDBRANCH  70  93
ENDBRANCH  44  45
ENDBRANCH  36  39
ENDBRANCH  34  35
ENDBRANCH  33  34
ENDBRANCH  32  33
ENDBRANCH  31  32
ENDBRANCH  29  31
ENDBRANCH   1  27
TORSDOF 23
ENDMDL
MODEL 3
REMARK VINA RESULT:      -7.4      4.503      9.241
REMARK SMILES CCCCCCNC(=O)Oc1cccc(-c2ccc([C@@H](C)C(=O)NCCCCNC(=O)c3ccc(-c4c5nc(c(-c6cccc(S(=O)(=O)[O-])c6F)c6ccc([nH]6)c(-c6cccc(S(=O)(=O)[O-])c6F)c6nc(c(-c7cccc(S(=O)(=O)[O-])c7F)c7ccc4[nH]7)C=C6)C=C5)cc3)cc2F)c1
REMARK SMILES IDX 20 1 21 2 19 3 16 4 17 5 96 6 18 7 95 8 97 9 15 10 11 11
REMARK SMILES IDX 12 12 98 13 13 14 14 15 10 16 8 17 7 18 9 20 6 21 5 22 4 23
REMARK SMILES IDX 3 24 2 25 1 26 22 27 23 28 24 29 25 31 26 32 27 33 28 34
REMARK SMILES IDX 29 35 30 36 31 38 32 39 33 40 94 41 34 42 93 43 35 44 36 45
REMARK SMILES IDX 37 46 87 47 38 48 92 49 86 50 88 51 39 52 91 53 85 54 84 55
REMARK SMILES IDX 40 57 72 58 52 59 71 60 53 61 56 62 70 63 89 64 54 65 55 66
REMARK SMILES IDX 69 68 90 69 57 70 41 71 42 72 50 73 43 74 45 75 51 76 44 77
REMARK SMILES IDX 46 78 47 79 48 80 49 81 73 82 74 83 82 84 75 85 77 86 83 87
REMARK SMILES IDX 76 88 78 89 79 90 80 91 81 92 58 93 59 94 67 95 60 96 62 97
REMARK SMILES IDX 68 98 61 99 63 100 64 101 65 102 66 103
REMARK H PARENT 7 19 24 30 29 37 88 56 56 67
REMARK Flexibility Score: inf
ROOT
ATOM      1  C   UNL A   1      35.425  32.777  28.658  1.00  0.00     0.105 C 
ATOM      2  C   UNL A   1      36.925  32.700  28.379  1.00  0.00     0.023 C 
ENDROOT
BRANCH   1   3
ATOM      3  C   UNL A   1      34.591  31.620  28.132  1.00  0.00    -0.033 A 
ATOM      4  C   UNL A   1      33.066  29.561  26.856  1.00  0.00     0.018 A 
ATOM      5  C   UNL A   1      34.362  29.328  27.344  1.00  0.00     0.012 A 
ATOM      6  C   UNL A   1      32.531  30.836  27.090  1.00  0.00     0.131 A 
ATOM      7  C   UNL A   1      35.089  30.321  28.008  1.00  0.00     0.005 A 
ATOM      8  C   UNL A   1      33.280  31.854  27.691  1.00  0.00     0.044 A 
ATOM      9  F   UNL A   1      31.270  31.124  26.731  1.00  0.00    -0.206 F 
BRANCH   4  10
ATOM     10  C   UNL A   1      32.349  28.510  26.100  1.00  0.00    -0.012 A 
ATOM     11  C   UNL A   1      31.918  27.293  24.037  1.00  0.00     0.133 A 
ATOM     12  C   UNL A   1      31.067  26.410  24.692  1.00  0.00     0.047 A 
ATOM     13  C   UNL A   1      32.548  28.337  24.720  1.00  0.00     0.056 A 
ATOM     14  C   UNL A   1      30.852  26.565  26.056  1.00  0.00     0.004 A 
ATOM     15  C   UNL A   1      31.479  27.608  26.747  1.00  0.00     0.009 A 
BRANCH  11  16
ATOM     16  O   UNL A   1      32.020  27.162  22.646  1.00  0.00    -0.410 OA
BRANCH  16  17
ATOM     17  C   UNL A   1      33.284  26.989  22.099  1.00  0.00     0.412 C 
ATOM     18  N   UNL A   1      33.638  25.672  21.996  1.00  0.00    -0.321 N 
ATOM     19  H   UNL A   1      34.532  25.482  21.629  1.00  0.00     0.167 HD
ATOM     20  O   UNL A   1      34.042  27.878  21.741  1.00  0.00    -0.224 OA
BRANCH  18  21
ATOM     21  C   UNL A   1      32.833  24.529  22.372  1.00  0.00     0.119 C 
BRANCH  21  22
ATOM     22  C   UNL A   1      33.546  23.638  23.388  1.00  0.00     0.021 C 
BRANCH  22  23
ATOM     23  C   UNL A   1      34.164  24.388  24.574  1.00  0.00     0.002 C 
BRANCH  23  24
ATOM     24  C   UNL A   1      35.637  24.072  24.857  1.00  0.00    -0.000 C 
BRANCH  24  25
ATOM     25  C   UNL A   1      35.894  23.181  26.074  1.00  0.00    -0.003 C 
ATOM     26  C   UNL A   1      35.526  21.724  25.840  1.00  0.00     0.004 C 
ENDBRANCH  24  25
ENDBRANCH  23  24
ENDBRANCH  22  23
ENDBRANCH  21  22
ENDBRANCH  18  21
ENDBRANCH  16  17
ENDBRANCH  11  16
ENDBRANCH   4  10
ENDBRANCH   1   3
BRANCH   1  27
ATOM     27  C   UNL A   1      34.809  34.157  28.377  1.00  0.00     0.227 C 
ATOM     28  O   UNL A   1      34.844  34.617  27.229  1.00  0.00    -0.274 OA
ATOM     29  N   UNL A   1      34.194  34.921  29.321  1.00  0.00    -0.356 N 
ATOM     30  H   UNL A   1      33.799  35.753  28.972  1.00  0.00     0.163 HD
BRANCH  29  31
ATOM     31  C   UNL A   1      34.013  34.735  30.746  1.00  0.00     0.116 C 
BRANCH  31  32
ATOM     32  C   UNL A   1      34.769  33.513  31.270  1.00  0.00     0.023 C 
BRANCH  32  33
ATOM     33  C   UNL A   1      35.760  33.803  32.393  1.00  0.00     0.023 C 
BRANCH  33  34
ATOM     34  C   UNL A   1      36.983  32.896  32.427  1.00  0.00     0.116 C 
BRANCH  34  35
ATOM     35  N   UNL A   1      36.676  31.493  32.677  1.00  0.00    -0.352 N 
ATOM     36  C   UNL A   1      37.446  30.394  32.368  1.00  0.00     0.251 C 
ATOM     37  H   UNL A   1      35.815  31.309  33.119  1.00  0.00     0.163 HD
ATOM     38  O   UNL A   1      37.023  29.259  32.562  1.00  0.00    -0.269 OA
BRANCH  36  39
ATOM     39  C   UNL A   1      38.774  30.610  31.759  1.00  0.00     0.039 A 
ATOM     40  C   UNL A   1      38.896  30.583  30.369  1.00  0.00     0.014 A 
ATOM     41  C   UNL A   1      39.869  30.936  32.563  1.00  0.00     0.014 A 
ATOM     42  C   UNL A   1      40.105  30.961  29.780  1.00  0.00     0.010 A 
ATOM     43  C   UNL A   1      41.038  31.399  31.973  1.00  0.00     0.010 A 
ATOM     44  C   UNL A   1      41.171  31.415  30.575  1.00  0.00    -0.014 A 
BRANCH  44  45
ATOM     45  C   UNL A   1      42.432  31.918  29.970  1.00  0.00     0.031 A 
ATOM     46  C   UNL A   1      42.571  33.379  29.631  1.00  0.00     0.074 A 
ATOM     47  C   UNL A   1      43.409  31.051  29.636  1.00  0.00     0.049 A 
ATOM     48  N   UNL A   1      43.556  33.995  29.034  1.00  0.00    -0.248 NA
ATOM     49  C   UNL A   1      41.441  34.258  29.978  1.00  0.00     0.031 C 
ATOM     50  C   UNL A   1      43.357  29.599  29.830  1.00  0.00     0.029 A 
ATOM     51  N   UNL A   1      44.626  31.259  29.034  1.00  0.00    -0.354 N 
ATOM     52  C   UNL A   1      43.150  35.317  28.896  1.00  0.00     0.074 A 
ATOM     53  C   UNL A   1      41.815  35.410  29.440  1.00  0.00     0.031 C 
ATOM     54  C   UNL A   1      44.490  29.050  29.360  1.00  0.00     0.029 A 
ATOM     55  C   UNL A   1      45.333  30.101  28.802  1.00  0.00     0.049 A 
ATOM     56  H   UNL A   1      44.960  32.152  28.792  1.00  0.00     0.167 HD
ATOM     57  C   UNL A   1      43.839  36.367  28.389  1.00  0.00     0.034 A 
ATOM     58  C   UNL A   1      46.522  29.908  28.195  1.00  0.00     0.034 A 
ATOM     59  C   UNL A   1      45.186  36.282  27.900  1.00  0.00     0.049 A 
ATOM     60  C   UNL A   1      47.285  31.103  27.689  1.00  0.00     0.074 A 
ATOM     61  C   UNL A   1      46.006  37.308  27.464  1.00  0.00     0.029 A 
ATOM     62  N   UNL A   1      45.910  35.108  27.773  1.00  0.00    -0.354 N 
ATOM     63  N   UNL A   1      46.953  32.371  27.726  1.00  0.00    -0.248 NA
ATOM     64  C   UNL A   1      48.603  30.847  27.089  1.00  0.00     0.031 C 
ATOM     65  C   UNL A   1      47.216  36.749  27.044  1.00  0.00     0.029 A 
ATOM     66  C   UNL A   1      47.163  35.381  27.254  1.00  0.00     0.049 A 
ATOM     67  H   UNL A   1      45.581  34.213  28.016  1.00  0.00     0.167 HD
ATOM     68  C   UNL A   1      48.035  33.064  27.195  1.00  0.00     0.074 A 
ATOM     69  C   UNL A   1      49.042  32.077  26.863  1.00  0.00     0.031 C 
ATOM     70  C   UNL A   1      48.178  34.396  26.986  1.00  0.00     0.034 A 
BRANCH  57  71
ATOM     71  C   UNL A   1      43.169  37.715  28.386  1.00  0.00     0.023 A 
ATOM     72  C   UNL A   1      42.286  38.054  27.339  1.00  0.00     0.012 A 
ATOM     73  C   UNL A   1      43.345  38.609  29.458  1.00  0.00     0.148 A 
ATOM     74  C   UNL A   1      41.611  39.273  27.347  1.00  0.00     0.002 A 
ATOM     75  C   UNL A   1      42.632  39.802  29.484  1.00  0.00     0.091 A 
ATOM     76  F   UNL A   1      44.203  38.277  30.433  1.00  0.00    -0.205 F 
ATOM     77  C   UNL A   1      41.773  40.140  28.423  1.00  0.00     0.022 A 
BRANCH  75  78
ATOM     78  S   UNL A   1      42.705  40.949  30.863  1.00  0.00     0.127 S 
ATOM     79  O   UNL A   1      43.983  41.618  30.623  1.00  0.00    -0.237 OA
ATOM     80  O   UNL A   1      41.526  41.785  30.628  1.00  0.00    -0.237 OA
ATOM     81  O   UNL A   1      42.646  40.136  32.069  1.00  0.00    -0.744 OA
ENDBRANCH  75  78
ENDBRANCH  57  71
BRANCH  58  82
ATOM     82  C   UNL A   1      47.093  28.535  28.074  1.00  0.00     0.023 A 
ATOM     83  C   UNL A   1      46.705  27.713  26.998  1.00  0.00     0.012 A 
ATOM     84  C   UNL A   1      48.009  28.037  29.021  1.00  0.00     0.148 A 
ATOM     85  C   UNL A   1      47.183  26.406  26.891  1.00  0.00     0.002 A 
ATOM     86  C   UNL A   1      48.526  26.755  28.876  1.00  0.00     0.091 A 
ATOM     87  F   UNL A   1      48.358  28.828  30.045  1.00  0.00    -0.205 F 
ATOM     88  C   UNL A   1      48.098  25.930  27.825  1.00  0.00     0.022 A 
BRANCH  86  89
ATOM     89  S   UNL A   1      49.805  26.108  29.958  1.00  0.00     0.127 S 
ATOM     90  O   UNL A   1      49.083  25.958  31.219  1.00  0.00    -0.237 OA
ATOM     91  O   UNL A   1      50.156  24.851  29.296  1.00  0.00    -0.237 OA
ATOM     92  O   UNL A   1      50.866  27.107  29.947  1.00  0.00    -0.744 OA
ENDBRANCH  86  89
ENDBRANCH  58  82
BRANCH  70  93
ATOM     93  C   UNL A   1      49.485  34.882  26.419  1.00  0.00     0.023 A 
ATOM     94  C   UNL A   1      49.624  35.073  25.031  1.00  0.00     0.012 A 
ATOM     95  C   UNL A   1      50.550  35.227  27.276  1.00  0.00     0.148 A 
ATOM     96  C   UNL A   1      50.815  35.569  24.501  1.00  0.00     0.002 A 
ATOM     97  C   UNL A   1      51.712  35.772  26.746  1.00  0.00     0.091 A 
ATOM     98  F   UNL A   1      50.402  35.023  28.593  1.00  0.00    -0.205 F 
ATOM     99  C   UNL A   1      51.852  35.930  25.358  1.00  0.00     0.022 A 
BRANCH  97 100
ATOM    100  S   UNL A   1      53.058  36.359  27.780  1.00  0.00     0.127 S 
ATOM    101  O   UNL A   1      53.500  35.123  28.425  1.00  0.00    -0.237 OA
ATOM    102  O   UNL A   1      53.993  36.900  26.792  1.00  0.00    -0.237 OA
ATOM    103  O   UNL A   1      52.477  37.354  28.670  1.00  0.00    -0.744 OA
ENDBRANCH  97 100
ENDBRANCH  70  93
ENDBRANCH  44  45
ENDBRANCH  36  39
ENDBRANCH  34  35
ENDBRANCH  33  34
ENDBRANCH  32  33
ENDBRANCH  31  32
ENDBRANCH  29  31
ENDBRANCH   1  27
TORSDOF 23
ENDMDL
