MODEL 1
REMARK VINA RESULT:     -11.7      0.000      0.000
REMARK SMILES C[NH2+][C@]1(C(=O)NCCCCNC(=O)c2ccc(-c3c4nc(c(-c5cccc(S(=O)(=O)[O-])c5F)c5ccc([nH]5)c(-c5cccc(S(=O)(=O)[O-])c5F)c5nc(c(-c6cccc(S(=O)(=O)[O-])c6F)c6ccc3[nH]6)C=C5)C=C4)cc2)CCCCC1(C)C
REMARK SMILES IDX 9 1 8 2 7 3 6 4 4 5 5 6 3 8 77 9 81 10 78 11 80 12 82 13
REMARK SMILES IDX 83 14 79 15 2 16 1 17 10 20 11 21 12 22 13 24 14 25 15 26
REMARK SMILES IDX 76 27 16 28 75 29 17 30 18 31 19 32 69 33 20 34 74 35 68 36
REMARK SMILES IDX 70 37 21 38 73 39 67 40 66 41 22 43 54 44 34 45 53 46 35 47
REMARK SMILES IDX 38 48 52 49 71 50 36 51 37 52 51 54 72 55 39 56 23 57 24 58
REMARK SMILES IDX 32 59 25 60 27 61 33 62 26 63 28 64 29 65 30 66 31 67 55 68
REMARK SMILES IDX 56 69 64 70 57 71 59 72 65 73 58 74 60 75 61 76 62 77 63 78
REMARK SMILES IDX 40 79 41 80 49 81 42 82 44 83 50 84 43 85 45 86 46 87 47 88
REMARK SMILES IDX 48 89
REMARK H PARENT 6 7 2 18 2 19 11 23 70 42 38 53
REMARK Flexibility Score: inf
ROOT
ATOM      1  C   UNL A   1      31.787  29.373  26.626  1.00  0.00     0.023 C 
ENDROOT
BRANCH   1   2
ATOM      2  C   UNL A   1      31.976  27.901  26.982  1.00  0.00     0.023 C 
BRANCH   2   3
ATOM      3  C   UNL A   1      31.087  26.912  26.241  1.00  0.00     0.116 C 
BRANCH   3   4
ATOM      4  N   UNL A   1      31.054  25.592  26.832  1.00  0.00    -0.351 N 
ATOM      5  C   UNL A   1      31.642  24.402  26.536  1.00  0.00     0.281 C 
ATOM      6  O   UNL A   1      31.570  23.596  27.476  1.00  0.00    -0.268 OA
ATOM      7  H   UNL A   1      30.474  25.545  27.627  1.00  0.00     0.163 HD
BRANCH   5   8
ATOM      8  C   UNL A   1      32.220  23.939  25.109  1.00  0.00     0.180 C 
ATOM      9  C   UNL A   1      32.996  25.047  24.352  1.00  0.00     0.080 C 
ATOM     10  C   UNL A   1      33.262  22.712  25.271  1.00  0.00     0.029 C 
ATOM     11  C   UNL A   1      34.206  25.558  25.132  1.00  0.00     0.007 C 
ATOM     12  C   UNL A   1      34.476  23.221  26.106  1.00  0.00     0.013 C 
ATOM     13  C   UNL A   1      32.692  21.449  25.959  1.00  0.00     0.018 C 
ATOM     14  C   UNL A   1      33.811  22.178  23.908  1.00  0.00     0.018 C 
ATOM     15  C   UNL A   1      35.174  24.439  25.494  1.00  0.00     0.001 C 
BRANCH   8  16
ATOM     16  N   UNL A   1      31.075  23.607  24.198  1.00  0.00    -0.336 N 
ATOM     17  C   UNL A   1      30.677  24.635  23.244  1.00  0.00     0.331 C 
ATOM     18  H   UNL A   1      31.334  22.775  23.667  1.00  0.00     0.346 HD
ATOM     19  H   UNL A   1      30.270  23.486  24.813  1.00  0.00     0.346 HD
ENDBRANCH   8  16
ENDBRANCH   5   8
ENDBRANCH   3   4
ENDBRANCH   2   3
ENDBRANCH   1   2
BRANCH   1  20
ATOM     20  C   UNL A   1      33.059  30.197  26.460  1.00  0.00     0.116 C 
BRANCH  20  21
ATOM     21  N   UNL A   1      32.959  31.558  26.971  1.00  0.00    -0.352 N 
ATOM     22  C   UNL A   1      33.845  32.264  27.749  1.00  0.00     0.251 C 
ATOM     23  H   UNL A   1      32.138  32.042  26.724  1.00  0.00     0.163 HD
ATOM     24  O   UNL A   1      33.567  33.403  28.117  1.00  0.00    -0.269 OA
BRANCH  22  25
ATOM     25  C   UNL A   1      35.108  31.630  28.181  1.00  0.00     0.039 A 
ATOM     26  C   UNL A   1      36.271  32.403  28.198  1.00  0.00     0.014 A 
ATOM     27  C   UNL A   1      35.137  30.303  28.617  1.00  0.00     0.014 A 
ATOM     28  C   UNL A   1      37.445  31.870  28.731  1.00  0.00     0.010 A 
ATOM     29  C   UNL A   1      36.286  29.802  29.220  1.00  0.00     0.010 A 
ATOM     30  C   UNL A   1      37.452  30.579  29.287  1.00  0.00    -0.014 A 
BRANCH  30  31
ATOM     31  C   UNL A   1      38.664  30.048  29.962  1.00  0.00     0.031 A 
ATOM     32  C   UNL A   1      39.053  30.536  31.330  1.00  0.00     0.074 A 
ATOM     33  C   UNL A   1      39.454  29.171  29.309  1.00  0.00     0.049 A 
ATOM     34  N   UNL A   1      40.070  30.182  32.071  1.00  0.00    -0.248 NA
ATOM     35  C   UNL A   1      38.208  31.580  31.934  1.00  0.00     0.031 C 
ATOM     36  C   UNL A   1      39.247  28.705  27.936  1.00  0.00     0.029 A 
ATOM     37  N   UNL A   1      40.602  28.531  29.705  1.00  0.00    -0.354 N 
ATOM     38  C   UNL A   1      40.001  30.968  33.214  1.00  0.00     0.074 A 
ATOM     39  C   UNL A   1      38.872  31.857  33.047  1.00  0.00     0.031 C 
ATOM     40  C   UNL A   1      40.228  27.848  27.608  1.00  0.00     0.029 A 
ATOM     41  C   UNL A   1      41.140  27.713  28.738  1.00  0.00     0.049 A 
ATOM     42  H   UNL A   1      41.002  28.647  30.597  1.00  0.00     0.167 HD
ATOM     43  C   UNL A   1      40.778  30.927  34.324  1.00  0.00     0.034 A 
ATOM     44  C   UNL A   1      42.239  26.934  28.765  1.00  0.00     0.034 A 
ATOM     45  C   UNL A   1      41.874  30.013  34.505  1.00  0.00     0.049 A 
ATOM     46  C   UNL A   1      43.038  26.847  30.038  1.00  0.00     0.074 A 
ATOM     47  C   UNL A   1      42.679  29.843  35.617  1.00  0.00     0.029 A 
ATOM     48  N   UNL A   1      42.317  29.113  33.549  1.00  0.00    -0.354 N 
ATOM     49  N   UNL A   1      42.851  27.475  31.174  1.00  0.00    -0.248 NA
ATOM     50  C   UNL A   1      44.169  25.908  30.050  1.00  0.00     0.031 C 
ATOM     51  C   UNL A   1      43.612  28.840  35.332  1.00  0.00     0.029 A 
ATOM     52  C   UNL A   1      43.379  28.377  34.046  1.00  0.00     0.049 A 
ATOM     53  H   UNL A   1      41.933  29.011  32.648  1.00  0.00     0.167 HD
ATOM     54  C   UNL A   1      43.819  26.986  32.043  1.00  0.00     0.074 A 
ATOM     55  C   UNL A   1      44.570  25.985  31.311  1.00  0.00     0.031 C 
ATOM     56  C   UNL A   1      44.079  27.347  33.324  1.00  0.00     0.034 A 
BRANCH  43  57
ATOM     57  C   UNL A   1      40.411  31.841  35.463  1.00  0.00     0.023 A 
ATOM     58  C   UNL A   1      41.191  32.995  35.693  1.00  0.00     0.012 A 
ATOM     59  C   UNL A   1      39.283  31.599  36.270  1.00  0.00     0.148 A 
ATOM     60  C   UNL A   1      40.874  33.874  36.727  1.00  0.00     0.002 A 
ATOM     61  C   UNL A   1      38.948  32.504  37.272  1.00  0.00     0.091 A 
ATOM     62  F   UNL A   1      38.565  30.488  36.051  1.00  0.00    -0.205 F 
ATOM     63  C   UNL A   1      39.749  33.635  37.508  1.00  0.00     0.022 A 
BRANCH  61  64
ATOM     64  S   UNL A   1      37.477  32.329  38.288  1.00  0.00     0.127 S 
ATOM     65  O   UNL A   1      37.884  33.010  39.516  1.00  0.00    -0.237 OA
ATOM     66  O   UNL A   1      36.472  33.043  37.500  1.00  0.00    -0.237 OA
ATOM     67  O   UNL A   1      37.244  30.897  38.415  1.00  0.00    -0.744 OA
ENDBRANCH  61  64
ENDBRANCH  43  57
BRANCH  44  68
ATOM     68  C   UNL A   1      42.595  26.107  27.577  1.00  0.00     0.023 A 
ATOM     69  C   UNL A   1      43.404  26.661  26.564  1.00  0.00     0.012 A 
ATOM     70  C   UNL A   1      42.166  24.772  27.457  1.00  0.00     0.148 A 
ATOM     71  C   UNL A   1      43.745  25.913  25.436  1.00  0.00     0.002 A 
ATOM     72  C   UNL A   1      42.555  24.015  26.356  1.00  0.00     0.091 A 
ATOM     73  F   UNL A   1      41.386  24.264  28.422  1.00  0.00    -0.205 F 
ATOM     74  C   UNL A   1      43.329  24.589  25.337  1.00  0.00     0.022 A 
BRANCH  72  75
ATOM     75  S   UNL A   1      42.178  22.263  26.223  1.00  0.00     0.127 S 
ATOM     76  O   UNL A   1      42.719  21.745  27.475  1.00  0.00    -0.237 OA
ATOM     77  O   UNL A   1      40.717  22.269  26.137  1.00  0.00    -0.237 OA
ATOM     78  O   UNL A   1      42.843  21.818  25.005  1.00  0.00    -0.744 OA
ENDBRANCH  72  75
ENDBRANCH  44  68
BRANCH  56  79
ATOM     79  C   UNL A   1      45.209  26.642  34.026  1.00  0.00     0.023 A 
ATOM     80  C   UNL A   1      46.519  27.152  33.926  1.00  0.00     0.012 A 
ATOM     81  C   UNL A   1      44.967  25.512  34.832  1.00  0.00     0.148 A 
ATOM     82  C   UNL A   1      47.576  26.527  34.584  1.00  0.00     0.002 A 
ATOM     83  C   UNL A   1      46.019  24.922  35.523  1.00  0.00     0.091 A 
ATOM     84  F   UNL A   1      43.718  25.028  34.900  1.00  0.00    -0.205 F 
ATOM     85  C   UNL A   1      47.325  25.419  35.391  1.00  0.00     0.022 A 
BRANCH  83  86
ATOM     86  S   UNL A   1      45.767  23.549  36.655  1.00  0.00     0.127 S 
ATOM     87  O   UNL A   1      45.186  24.221  37.816  1.00  0.00    -0.237 OA
ATOM     88  O   UNL A   1      44.835  22.698  35.915  1.00  0.00    -0.237 OA
ATOM     89  O   UNL A   1      47.084  22.960  36.859  1.00  0.00    -0.744 OA
ENDBRANCH  83  86
ENDBRANCH  56  79
ENDBRANCH  30  31
ENDBRANCH  22  25
ENDBRANCH  20  21
ENDBRANCH   1  20
TORSDOF 15
ENDMDL
MODEL 2
REMARK VINA RESULT:     -11.7      1.573      1.910
REMARK SMILES C[NH2+][C@]1(C(=O)NCCCCNC(=O)c2ccc(-c3c4nc(c(-c5cccc(S(=O)(=O)[O-])c5F)c5ccc([nH]5)c(-c5cccc(S(=O)(=O)[O-])c5F)c5nc(c(-c6cccc(S(=O)(=O)[O-])c6F)c6ccc3[nH]6)C=C5)C=C4)cc2)CCCCC1(C)C
REMARK SMILES IDX 9 1 8 2 7 3 6 4 4 5 5 6 3 8 77 9 81 10 78 11 80 12 82 13
REMARK SMILES IDX 83 14 79 15 2 16 1 17 10 20 11 21 12 22 13 24 14 25 15 26
REMARK SMILES IDX 76 27 16 28 75 29 17 30 18 31 19 32 69 33 20 34 74 35 68 36
REMARK SMILES IDX 70 37 21 38 73 39 67 40 66 41 22 43 54 44 34 45 53 46 35 47
REMARK SMILES IDX 38 48 52 49 71 50 36 51 37 52 51 54 72 55 39 56 23 57 24 58
REMARK SMILES IDX 32 59 25 60 27 61 33 62 26 63 28 64 29 65 30 66 31 67 55 68
REMARK SMILES IDX 56 69 64 70 57 71 59 72 65 73 58 74 60 75 61 76 62 77 63 78
REMARK SMILES IDX 40 79 41 80 49 81 42 82 44 83 50 84 43 85 45 86 46 87 47 88
REMARK SMILES IDX 48 89
REMARK H PARENT 6 7 2 18 2 19 11 23 70 42 38 53
REMARK Flexibility Score: inf
ROOT
ATOM      1  C   UNL A   1      32.308  29.480  24.882  1.00  0.00     0.023 C 
ENDROOT
BRANCH   1   2
ATOM      2  C   UNL A   1      30.907  29.134  24.387  1.00  0.00     0.023 C 
BRANCH   2   3
ATOM      3  C   UNL A   1      30.812  27.990  23.388  1.00  0.00     0.116 C 
BRANCH   3   4
ATOM      4  N   UNL A   1      30.426  26.725  23.974  1.00  0.00    -0.351 N 
ATOM      5  C   UNL A   1      31.056  25.536  24.171  1.00  0.00     0.281 C 
ATOM      6  O   UNL A   1      30.451  24.811  24.975  1.00  0.00    -0.268 OA
ATOM      7  H   UNL A   1      29.498  26.726  24.304  1.00  0.00     0.163 HD
BRANCH   5   8
ATOM      8  C   UNL A   1      32.329  24.974  23.367  1.00  0.00     0.180 C 
ATOM      9  C   UNL A   1      33.542  25.939  23.351  1.00  0.00     0.080 C 
ATOM     10  C   UNL A   1      32.876  23.600  24.026  1.00  0.00     0.029 C 
ATOM     11  C   UNL A   1      34.059  26.262  24.751  1.00  0.00     0.007 C 
ATOM     12  C   UNL A   1      33.361  23.922  25.472  1.00  0.00     0.013 C 
ATOM     13  C   UNL A   1      31.845  22.449  24.101  1.00  0.00     0.018 C 
ATOM     14  C   UNL A   1      34.079  22.973  23.248  1.00  0.00     0.018 C 
ATOM     15  C   UNL A   1      34.437  25.009  25.530  1.00  0.00     0.001 C 
BRANCH   8  16
ATOM     16  N   UNL A   1      31.968  24.815  21.920  1.00  0.00    -0.336 N 
ATOM     17  C   UNL A   1      32.629  25.711  20.978  1.00  0.00     0.331 C 
ATOM     18  H   UNL A   1      32.195  23.858  21.648  1.00  0.00     0.346 HD
ATOM     19  H   UNL A   1      30.977  25.051  21.864  1.00  0.00     0.346 HD
ENDBRANCH   8  16
ENDBRANCH   5   8
ENDBRANCH   3   4
ENDBRANCH   2   3
ENDBRANCH   1   2
BRANCH   1  20
ATOM     20  C   UNL A   1      32.440  29.803  26.366  1.00  0.00     0.116 C 
BRANCH  20  21
ATOM     21  N   UNL A   1      32.310  31.219  26.684  1.00  0.00    -0.352 N 
ATOM     22  C   UNL A   1      33.192  32.051  27.331  1.00  0.00     0.251 C 
ATOM     23  H   UNL A   1      31.469  31.640  26.394  1.00  0.00     0.163 HD
ATOM     24  O   UNL A   1      32.888  33.222  27.543  1.00  0.00    -0.269 OA
BRANCH  22  25
ATOM     25  C   UNL A   1      34.483  31.519  27.813  1.00  0.00     0.039 A 
ATOM     26  C   UNL A   1      35.553  32.404  27.967  1.00  0.00     0.014 A 
ATOM     27  C   UNL A   1      34.625  30.174  28.160  1.00  0.00     0.014 A 
ATOM     28  C   UNL A   1      36.740  31.955  28.550  1.00  0.00     0.010 A 
ATOM     29  C   UNL A   1      35.778  29.749  28.813  1.00  0.00     0.010 A 
ATOM     30  C   UNL A   1      36.847  30.634  29.018  1.00  0.00    -0.014 A 
BRANCH  30  31
ATOM     31  C   UNL A   1      38.060  30.180  29.745  1.00  0.00     0.031 A 
ATOM     32  C   UNL A   1      38.349  30.676  31.135  1.00  0.00     0.074 A 
ATOM     33  C   UNL A   1      38.941  29.371  29.121  1.00  0.00     0.049 A 
ATOM     34  N   UNL A   1      39.353  30.384  31.921  1.00  0.00    -0.248 NA
ATOM     35  C   UNL A   1      37.404  31.649  31.709  1.00  0.00     0.031 C 
ATOM     36  C   UNL A   1      38.833  28.910  27.735  1.00  0.00     0.029 A 
ATOM     37  N   UNL A   1      40.112  28.809  29.565  1.00  0.00    -0.354 N 
ATOM     38  C   UNL A   1      39.175  31.149  33.067  1.00  0.00     0.074 A 
ATOM     39  C   UNL A   1      37.994  31.957  32.855  1.00  0.00     0.031 C 
ATOM     40  C   UNL A   1      39.887  28.130  27.446  1.00  0.00     0.029 A 
ATOM     41  C   UNL A   1      40.752  28.044  28.617  1.00  0.00     0.049 A 
ATOM     42  H   UNL A   1      40.460  28.940  30.476  1.00  0.00     0.167 HD
ATOM     43  C   UNL A   1      39.899  31.147  34.212  1.00  0.00     0.034 A 
ATOM     44  C   UNL A   1      41.901  27.344  28.688  1.00  0.00     0.034 A 
ATOM     45  C   UNL A   1      41.048  30.311  34.436  1.00  0.00     0.049 A 
ATOM     46  C   UNL A   1      42.643  27.296  29.997  1.00  0.00     0.074 A 
ATOM     47  C   UNL A   1      41.809  30.182  35.583  1.00  0.00     0.029 A 
ATOM     48  N   UNL A   1      41.598  29.457  33.492  1.00  0.00    -0.354 N 
ATOM     49  N   UNL A   1      42.359  27.894  31.129  1.00  0.00    -0.248 NA
ATOM     50  C   UNL A   1      43.836  26.440  30.053  1.00  0.00     0.031 C 
ATOM     51  C   UNL A   1      42.824  29.252  35.333  1.00  0.00     0.029 A 
ATOM     52  C   UNL A   1      42.686  28.792  34.033  1.00  0.00     0.049 A 
ATOM     53  H   UNL A   1      41.265  29.341  32.574  1.00  0.00     0.167 HD
ATOM     54  C   UNL A   1      43.318  27.463  32.039  1.00  0.00     0.074 A 
ATOM     55  C   UNL A   1      44.171  26.528  31.333  1.00  0.00     0.031 C 
ATOM     56  C   UNL A   1      43.491  27.824  33.334  1.00  0.00     0.034 A 
BRANCH  43  57
ATOM     57  C   UNL A   1      39.414  32.017  35.342  1.00  0.00     0.023 A 
ATOM     58  C   UNL A   1      38.517  31.476  36.286  1.00  0.00     0.012 A 
ATOM     59  C   UNL A   1      39.874  33.338  35.504  1.00  0.00     0.148 A 
ATOM     60  C   UNL A   1      38.058  32.244  37.354  1.00  0.00     0.002 A 
ATOM     61  C   UNL A   1      39.445  34.085  36.597  1.00  0.00     0.091 A 
ATOM     62  F   UNL A   1      40.710  33.843  34.586  1.00  0.00    -0.205 F 
ATOM     63  C   UNL A   1      38.529  33.543  37.515  1.00  0.00     0.022 A 
BRANCH  61  64
ATOM     64  S   UNL A   1      40.048  35.742  36.939  1.00  0.00     0.127 S 
ATOM     65  O   UNL A   1      39.361  36.053  38.192  1.00  0.00    -0.237 OA
ATOM     66  O   UNL A   1      41.489  35.524  37.070  1.00  0.00    -0.237 OA
ATOM     67  O   UNL A   1      39.658  36.555  35.795  1.00  0.00    -0.744 OA
ENDBRANCH  61  64
ENDBRANCH  43  57
BRANCH  44  68
ATOM     68  C   UNL A   1      42.371  26.561  27.511  1.00  0.00     0.023 A 
ATOM     69  C   UNL A   1      43.173  27.188  26.536  1.00  0.00     0.012 A 
ATOM     70  C   UNL A   1      42.055  25.197  27.362  1.00  0.00     0.148 A 
ATOM     71  C   UNL A   1      43.619  26.482  25.418  1.00  0.00     0.002 A 
ATOM     72  C   UNL A   1      42.548  24.486  26.273  1.00  0.00     0.091 A 
ATOM     73  F   UNL A   1      41.279  24.619  28.290  1.00  0.00    -0.205 F 
ATOM     74  C   UNL A   1      43.316  25.130  25.292  1.00  0.00     0.022 A 
BRANCH  72  75
ATOM     75  S   UNL A   1      42.318  22.711  26.112  1.00  0.00     0.127 S 
ATOM     76  O   UNL A   1      40.866  22.589  26.183  1.00  0.00    -0.237 OA
ATOM     77  O   UNL A   1      42.897  22.445  24.794  1.00  0.00    -0.237 OA
ATOM     78  O   UNL A   1      43.064  22.124  27.217  1.00  0.00    -0.744 OA
ENDBRANCH  72  75
ENDBRANCH  44  68
BRANCH  56  79
ATOM     79  C   UNL A   1      44.634  27.191  34.083  1.00  0.00     0.023 A 
ATOM     80  C   UNL A   1      45.901  27.808  34.071  1.00  0.00     0.012 A 
ATOM     81  C   UNL A   1      44.440  26.022  34.844  1.00  0.00     0.148 A 
ATOM     82  C   UNL A   1      46.967  27.249  34.773  1.00  0.00     0.002 A 
ATOM     83  C   UNL A   1      45.497  25.497  35.579  1.00  0.00     0.091 A 
ATOM     84  F   UNL A   1      43.234  25.437  34.827  1.00  0.00    -0.205 F 
ATOM     85  C   UNL A   1      46.763  26.102  35.536  1.00  0.00     0.022 A 
BRANCH  83  86
ATOM     86  S   UNL A   1      45.296  24.075  36.659  1.00  0.00     0.127 S 
ATOM     87  O   UNL A   1      46.680  23.778  37.023  1.00  0.00    -0.237 OA
ATOM     88  O   UNL A   1      44.482  24.618  37.747  1.00  0.00    -0.237 OA
ATOM     89  O   UNL A   1      44.623  23.062  35.856  1.00  0.00    -0.744 OA
ENDBRANCH  83  86
ENDBRANCH  56  79
ENDBRANCH  30  31
ENDBRANCH  22  25
ENDBRANCH  20  21
ENDBRANCH   1  20
TORSDOF 15
ENDMDL
MODEL 3
REMARK VINA RESULT:     -11.6      5.144     10.357
REMARK SMILES C[NH2+][C@]1(C(=O)NCCCCNC(=O)c2ccc(-c3c4nc(c(-c5cccc(S(=O)(=O)[O-])c5F)c5ccc([nH]5)c(-c5cccc(S(=O)(=O)[O-])c5F)c5nc(c(-c6cccc(S(=O)(=O)[O-])c6F)c6ccc3[nH]6)C=C5)C=C4)cc2)CCCCC1(C)C
REMARK SMILES IDX 9 1 8 2 7 3 6 4 4 5 5 6 3 8 77 9 81 10 78 11 80 12 82 13
REMARK SMILES IDX 83 14 79 15 2 16 1 17 10 20 11 21 12 22 13 24 14 25 15 26
REMARK SMILES IDX 76 27 16 28 75 29 17 30 18 31 19 32 69 33 20 34 74 35 68 36
REMARK SMILES IDX 70 37 21 38 73 39 67 40 66 41 22 43 54 44 34 45 53 46 35 47
REMARK SMILES IDX 38 48 52 49 71 50 36 51 37 52 51 54 72 55 39 56 23 57 24 58
REMARK SMILES IDX 32 59 25 60 27 61 33 62 26 63 28 64 29 65 30 66 31 67 55 68
REMARK SMILES IDX 56 69 64 70 57 71 59 72 65 73 58 74 60 75 61 76 62 77 63 78
REMARK SMILES IDX 40 79 41 80 49 81 42 82 44 83 50 84 43 85 45 86 46 87 47 88
REMARK SMILES IDX 48 89
REMARK H PARENT 6 7 2 18 2 19 11 23 70 42 38 53
REMARK Flexibility Score: inf
ROOT
ATOM      1  C   UNL A   1      35.905  21.120  25.168  1.00  0.00     0.023 C 
ENDROOT
BRANCH   1   2
ATOM      2  C   UNL A   1      34.837  21.476  26.198  1.00  0.00     0.023 C 
BRANCH   2   3
ATOM      3  C   UNL A   1      33.492  21.921  25.643  1.00  0.00     0.116 C 
BRANCH   3   4
ATOM      4  N   UNL A   1      32.779  22.847  26.495  1.00  0.00    -0.351 N 
ATOM      5  C   UNL A   1      32.047  23.972  26.276  1.00  0.00     0.281 C 
ATOM      6  O   UNL A   1      31.368  24.292  27.264  1.00  0.00    -0.268 OA
ATOM      7  H   UNL A   1      32.837  22.609  27.449  1.00  0.00     0.163 HD
BRANCH   5   8
ATOM      8  C   UNL A   1      32.127  24.941  24.996  1.00  0.00     0.180 C 
ATOM      9  C   UNL A   1      30.960  25.958  24.899  1.00  0.00     0.080 C 
ATOM     10  C   UNL A   1      33.478  25.832  25.021  1.00  0.00     0.029 C 
ATOM     11  C   UNL A   1      30.887  26.889  26.107  1.00  0.00     0.007 C 
ATOM     12  C   UNL A   1      33.423  26.750  26.280  1.00  0.00     0.013 C 
ATOM     13  C   UNL A   1      34.798  25.026  25.062  1.00  0.00     0.018 C 
ATOM     14  C   UNL A   1      33.641  26.751  23.767  1.00  0.00     0.018 C 
ATOM     15  C   UNL A   1      32.187  27.652  26.328  1.00  0.00     0.001 C 
BRANCH   8  16
ATOM     16  N   UNL A   1      32.001  24.119  23.747  1.00  0.00    -0.336 N 
ATOM     17  C   UNL A   1      30.651  23.748  23.341  1.00  0.00     0.331 C 
ATOM     18  H   UNL A   1      32.419  24.651  22.984  1.00  0.00     0.346 HD
ATOM     19  H   UNL A   1      32.469  23.238  23.959  1.00  0.00     0.346 HD
ENDBRANCH   8  16
ENDBRANCH   5   8
ENDBRANCH   3   4
ENDBRANCH   2   3
ENDBRANCH   1   2
BRANCH   1  20
ATOM     20  C   UNL A   1      37.272  21.767  25.361  1.00  0.00     0.116 C 
BRANCH  20  21
ATOM     21  N   UNL A   1      38.357  20.818  25.574  1.00  0.00    -0.352 N 
ATOM     22  C   UNL A   1      39.579  21.012  26.174  1.00  0.00     0.251 C 
ATOM     23  H   UNL A   1      38.193  19.908  25.239  1.00  0.00     0.163 HD
ATOM     24  O   UNL A   1      40.389  20.090  26.228  1.00  0.00    -0.269 OA
BRANCH  22  25
ATOM     25  C   UNL A   1      39.931  22.344  26.708  1.00  0.00     0.039 A 
ATOM     26  C   UNL A   1      40.868  22.423  27.740  1.00  0.00     0.014 A 
ATOM     27  C   UNL A   1      39.384  23.508  26.162  1.00  0.00     0.014 A 
ATOM     28  C   UNL A   1      41.319  23.673  28.167  1.00  0.00     0.010 A 
ATOM     29  C   UNL A   1      39.893  24.748  26.532  1.00  0.00     0.010 A 
ATOM     30  C   UNL A   1      40.868  24.846  27.536  1.00  0.00    -0.014 A 
BRANCH  30  31
ATOM     31  C   UNL A   1      41.430  26.171  27.902  1.00  0.00     0.031 A 
ATOM     32  C   UNL A   1      42.862  26.507  27.589  1.00  0.00     0.074 A 
ATOM     33  C   UNL A   1      40.665  27.049  28.582  1.00  0.00     0.049 A 
ATOM     34  N   UNL A   1      43.519  27.613  27.829  1.00  0.00    -0.248 NA
ATOM     35  C   UNL A   1      43.673  25.457  26.951  1.00  0.00     0.031 C 
ATOM     36  C   UNL A   1      39.297  26.800  29.045  1.00  0.00     0.029 A 
ATOM     37  N   UNL A   1      40.934  28.321  29.022  1.00  0.00    -0.354 N 
ATOM     38  C   UNL A   1      44.818  27.386  27.392  1.00  0.00     0.074 A 
ATOM     39  C   UNL A   1      44.872  26.020  26.920  1.00  0.00     0.031 C 
ATOM     40  C   UNL A   1      38.845  27.885  29.693  1.00  0.00     0.029 A 
ATOM     41  C   UNL A   1      39.891  28.902  29.705  1.00  0.00     0.049 A 
ATOM     42  H   UNL A   1      41.793  28.775  28.862  1.00  0.00     0.167 HD
ATOM     43  C   UNL A   1      45.862  28.249  27.344  1.00  0.00     0.034 A 
ATOM     44  C   UNL A   1      39.786  30.121  30.269  1.00  0.00     0.034 A 
ATOM     45  C   UNL A   1      45.794  29.619  27.775  1.00  0.00     0.049 A 
ATOM     46  C   UNL A   1      40.933  31.087  30.132  1.00  0.00     0.074 A 
ATOM     47  C   UNL A   1      46.772  30.594  27.705  1.00  0.00     0.029 A 
ATOM     48  N   UNL A   1      44.681  30.210  28.354  1.00  0.00    -0.354 N 
ATOM     49  N   UNL A   1      42.098  30.908  29.557  1.00  0.00    -0.248 NA
ATOM     50  C   UNL A   1      40.733  32.438  30.676  1.00  0.00     0.031 C 
ATOM     51  C   UNL A   1      46.252  31.775  28.245  1.00  0.00     0.029 A 
ATOM     52  C   UNL A   1      44.944  31.539  28.639  1.00  0.00     0.049 A 
ATOM     53  H   UNL A   1      43.829  29.752  28.535  1.00  0.00     0.167 HD
ATOM     54  C   UNL A   1      42.757  32.129  29.643  1.00  0.00     0.074 A 
ATOM     55  C   UNL A   1      41.847  33.048  30.296  1.00  0.00     0.031 C 
ATOM     56  C   UNL A   1      44.009  32.455  29.239  1.00  0.00     0.034 A 
BRANCH  43  57
ATOM     57  C   UNL A   1      47.143  27.754  26.725  1.00  0.00     0.023 A 
ATOM     58  C   UNL A   1      48.130  27.186  27.557  1.00  0.00     0.012 A 
ATOM     59  C   UNL A   1      47.356  27.801  25.334  1.00  0.00     0.148 A 
ATOM     60  C   UNL A   1      49.322  26.703  27.021  1.00  0.00     0.002 A 
ATOM     61  C   UNL A   1      48.530  27.278  24.801  1.00  0.00     0.091 A 
ATOM     62  F   UNL A   1      46.417  28.362  24.560  1.00  0.00    -0.205 F 
ATOM     63  C   UNL A   1      49.518  26.739  25.644  1.00  0.00     0.022 A 
BRANCH  61  64
ATOM     64  S   UNL A   1      48.849  27.207  23.035  1.00  0.00     0.127 S 
ATOM     65  O   UNL A   1      50.310  27.271  22.997  1.00  0.00    -0.237 OA
ATOM     66  O   UNL A   1      48.286  25.906  22.672  1.00  0.00    -0.237 OA
ATOM     67  O   UNL A   1      48.158  28.350  22.456  1.00  0.00    -0.744 OA
ENDBRANCH  61  64
ENDBRANCH  43  57
BRANCH  44  68
ATOM     68  C   UNL A   1      38.517  30.528  30.936  1.00  0.00     0.023 A 
ATOM     69  C   UNL A   1      38.327  30.235  32.302  1.00  0.00     0.012 A 
ATOM     70  C   UNL A   1      37.511  31.224  30.239  1.00  0.00     0.148 A 
ATOM     71  C   UNL A   1      37.144  30.595  32.950  1.00  0.00     0.002 A 
ATOM     72  C   UNL A   1      36.359  31.628  30.905  1.00  0.00     0.091 A 
ATOM     73  F   UNL A   1      37.701  31.482  28.937  1.00  0.00    -0.205 F 
ATOM     74  C   UNL A   1      36.166  31.299  32.255  1.00  0.00     0.022 A 
BRANCH  72  75
ATOM     75  S   UNL A   1      35.115  32.658  30.118  1.00  0.00     0.127 S 
ATOM     76  O   UNL A   1      34.179  32.889  31.214  1.00  0.00    -0.237 OA
ATOM     77  O   UNL A   1      35.895  33.829  29.715  1.00  0.00    -0.237 OA
ATOM     78  O   UNL A   1      34.611  31.868  29.002  1.00  0.00    -0.744 OA
ENDBRANCH  72  75
ENDBRANCH  44  68
BRANCH  56  79
ATOM     79  C   UNL A   1      44.466  33.871  29.471  1.00  0.00     0.023 A 
ATOM     80  C   UNL A   1      45.030  34.227  30.712  1.00  0.00     0.012 A 
ATOM     81  C   UNL A   1      44.391  34.832  28.443  1.00  0.00     0.148 A 
ATOM     82  C   UNL A   1      45.476  35.527  30.941  1.00  0.00     0.002 A 
ATOM     83  C   UNL A   1      44.881  36.114  28.664  1.00  0.00     0.091 A 
ATOM     84  F   UNL A   1      43.832  34.481  27.276  1.00  0.00    -0.205 F 
ATOM     85  C   UNL A   1      45.412  36.467  29.915  1.00  0.00     0.022 A 
BRANCH  83  86
ATOM     86  S   UNL A   1      44.921  37.357  27.367  1.00  0.00     0.127 S 
ATOM     87  O   UNL A   1      45.835  36.752  26.400  1.00  0.00    -0.237 OA
ATOM     88  O   UNL A   1      43.524  37.407  26.936  1.00  0.00    -0.237 OA
ATOM     89  O   UNL A   1      45.395  38.578  28.006  1.00  0.00    -0.744 OA
ENDBRANCH  83  86
ENDBRANCH  56  79
ENDBRANCH  30  31
ENDBRANCH  22  25
ENDBRANCH  20  21
ENDBRANCH   1  20
TORSDOF 15
ENDMDL
