MODEL 1
REMARK VINA RESULT:     -12.9      0.000      0.000
REMARK SMILES Cc1c(Cc2ccccc2)c(=O)oc2c(C)c(O[C@H](C)C(=O)NCCCCNC(=O)c3ccc(-c4c5nc(c(-c6cccc(S(=O)(=O)[O-])c6F)c6ccc([nH]6)c(-c6cccc(S(=O)(=O)[O-])c6F)c6nc(c(-c7cccc(S(=O)(=O)[O-])c7F)c7ccc4[nH]7)C=C6)C=C5)cc3)ccc12
REMARK SMILES IDX 25 1 24 2 23 3 21 4 22 5 19 7 20 8 18 9 17 10 1 11 2 12 3 13
REMARK SMILES IDX 96 14 11 15 14 16 95 17 12 18 13 19 15 20 94 21 16 22 4 23
REMARK SMILES IDX 5 24 6 25 10 26 7 27 9 28 8 29 26 30 27 31 28 32 29 33 30 35
REMARK SMILES IDX 31 36 32 37 93 38 33 39 92 40 34 41 35 42 36 43 86 44 37 45
REMARK SMILES IDX 91 46 85 47 87 48 38 49 90 50 84 51 83 52 39 54 71 55 51 56
REMARK SMILES IDX 70 57 52 58 55 59 69 60 88 61 53 62 54 63 68 65 89 66 56 67
REMARK SMILES IDX 40 68 41 69 49 70 42 71 44 72 50 73 43 74 45 75 46 76 47 77
REMARK SMILES IDX 48 78 72 79 73 80 81 81 74 82 76 83 82 84 75 85 77 86 78 87
REMARK SMILES IDX 79 88 80 89 57 90 58 91 66 92 59 93 61 94 67 95 60 96 62 97
REMARK SMILES IDX 63 98 64 99 65 100
REMARK H PARENT 23 6 28 34 87 53 55 64
REMARK Flexibility Score: inf
ROOT
ATOM      1  C   UNL A   1      37.269  21.504  24.667  1.00  0.00     0.023 C 
ENDROOT
BRANCH   1   2
ATOM      2  C   UNL A   1      35.745  21.393  24.632  1.00  0.00     0.116 C 
BRANCH   2   3
ATOM      3  N   UNL A   1      35.093  21.656  25.895  1.00  0.00    -0.353 N 
ATOM      4  C   UNL A   1      33.909  21.188  26.380  1.00  0.00     0.260 C 
ATOM      5  O   UNL A   1      33.690  21.358  27.584  1.00  0.00    -0.271 OA
ATOM      6  H   UNL A   1      35.578  22.266  26.496  1.00  0.00     0.163 HD
BRANCH   4   7
ATOM      7  C   UNL A   1      32.833  20.540  25.472  1.00  0.00     0.258 C 
ATOM      8  C   UNL A   1      32.989  19.024  25.424  1.00  0.00     0.064 C 
BRANCH   7   9
ATOM      9  O   UNL A   1      31.514  21.085  25.410  1.00  0.00    -0.480 OA
BRANCH   9  10
ATOM     10  C   UNL A   1      31.266  22.400  25.153  1.00  0.00     0.127 A 
ATOM     11  C   UNL A   1      31.455  27.456  26.185  1.00  0.00     0.046 C 
ATOM     12  C   UNL A   1      31.249  26.695  24.903  1.00  0.00    -0.029 A 
ATOM     13  C   UNL A   1      31.251  27.253  23.672  1.00  0.00     0.046 A 
ATOM     14  C   UNL A   1      31.126  25.230  25.011  1.00  0.00     0.021 A 
ATOM     15  C   UNL A   1      31.322  26.375  22.470  1.00  0.00     0.340 A 
ATOM     16  C   UNL A   1      31.552  24.465  23.934  1.00  0.00     0.145 A 
ATOM     17  C   UNL A   1      30.697  24.553  26.156  1.00  0.00     0.016 A 
ATOM     18  O   UNL A   1      31.134  26.797  21.334  1.00  0.00    -0.246 OA
ATOM     19  O   UNL A   1      31.789  25.085  22.691  1.00  0.00    -0.422 OA
ATOM     20  C   UNL A   1      31.760  23.075  24.027  1.00  0.00     0.035 A 
ATOM     21  C   UNL A   1      30.735  23.149  26.211  1.00  0.00     0.047 A 
ATOM     22  C   UNL A   1      32.594  22.416  22.969  1.00  0.00     0.052 C 
BRANCH  13  23
ATOM     23  C   UNL A   1      31.278  28.736  23.367  1.00  0.00     0.079 C 
BRANCH  23  24
ATOM     24  C   UNL A   1      29.904  29.379  23.389  1.00  0.00    -0.043 A 
ATOM     25  C   UNL A   1      29.748  30.724  23.753  1.00  0.00     0.004 A 
ATOM     26  C   UNL A   1      28.764  28.650  23.018  1.00  0.00     0.004 A 
ATOM     27  C   UNL A   1      28.485  31.321  23.738  1.00  0.00     0.000 A 
ATOM     28  C   UNL A   1      27.506  29.252  22.985  1.00  0.00     0.000 A 
ATOM     29  C   UNL A   1      27.366  30.588  23.347  1.00  0.00     0.000 A 
ENDBRANCH  23  24
ENDBRANCH  13  23
ENDBRANCH   9  10
ENDBRANCH   7   9
ENDBRANCH   4   7
ENDBRANCH   2   3
ENDBRANCH   1   2
BRANCH   1  30
ATOM     30  C   UNL A   1      38.031  20.219  24.977  1.00  0.00     0.023 C 
BRANCH  30  31
ATOM     31  C   UNL A   1      39.086  20.328  26.067  1.00  0.00     0.116 C 
BRANCH  31  32
ATOM     32  N   UNL A   1      40.074  19.262  26.013  1.00  0.00    -0.352 N 
ATOM     33  C   UNL A   1      41.444  19.360  26.112  1.00  0.00     0.251 C 
ATOM     34  H   UNL A   1      39.717  18.352  25.889  1.00  0.00     0.163 HD
ATOM     35  O   UNL A   1      42.155  18.382  25.954  1.00  0.00    -0.269 OA
BRANCH  33  36
ATOM     36  C   UNL A   1      42.035  20.687  26.381  1.00  0.00     0.039 A 
ATOM     37  C   UNL A   1      42.270  21.548  25.308  1.00  0.00     0.014 A 
ATOM     38  C   UNL A   1      42.286  21.091  27.696  1.00  0.00     0.014 A 
ATOM     39  C   UNL A   1      42.702  22.851  25.560  1.00  0.00     0.010 A 
ATOM     40  C   UNL A   1      42.663  22.405  27.946  1.00  0.00     0.010 A 
ATOM     41  C   UNL A   1      42.876  23.294  26.881  1.00  0.00    -0.014 A 
BRANCH  41  42
ATOM     42  C   UNL A   1      43.304  24.681  27.173  1.00  0.00     0.031 A 
ATOM     43  C   UNL A   1      42.327  25.644  27.782  1.00  0.00     0.074 A 
ATOM     44  C   UNL A   1      44.540  25.088  26.829  1.00  0.00     0.049 A 
ATOM     45  N   UNL A   1      42.493  26.907  28.073  1.00  0.00    -0.248 NA
ATOM     46  C   UNL A   1      40.981  25.127  28.086  1.00  0.00     0.031 C 
ATOM     47  C   UNL A   1      45.555  24.259  26.174  1.00  0.00     0.029 A 
ATOM     48  N   UNL A   1      45.147  26.311  26.965  1.00  0.00    -0.354 N 
ATOM     49  C   UNL A   1      41.271  27.341  28.568  1.00  0.00     0.074 A 
ATOM     50  C   UNL A   1      40.363  26.218  28.515  1.00  0.00     0.031 C 
ATOM     51  C   UNL A   1      46.660  24.997  25.972  1.00  0.00     0.029 A 
ATOM     52  C   UNL A   1      46.429  26.350  26.468  1.00  0.00     0.049 A 
ATOM     53  H   UNL A   1      44.707  27.087  27.381  1.00  0.00     0.167 HD
ATOM     54  C   UNL A   1      40.946  28.558  29.060  1.00  0.00     0.034 A 
ATOM     55  C   UNL A   1      47.317  27.363  26.423  1.00  0.00     0.034 A 
ATOM     56  C   UNL A   1      41.865  29.655  29.167  1.00  0.00     0.049 A 
ATOM     57  C   UNL A   1      46.942  28.697  27.007  1.00  0.00     0.074 A 
ATOM     58  C   UNL A   1      41.650  30.901  29.727  1.00  0.00     0.029 A 
ATOM     59  N   UNL A   1      43.173  29.637  28.712  1.00  0.00    -0.354 N 
ATOM     60  N   UNL A   1      45.823  29.051  27.591  1.00  0.00    -0.248 NA
ATOM     61  C   UNL A   1      47.956  29.760  26.955  1.00  0.00     0.031 C 
ATOM     62  C   UNL A   1      42.831  31.639  29.609  1.00  0.00     0.029 A 
ATOM     63  C   UNL A   1      43.780  30.850  28.979  1.00  0.00     0.049 A 
ATOM     64  H   UNL A   1      43.606  28.873  28.266  1.00  0.00     0.167 HD
ATOM     65  C   UNL A   1      46.005  30.368  27.998  1.00  0.00     0.074 A 
ATOM     66  C   UNL A   1      47.347  30.746  27.603  1.00  0.00     0.031 C 
ATOM     67  C   UNL A   1      45.133  31.191  28.628  1.00  0.00     0.034 A 
BRANCH  54  68
ATOM     68  C   UNL A   1      39.557  28.744  29.598  1.00  0.00     0.023 A 
ATOM     69  C   UNL A   1      39.285  28.359  30.926  1.00  0.00     0.012 A 
ATOM     70  C   UNL A   1      38.552  29.356  28.829  1.00  0.00     0.148 A 
ATOM     71  C   UNL A   1      38.025  28.569  31.479  1.00  0.00     0.002 A 
ATOM     72  C   UNL A   1      37.304  29.588  29.397  1.00  0.00     0.091 A 
ATOM     73  F   UNL A   1      38.833  29.695  27.563  1.00  0.00    -0.205 F 
ATOM     74  C   UNL A   1      37.038  29.192  30.719  1.00  0.00     0.022 A 
BRANCH  72  75
ATOM     75  S   UNL A   1      35.977  30.424  28.523  1.00  0.00     0.127 S 
ATOM     76  O   UNL A   1      35.189  30.963  29.631  1.00  0.00    -0.237 OA
ATOM     77  O   UNL A   1      36.706  31.427  27.747  1.00  0.00    -0.237 OA
ATOM     78  O   UNL A   1      35.309  29.402  27.729  1.00  0.00    -0.744 OA
ENDBRANCH  72  75
ENDBRANCH  54  68
BRANCH  55  79
ATOM     79  C   UNL A   1      48.681  27.118  25.881  1.00  0.00     0.023 A 
ATOM     80  C   UNL A   1      49.643  26.509  26.709  1.00  0.00     0.012 A 
ATOM     81  C   UNL A   1      49.010  27.424  24.546  1.00  0.00     0.148 A 
ATOM     82  C   UNL A   1      50.917  26.219  26.221  1.00  0.00     0.002 A 
ATOM     83  C   UNL A   1      50.271  27.099  24.057  1.00  0.00     0.091 A 
ATOM     84  F   UNL A   1      48.075  28.004  23.781  1.00  0.00    -0.205 F 
ATOM     85  C   UNL A   1      51.228  26.506  24.895  1.00  0.00     0.022 A 
BRANCH  83  86
ATOM     86  S   UNL A   1      50.738  27.340  22.339  1.00  0.00     0.127 S 
ATOM     87  O   UNL A   1      50.642  28.792  22.205  1.00  0.00    -0.237 OA
ATOM     88  O   UNL A   1      52.101  26.808  22.324  1.00  0.00    -0.237 OA
ATOM     89  O   UNL A   1      49.780  26.576  21.555  1.00  0.00    -0.744 OA
ENDBRANCH  83  86
ENDBRANCH  55  79
BRANCH  67  90
ATOM     90  C   UNL A   1      45.582  32.588  28.950  1.00  0.00     0.023 A 
ATOM     91  C   UNL A   1      46.327  32.815  30.122  1.00  0.00     0.012 A 
ATOM     92  C   UNL A   1      45.397  33.635  28.026  1.00  0.00     0.148 A 
ATOM     93  C   UNL A   1      46.883  34.068  30.372  1.00  0.00     0.002 A 
ATOM     94  C   UNL A   1      45.981  34.872  28.265  1.00  0.00     0.091 A 
ATOM     95  F   UNL A   1      44.676  33.391  26.922  1.00  0.00    -0.205 F 
ATOM     96  C   UNL A   1      46.722  35.091  29.439  1.00  0.00     0.022 A 
BRANCH  94  97
ATOM     97  S   UNL A   1      45.900  36.226  27.088  1.00  0.00     0.127 S 
ATOM     98  O   UNL A   1      46.355  35.578  25.859  1.00  0.00    -0.237 OA
ATOM     99  O   UNL A   1      44.478  36.568  27.108  1.00  0.00    -0.237 OA
ATOM    100  O   UNL A   1      46.783  37.264  27.604  1.00  0.00    -0.744 OA
ENDBRANCH  94  97
ENDBRANCH  67  90
ENDBRANCH  41  42
ENDBRANCH  33  36
ENDBRANCH  31  32
ENDBRANCH  30  31
ENDBRANCH   1  30
TORSDOF 18
ENDMDL
MODEL 2
REMARK VINA RESULT:     -12.9      0.606      7.266
REMARK SMILES Cc1c(Cc2ccccc2)c(=O)oc2c(C)c(O[C@H](C)C(=O)NCCCCNC(=O)c3ccc(-c4c5nc(c(-c6cccc(S(=O)(=O)[O-])c6F)c6ccc([nH]6)c(-c6cccc(S(=O)(=O)[O-])c6F)c6nc(c(-c7cccc(S(=O)(=O)[O-])c7F)c7ccc4[nH]7)C=C6)C=C5)cc3)ccc12
REMARK SMILES IDX 25 1 24 2 23 3 21 4 22 5 19 7 20 8 18 9 17 10 1 11 2 12 3 13
REMARK SMILES IDX 96 14 11 15 14 16 95 17 12 18 13 19 15 20 94 21 16 22 4 23
REMARK SMILES IDX 5 24 6 25 10 26 7 27 9 28 8 29 26 30 27 31 28 32 29 33 30 35
REMARK SMILES IDX 31 36 32 37 93 38 33 39 92 40 34 41 35 42 36 43 86 44 37 45
REMARK SMILES IDX 91 46 85 47 87 48 38 49 90 50 84 51 83 52 39 54 71 55 51 56
REMARK SMILES IDX 70 57 52 58 55 59 69 60 88 61 53 62 54 63 68 65 89 66 56 67
REMARK SMILES IDX 40 68 41 69 49 70 42 71 44 72 50 73 43 74 45 75 46 76 47 77
REMARK SMILES IDX 48 78 72 79 73 80 81 81 74 82 76 83 82 84 75 85 77 86 78 87
REMARK SMILES IDX 79 88 80 89 57 90 58 91 66 92 59 93 61 94 67 95 60 96 62 97
REMARK SMILES IDX 63 98 64 99 65 100
REMARK H PARENT 23 6 28 34 87 53 55 64
REMARK Flexibility Score: inf
ROOT
ATOM      1  C   UNL A   1      37.322  21.322  24.729  1.00  0.00     0.023 C 
ENDROOT
BRANCH   1   2
ATOM      2  C   UNL A   1      35.816  21.067  24.729  1.00  0.00     0.116 C 
BRANCH   2   3
ATOM      3  N   UNL A   1      35.142  21.440  25.952  1.00  0.00    -0.353 N 
ATOM      4  C   UNL A   1      33.901  21.105  26.402  1.00  0.00     0.260 C 
ATOM      5  O   UNL A   1      33.651  21.342  27.589  1.00  0.00    -0.271 OA
ATOM      6  H   UNL A   1      35.659  22.024  26.552  1.00  0.00     0.163 HD
BRANCH   4   7
ATOM      7  C   UNL A   1      32.804  20.526  25.471  1.00  0.00     0.258 C 
ATOM      8  C   UNL A   1      32.939  19.014  25.332  1.00  0.00     0.064 C 
BRANCH   7   9
ATOM      9  O   UNL A   1      31.492  21.091  25.460  1.00  0.00    -0.480 OA
BRANCH   9  10
ATOM     10  C   UNL A   1      31.250  22.399  25.163  1.00  0.00     0.127 A 
ATOM     11  C   UNL A   1      31.405  27.479  26.070  1.00  0.00     0.046 C 
ATOM     12  C   UNL A   1      31.236  26.686  24.803  1.00  0.00    -0.029 A 
ATOM     13  C   UNL A   1      31.271  27.212  23.559  1.00  0.00     0.046 A 
ATOM     14  C   UNL A   1      31.111  25.224  24.945  1.00  0.00     0.021 A 
ATOM     15  C   UNL A   1      31.378  26.305  22.381  1.00  0.00     0.340 A 
ATOM     16  C   UNL A   1      31.568  24.432  23.900  1.00  0.00     0.145 A 
ATOM     17  C   UNL A   1      30.651  24.576  26.095  1.00  0.00     0.016 A 
ATOM     18  O   UNL A   1      31.221  26.697  21.231  1.00  0.00    -0.246 OA
ATOM     19  O   UNL A   1      31.840  25.021  22.649  1.00  0.00    -0.422 OA
ATOM     20  C   UNL A   1      31.775  23.046  24.034  1.00  0.00     0.035 A 
ATOM     21  C   UNL A   1      30.689  23.174  26.185  1.00  0.00     0.047 A 
ATOM     22  C   UNL A   1      32.639  22.362  23.018  1.00  0.00     0.052 C 
BRANCH  13  23
ATOM     23  C   UNL A   1      31.305  28.687  23.216  1.00  0.00     0.079 C 
BRANCH  23  24
ATOM     24  C   UNL A   1      29.941  29.348  23.270  1.00  0.00    -0.043 A 
ATOM     25  C   UNL A   1      28.789  28.644  22.895  1.00  0.00     0.004 A 
ATOM     26  C   UNL A   1      29.800  30.668  23.725  1.00  0.00     0.004 A 
ATOM     27  C   UNL A   1      27.530  29.246  22.980  1.00  0.00     0.000 A 
ATOM     28  C   UNL A   1      28.541  31.262  23.828  1.00  0.00     0.000 A 
ATOM     29  C   UNL A   1      27.406  30.551  23.454  1.00  0.00     0.000 A 
ENDBRANCH  23  24
ENDBRANCH  13  23
ENDBRANCH   9  10
ENDBRANCH   7   9
ENDBRANCH   4   7
ENDBRANCH   2   3
ENDBRANCH   1   2
BRANCH   1  30
ATOM     30  C   UNL A   1      38.210  20.110  24.995  1.00  0.00     0.023 C 
BRANCH  30  31
ATOM     31  C   UNL A   1      39.255  20.288  26.086  1.00  0.00     0.116 C 
BRANCH  31  32
ATOM     32  N   UNL A   1      40.340  19.323  26.000  1.00  0.00    -0.352 N 
ATOM     33  C   UNL A   1      41.694  19.545  26.120  1.00  0.00     0.251 C 
ATOM     34  H   UNL A   1      40.072  18.390  25.834  1.00  0.00     0.163 HD
ATOM     35  O   UNL A   1      42.495  18.647  25.930  1.00  0.00    -0.269 OA
BRANCH  33  36
ATOM     36  C   UNL A   1      42.153  20.910  26.452  1.00  0.00     0.039 A 
ATOM     37  C   UNL A   1      42.367  21.818  25.413  1.00  0.00     0.014 A 
ATOM     38  C   UNL A   1      42.303  21.295  27.787  1.00  0.00     0.014 A 
ATOM     39  C   UNL A   1      42.672  23.145  25.719  1.00  0.00     0.010 A 
ATOM     40  C   UNL A   1      42.552  22.629  28.088  1.00  0.00     0.010 A 
ATOM     41  C   UNL A   1      42.741  23.563  27.058  1.00  0.00    -0.014 A 
BRANCH  41  42
ATOM     42  C   UNL A   1      43.033  24.972  27.405  1.00  0.00     0.031 A 
ATOM     43  C   UNL A   1      44.429  25.500  27.247  1.00  0.00     0.074 A 
ATOM     44  C   UNL A   1      42.064  25.751  27.923  1.00  0.00     0.049 A 
ATOM     45  N   UNL A   1      44.896  26.685  27.535  1.00  0.00    -0.248 NA
ATOM     46  C   UNL A   1      45.439  24.567  26.714  1.00  0.00     0.031 C 
ATOM     47  C   UNL A   1      40.685  25.329  28.182  1.00  0.00     0.029 A 
ATOM     48  N   UNL A   1      42.098  27.055  28.345  1.00  0.00    -0.354 N 
ATOM     49  C   UNL A   1      46.253  26.635  27.244  1.00  0.00     0.074 A 
ATOM     50  C   UNL A   1      46.544  25.297  26.783  1.00  0.00     0.031 C 
ATOM     51  C   UNL A   1      40.004  26.359  28.711  1.00  0.00     0.029 A 
ATOM     52  C   UNL A   1      40.898  27.506  28.844  1.00  0.00     0.049 A 
ATOM     53  H   UNL A   1      42.905  27.617  28.295  1.00  0.00     0.167 HD
ATOM     54  C   UNL A   1      47.167  27.628  27.318  1.00  0.00     0.034 A 
ATOM     55  C   UNL A   1      40.558  28.710  29.345  1.00  0.00     0.034 A 
ATOM     56  C   UNL A   1      46.866  28.973  27.720  1.00  0.00     0.049 A 
ATOM     57  C   UNL A   1      41.585  29.807  29.385  1.00  0.00     0.074 A 
ATOM     58  C   UNL A   1      47.710  30.068  27.748  1.00  0.00     0.029 A 
ATOM     59  N   UNL A   1      45.626  29.407  28.156  1.00  0.00    -0.354 N 
ATOM     60  N   UNL A   1      42.832  29.778  28.983  1.00  0.00    -0.248 NA
ATOM     61  C   UNL A   1      41.156  31.108  29.918  1.00  0.00     0.031 C 
ATOM     62  C   UNL A   1      46.978  31.167  28.204  1.00  0.00     0.029 A 
ATOM     63  C   UNL A   1      45.679  30.755  28.456  1.00  0.00     0.049 A 
ATOM     64  H   UNL A   1      44.825  28.840  28.240  1.00  0.00     0.167 HD
ATOM     65  C   UNL A   1      43.330  31.059  29.190  1.00  0.00     0.074 A 
ATOM     66  C   UNL A   1      42.247  31.845  29.744  1.00  0.00     0.031 C 
ATOM     67  C   UNL A   1      44.577  31.534  28.955  1.00  0.00     0.034 A 
BRANCH  54  68
ATOM     68  C   UNL A   1      48.569  27.319  26.877  1.00  0.00     0.023 A 
ATOM     69  C   UNL A   1      49.455  26.724  27.796  1.00  0.00     0.012 A 
ATOM     70  C   UNL A   1      48.985  27.547  25.553  1.00  0.00     0.148 A 
ATOM     71  C   UNL A   1      50.744  26.369  27.407  1.00  0.00     0.002 A 
ATOM     72  C   UNL A   1      50.263  27.165  25.164  1.00  0.00     0.091 A 
ATOM     73  F   UNL A   1      48.127  28.131  24.705  1.00  0.00    -0.205 F 
ATOM     74  C   UNL A   1      51.145  26.580  26.090  1.00  0.00     0.022 A 
BRANCH  72  75
ATOM     75  S   UNL A   1      50.866  27.348  23.483  1.00  0.00     0.127 S 
ATOM     76  O   UNL A   1      52.112  26.584  23.532  1.00  0.00    -0.237 OA
ATOM     77  O   UNL A   1      49.796  26.723  22.705  1.00  0.00    -0.237 OA
ATOM     78  O   UNL A   1      51.027  28.779  23.264  1.00  0.00    -0.744 OA
ENDBRANCH  72  75
ENDBRANCH  54  68
BRANCH  55  79
ATOM     79  C   UNL A   1      39.152  28.959  29.764  1.00  0.00     0.023 A 
ATOM     80  C   UNL A   1      38.771  28.658  31.085  1.00  0.00     0.012 A 
ATOM     81  C   UNL A   1      38.215  29.544  28.889  1.00  0.00     0.148 A 
ATOM     82  C   UNL A   1      37.475  28.924  31.528  1.00  0.00     0.002 A 
ATOM     83  C   UNL A   1      36.936  29.838  29.348  1.00  0.00     0.091 A 
ATOM     84  F   UNL A   1      38.605  29.819  27.637  1.00  0.00    -0.205 F 
ATOM     85  C   UNL A   1      36.562  29.520  30.664  1.00  0.00     0.022 A 
BRANCH  83  86
ATOM     86  S   UNL A   1      35.715  30.692  28.344  1.00  0.00     0.127 S 
ATOM     87  O   UNL A   1      34.780  31.174  29.357  1.00  0.00    -0.237 OA
ATOM     88  O   UNL A   1      36.527  31.731  27.709  1.00  0.00    -0.237 OA
ATOM     89  O   UNL A   1      35.184  29.693  27.429  1.00  0.00    -0.744 OA
ENDBRANCH  83  86
ENDBRANCH  55  79
BRANCH  67  90
ATOM     90  C   UNL A   1      44.861  32.974  29.280  1.00  0.00     0.023 A 
ATOM     91  C   UNL A   1      45.355  33.304  30.555  1.00  0.00     0.012 A 
ATOM     92  C   UNL A   1      44.780  33.965  28.282  1.00  0.00     0.148 A 
ATOM     93  C   UNL A   1      45.766  34.606  30.836  1.00  0.00     0.002 A 
ATOM     94  C   UNL A   1      45.223  35.253  28.559  1.00  0.00     0.091 A 
ATOM     95  F   UNL A   1      44.299  33.622  27.080  1.00  0.00    -0.205 F 
ATOM     96  C   UNL A   1      45.714  35.575  29.836  1.00  0.00     0.022 A 
BRANCH  94  97
ATOM     97  S   UNL A   1      45.271  36.548  27.316  1.00  0.00     0.127 S 
ATOM     98  O   UNL A   1      43.853  36.711  27.001  1.00  0.00    -0.237 OA
ATOM     99  O   UNL A   1      45.864  37.663  28.055  1.00  0.00    -0.237 OA
ATOM    100  O   UNL A   1      46.093  36.034  26.228  1.00  0.00    -0.744 OA
ENDBRANCH  94  97
ENDBRANCH  67  90
ENDBRANCH  41  42
ENDBRANCH  33  36
ENDBRANCH  31  32
ENDBRANCH  30  31
ENDBRANCH   1  30
TORSDOF 18
ENDMDL
MODEL 3
REMARK VINA RESULT:     -12.8      3.183      8.258
REMARK SMILES Cc1c(Cc2ccccc2)c(=O)oc2c(C)c(O[C@H](C)C(=O)NCCCCNC(=O)c3ccc(-c4c5nc(c(-c6cccc(S(=O)(=O)[O-])c6F)c6ccc([nH]6)c(-c6cccc(S(=O)(=O)[O-])c6F)c6nc(c(-c7cccc(S(=O)(=O)[O-])c7F)c7ccc4[nH]7)C=C6)C=C5)cc3)ccc12
REMARK SMILES IDX 25 1 24 2 23 3 21 4 22 5 19 7 20 8 18 9 17 10 1 11 2 12 3 13
REMARK SMILES IDX 96 14 11 15 14 16 95 17 12 18 13 19 15 20 94 21 16 22 4 23
REMARK SMILES IDX 5 24 6 25 10 26 7 27 9 28 8 29 26 30 27 31 28 32 29 33 30 35
REMARK SMILES IDX 31 36 32 37 93 38 33 39 92 40 34 41 35 42 36 43 86 44 37 45
REMARK SMILES IDX 91 46 85 47 87 48 38 49 90 50 84 51 83 52 39 54 71 55 51 56
REMARK SMILES IDX 70 57 52 58 55 59 69 60 88 61 53 62 54 63 68 65 89 66 56 67
REMARK SMILES IDX 40 68 41 69 49 70 42 71 44 72 50 73 43 74 45 75 46 76 47 77
REMARK SMILES IDX 48 78 72 79 73 80 81 81 74 82 76 83 82 84 75 85 77 86 78 87
REMARK SMILES IDX 79 88 80 89 57 90 58 91 66 92 59 93 61 94 67 95 60 96 62 97
REMARK SMILES IDX 63 98 64 99 65 100
REMARK H PARENT 23 6 28 34 87 53 55 64
REMARK Flexibility Score: inf
ROOT
ATOM      1  C   UNL A   1      35.613  21.447  25.770  1.00  0.00     0.023 C 
ENDROOT
BRANCH   1   2
ATOM      2  C   UNL A   1      35.704  20.330  24.731  1.00  0.00     0.116 C 
BRANCH   2   3
ATOM      3  N   UNL A   1      35.033  19.105  25.103  1.00  0.00    -0.353 N 
ATOM      4  C   UNL A   1      33.878  18.563  24.628  1.00  0.00     0.260 C 
ATOM      5  O   UNL A   1      33.645  17.386  24.926  1.00  0.00    -0.271 OA
ATOM      6  H   UNL A   1      35.481  18.581  25.806  1.00  0.00     0.163 HD
BRANCH   4   7
ATOM      7  C   UNL A   1      32.843  19.384  23.816  1.00  0.00     0.258 C 
ATOM      8  C   UNL A   1      32.159  18.523  22.760  1.00  0.00     0.064 C 
BRANCH   7   9
ATOM      9  O   UNL A   1      32.079  20.412  24.448  1.00  0.00    -0.480 OA
BRANCH   9  10
ATOM     10  C   UNL A   1      32.252  21.737  24.179  1.00  0.00     0.127 A 
ATOM     11  C   UNL A   1      31.977  25.953  21.211  1.00  0.00     0.046 C 
ATOM     12  C   UNL A   1      32.087  25.774  22.700  1.00  0.00    -0.029 A 
ATOM     13  C   UNL A   1      31.948  26.769  23.605  1.00  0.00     0.046 A 
ATOM     14  C   UNL A   1      32.274  24.397  23.193  1.00  0.00     0.021 A 
ATOM     15  C   UNL A   1      31.793  26.432  25.048  1.00  0.00     0.340 A 
ATOM     16  C   UNL A   1      31.776  24.089  24.452  1.00  0.00     0.145 A 
ATOM     17  C   UNL A   1      32.835  23.358  22.446  1.00  0.00     0.016 A 
ATOM     18  O   UNL A   1      31.856  27.278  25.932  1.00  0.00    -0.246 OA
ATOM     19  O   UNL A   1      31.397  25.128  25.324  1.00  0.00    -0.422 OA
ATOM     20  C   UNL A   1      31.629  22.763  24.904  1.00  0.00     0.035 A 
ATOM     21  C   UNL A   1      32.854  22.047  22.952  1.00  0.00     0.047 A 
ATOM     22  C   UNL A   1      30.721  22.515  26.072  1.00  0.00     0.052 C 
BRANCH  13  23
ATOM     23  C   UNL A   1      31.837  28.247  23.292  1.00  0.00     0.079 C 
BRANCH  23  24
ATOM     24  C   UNL A   1      30.437  28.674  22.895  1.00  0.00    -0.043 A 
ATOM     25  C   UNL A   1      29.314  27.995  23.388  1.00  0.00     0.004 A 
ATOM     26  C   UNL A   1      30.235  29.774  22.048  1.00  0.00     0.004 A 
ATOM     27  C   UNL A   1      28.025  28.415  23.047  1.00  0.00     0.000 A 
ATOM     28  C   UNL A   1      28.947  30.204  21.723  1.00  0.00     0.000 A 
ATOM     29  C   UNL A   1      27.842  29.523  22.222  1.00  0.00     0.000 A 
ENDBRANCH  23  24
ENDBRANCH  13  23
ENDBRANCH   9  10
ENDBRANCH   7   9
ENDBRANCH   4   7
ENDBRANCH   2   3
ENDBRANCH   1   2
BRANCH   1  30
ATOM     30  C   UNL A   1      35.734  22.872  25.239  1.00  0.00     0.023 C 
BRANCH  30  31
ATOM     31  C   UNL A   1      37.112  23.504  25.362  1.00  0.00     0.116 C 
BRANCH  31  32
ATOM     32  N   UNL A   1      38.133  22.564  25.798  1.00  0.00    -0.352 N 
ATOM     33  C   UNL A   1      39.296  22.825  26.488  1.00  0.00     0.251 C 
ATOM     34  H   UNL A   1      37.972  21.620  25.569  1.00  0.00     0.163 HD
ATOM     35  O   UNL A   1      40.108  21.941  26.704  1.00  0.00    -0.269 OA
BRANCH  33  36
ATOM     36  C   UNL A   1      39.553  24.210  26.931  1.00  0.00     0.039 A 
ATOM     37  C   UNL A   1      39.291  24.551  28.259  1.00  0.00     0.014 A 
ATOM     38  C   UNL A   1      40.111  25.138  26.047  1.00  0.00     0.014 A 
ATOM     39  C   UNL A   1      39.652  25.816  28.724  1.00  0.00     0.010 A 
ATOM     40  C   UNL A   1      40.521  26.377  26.527  1.00  0.00     0.010 A 
ATOM     41  C   UNL A   1      40.292  26.727  27.867  1.00  0.00    -0.014 A 
BRANCH  41  42
ATOM     42  C   UNL A   1      40.712  28.063  28.346  1.00  0.00     0.031 A 
ATOM     43  C   UNL A   1      42.171  28.415  28.373  1.00  0.00     0.074 A 
ATOM     44  C   UNL A   1      39.793  28.926  28.818  1.00  0.00     0.049 A 
ATOM     45  N   UNL A   1      42.743  29.511  28.794  1.00  0.00    -0.248 NA
ATOM     46  C   UNL A   1      43.113  27.395  27.879  1.00  0.00     0.031 C 
ATOM     47  C   UNL A   1      38.353  28.671  28.902  1.00  0.00     0.029 A 
ATOM     48  N   UNL A   1      39.937  30.188  29.337  1.00  0.00    -0.354 N 
ATOM     49  C   UNL A   1      44.107  29.305  28.642  1.00  0.00     0.074 A 
ATOM     50  C   UNL A   1      44.283  27.971  28.115  1.00  0.00     0.031 C 
ATOM     51  C   UNL A   1      37.747  29.746  29.433  1.00  0.00     0.029 A 
ATOM     52  C   UNL A   1      38.752  30.758  29.742  1.00  0.00     0.049 A 
ATOM     53  H   UNL A   1      40.807  30.643  29.412  1.00  0.00     0.167 HD
ATOM     54  C   UNL A   1      45.122  30.166  28.883  1.00  0.00     0.034 A 
ATOM     55  C   UNL A   1      38.507  31.962  30.293  1.00  0.00     0.034 A 
ATOM     56  C   UNL A   1      44.942  31.511  29.350  1.00  0.00     0.049 A 
ATOM     57  C   UNL A   1      39.649  32.914  30.520  1.00  0.00     0.074 A 
ATOM     58  C   UNL A   1      45.904  32.485  29.546  1.00  0.00     0.029 A 
ATOM     59  N   UNL A   1      43.723  32.074  29.687  1.00  0.00    -0.354 N 
ATOM     60  N   UNL A   1      40.920  32.750  30.247  1.00  0.00    -0.248 NA
ATOM     61  C   UNL A   1      39.323  34.225  31.101  1.00  0.00     0.031 C 
ATOM     62  C   UNL A   1      45.265  33.640  30.004  1.00  0.00     0.029 A 
ATOM     63  C   UNL A   1      43.905  33.383  30.090  1.00  0.00     0.049 A 
ATOM     64  H   UNL A   1      42.855  31.610  29.646  1.00  0.00     0.167 HD
ATOM     65  C   UNL A   1      41.543  33.941  30.599  1.00  0.00     0.074 A 
ATOM     66  C   UNL A   1      40.508  34.825  31.095  1.00  0.00     0.031 C 
ATOM     67  C   UNL A   1      42.857  34.266  30.530  1.00  0.00     0.034 A 
BRANCH  54  68
ATOM     68  C   UNL A   1      46.515  29.707  28.567  1.00  0.00     0.023 A 
ATOM     69  C   UNL A   1      47.045  29.972  27.288  1.00  0.00     0.012 A 
ATOM     70  C   UNL A   1      47.318  29.086  29.540  1.00  0.00     0.148 A 
ATOM     71  C   UNL A   1      48.354  29.614  26.978  1.00  0.00     0.002 A 
ATOM     72  C   UNL A   1      48.633  28.757  29.231  1.00  0.00     0.091 A 
ATOM     73  F   UNL A   1      46.783  28.829  30.742  1.00  0.00    -0.205 F 
ATOM     74  C   UNL A   1      49.150  29.016  27.951  1.00  0.00     0.022 A 
BRANCH  72  75
ATOM     75  S   UNL A   1      49.759  28.025  30.423  1.00  0.00     0.127 S 
ATOM     76  O   UNL A   1      51.016  28.018  29.675  1.00  0.00    -0.237 OA
ATOM     77  O   UNL A   1      49.709  28.988  31.523  1.00  0.00    -0.237 OA
ATOM     78  O   UNL A   1      49.219  26.709  30.735  1.00  0.00    -0.744 OA
ENDBRANCH  72  75
ENDBRANCH  54  68
BRANCH  55  79
ATOM     79  C   UNL A   1      37.104  32.364  30.582  1.00  0.00     0.023 A 
ATOM     80  C   UNL A   1      36.616  32.238  31.896  1.00  0.00     0.012 A 
ATOM     81  C   UNL A   1      36.278  32.923  29.587  1.00  0.00     0.148 A 
ATOM     82  C   UNL A   1      35.322  32.650  32.215  1.00  0.00     0.002 A 
ATOM     83  C   UNL A   1      35.001  33.365  29.921  1.00  0.00     0.091 A 
ATOM     84  F   UNL A   1      36.768  33.031  28.345  1.00  0.00    -0.205 F 
ATOM     85  C   UNL A   1      34.519  33.220  31.232  1.00  0.00     0.022 A 
BRANCH  83  86
ATOM     86  S   UNL A   1      33.924  34.198  28.750  1.00  0.00     0.127 S 
ATOM     87  O   UNL A   1      33.619  33.124  27.809  1.00  0.00    -0.237 OA
ATOM     88  O   UNL A   1      32.810  34.604  29.607  1.00  0.00    -0.237 OA
ATOM     89  O   UNL A   1      34.704  35.301  28.208  1.00  0.00    -0.744 OA
ENDBRANCH  83  86
ENDBRANCH  55  79
BRANCH  67  90
ATOM     90  C   UNL A   1      43.275  35.635  30.988  1.00  0.00     0.023 A 
ATOM     91  C   UNL A   1      43.655  35.822  32.330  1.00  0.00     0.012 A 
ATOM     92  C   UNL A   1      43.432  36.685  30.063  1.00  0.00     0.148 A 
ATOM     93  C   UNL A   1      44.187  37.041  32.747  1.00  0.00     0.002 A 
ATOM     94  C   UNL A   1      43.994  37.886  30.479  1.00  0.00     0.091 A 
ATOM     95  F   UNL A   1      43.055  36.480  28.793  1.00  0.00    -0.205 F 
ATOM     96  C   UNL A   1      44.370  38.066  31.822  1.00  0.00     0.022 A 
BRANCH  94  97
ATOM     97  S   UNL A   1      44.344  39.236  29.347  1.00  0.00     0.127 S 
ATOM     98  O   UNL A   1      42.999  39.715  29.032  1.00  0.00    -0.237 OA
ATOM     99  O   UNL A   1      45.135  40.141  30.180  1.00  0.00    -0.237 OA
ATOM    100  O   UNL A   1      45.070  38.648  28.229  1.00  0.00    -0.744 OA
ENDBRANCH  94  97
ENDBRANCH  67  90
ENDBRANCH  41  42
ENDBRANCH  33  36
ENDBRANCH  31  32
ENDBRANCH  30  31
ENDBRANCH   1  30
TORSDOF 18
ENDMDL
