MODEL 1
REMARK VINA RESULT:     -10.9      0.000      0.000
REMARK SMILES CCC[C@H](CCCc1c(O)nc(N)[nH]c1=O)C(=O)NCCCCNC(=O)c1ccc(-c2c3nc(c(-c4cccc(S(=O)(=O)[O-])c4F)c4ccc([nH]4)c(-c4cccc(S(=O)(=O)[O-])c4F)c4nc(c(-c5cccc(S(=O)(=O)[O-])c5F)c5ccc2[nH]5)C=C4)C=C3)cc1
REMARK SMILES IDX 20 1 19 2 17 3 18 4 4 6 3 7 2 8 1 9 5 10 6 11 7 12 8 13 9 14
REMARK SMILES IDX 15 15 11 16 14 17 16 18 12 19 10 21 13 23 21 26 22 27 23 28
REMARK SMILES IDX 24 29 25 30 26 32 27 33 28 34 89 35 29 36 88 37 30 38 31 39
REMARK SMILES IDX 32 40 82 41 33 42 87 43 81 44 83 45 34 46 86 47 80 48 79 49
REMARK SMILES IDX 35 51 67 52 47 53 66 54 48 55 51 56 65 57 84 58 49 59 50 60
REMARK SMILES IDX 64 62 85 63 52 64 36 65 37 66 45 67 38 68 40 69 46 70 39 71
REMARK SMILES IDX 41 72 42 73 43 74 44 75 68 76 69 77 77 78 70 79 72 80 78 81
REMARK SMILES IDX 71 82 73 83 74 84 75 85 76 86 53 87 54 88 62 89 55 90 57 91
REMARK SMILES IDX 63 92 56 93 58 94 59 95 60 96 61 97
REMARK H PARENT 19 5 14 20 10 22 13 24 13 25 24 31 83 50 51 61
REMARK Flexibility Score: inf
ROOT
ATOM      1  C   UNL A   1      34.200  23.152  23.062  1.00  0.00     0.116 C 
ENDROOT
BRANCH   1   2
ATOM      2  N   UNL A   1      34.076  24.318  22.216  1.00  0.00    -0.356 N 
ATOM      3  C   UNL A   1      33.398  25.482  22.356  1.00  0.00     0.223 C 
ATOM      4  O   UNL A   1      33.478  26.277  21.411  1.00  0.00    -0.275 OA
ATOM      5  H   UNL A   1      34.585  24.253  21.376  1.00  0.00     0.163 HD
BRANCH   3   6
ATOM      6  C   UNL A   1      32.568  25.870  23.588  1.00  0.00     0.078 C 
BRANCH   6   7
ATOM      7  C   UNL A   1      31.245  26.588  23.292  1.00  0.00     0.013 C 
BRANCH   7   8
ATOM      8  C   UNL A   1      30.977  27.801  24.200  1.00  0.00    -0.003 C 
ATOM      9  C   UNL A   1      30.287  28.961  23.491  1.00  0.00     0.004 C 
ENDBRANCH   7   8
ENDBRANCH   6   7
BRANCH   6  10
ATOM     10  C   UNL A   1      33.347  26.388  24.815  1.00  0.00     0.014 C 
BRANCH  10  11
ATOM     11  C   UNL A   1      33.506  25.571  26.096  1.00  0.00     0.006 C 
BRANCH  11  12
ATOM     12  C   UNL A   1      32.385  24.621  26.553  1.00  0.00     0.047 C 
BRANCH  12  13
ATOM     13  C   UNL A   1      32.621  23.141  26.402  1.00  0.00     0.079 A 
ATOM     14  C   UNL A   1      33.564  22.400  27.019  1.00  0.00     0.222 A 
ATOM     15  C   UNL A   1      31.776  22.415  25.423  1.00  0.00     0.259 A 
ATOM     16  N   UNL A   1      33.690  21.045  26.887  1.00  0.00    -0.179 NA
ATOM     17  N   UNL A   1      31.928  21.065  25.384  1.00  0.00    -0.292 N 
ATOM     18  O   UNL A   1      30.997  22.981  24.663  1.00  0.00    -0.269 OA
ATOM     19  C   UNL A   1      32.882  20.424  26.099  1.00  0.00     0.203 A 
ATOM     20  H   UNL A   1      31.324  20.535  24.816  1.00  0.00     0.173 HD
BRANCH  14  21
ATOM     21  O   UNL A   1      34.502  22.950  27.868  1.00  0.00    -0.493 OA
ATOM     22  H   UNL A   1      34.513  23.875  28.016  1.00  0.00     0.295 HD
ENDBRANCH  14  21
BRANCH  19  23
ATOM     23  N   UNL A   1      32.964  19.086  25.952  1.00  0.00    -0.369 N 
ATOM     24  H   UNL A   1      32.737  18.493  26.704  1.00  0.00     0.159 HD
ATOM     25  H   UNL A   1      33.252  18.703  25.092  1.00  0.00     0.159 HD
ENDBRANCH  19  23
ENDBRANCH  12  13
ENDBRANCH  11  12
ENDBRANCH  10  11
ENDBRANCH   6  10
ENDBRANCH   3   6
ENDBRANCH   1   2
BRANCH   1  26
ATOM     26  C   UNL A   1      35.421  23.254  23.979  1.00  0.00     0.023 C 
BRANCH  26  27
ATOM     27  C   UNL A   1      36.144  21.944  24.251  1.00  0.00     0.023 C 
BRANCH  27  28
ATOM     28  C   UNL A   1      36.993  21.932  25.511  1.00  0.00     0.116 C 
BRANCH  28  29
ATOM     29  N   UNL A   1      37.970  20.850  25.566  1.00  0.00    -0.352 N 
ATOM     30  C   UNL A   1      39.244  20.899  26.097  1.00  0.00     0.251 C 
ATOM     31  H   UNL A   1      37.689  19.988  25.182  1.00  0.00     0.163 HD
ATOM     32  O   UNL A   1      39.992  19.939  26.035  1.00  0.00    -0.269 OA
BRANCH  30  33
ATOM     33  C   UNL A   1      39.687  22.175  26.696  1.00  0.00     0.039 A 
ATOM     34  C   UNL A   1      40.673  22.153  27.685  1.00  0.00     0.014 A 
ATOM     35  C   UNL A   1      39.233  23.383  26.163  1.00  0.00     0.014 A 
ATOM     36  C   UNL A   1      41.271  23.352  28.079  1.00  0.00     0.010 A 
ATOM     37  C   UNL A   1      39.892  24.560  26.491  1.00  0.00     0.010 A 
ATOM     38  C   UNL A   1      40.919  24.556  27.448  1.00  0.00    -0.014 A 
BRANCH  38  39
ATOM     39  C   UNL A   1      41.597  25.838  27.763  1.00  0.00     0.031 A 
ATOM     40  C   UNL A   1      40.841  26.908  28.502  1.00  0.00     0.074 A 
ATOM     41  C   UNL A   1      42.835  26.085  27.289  1.00  0.00     0.049 A 
ATOM     42  N   UNL A   1      41.182  28.145  28.742  1.00  0.00    -0.248 NA
ATOM     43  C   UNL A   1      39.504  26.545  29.006  1.00  0.00     0.031 C 
ATOM     44  C   UNL A   1      43.645  25.151  26.505  1.00  0.00     0.029 A 
ATOM     45  N   UNL A   1      43.618  27.209  27.375  1.00  0.00    -0.354 N 
ATOM     46  C   UNL A   1      40.091  28.718  29.384  1.00  0.00     0.074 A 
ATOM     47  C   UNL A   1      39.061  27.707  29.458  1.00  0.00     0.031 C 
ATOM     48  C   UNL A   1      44.813  25.735  26.191  1.00  0.00     0.029 A 
ATOM     49  C   UNL A   1      44.823  27.095  26.720  1.00  0.00     0.049 A 
ATOM     50  H   UNL A   1      43.344  28.020  27.860  1.00  0.00     0.167 HD
ATOM     51  C   UNL A   1      39.971  29.964  29.900  1.00  0.00     0.034 A 
ATOM     52  C   UNL A   1      45.821  27.989  26.562  1.00  0.00     0.034 A 
ATOM     53  C   UNL A   1      41.021  30.943  29.876  1.00  0.00     0.049 A 
ATOM     54  C   UNL A   1      45.682  29.351  27.190  1.00  0.00     0.074 A 
ATOM     55  C   UNL A   1      41.022  32.216  30.418  1.00  0.00     0.029 A 
ATOM     56  N   UNL A   1      42.265  30.755  29.292  1.00  0.00    -0.354 N 
ATOM     57  N   UNL A   1      44.684  29.840  27.886  1.00  0.00    -0.248 NA
ATOM     58  C   UNL A   1      46.819  30.272  27.043  1.00  0.00     0.031 C 
ATOM     59  C   UNL A   1      42.265  32.799  30.159  1.00  0.00     0.029 A 
ATOM     60  C   UNL A   1      43.046  31.882  29.473  1.00  0.00     0.049 A 
ATOM     61  H   UNL A   1      42.549  29.940  28.819  1.00  0.00     0.167 HD
ATOM     62  C   UNL A   1      45.087  31.108  28.293  1.00  0.00     0.074 A 
ATOM     63  C   UNL A   1      46.428  31.303  27.781  1.00  0.00     0.031 C 
ATOM     64  C   UNL A   1      44.403  32.033  29.012  1.00  0.00     0.034 A 
BRANCH  51  65
ATOM     65  C   UNL A   1      38.685  30.308  30.605  1.00  0.00     0.023 A 
ATOM     66  C   UNL A   1      38.500  29.895  31.940  1.00  0.00     0.012 A 
ATOM     67  C   UNL A   1      37.692  31.084  29.977  1.00  0.00     0.148 A 
ATOM     68  C   UNL A   1      37.335  30.222  32.630  1.00  0.00     0.002 A 
ATOM     69  C   UNL A   1      36.554  31.447  30.688  1.00  0.00     0.091 A 
ATOM     70  F   UNL A   1      37.875  31.446  28.699  1.00  0.00    -0.205 F 
ATOM     71  C   UNL A   1      36.368  31.009  32.009  1.00  0.00     0.022 A 
BRANCH  69  72
ATOM     72  S   UNL A   1      35.289  32.527  30.009  1.00  0.00     0.127 S 
ATOM     73  O   UNL A   1      34.740  31.700  28.935  1.00  0.00    -0.237 OA
ATOM     74  O   UNL A   1      34.396  32.710  31.153  1.00  0.00    -0.237 OA
ATOM     75  O   UNL A   1      35.979  33.734  29.576  1.00  0.00    -0.744 OA
ENDBRANCH  69  72
ENDBRANCH  51  65
BRANCH  52  76
ATOM     76  C   UNL A   1      47.075  27.586  25.863  1.00  0.00     0.023 A 
ATOM     77  C   UNL A   1      48.070  26.901  26.588  1.00  0.00     0.012 A 
ATOM     78  C   UNL A   1      47.271  27.822  24.488  1.00  0.00     0.148 A 
ATOM     79  C   UNL A   1      49.246  26.481  25.965  1.00  0.00     0.002 A 
ATOM     80  C   UNL A   1      48.419  27.350  23.861  1.00  0.00     0.091 A 
ATOM     81  F   UNL A   1      46.319  28.486  23.816  1.00  0.00    -0.205 F 
ATOM     82  C   UNL A   1      49.415  26.694  24.601  1.00  0.00     0.022 A 
BRANCH  80  83
ATOM     83  S   UNL A   1      48.661  27.452  22.083  1.00  0.00     0.127 S 
ATOM     84  O   UNL A   1      49.964  28.104  21.994  1.00  0.00    -0.237 OA
ATOM     85  O   UNL A   1      48.650  26.040  21.697  1.00  0.00    -0.237 OA
ATOM     86  O   UNL A   1      47.532  28.221  21.577  1.00  0.00    -0.744 OA
ENDBRANCH  80  83
ENDBRANCH  52  76
BRANCH  64  87
ATOM     87  C   UNL A   1      45.096  33.331  29.329  1.00  0.00     0.023 A 
ATOM     88  C   UNL A   1      45.850  33.450  30.512  1.00  0.00     0.012 A 
ATOM     89  C   UNL A   1      45.083  34.396  28.406  1.00  0.00     0.148 A 
ATOM     90  C   UNL A   1      46.560  34.619  30.785  1.00  0.00     0.002 A 
ATOM     91  C   UNL A   1      45.833  35.538  28.661  1.00  0.00     0.091 A 
ATOM     92  F   UNL A   1      44.343  34.272  27.295  1.00  0.00    -0.205 F 
ATOM     93  C   UNL A   1      46.563  35.656  29.854  1.00  0.00     0.022 A 
BRANCH  91  94
ATOM     94  S   UNL A   1      45.976  36.872  27.467  1.00  0.00     0.127 S 
ATOM     95  O   UNL A   1      44.614  37.402  27.447  1.00  0.00    -0.237 OA
ATOM     96  O   UNL A   1      46.964  37.752  28.095  1.00  0.00    -0.237 OA
ATOM     97  O   UNL A   1      46.430  36.250  26.230  1.00  0.00    -0.744 OA
ENDBRANCH  91  94
ENDBRANCH  64  87
ENDBRANCH  38  39
ENDBRANCH  30  33
ENDBRANCH  28  29
ENDBRANCH  27  28
ENDBRANCH  26  27
ENDBRANCH   1  26
TORSDOF 22
ENDMDL
MODEL 2
REMARK VINA RESULT:     -10.9      1.430      3.155
REMARK SMILES CCC[C@H](CCCc1c(O)nc(N)[nH]c1=O)C(=O)NCCCCNC(=O)c1ccc(-c2c3nc(c(-c4cccc(S(=O)(=O)[O-])c4F)c4ccc([nH]4)c(-c4cccc(S(=O)(=O)[O-])c4F)c4nc(c(-c5cccc(S(=O)(=O)[O-])c5F)c5ccc2[nH]5)C=C4)C=C3)cc1
REMARK SMILES IDX 20 1 19 2 17 3 18 4 4 6 3 7 2 8 1 9 5 10 6 11 7 12 8 13 9 14
REMARK SMILES IDX 15 15 11 16 14 17 16 18 12 19 10 21 13 23 21 26 22 27 23 28
REMARK SMILES IDX 24 29 25 30 26 32 27 33 28 34 89 35 29 36 88 37 30 38 31 39
REMARK SMILES IDX 32 40 82 41 33 42 87 43 81 44 83 45 34 46 86 47 80 48 79 49
REMARK SMILES IDX 35 51 67 52 47 53 66 54 48 55 51 56 65 57 84 58 49 59 50 60
REMARK SMILES IDX 64 62 85 63 52 64 36 65 37 66 45 67 38 68 40 69 46 70 39 71
REMARK SMILES IDX 41 72 42 73 43 74 44 75 68 76 69 77 77 78 70 79 72 80 78 81
REMARK SMILES IDX 71 82 73 83 74 84 75 85 76 86 53 87 54 88 62 89 55 90 57 91
REMARK SMILES IDX 63 92 56 93 58 94 59 95 60 96 61 97
REMARK H PARENT 19 5 14 20 10 22 13 24 13 25 24 31 83 50 51 61
REMARK Flexibility Score: inf
ROOT
ATOM      1  C   UNL A   1      34.009  20.556  25.270  1.00  0.00     0.116 C 
ENDROOT
BRANCH   1   2
ATOM      2  N   UNL A   1      33.602  21.060  26.562  1.00  0.00    -0.356 N 
ATOM      3  C   UNL A   1      33.191  22.280  26.981  1.00  0.00     0.223 C 
ATOM      4  O   UNL A   1      32.944  22.389  28.188  1.00  0.00    -0.275 OA
ATOM      5  H   UNL A   1      33.630  20.383  27.277  1.00  0.00     0.163 HD
BRANCH   3   6
ATOM      6  C   UNL A   1      33.006  23.502  26.069  1.00  0.00     0.078 C 
BRANCH   6   7
ATOM      7  C   UNL A   1      34.301  24.200  25.631  1.00  0.00     0.013 C 
BRANCH   7   8
ATOM      8  C   UNL A   1      34.572  24.119  24.119  1.00  0.00    -0.003 C 
ATOM      9  C   UNL A   1      33.339  24.370  23.258  1.00  0.00     0.004 C 
ENDBRANCH   7   8
ENDBRANCH   6   7
BRANCH   6  10
ATOM     10  C   UNL A   1      31.822  24.437  26.392  1.00  0.00     0.014 C 
BRANCH  10  11
ATOM     11  C   UNL A   1      31.954  25.959  26.404  1.00  0.00     0.006 C 
BRANCH  11  12
ATOM     12  C   UNL A   1      30.736  26.846  26.087  1.00  0.00     0.047 C 
BRANCH  12  13
ATOM     13  C   UNL A   1      30.756  27.619  24.795  1.00  0.00     0.079 A 
ATOM     14  C   UNL A   1      30.260  27.226  23.603  1.00  0.00     0.222 A 
ATOM     15  C   UNL A   1      31.449  28.930  24.797  1.00  0.00     0.259 A 
ATOM     16  N   UNL A   1      30.253  27.999  22.476  1.00  0.00    -0.179 NA
ATOM     17  N   UNL A   1      31.358  29.659  23.654  1.00  0.00    -0.292 N 
ATOM     18  O   UNL A   1      32.097  29.341  25.755  1.00  0.00    -0.269 OA
ATOM     19  C   UNL A   1      30.780  29.174  22.530  1.00  0.00     0.203 A 
ATOM     20  H   UNL A   1      31.724  30.573  23.643  1.00  0.00     0.173 HD
BRANCH  14  21
ATOM     21  O   UNL A   1      29.691  25.984  23.410  1.00  0.00    -0.493 OA
ATOM     22  H   UNL A   1      30.085  25.376  22.816  1.00  0.00     0.295 HD
ENDBRANCH  14  21
BRANCH  19  23
ATOM     23  N   UNL A   1      30.782  29.973  21.445  1.00  0.00    -0.369 N 
ATOM     24  H   UNL A   1      30.000  30.538  21.249  1.00  0.00     0.159 HD
ATOM     25  H   UNL A   1      31.564  29.991  20.849  1.00  0.00     0.159 HD
ENDBRANCH  19  23
ENDBRANCH  12  13
ENDBRANCH  11  12
ENDBRANCH  10  11
ENDBRANCH   6  10
ENDBRANCH   3   6
ENDBRANCH   1   2
BRANCH   1  26
ATOM     26  C   UNL A   1      35.524  20.355  25.200  1.00  0.00     0.023 C 
BRANCH  26  27
ATOM     27  C   UNL A   1      36.362  21.519  25.705  1.00  0.00     0.023 C 
BRANCH  27  28
ATOM     28  C   UNL A   1      37.750  21.619  25.097  1.00  0.00     0.116 C 
BRANCH  28  29
ATOM     29  N   UNL A   1      38.642  20.521  25.453  1.00  0.00    -0.352 N 
ATOM     30  C   UNL A   1      39.772  20.585  26.244  1.00  0.00     0.251 C 
ATOM     31  H   UNL A   1      38.412  19.635  25.090  1.00  0.00     0.163 HD
ATOM     32  O   UNL A   1      40.472  19.604  26.427  1.00  0.00    -0.269 OA
BRANCH  30  33
ATOM     33  C   UNL A   1      40.134  21.898  26.818  1.00  0.00     0.039 A 
ATOM     34  C   UNL A   1      41.025  21.946  27.892  1.00  0.00     0.014 A 
ATOM     35  C   UNL A   1      39.707  23.068  26.187  1.00  0.00     0.014 A 
ATOM     36  C   UNL A   1      41.561  23.177  28.279  1.00  0.00     0.010 A 
ATOM     37  C   UNL A   1      40.310  24.274  26.515  1.00  0.00     0.010 A 
ATOM     38  C   UNL A   1      41.245  24.341  27.561  1.00  0.00    -0.014 A 
BRANCH  38  39
ATOM     39  C   UNL A   1      41.866  25.652  27.872  1.00  0.00     0.031 A 
ATOM     40  C   UNL A   1      41.049  26.706  28.568  1.00  0.00     0.074 A 
ATOM     41  C   UNL A   1      43.108  25.936  27.432  1.00  0.00     0.049 A 
ATOM     42  N   UNL A   1      41.337  27.958  28.795  1.00  0.00    -0.248 NA
ATOM     43  C   UNL A   1      39.711  26.303  29.037  1.00  0.00     0.031 C 
ATOM     44  C   UNL A   1      43.976  25.018  26.690  1.00  0.00     0.029 A 
ATOM     45  N   UNL A   1      43.847  27.089  27.521  1.00  0.00    -0.354 N 
ATOM     46  C   UNL A   1      40.207  28.502  29.393  1.00  0.00     0.074 A 
ATOM     47  C   UNL A   1      39.212  27.455  29.454  1.00  0.00     0.031 C 
ATOM     48  C   UNL A   1      45.131  25.640  26.401  1.00  0.00     0.029 A 
ATOM     49  C   UNL A   1      45.075  27.008  26.905  1.00  0.00     0.049 A 
ATOM     50  H   UNL A   1      43.529  27.898  27.982  1.00  0.00     0.167 HD
ATOM     51  C   UNL A   1      40.026  29.751  29.882  1.00  0.00     0.034 A 
ATOM     52  C   UNL A   1      46.045  27.935  26.761  1.00  0.00     0.034 A 
ATOM     53  C   UNL A   1      41.040  30.768  29.873  1.00  0.00     0.049 A 
ATOM     54  C   UNL A   1      45.837  29.302  27.359  1.00  0.00     0.074 A 
ATOM     55  C   UNL A   1      40.978  32.049  30.390  1.00  0.00     0.029 A 
ATOM     56  N   UNL A   1      42.307  30.615  29.330  1.00  0.00    -0.354 N 
ATOM     57  N   UNL A   1      44.801  29.766  28.016  1.00  0.00    -0.248 NA
ATOM     58  C   UNL A   1      46.944  30.261  27.231  1.00  0.00     0.031 C 
ATOM     59  C   UNL A   1      42.207  32.673  30.159  1.00  0.00     0.029 A 
ATOM     60  C   UNL A   1      43.042  31.773  29.514  1.00  0.00     0.049 A 
ATOM     61  H   UNL A   1      42.635  29.804  28.881  1.00  0.00     0.167 HD
ATOM     62  C   UNL A   1      45.145  31.054  28.412  1.00  0.00     0.074 A 
ATOM     63  C   UNL A   1      46.493  31.289  27.937  1.00  0.00     0.031 C 
ATOM     64  C   UNL A   1      44.406  31.966  29.092  1.00  0.00     0.034 A 
BRANCH  51  65
ATOM     65  C   UNL A   1      38.707  30.060  30.541  1.00  0.00     0.023 A 
ATOM     66  C   UNL A   1      38.464  29.592  31.849  1.00  0.00     0.012 A 
ATOM     67  C   UNL A   1      37.738  30.856  29.900  1.00  0.00     0.148 A 
ATOM     68  C   UNL A   1      37.267  29.886  32.498  1.00  0.00     0.002 A 
ATOM     69  C   UNL A   1      36.567  31.185  30.573  1.00  0.00     0.091 A 
ATOM     70  F   UNL A   1      37.977  31.271  28.648  1.00  0.00    -0.205 F 
ATOM     71  C   UNL A   1      36.324  30.692  31.865  1.00  0.00     0.022 A 
BRANCH  69  72
ATOM     72  S   UNL A   1      35.326  32.285  29.881  1.00  0.00     0.127 S 
ATOM     73  O   UNL A   1      34.813  31.488  28.768  1.00  0.00    -0.237 OA
ATOM     74  O   UNL A   1      34.396  32.440  31.000  1.00  0.00    -0.237 OA
ATOM     75  O   UNL A   1      36.032  33.501  29.504  1.00  0.00    -0.744 OA
ENDBRANCH  69  72
ENDBRANCH  51  65
BRANCH  52  76
ATOM     76  C   UNL A   1      47.334  27.567  26.109  1.00  0.00     0.023 A 
ATOM     77  C   UNL A   1      48.346  26.969  26.886  1.00  0.00     0.012 A 
ATOM     78  C   UNL A   1      47.549  27.748  24.728  1.00  0.00     0.148 A 
ATOM     79  C   UNL A   1      49.555  26.582  26.309  1.00  0.00     0.002 A 
ATOM     80  C   UNL A   1      48.734  27.309  24.148  1.00  0.00     0.091 A 
ATOM     81  F   UNL A   1      46.580  28.329  24.006  1.00  0.00    -0.205 F 
ATOM     82  C   UNL A   1      49.746  26.740  24.939  1.00  0.00     0.022 A 
BRANCH  80  83
ATOM     83  S   UNL A   1      49.012  27.340  22.373  1.00  0.00     0.127 S 
ATOM     84  O   UNL A   1      50.468  27.424  22.299  1.00  0.00    -0.237 OA
ATOM     85  O   UNL A   1      48.446  26.056  21.957  1.00  0.00    -0.237 OA
ATOM     86  O   UNL A   1      48.284  28.503  21.883  1.00  0.00    -0.744 OA
ENDBRANCH  80  83
ENDBRANCH  52  76
BRANCH  64  87
ATOM     87  C   UNL A   1      45.041  33.294  29.407  1.00  0.00     0.023 A 
ATOM     88  C   UNL A   1      45.780  33.452  30.595  1.00  0.00     0.012 A 
ATOM     89  C   UNL A   1      44.991  34.351  28.476  1.00  0.00     0.148 A 
ATOM     90  C   UNL A   1      46.438  34.651  30.865  1.00  0.00     0.002 A 
ATOM     91  C   UNL A   1      45.690  35.526  28.730  1.00  0.00     0.091 A 
ATOM     92  F   UNL A   1      44.266  34.190  27.361  1.00  0.00    -0.205 F 
ATOM     93  C   UNL A   1      46.405  35.681  29.928  1.00  0.00     0.022 A 
BRANCH  91  94
ATOM     94  S   UNL A   1      45.787  36.858  27.529  1.00  0.00     0.127 S 
ATOM     95  O   UNL A   1      46.655  37.814  28.213  1.00  0.00    -0.237 OA
ATOM     96  O   UNL A   1      46.397  36.197  26.374  1.00  0.00    -0.237 OA
ATOM     97  O   UNL A   1      44.414  37.296  27.311  1.00  0.00    -0.744 OA
ENDBRANCH  91  94
ENDBRANCH  64  87
ENDBRANCH  38  39
ENDBRANCH  30  33
ENDBRANCH  28  29
ENDBRANCH  27  28
ENDBRANCH  26  27
ENDBRANCH   1  26
TORSDOF 22
ENDMDL
MODEL 3
REMARK VINA RESULT:     -10.9      1.822      8.190
REMARK SMILES CCC[C@H](CCCc1c(O)nc(N)[nH]c1=O)C(=O)NCCCCNC(=O)c1ccc(-c2c3nc(c(-c4cccc(S(=O)(=O)[O-])c4F)c4ccc([nH]4)c(-c4cccc(S(=O)(=O)[O-])c4F)c4nc(c(-c5cccc(S(=O)(=O)[O-])c5F)c5ccc2[nH]5)C=C4)C=C3)cc1
REMARK SMILES IDX 20 1 19 2 17 3 18 4 4 6 3 7 2 8 1 9 5 10 6 11 7 12 8 13 9 14
REMARK SMILES IDX 15 15 11 16 14 17 16 18 12 19 10 21 13 23 21 26 22 27 23 28
REMARK SMILES IDX 24 29 25 30 26 32 27 33 28 34 89 35 29 36 88 37 30 38 31 39
REMARK SMILES IDX 32 40 82 41 33 42 87 43 81 44 83 45 34 46 86 47 80 48 79 49
REMARK SMILES IDX 35 51 67 52 47 53 66 54 48 55 51 56 65 57 84 58 49 59 50 60
REMARK SMILES IDX 64 62 85 63 52 64 36 65 37 66 45 67 38 68 40 69 46 70 39 71
REMARK SMILES IDX 41 72 42 73 43 74 44 75 68 76 69 77 77 78 70 79 72 80 78 81
REMARK SMILES IDX 71 82 73 83 74 84 75 85 76 86 53 87 54 88 62 89 55 90 57 91
REMARK SMILES IDX 63 92 56 93 58 94 59 95 60 96 61 97
REMARK H PARENT 19 5 14 20 10 22 13 24 13 25 24 31 83 50 51 61
REMARK Flexibility Score: inf
ROOT
ATOM      1  C   UNL A   1      33.524  20.476  25.135  1.00  0.00     0.116 C 
ENDROOT
BRANCH   1   2
ATOM      2  N   UNL A   1      33.106  21.145  26.346  1.00  0.00    -0.356 N 
ATOM      3  C   UNL A   1      32.685  22.408  26.595  1.00  0.00     0.223 C 
ATOM      4  O   UNL A   1      32.429  22.675  27.776  1.00  0.00    -0.275 OA
ATOM      5  H   UNL A   1      33.134  20.570  27.145  1.00  0.00     0.163 HD
BRANCH   3   6
ATOM      6  C   UNL A   1      32.497  23.494  25.527  1.00  0.00     0.078 C 
BRANCH   6   7
ATOM      7  C   UNL A   1      33.673  24.467  25.363  1.00  0.00     0.013 C 
BRANCH   7   8
ATOM      8  C   UNL A   1      34.241  24.523  23.934  1.00  0.00    -0.003 C 
ATOM      9  C   UNL A   1      33.798  23.362  23.051  1.00  0.00     0.004 C 
ENDBRANCH   7   8
ENDBRANCH   6   7
BRANCH   6  10
ATOM     10  C   UNL A   1      31.092  24.124  25.416  1.00  0.00     0.014 C 
BRANCH  10  11
ATOM     11  C   UNL A   1      30.411  24.387  24.074  1.00  0.00     0.006 C 
BRANCH  11  12
ATOM     12  C   UNL A   1      30.105  25.828  23.630  1.00  0.00     0.047 C 
BRANCH  12  13
ATOM     13  C   UNL A   1      31.264  26.782  23.514  1.00  0.00     0.079 A 
ATOM     14  C   UNL A   1      31.762  27.581  24.481  1.00  0.00     0.222 A 
ATOM     15  C   UNL A   1      31.900  26.921  22.181  1.00  0.00     0.259 A 
ATOM     16  N   UNL A   1      32.858  28.383  24.332  1.00  0.00    -0.179 NA
ATOM     17  N   UNL A   1      33.012  27.699  22.125  1.00  0.00    -0.292 N 
ATOM     18  O   UNL A   1      31.450  26.394  21.169  1.00  0.00    -0.269 OA
ATOM     19  C   UNL A   1      33.450  28.414  23.187  1.00  0.00     0.203 A 
ATOM     20  H   UNL A   1      33.518  27.745  21.281  1.00  0.00     0.173 HD
BRANCH  14  21
ATOM     21  O   UNL A   1      31.205  27.655  25.741  1.00  0.00    -0.493 OA
ATOM     22  H   UNL A   1      31.332  28.422  26.264  1.00  0.00     0.295 HD
ENDBRANCH  14  21
BRANCH  19  23
ATOM     23  N   UNL A   1      34.542  29.182  23.004  1.00  0.00    -0.369 N 
ATOM     24  H   UNL A   1      34.686  29.636  22.142  1.00  0.00     0.159 HD
ATOM     25  H   UNL A   1      35.197  29.288  23.731  1.00  0.00     0.159 HD
ENDBRANCH  19  23
ENDBRANCH  12  13
ENDBRANCH  11  12
ENDBRANCH  10  11
ENDBRANCH   6  10
ENDBRANCH   3   6
ENDBRANCH   1   2
BRANCH   1  26
ATOM     26  C   UNL A   1      35.046  20.338  25.069  1.00  0.00     0.023 C 
BRANCH  26  27
ATOM     27  C   UNL A   1      35.833  21.443  25.759  1.00  0.00     0.023 C 
BRANCH  27  28
ATOM     28  C   UNL A   1      37.196  21.731  25.153  1.00  0.00     0.116 C 
BRANCH  28  29
ATOM     29  N   UNL A   1      38.192  20.694  25.398  1.00  0.00    -0.352 N 
ATOM     30  C   UNL A   1      39.385  20.824  26.081  1.00  0.00     0.251 C 
ATOM     31  H   UNL A   1      37.991  19.800  25.036  1.00  0.00     0.163 HD
ATOM     32  O   UNL A   1      40.166  19.892  26.174  1.00  0.00    -0.269 OA
BRANCH  30  33
ATOM     33  C   UNL A   1      39.706  22.149  26.651  1.00  0.00     0.039 A 
ATOM     34  C   UNL A   1      40.696  22.243  27.632  1.00  0.00     0.014 A 
ATOM     35  C   UNL A   1      39.133  23.296  26.098  1.00  0.00     0.014 A 
ATOM     36  C   UNL A   1      41.178  23.502  27.996  1.00  0.00     0.010 A 
ATOM     37  C   UNL A   1      39.677  24.537  26.397  1.00  0.00     0.010 A 
ATOM     38  C   UNL A   1      40.707  24.653  27.345  1.00  0.00    -0.014 A 
BRANCH  38  39
ATOM     39  C   UNL A   1      41.259  26.001  27.628  1.00  0.00     0.031 A 
ATOM     40  C   UNL A   1      42.673  26.317  27.225  1.00  0.00     0.074 A 
ATOM     41  C   UNL A   1      40.541  26.891  28.343  1.00  0.00     0.049 A 
ATOM     42  N   UNL A   1      43.398  27.364  27.509  1.00  0.00    -0.248 NA
ATOM     43  C   UNL A   1      43.376  25.297  26.425  1.00  0.00     0.031 C 
ATOM     44  C   UNL A   1      39.182  26.677  28.846  1.00  0.00     0.029 A 
ATOM     45  N   UNL A   1      40.866  28.146  28.795  1.00  0.00    -0.354 N 
ATOM     46  C   UNL A   1      44.651  27.113  26.962  1.00  0.00     0.074 A 
ATOM     47  C   UNL A   1      44.600  25.797  26.367  1.00  0.00     0.031 C 
ATOM     48  C   UNL A   1      38.787  27.765  29.527  1.00  0.00     0.029 A 
ATOM     49  C   UNL A   1      39.873  28.740  29.539  1.00  0.00     0.049 A 
ATOM     50  H   UNL A   1      41.728  28.580  28.604  1.00  0.00     0.167 HD
ATOM     51  C   UNL A   1      45.735  27.922  26.924  1.00  0.00     0.034 A 
ATOM     52  C   UNL A   1      39.844  29.936  30.164  1.00  0.00     0.034 A 
ATOM     53  C   UNL A   1      45.760  29.252  27.465  1.00  0.00     0.049 A 
ATOM     54  C   UNL A   1      41.047  30.837  30.064  1.00  0.00     0.074 A 
ATOM     55  C   UNL A   1      46.790  30.174  27.432  1.00  0.00     0.029 A 
ATOM     56  N   UNL A   1      44.700  29.857  28.122  1.00  0.00    -0.354 N 
ATOM     57  N   UNL A   1      42.187  30.625  29.450  1.00  0.00    -0.248 NA
ATOM     58  C   UNL A   1      40.949  32.154  30.708  1.00  0.00     0.031 C 
ATOM     59  C   UNL A   1      46.354  31.337  28.073  1.00  0.00     0.029 A 
ATOM     60  C   UNL A   1      45.045  31.146  28.488  1.00  0.00     0.049 A 
ATOM     61  H   UNL A   1      43.831  29.433  28.303  1.00  0.00     0.167 HD
ATOM     62  C   UNL A   1      42.924  31.794  29.601  1.00  0.00     0.074 A 
ATOM     63  C   UNL A   1      42.095  32.717  30.348  1.00  0.00     0.031 C 
ATOM     64  C   UNL A   1      44.181  32.073  29.174  1.00  0.00     0.034 A 
BRANCH  51  65
ATOM     65  C   UNL A   1      46.960  27.417  26.206  1.00  0.00     0.023 A 
ATOM     66  C   UNL A   1      47.118  27.699  24.833  1.00  0.00     0.012 A 
ATOM     67  C   UNL A   1      47.975  26.722  26.891  1.00  0.00     0.148 A 
ATOM     68  C   UNL A   1      48.253  27.273  24.146  1.00  0.00     0.002 A 
ATOM     69  C   UNL A   1      49.126  26.343  26.209  1.00  0.00     0.091 A 
ATOM     70  F   UNL A   1      47.795  26.442  28.189  1.00  0.00    -0.205 F 
ATOM     71  C   UNL A   1      49.261  26.606  24.837  1.00  0.00     0.022 A 
BRANCH  69  72
ATOM     72  S   UNL A   1      50.521  25.554  27.023  1.00  0.00     0.127 S 
ATOM     73  O   UNL A   1      49.908  24.331  27.539  1.00  0.00    -0.237 OA
ATOM     74  O   UNL A   1      51.448  25.349  25.911  1.00  0.00    -0.237 OA
ATOM     75  O   UNL A   1      50.982  26.495  28.034  1.00  0.00    -0.744 OA
ENDBRANCH  69  72
ENDBRANCH  51  65
BRANCH  52  76
ATOM     76  C   UNL A   1      38.599  30.385  30.850  1.00  0.00     0.023 A 
ATOM     77  C   UNL A   1      38.470  30.176  32.238  1.00  0.00     0.012 A 
ATOM     78  C   UNL A   1      37.572  31.062  30.162  1.00  0.00     0.148 A 
ATOM     79  C   UNL A   1      37.335  30.607  32.923  1.00  0.00     0.002 A 
ATOM     80  C   UNL A   1      36.469  31.540  30.861  1.00  0.00     0.091 A 
ATOM     81  F   UNL A   1      37.705  31.242  28.840  1.00  0.00    -0.205 F 
ATOM     82  C   UNL A   1      36.340  31.299  32.238  1.00  0.00     0.022 A 
BRANCH  80  83
ATOM     83  S   UNL A   1      35.207  32.564  30.093  1.00  0.00     0.127 S 
ATOM     84  O   UNL A   1      34.273  32.766  31.197  1.00  0.00    -0.237 OA
ATOM     85  O   UNL A   1      35.975  33.749  29.708  1.00  0.00    -0.237 OA
ATOM     86  O   UNL A   1      34.702  31.786  28.969  1.00  0.00    -0.744 OA
ENDBRANCH  80  83
ENDBRANCH  52  76
BRANCH  64  87
ATOM     87  C   UNL A   1      44.736  33.443  29.463  1.00  0.00     0.023 A 
ATOM     88  C   UNL A   1      45.455  33.669  30.652  1.00  0.00     0.012 A 
ATOM     89  C   UNL A   1      44.633  34.475  28.509  1.00  0.00     0.148 A 
ATOM     90  C   UNL A   1      46.041  34.910  30.901  1.00  0.00     0.002 A 
ATOM     91  C   UNL A   1      45.261  35.693  28.741  1.00  0.00     0.091 A 
ATOM     92  F   UNL A   1      43.927  34.248  27.392  1.00  0.00    -0.205 F 
ATOM     93  C   UNL A   1      45.956  35.916  29.941  1.00  0.00     0.022 A 
BRANCH  91  94
ATOM     94  S   UNL A   1      45.291  37.002  27.511  1.00  0.00     0.127 S 
ATOM     95  O   UNL A   1      45.964  36.345  26.393  1.00  0.00    -0.237 OA
ATOM     96  O   UNL A   1      43.868  37.266  27.297  1.00  0.00    -0.237 OA
ATOM     97  O   UNL A   1      46.019  38.106  28.125  1.00  0.00    -0.744 OA
ENDBRANCH  91  94
ENDBRANCH  64  87
ENDBRANCH  38  39
ENDBRANCH  30  33
ENDBRANCH  28  29
ENDBRANCH  27  28
ENDBRANCH  26  27
ENDBRANCH   1  26
TORSDOF 22
ENDMDL
