MODEL 1
REMARK VINA RESULT:     -11.6      0.000      0.000
REMARK SMILES CNS(=O)(=O)c1ccc(Oc2csc(C(=O)NCCCCNC(=O)c3ccc(-c4c5nc(c(-c6cccc(S(=O)(=O)[O-])c6F)c6ccc([nH]6)c(-c6cccc(S(=O)(=O)[O-])c6F)c6nc(c(-c7cccc(S(=O)(=O)[O-])c7F)c7ccc4[nH]7)C=C6)C=C5)cc3)c2)cc1
REMARK SMILES IDX 19 1 18 2 17 3 15 4 16 5 14 7 11 8 12 9 88 10 13 11 10 12
REMARK SMILES IDX 9 13 6 14 7 15 90 16 8 17 89 18 3 19 4 20 5 21 2 22 1 23
REMARK SMILES IDX 20 25 21 26 22 27 23 28 24 30 25 31 26 32 87 33 27 34 86 35
REMARK SMILES IDX 28 36 29 37 30 38 80 39 31 40 85 41 79 42 81 43 32 44 84 45
REMARK SMILES IDX 78 46 77 47 33 49 65 50 45 51 64 52 46 53 49 54 63 55 82 56
REMARK SMILES IDX 47 57 48 58 62 60 83 61 50 62 34 63 35 64 43 65 36 66 38 67
REMARK SMILES IDX 44 68 37 69 39 70 40 71 41 72 42 73 66 74 67 75 75 76 68 77
REMARK SMILES IDX 70 78 76 79 69 80 71 81 72 82 73 83 74 84 51 85 52 86 60 87
REMARK SMILES IDX 53 88 55 89 61 90 54 91 56 92 57 93 58 94 59 95
REMARK H PARENT 17 6 2 24 22 29 81 48 49 59
REMARK Flexibility Score: inf
ROOT
ATOM      1  C   UNL A   1      36.418  20.447  24.532  1.00  0.00     0.023 C 
ENDROOT
BRANCH   1   2
ATOM      2  C   UNL A   1      35.523  20.920  25.676  1.00  0.00     0.116 C 
BRANCH   2   3
ATOM      3  N   UNL A   1      34.196  20.352  25.562  1.00  0.00    -0.351 N 
ATOM      4  C   UNL A   1      32.985  20.885  25.191  1.00  0.00     0.261 C 
ATOM      5  O   UNL A   1      32.050  20.081  25.155  1.00  0.00    -0.268 OA
ATOM      6  H   UNL A   1      34.153  19.397  25.797  1.00  0.00     0.163 HD
BRANCH   4   7
ATOM      7  C   UNL A   1      32.837  22.292  24.832  1.00  0.00     0.096 A 
ATOM      8  C   UNL A   1      32.482  24.596  24.781  1.00  0.00     0.138 A 
ATOM      9  C   UNL A   1      33.045  24.414  23.543  1.00  0.00     0.112 A 
ATOM     10  C   UNL A   1      32.310  23.383  25.499  1.00  0.00     0.072 A 
ATOM     11  S   UNL A   1      33.377  22.765  23.256  1.00  0.00    -0.135 S 
BRANCH   8  12
ATOM     12  O   UNL A   1      32.194  25.820  25.273  1.00  0.00    -0.456 OA
BRANCH  12  13
ATOM     13  C   UNL A   1      31.215  26.604  24.711  1.00  0.00     0.127 A 
ATOM     14  C   UNL A   1      29.417  28.331  23.469  1.00  0.00     0.082 A 
ATOM     15  C   UNL A   1      30.712  28.772  23.750  1.00  0.00     0.025 A 
ATOM     16  C   UNL A   1      29.010  27.041  23.825  1.00  0.00     0.025 A 
ATOM     17  C   UNL A   1      31.608  27.903  24.374  1.00  0.00     0.048 A 
ATOM     18  C   UNL A   1      29.913  26.175  24.443  1.00  0.00     0.048 A 
BRANCH  14  19
ATOM     19  S   UNL A   1      28.242  29.382  22.665  1.00  0.00     0.240 S 
ATOM     20  O   UNL A   1      26.928  28.791  22.811  1.00  0.00    -0.207 OA
ATOM     21  O   UNL A   1      28.789  29.717  21.372  1.00  0.00    -0.207 OA
BRANCH  19  22
ATOM     22  N   UNL A   1      28.256  30.811  23.556  1.00  0.00    -0.214 NA
ATOM     23  C   UNL A   1      28.440  32.069  22.842  1.00  0.00     0.120 C 
ATOM     24  H   UNL A   1      27.364  30.870  24.047  1.00  0.00     0.141 HD
ENDBRANCH  19  22
ENDBRANCH  14  19
ENDBRANCH  12  13
ENDBRANCH   8  12
ENDBRANCH   4   7
ENDBRANCH   2   3
ENDBRANCH   1   2
BRANCH   1  25
ATOM     25  C   UNL A   1      37.530  19.490  24.976  1.00  0.00     0.023 C 
BRANCH  25  26
ATOM     26  C   UNL A   1      38.633  20.127  25.819  1.00  0.00     0.116 C 
BRANCH  26  27
ATOM     27  N   UNL A   1      39.849  19.325  25.875  1.00  0.00    -0.352 N 
ATOM     28  C   UNL A   1      41.121  19.730  26.204  1.00  0.00     0.251 C 
ATOM     29  H   UNL A   1      39.746  18.372  25.651  1.00  0.00     0.163 HD
ATOM     30  O   UNL A   1      42.069  18.959  26.092  1.00  0.00    -0.269 OA
BRANCH  28  31
ATOM     31  C   UNL A   1      41.331  21.120  26.655  1.00  0.00     0.039 A 
ATOM     32  C   UNL A   1      41.933  21.345  27.894  1.00  0.00     0.014 A 
ATOM     33  C   UNL A   1      41.010  22.187  25.813  1.00  0.00     0.014 A 
ATOM     34  C   UNL A   1      42.292  22.645  28.253  1.00  0.00     0.010 A 
ATOM     35  C   UNL A   1      41.437  23.469  26.140  1.00  0.00     0.010 A 
ATOM     36  C   UNL A   1      42.092  23.710  27.359  1.00  0.00    -0.014 A 
BRANCH  36  37
ATOM     37  C   UNL A   1      42.602  25.073  27.655  1.00  0.00     0.031 A 
ATOM     38  C   UNL A   1      41.704  26.100  28.286  1.00  0.00     0.074 A 
ATOM     39  C   UNL A   1      43.846  25.414  27.262  1.00  0.00     0.049 A 
ATOM     40  N   UNL A   1      41.951  27.356  28.551  1.00  0.00    -0.248 NA
ATOM     41  C   UNL A   1      40.341  25.668  28.638  1.00  0.00     0.031 C 
ATOM     42  C   UNL A   1      44.785  24.531  26.566  1.00  0.00     0.029 A 
ATOM     43  N   UNL A   1      44.522  26.605  27.359  1.00  0.00    -0.354 N 
ATOM     44  C   UNL A   1      40.769  27.873  29.067  1.00  0.00     0.074 A 
ATOM     45  C   UNL A   1      39.795  26.804  29.047  1.00  0.00     0.031 C 
ATOM     46  C   UNL A   1      45.912  25.210  26.299  1.00  0.00     0.029 A 
ATOM     47  C   UNL A   1      45.763  26.585  26.766  1.00  0.00     0.049 A 
ATOM     48  H   UNL A   1      44.154  27.399  27.810  1.00  0.00     0.167 HD
ATOM     49  C   UNL A   1      40.522  29.120  29.535  1.00  0.00     0.034 A 
ATOM     50  C   UNL A   1      46.672  27.565  26.595  1.00  0.00     0.034 A 
ATOM     51  C   UNL A   1      41.502  30.172  29.577  1.00  0.00     0.049 A 
ATOM     52  C   UNL A   1      46.380  28.936  27.141  1.00  0.00     0.074 A 
ATOM     53  C   UNL A   1      41.377  31.439  30.120  1.00  0.00     0.029 A 
ATOM     54  N   UNL A   1      42.774  30.094  29.034  1.00  0.00    -0.354 N 
ATOM     55  N   UNL A   1      45.317  29.360  27.779  1.00  0.00    -0.248 NA
ATOM     56  C   UNL A   1      47.425  29.957  26.971  1.00  0.00     0.031 C 
ATOM     57  C   UNL A   1      42.560  32.140  29.867  1.00  0.00     0.029 A 
ATOM     58  C   UNL A   1      43.439  31.295  29.207  1.00  0.00     0.049 A 
ATOM     59  H   UNL A   1      43.151  29.299  28.591  1.00  0.00     0.167 HD
ATOM     60  C   UNL A   1      45.576  30.685  28.115  1.00  0.00     0.074 A 
ATOM     61  C   UNL A   1      46.907  30.985  27.628  1.00  0.00     0.031 C 
ATOM     62  C   UNL A   1      44.778  31.574  28.757  1.00  0.00     0.034 A 
BRANCH  49  63
ATOM     63  C   UNL A   1      39.144  29.405  30.072  1.00  0.00     0.023 A 
ATOM     64  C   UNL A   1      38.816  29.045  31.395  1.00  0.00     0.012 A 
ATOM     65  C   UNL A   1      38.190  30.081  29.284  1.00  0.00     0.148 A 
ATOM     66  C   UNL A   1      37.551  29.313  31.913  1.00  0.00     0.002 A 
ATOM     67  C   UNL A   1      36.948  30.391  29.824  1.00  0.00     0.091 A 
ATOM     68  F   UNL A   1      38.511  30.398  28.023  1.00  0.00    -0.205 F 
ATOM     69  C   UNL A   1      36.621  29.995  31.133  1.00  0.00     0.022 A 
BRANCH  67  70
ATOM     70  S   UNL A   1      35.712  31.338  28.930  1.00  0.00     0.127 S 
ATOM     71  O   UNL A   1      36.533  32.366  28.293  1.00  0.00    -0.237 OA
ATOM     72  O   UNL A   1      35.166  30.338  28.011  1.00  0.00    -0.237 OA
ATOM     73  O   UNL A   1      34.772  31.821  29.932  1.00  0.00    -0.744 OA
ENDBRANCH  67  70
ENDBRANCH  49  63
BRANCH  50  74
ATOM     74  C   UNL A   1      47.958  27.275  25.901  1.00  0.00     0.023 A 
ATOM     75  C   UNL A   1      49.054  26.784  26.636  1.00  0.00     0.012 A 
ATOM     76  C   UNL A   1      48.092  27.458  24.510  1.00  0.00     0.148 A 
ATOM     77  C   UNL A   1      50.269  26.511  26.006  1.00  0.00     0.002 A 
ATOM     78  C   UNL A   1      49.285  27.129  23.880  1.00  0.00     0.091 A 
ATOM     79  F   UNL A   1      47.039  27.935  23.830  1.00  0.00    -0.205 F 
ATOM     80  C   UNL A   1      50.381  26.674  24.628  1.00  0.00     0.022 A 
BRANCH  78  81
ATOM     81  S   UNL A   1      49.476  27.176  22.094  1.00  0.00     0.127 S 
ATOM     82  O   UNL A   1      48.567  26.114  21.669  1.00  0.00    -0.237 OA
ATOM     83  O   UNL A   1      49.027  28.533  21.782  1.00  0.00    -0.237 OA
ATOM     84  O   UNL A   1      50.890  26.937  21.841  1.00  0.00    -0.744 OA
ENDBRANCH  78  81
ENDBRANCH  50  74
BRANCH  62  85
ATOM     85  C   UNL A   1      45.326  32.954  29.008  1.00  0.00     0.023 A 
ATOM     86  C   UNL A   1      46.026  33.229  30.199  1.00  0.00     0.012 A 
ATOM     87  C   UNL A   1      45.217  33.956  28.023  1.00  0.00     0.148 A 
ATOM     88  C   UNL A   1      46.583  34.489  30.419  1.00  0.00     0.002 A 
ATOM     89  C   UNL A   1      45.821  35.190  28.225  1.00  0.00     0.091 A 
ATOM     90  F   UNL A   1      44.533  33.679  26.903  1.00  0.00    -0.205 F 
ATOM     91  C   UNL A   1      46.492  35.463  29.428  1.00  0.00     0.022 A 
BRANCH  89  92
ATOM     92  S   UNL A   1      45.842  36.474  26.969  1.00  0.00     0.127 S 
ATOM     93  O   UNL A   1      44.435  36.870  26.925  1.00  0.00    -0.237 OA
ATOM     94  O   UNL A   1      46.738  37.469  27.560  1.00  0.00    -0.237 OA
ATOM     95  O   UNL A   1      46.348  35.845  25.756  1.00  0.00    -0.744 OA
ENDBRANCH  89  92
ENDBRANCH  62  85
ENDBRANCH  36  37
ENDBRANCH  28  31
ENDBRANCH  26  27
ENDBRANCH  25  26
ENDBRANCH   1  25
TORSDOF 18
ENDMDL
MODEL 2
REMARK VINA RESULT:     -11.6      3.042      8.088
REMARK SMILES CNS(=O)(=O)c1ccc(Oc2csc(C(=O)NCCCCNC(=O)c3ccc(-c4c5nc(c(-c6cccc(S(=O)(=O)[O-])c6F)c6ccc([nH]6)c(-c6cccc(S(=O)(=O)[O-])c6F)c6nc(c(-c7cccc(S(=O)(=O)[O-])c7F)c7ccc4[nH]7)C=C6)C=C5)cc3)c2)cc1
REMARK SMILES IDX 19 1 18 2 17 3 15 4 16 5 14 7 11 8 12 9 88 10 13 11 10 12
REMARK SMILES IDX 9 13 6 14 7 15 90 16 8 17 89 18 3 19 4 20 5 21 2 22 1 23
REMARK SMILES IDX 20 25 21 26 22 27 23 28 24 30 25 31 26 32 87 33 27 34 86 35
REMARK SMILES IDX 28 36 29 37 30 38 80 39 31 40 85 41 79 42 81 43 32 44 84 45
REMARK SMILES IDX 78 46 77 47 33 49 65 50 45 51 64 52 46 53 49 54 63 55 82 56
REMARK SMILES IDX 47 57 48 58 62 60 83 61 50 62 34 63 35 64 43 65 36 66 38 67
REMARK SMILES IDX 44 68 37 69 39 70 40 71 41 72 42 73 66 74 67 75 75 76 68 77
REMARK SMILES IDX 70 78 76 79 69 80 71 81 72 82 73 83 74 84 51 85 52 86 60 87
REMARK SMILES IDX 53 88 55 89 61 90 54 91 56 92 57 93 58 94 59 95
REMARK H PARENT 17 6 2 24 22 29 81 48 49 59
REMARK Flexibility Score: inf
ROOT
ATOM      1  C   UNL A   1      35.536  21.065  24.981  1.00  0.00     0.023 C 
ENDROOT
BRANCH   1   2
ATOM      2  C   UNL A   1      34.148  20.507  25.290  1.00  0.00     0.116 C 
BRANCH   2   3
ATOM      3  N   UNL A   1      33.291  20.580  24.126  1.00  0.00    -0.351 N 
ATOM      4  C   UNL A   1      32.422  21.541  23.670  1.00  0.00     0.261 C 
ATOM      5  O   UNL A   1      31.884  21.288  22.588  1.00  0.00    -0.268 OA
ATOM      6  H   UNL A   1      33.340  19.784  23.547  1.00  0.00     0.163 HD
BRANCH   4   7
ATOM      7  C   UNL A   1      32.189  22.782  24.401  1.00  0.00     0.096 A 
ATOM      8  C   UNL A   1      32.070  24.988  25.149  1.00  0.00     0.138 A 
ATOM      9  C   UNL A   1      31.212  24.389  26.036  1.00  0.00     0.112 A 
ATOM     10  C   UNL A   1      32.673  24.070  24.249  1.00  0.00     0.072 A 
ATOM     11  S   UNL A   1      31.129  22.706  25.768  1.00  0.00    -0.135 S 
BRANCH   8  12
ATOM     12  O   UNL A   1      32.253  26.325  25.109  1.00  0.00    -0.456 OA
BRANCH  12  13
ATOM     13  C   UNL A   1      31.325  27.157  24.531  1.00  0.00     0.127 A 
ATOM     14  C   UNL A   1      29.610  29.030  23.387  1.00  0.00     0.082 A 
ATOM     15  C   UNL A   1      30.615  29.459  24.258  1.00  0.00     0.025 A 
ATOM     16  C   UNL A   1      29.444  27.670  23.104  1.00  0.00     0.025 A 
ATOM     17  C   UNL A   1      31.470  28.515  24.830  1.00  0.00     0.048 A 
ATOM     18  C   UNL A   1      30.306  26.733  23.674  1.00  0.00     0.048 A 
BRANCH  14  19
ATOM     19  S   UNL A   1      28.506  30.181  22.619  1.00  0.00     0.240 S 
ATOM     20  O   UNL A   1      27.270  30.199  23.373  1.00  0.00    -0.207 OA
ATOM     21  O   UNL A   1      28.533  29.910  21.202  1.00  0.00    -0.207 OA
BRANCH  19  22
ATOM     22  N   UNL A   1      29.241  31.683  22.815  1.00  0.00    -0.214 NA
ATOM     23  C   UNL A   1      28.578  32.855  22.254  1.00  0.00     0.120 C 
ATOM     24  H   UNL A   1      29.340  31.843  23.818  1.00  0.00     0.141 HD
ENDBRANCH  19  22
ENDBRANCH  14  19
ENDBRANCH  12  13
ENDBRANCH   8  12
ENDBRANCH   4   7
ENDBRANCH   2   3
ENDBRANCH   1   2
BRANCH   1  25
ATOM     25  C   UNL A   1      35.884  22.325  25.782  1.00  0.00     0.023 C 
BRANCH  25  26
ATOM     26  C   UNL A   1      37.255  22.927  25.478  1.00  0.00     0.116 C 
BRANCH  26  27
ATOM     27  N   UNL A   1      38.360  22.129  25.995  1.00  0.00    -0.352 N 
ATOM     28  C   UNL A   1      39.490  22.563  26.647  1.00  0.00     0.251 C 
ATOM     29  H   UNL A   1      38.288  21.157  25.862  1.00  0.00     0.163 HD
ATOM     30  O   UNL A   1      40.392  21.777  26.920  1.00  0.00    -0.269 OA
BRANCH  28  31
ATOM     31  C   UNL A   1      39.615  23.996  26.976  1.00  0.00     0.039 A 
ATOM     32  C   UNL A   1      39.320  24.421  28.273  1.00  0.00     0.014 A 
ATOM     33  C   UNL A   1      40.106  24.895  26.025  1.00  0.00     0.014 A 
ATOM     34  C   UNL A   1      39.598  25.738  28.641  1.00  0.00     0.010 A 
ATOM     35  C   UNL A   1      40.454  26.183  26.417  1.00  0.00     0.010 A 
ATOM     36  C   UNL A   1      40.213  26.615  27.731  1.00  0.00    -0.014 A 
BRANCH  36  37
ATOM     37  C   UNL A   1      40.657  27.970  28.146  1.00  0.00     0.031 A 
ATOM     38  C   UNL A   1      42.120  28.309  28.191  1.00  0.00     0.074 A 
ATOM     39  C   UNL A   1      39.743  28.862  28.580  1.00  0.00     0.049 A 
ATOM     40  N   UNL A   1      42.696  29.412  28.595  1.00  0.00    -0.248 NA
ATOM     41  C   UNL A   1      43.061  27.265  27.754  1.00  0.00     0.031 C 
ATOM     42  C   UNL A   1      38.300  28.623  28.662  1.00  0.00     0.029 A 
ATOM     43  N   UNL A   1      39.895  30.137  29.066  1.00  0.00    -0.354 N 
ATOM     44  C   UNL A   1      44.063  29.184  28.494  1.00  0.00     0.074 A 
ATOM     45  C   UNL A   1      44.231  27.826  28.022  1.00  0.00     0.031 C 
ATOM     46  C   UNL A   1      37.701  29.712  29.168  1.00  0.00     0.029 A 
ATOM     47  C   UNL A   1      38.717  30.712  29.485  1.00  0.00     0.049 A 
ATOM     48  H   UNL A   1      40.764  30.597  29.112  1.00  0.00     0.167 HD
ATOM     49  C   UNL A   1      45.086  30.033  28.749  1.00  0.00     0.034 A 
ATOM     50  C   UNL A   1      38.480  31.898  30.079  1.00  0.00     0.034 A 
ATOM     51  C   UNL A   1      44.913  31.390  29.194  1.00  0.00     0.049 A 
ATOM     52  C   UNL A   1      39.632  32.831  30.335  1.00  0.00     0.074 A 
ATOM     53  C   UNL A   1      45.881  32.359  29.388  1.00  0.00     0.029 A 
ATOM     54  N   UNL A   1      43.699  31.964  29.537  1.00  0.00    -0.354 N 
ATOM     55  N   UNL A   1      40.905  32.660  30.073  1.00  0.00    -0.248 NA
ATOM     56  C   UNL A   1      39.313  34.132  30.939  1.00  0.00     0.031 C 
ATOM     57  C   UNL A   1      45.257  33.506  29.890  1.00  0.00     0.029 A 
ATOM     58  C   UNL A   1      43.894  33.266  29.965  1.00  0.00     0.049 A 
ATOM     59  H   UNL A   1      42.826  31.512  29.483  1.00  0.00     0.167 HD
ATOM     60  C   UNL A   1      41.534  33.841  30.451  1.00  0.00     0.074 A 
ATOM     61  C   UNL A   1      40.498  34.728  30.938  1.00  0.00     0.031 C 
ATOM     62  C   UNL A   1      42.852  34.156  30.409  1.00  0.00     0.034 A 
BRANCH  49  63
ATOM     63  C   UNL A   1      46.488  29.529  28.524  1.00  0.00     0.023 A 
ATOM     64  C   UNL A   1      47.120  29.742  27.282  1.00  0.00     0.012 A 
ATOM     65  C   UNL A   1      47.200  28.893  29.561  1.00  0.00     0.148 A 
ATOM     66  C   UNL A   1      48.421  29.295  27.060  1.00  0.00     0.002 A 
ATOM     67  C   UNL A   1      48.514  28.495  29.349  1.00  0.00     0.091 A 
ATOM     68  F   UNL A   1      46.577  28.680  30.728  1.00  0.00    -0.205 F 
ATOM     69  C   UNL A   1      49.121  28.682  28.095  1.00  0.00     0.022 A 
BRANCH  67  70
ATOM     70  S   UNL A   1      49.528  27.772  30.642  1.00  0.00     0.127 S 
ATOM     71  O   UNL A   1      50.805  27.598  29.952  1.00  0.00    -0.237 OA
ATOM     72  O   UNL A   1      49.523  28.824  31.659  1.00  0.00    -0.237 OA
ATOM     73  O   UNL A   1      48.859  26.540  31.037  1.00  0.00    -0.744 OA
ENDBRANCH  67  70
ENDBRANCH  49  63
BRANCH  50  74
ATOM     74  C   UNL A   1      37.087  32.284  30.442  1.00  0.00     0.023 A 
ATOM     75  C   UNL A   1      36.618  32.054  31.750  1.00  0.00     0.012 A 
ATOM     76  C   UNL A   1      36.236  32.903  29.506  1.00  0.00     0.148 A 
ATOM     77  C   UNL A   1      35.315  32.404  32.109  1.00  0.00     0.002 A 
ATOM     78  C   UNL A   1      34.961  33.302  29.887  1.00  0.00     0.091 A 
ATOM     79  F   UNL A   1      36.700  33.104  28.264  1.00  0.00    -0.205 F 
ATOM     80  C   UNL A   1      34.491  33.036  31.182  1.00  0.00     0.022 A 
BRANCH  78  81
ATOM     81  S   UNL A   1      33.882  34.243  28.802  1.00  0.00     0.127 S 
ATOM     82  O   UNL A   1      34.780  35.293  28.327  1.00  0.00    -0.237 OA
ATOM     83  O   UNL A   1      33.520  33.241  27.799  1.00  0.00    -0.237 OA
ATOM     84  O   UNL A   1      32.774  34.688  29.635  1.00  0.00    -0.744 OA
ENDBRANCH  78  81
ENDBRANCH  50  74
BRANCH  62  85
ATOM     85  C   UNL A   1      43.260  35.531  30.869  1.00  0.00     0.023 A 
ATOM     86  C   UNL A   1      43.618  35.749  32.214  1.00  0.00     0.012 A 
ATOM     87  C   UNL A   1      43.367  36.591  29.945  1.00  0.00     0.148 A 
ATOM     88  C   UNL A   1      44.048  37.006  32.639  1.00  0.00     0.002 A 
ATOM     89  C   UNL A   1      43.846  37.825  30.364  1.00  0.00     0.091 A 
ATOM     90  F   UNL A   1      43.006  36.367  28.673  1.00  0.00    -0.205 F 
ATOM     91  C   UNL A   1      44.174  38.039  31.712  1.00  0.00     0.022 A 
BRANCH  89  92
ATOM     92  S   UNL A   1      44.136  39.185  29.227  1.00  0.00     0.127 S 
ATOM     93  O   UNL A   1      44.346  40.302  30.146  1.00  0.00    -0.237 OA
ATOM     94  O   UNL A   1      45.339  38.743  28.519  1.00  0.00    -0.237 OA
ATOM     95  O   UNL A   1      42.943  39.280  28.397  1.00  0.00    -0.744 OA
ENDBRANCH  89  92
ENDBRANCH  62  85
ENDBRANCH  36  37
ENDBRANCH  28  31
ENDBRANCH  26  27
ENDBRANCH  25  26
ENDBRANCH   1  25
TORSDOF 18
ENDMDL
MODEL 3
REMARK VINA RESULT:     -11.6      6.173     11.821
REMARK SMILES CNS(=O)(=O)c1ccc(Oc2csc(C(=O)NCCCCNC(=O)c3ccc(-c4c5nc(c(-c6cccc(S(=O)(=O)[O-])c6F)c6ccc([nH]6)c(-c6cccc(S(=O)(=O)[O-])c6F)c6nc(c(-c7cccc(S(=O)(=O)[O-])c7F)c7ccc4[nH]7)C=C6)C=C5)cc3)c2)cc1
REMARK SMILES IDX 19 1 18 2 17 3 15 4 16 5 14 7 11 8 12 9 88 10 13 11 10 12
REMARK SMILES IDX 9 13 6 14 7 15 90 16 8 17 89 18 3 19 4 20 5 21 2 22 1 23
REMARK SMILES IDX 20 25 21 26 22 27 23 28 24 30 25 31 26 32 87 33 27 34 86 35
REMARK SMILES IDX 28 36 29 37 30 38 80 39 31 40 85 41 79 42 81 43 32 44 84 45
REMARK SMILES IDX 78 46 77 47 33 49 65 50 45 51 64 52 46 53 49 54 63 55 82 56
REMARK SMILES IDX 47 57 48 58 62 60 83 61 50 62 34 63 35 64 43 65 36 66 38 67
REMARK SMILES IDX 44 68 37 69 39 70 40 71 41 72 42 73 66 74 67 75 75 76 68 77
REMARK SMILES IDX 70 78 76 79 69 80 71 81 72 82 73 83 74 84 51 85 52 86 60 87
REMARK SMILES IDX 53 88 55 89 61 90 54 91 56 92 57 93 58 94 59 95
REMARK H PARENT 17 6 2 24 22 29 81 48 49 59
REMARK Flexibility Score: inf
ROOT
ATOM      1  C   UNL A   1      32.339  29.795  26.847  1.00  0.00     0.023 C 
ENDROOT
BRANCH   1   2
ATOM      2  C   UNL A   1      32.334  29.059  25.508  1.00  0.00     0.116 C 
BRANCH   2   3
ATOM      3  N   UNL A   1      31.199  28.165  25.416  1.00  0.00    -0.351 N 
ATOM      4  C   UNL A   1      31.083  26.843  25.059  1.00  0.00     0.261 C 
ATOM      5  O   UNL A   1      29.943  26.377  25.145  1.00  0.00    -0.268 OA
ATOM      6  H   UNL A   1      30.342  28.587  25.654  1.00  0.00     0.163 HD
BRANCH   4   7
ATOM      7  C   UNL A   1      32.236  26.050  24.646  1.00  0.00     0.096 A 
ATOM      8  C   UNL A   1      33.979  24.514  24.442  1.00  0.00     0.138 A 
ATOM      9  C   UNL A   1      33.999  25.065  23.185  1.00  0.00     0.112 A 
ATOM     10  C   UNL A   1      33.013  25.109  25.296  1.00  0.00     0.072 A 
ATOM     11  S   UNL A   1      32.832  26.302  23.039  1.00  0.00    -0.135 S 
BRANCH   8  12
ATOM     12  O   UNL A   1      34.759  23.467  24.786  1.00  0.00    -0.456 OA
BRANCH  12  13
ATOM     13  C   UNL A   1      34.335  22.172  24.613  1.00  0.00     0.127 A 
ATOM     14  C   UNL A   1      33.653  19.478  24.425  1.00  0.00     0.082 A 
ATOM     15  C   UNL A   1      34.942  19.835  24.826  1.00  0.00     0.025 A 
ATOM     16  C   UNL A   1      32.711  20.458  24.096  1.00  0.00     0.025 A 
ATOM     17  C   UNL A   1      35.279  21.186  24.916  1.00  0.00     0.048 A 
ATOM     18  C   UNL A   1      33.052  21.808  24.194  1.00  0.00     0.048 A 
BRANCH  14  19
ATOM     19  S   UNL A   1      33.163  17.781  24.308  1.00  0.00     0.240 S 
ATOM     20  O   UNL A   1      33.353  17.346  22.940  1.00  0.00    -0.207 OA
ATOM     21  O   UNL A   1      31.891  17.661  24.978  1.00  0.00    -0.207 OA
BRANCH  19  22
ATOM     22  N   UNL A   1      34.268  16.943  25.263  1.00  0.00    -0.214 NA
ATOM     23  C   UNL A   1      34.177  15.489  25.312  1.00  0.00     0.120 C 
ATOM     24  H   UNL A   1      35.201  17.177  24.921  1.00  0.00     0.141 HD
ENDBRANCH  19  22
ENDBRANCH  14  19
ENDBRANCH  12  13
ENDBRANCH   8  12
ENDBRANCH   4   7
ENDBRANCH   2   3
ENDBRANCH   1   2
BRANCH   1  25
ATOM     25  C   UNL A   1      32.103  31.304  26.720  1.00  0.00     0.023 C 
BRANCH  25  26
ATOM     26  C   UNL A   1      33.098  32.181  27.479  1.00  0.00     0.116 C 
BRANCH  26  27
ATOM     27  N   UNL A   1      32.644  33.556  27.642  1.00  0.00    -0.352 N 
ATOM     28  C   UNL A   1      33.111  34.508  28.517  1.00  0.00     0.251 C 
ATOM     29  H   UNL A   1      31.911  33.840  27.050  1.00  0.00     0.163 HD
ATOM     30  O   UNL A   1      32.546  35.592  28.618  1.00  0.00    -0.269 OA
BRANCH  28  31
ATOM     31  C   UNL A   1      34.279  34.187  29.360  1.00  0.00     0.039 A 
ATOM     32  C   UNL A   1      34.079  33.515  30.567  1.00  0.00     0.014 A 
ATOM     33  C   UNL A   1      35.571  34.475  28.909  1.00  0.00     0.014 A 
ATOM     34  C   UNL A   1      35.183  33.056  31.286  1.00  0.00     0.010 A 
ATOM     35  C   UNL A   1      36.664  33.948  29.587  1.00  0.00     0.010 A 
ATOM     36  C   UNL A   1      36.482  33.225  30.777  1.00  0.00    -0.014 A 
BRANCH  36  37
ATOM     37  C   UNL A   1      37.658  32.612  31.446  1.00  0.00     0.031 A 
ATOM     38  C   UNL A   1      38.375  31.454  30.811  1.00  0.00     0.074 A 
ATOM     39  C   UNL A   1      38.016  33.036  32.675  1.00  0.00     0.049 A 
ATOM     40  N   UNL A   1      39.371  30.748  31.278  1.00  0.00    -0.248 NA
ATOM     41  C   UNL A   1      37.892  31.013  29.492  1.00  0.00     0.031 C 
ATOM     42  C   UNL A   1      37.346  34.097  33.432  1.00  0.00     0.029 A 
ATOM     43  N   UNL A   1      39.009  32.603  33.519  1.00  0.00    -0.354 N 
ATOM     44  C   UNL A   1      39.612  29.760  30.332  1.00  0.00     0.074 A 
ATOM     45  C   UNL A   1      38.636  29.937  29.278  1.00  0.00     0.031 C 
ATOM     46  C   UNL A   1      37.946  34.232  34.625  1.00  0.00     0.029 A 
ATOM     47  C   UNL A   1      39.013  33.242  34.738  1.00  0.00     0.049 A 
ATOM     48  H   UNL A   1      39.655  31.902  33.276  1.00  0.00     0.167 HD
ATOM     49  C   UNL A   1      40.572  28.805  30.328  1.00  0.00     0.034 A 
ATOM     50  C   UNL A   1      39.773  33.041  35.832  1.00  0.00     0.034 A 
ATOM     51  C   UNL A   1      41.555  28.649  31.365  1.00  0.00     0.049 A 
ATOM     52  C   UNL A   1      40.845  31.986  35.795  1.00  0.00     0.074 A 
ATOM     53  C   UNL A   1      42.627  27.774  31.407  1.00  0.00     0.029 A 
ATOM     54  N   UNL A   1      41.577  29.363  32.553  1.00  0.00    -0.354 N 
ATOM     55  N   UNL A   1      41.167  31.172  34.820  1.00  0.00    -0.248 NA
ATOM     56  C   UNL A   1      41.678  31.841  36.997  1.00  0.00     0.031 C 
ATOM     57  C   UNL A   1      43.270  27.930  32.639  1.00  0.00     0.029 A 
ATOM     58  C   UNL A   1      42.627  28.934  33.346  1.00  0.00     0.049 A 
ATOM     59  H   UNL A   1      40.938  30.073  32.796  1.00  0.00     0.167 HD
ATOM     60  C   UNL A   1      42.257  30.441  35.277  1.00  0.00     0.074 A 
ATOM     61  C   UNL A   1      42.555  30.925  36.609  1.00  0.00     0.031 C 
ATOM     62  C   UNL A   1      42.942  29.450  34.653  1.00  0.00     0.034 A 
BRANCH  49  63
ATOM     63  C   UNL A   1      40.624  27.870  29.148  1.00  0.00     0.023 A 
ATOM     64  C   UNL A   1      39.731  26.781  29.074  1.00  0.00     0.012 A 
ATOM     65  C   UNL A   1      41.519  28.101  28.085  1.00  0.00     0.148 A 
ATOM     66  C   UNL A   1      39.755  25.914  27.983  1.00  0.00     0.002 A 
ATOM     67  C   UNL A   1      41.503  27.262  26.977  1.00  0.00     0.091 A 
ATOM     68  F   UNL A   1      42.374  29.128  28.180  1.00  0.00    -0.205 F 
ATOM     69  C   UNL A   1      40.632  26.160  26.931  1.00  0.00     0.022 A 
BRANCH  67  70
ATOM     70  S   UNL A   1      42.535  27.542  25.535  1.00  0.00     0.127 S 
ATOM     71  O   UNL A   1      43.874  27.516  26.121  1.00  0.00    -0.237 OA
ATOM     72  O   UNL A   1      42.214  26.384  24.699  1.00  0.00    -0.237 OA
ATOM     73  O   UNL A   1      42.120  28.824  24.984  1.00  0.00    -0.744 OA
ENDBRANCH  67  70
ENDBRANCH  49  63
BRANCH  50  74
ATOM     74  C   UNL A   1      39.568  33.881  37.046  1.00  0.00     0.023 A 
ATOM     75  C   UNL A   1      39.997  35.223  37.048  1.00  0.00     0.012 A 
ATOM     76  C   UNL A   1      38.924  33.365  38.187  1.00  0.00     0.148 A 
ATOM     77  C   UNL A   1      39.818  36.024  38.176  1.00  0.00     0.002 A 
ATOM     78  C   UNL A   1      38.697  34.185  39.285  1.00  0.00     0.091 A 
ATOM     79  F   UNL A   1      38.531  32.083  38.168  1.00  0.00    -0.205 F 
ATOM     80  C   UNL A   1      39.160  35.509  39.290  1.00  0.00     0.022 A 
BRANCH  78  81
ATOM     81  S   UNL A   1      37.739  33.649  40.707  1.00  0.00     0.127 S 
ATOM     82  O   UNL A   1      37.549  34.904  41.429  1.00  0.00    -0.237 OA
ATOM     83  O   UNL A   1      36.534  33.116  40.070  1.00  0.00    -0.237 OA
ATOM     84  O   UNL A   1      38.556  32.649  41.380  1.00  0.00    -0.744 OA
ENDBRANCH  78  81
ENDBRANCH  50  74
BRANCH  62  85
ATOM     85  C   UNL A   1      44.108  28.837  35.382  1.00  0.00     0.023 A 
ATOM     86  C   UNL A   1      45.404  29.362  35.210  1.00  0.00     0.012 A 
ATOM     87  C   UNL A   1      43.904  27.790  36.304  1.00  0.00     0.148 A 
ATOM     88  C   UNL A   1      46.483  28.836  35.921  1.00  0.00     0.002 A 
ATOM     89  C   UNL A   1      44.973  27.307  37.048  1.00  0.00     0.091 A 
ATOM     90  F   UNL A   1      42.666  27.293  36.442  1.00  0.00    -0.205 F 
ATOM     91  C   UNL A   1      46.265  27.819  36.847  1.00  0.00     0.022 A 
BRANCH  89  92
ATOM     92  S   UNL A   1      44.775  26.069  38.334  1.00  0.00     0.127 S 
ATOM     93  O   UNL A   1      45.973  26.286  39.143  1.00  0.00    -0.237 OA
ATOM     94  O   UNL A   1      43.524  26.483  38.970  1.00  0.00    -0.237 OA
ATOM     95  O   UNL A   1      44.712  24.783  37.651  1.00  0.00    -0.744 OA
ENDBRANCH  89  92
ENDBRANCH  62  85
ENDBRANCH  36  37
ENDBRANCH  28  31
ENDBRANCH  26  27
ENDBRANCH  25  26
ENDBRANCH   1  25
TORSDOF 18
ENDMDL
