MODEL 1
REMARK VINA RESULT:     -10.9      0.000      0.000
REMARK SMILES C[NH2+]CCCC(=O)NC[C@@H]1CC[C@H](C(=O)NCCCCNC(=O)c2ccc(-c3c4nc(c(-c5cccc(S(=O)(=O)[O-])c5F)c5ccc([nH]5)c(-c5cccc(S(=O)(=O)[O-])c5F)c5nc(c(-c6cccc(S(=O)(=O)[O-])c6F)c6ccc3[nH]6)C=C5)C=C4)cc2)O1
REMARK SMILES IDX 17 1 16 2 14 3 15 4 13 6 10 7 11 8 87 9 12 10 9 11 8 12 6 13
REMARK SMILES IDX 7 14 5 16 4 17 3 18 2 19 1 20 18 23 19 24 20 25 21 26 22 27
REMARK SMILES IDX 23 29 24 30 25 31 86 32 26 33 85 34 27 35 28 36 29 37 79 38
REMARK SMILES IDX 30 39 84 40 78 41 80 42 31 43 83 44 77 45 76 46 32 48 64 49
REMARK SMILES IDX 44 50 63 51 45 52 48 53 62 54 81 55 46 56 47 57 61 59 82 60
REMARK SMILES IDX 49 61 33 62 34 63 42 64 35 65 37 66 43 67 36 68 38 69 39 70
REMARK SMILES IDX 40 71 41 72 65 73 66 74 74 75 67 76 69 77 75 78 68 79 70 80
REMARK SMILES IDX 71 81 72 82 73 83 50 84 51 85 59 86 52 87 54 88 60 89 53 90
REMARK SMILES IDX 55 91 56 92 57 93 58 94
REMARK H PARENT 16 5 8 15 2 21 2 22 21 28 80 47 48 58
REMARK Flexibility Score: inf
ROOT
ATOM      1  C   UNL A   1      33.517  29.442  26.835  1.00  0.00     0.116 C 
ENDROOT
BRANCH   1   2
ATOM      2  N   UNL A   1      33.869  29.448  25.433  1.00  0.00    -0.354 N 
ATOM      3  C   UNL A   1      33.688  28.490  24.479  1.00  0.00     0.249 C 
ATOM      4  O   UNL A   1      34.117  28.717  23.343  1.00  0.00    -0.272 OA
ATOM      5  H   UNL A   1      34.307  30.272  25.116  1.00  0.00     0.163 HD
BRANCH   3   6
ATOM      6  C   UNL A   1      33.006  27.143  24.796  1.00  0.00     0.207 C 
ATOM      7  C   UNL A   1      32.718  25.089  23.724  1.00  0.00     0.138 C 
ATOM      8  C   UNL A   1      31.503  25.932  23.370  1.00  0.00     0.037 C 
ATOM      9  O   UNL A   1      33.685  26.002  24.267  1.00  0.00    -0.363 OA
ATOM     10  C   UNL A   1      31.550  27.071  24.362  1.00  0.00     0.045 C 
BRANCH   7  11
ATOM     11  C   UNL A   1      33.358  24.333  22.542  1.00  0.00     0.147 C 
BRANCH  11  12
ATOM     12  N   UNL A   1      32.569  23.187  22.119  1.00  0.00    -0.353 N 
ATOM     13  C   UNL A   1      32.472  21.937  22.640  1.00  0.00     0.220 C 
ATOM     14  O   UNL A   1      31.651  21.163  22.144  1.00  0.00    -0.275 OA
ATOM     15  H   UNL A   1      32.013  23.344  21.322  1.00  0.00     0.163 HD
BRANCH  13  16
ATOM     16  C   UNL A   1      33.357  21.495  23.786  1.00  0.00     0.106 C 
BRANCH  16  17
ATOM     17  C   UNL A   1      32.872  20.201  24.447  1.00  0.00     0.071 C 
BRANCH  17  18
ATOM     18  C   UNL A   1      33.096  20.116  25.957  1.00  0.00     0.260 C 
BRANCH  18  19
ATOM     19  N   UNL A   1      32.940  18.772  26.519  1.00  0.00    -0.349 N 
ATOM     20  C   UNL A   1      32.624  17.785  25.491  1.00  0.00     0.330 C 
ATOM     21  H   UNL A   1      33.809  18.503  26.978  1.00  0.00     0.346 HD
ATOM     22  H   UNL A   1      32.165  18.795  27.182  1.00  0.00     0.346 HD
ENDBRANCH  18  19
ENDBRANCH  17  18
ENDBRANCH  16  17
ENDBRANCH  13  16
ENDBRANCH  11  12
ENDBRANCH   7  11
ENDBRANCH   3   6
ENDBRANCH   1   2
BRANCH   1  23
ATOM     23  C   UNL A   1      32.150  30.080  27.074  1.00  0.00     0.023 C 
BRANCH  23  24
ATOM     24  C   UNL A   1      32.090  31.570  26.737  1.00  0.00     0.023 C 
BRANCH  24  25
ATOM     25  C   UNL A   1      33.108  32.438  27.472  1.00  0.00     0.116 C 
BRANCH  25  26
ATOM     26  N   UNL A   1      32.658  33.806  27.696  1.00  0.00    -0.352 N 
ATOM     27  C   UNL A   1      33.140  34.715  28.613  1.00  0.00     0.251 C 
ATOM     28  H   UNL A   1      31.920  34.118  27.124  1.00  0.00     0.163 HD
ATOM     29  O   UNL A   1      32.601  35.802  28.757  1.00  0.00    -0.269 OA
BRANCH  27  30
ATOM     30  C   UNL A   1      34.301  34.328  29.446  1.00  0.00     0.039 A 
ATOM     31  C   UNL A   1      34.079  33.706  30.676  1.00  0.00     0.014 A 
ATOM     32  C   UNL A   1      35.601  34.508  28.966  1.00  0.00     0.014 A 
ATOM     33  C   UNL A   1      35.163  33.191  31.392  1.00  0.00     0.010 A 
ATOM     34  C   UNL A   1      36.668  33.927  29.643  1.00  0.00     0.010 A 
ATOM     35  C   UNL A   1      36.461  33.262  30.861  1.00  0.00    -0.014 A 
BRANCH  35  36
ATOM     36  C   UNL A   1      37.618  32.629  31.544  1.00  0.00     0.031 A 
ATOM     37  C   UNL A   1      38.346  31.483  30.893  1.00  0.00     0.074 A 
ATOM     38  C   UNL A   1      37.942  33.006  32.796  1.00  0.00     0.049 A 
ATOM     39  N   UNL A   1      39.330  30.761  31.359  1.00  0.00    -0.248 NA
ATOM     40  C   UNL A   1      37.881  31.076  29.557  1.00  0.00     0.031 C 
ATOM     41  C   UNL A   1      37.258  34.043  33.571  1.00  0.00     0.029 A 
ATOM     42  N   UNL A   1      38.913  32.542  33.648  1.00  0.00    -0.354 N 
ATOM     43  C   UNL A   1      39.573  29.787  30.398  1.00  0.00     0.074 A 
ATOM     44  C   UNL A   1      38.607  29.989  29.340  1.00  0.00     0.031 C 
ATOM     45  C   UNL A   1      37.840  34.147  34.777  1.00  0.00     0.029 A 
ATOM     46  C   UNL A   1      38.918  33.167  34.874  1.00  0.00     0.049 A 
ATOM     47  H   UNL A   1      39.547  31.829  33.406  1.00  0.00     0.167 HD
ATOM     48  C   UNL A   1      40.532  28.831  30.378  1.00  0.00     0.034 A 
ATOM     49  C   UNL A   1      39.704  32.977  35.952  1.00  0.00     0.034 A 
ATOM     50  C   UNL A   1      41.524  28.668  31.406  1.00  0.00     0.049 A 
ATOM     51  C   UNL A   1      40.794  31.942  35.888  1.00  0.00     0.074 A 
ATOM     52  C   UNL A   1      42.608  27.808  31.430  1.00  0.00     0.029 A 
ATOM     53  N   UNL A   1      41.550  29.377  32.598  1.00  0.00    -0.354 N 
ATOM     54  N   UNL A   1      41.123  31.148  34.897  1.00  0.00    -0.248 NA
ATOM     55  C   UNL A   1      41.646  31.801  37.078  1.00  0.00     0.031 C 
ATOM     56  C   UNL A   1      43.277  27.982  32.646  1.00  0.00     0.029 A 
ATOM     57  C   UNL A   1      42.622  28.965  33.371  1.00  0.00     0.049 A 
ATOM     58  H   UNL A   1      40.901  30.070  32.857  1.00  0.00     0.167 HD
ATOM     59  C   UNL A   1      42.238  30.439  35.328  1.00  0.00     0.074 A 
ATOM     60  C   UNL A   1      42.539  30.911  36.666  1.00  0.00     0.031 C 
ATOM     61  C   UNL A   1      42.941  29.478  34.681  1.00  0.00     0.034 A 
BRANCH  48  62
ATOM     62  C   UNL A   1      40.583  27.926  29.175  1.00  0.00     0.023 A 
ATOM     63  C   UNL A   1      39.716  26.815  29.104  1.00  0.00     0.012 A 
ATOM     64  C   UNL A   1      41.467  28.179  28.109  1.00  0.00     0.148 A 
ATOM     65  C   UNL A   1      39.763  25.943  28.016  1.00  0.00     0.002 A 
ATOM     66  C   UNL A   1      41.476  27.331  27.006  1.00  0.00     0.091 A 
ATOM     67  F   UNL A   1      42.303  29.223  28.202  1.00  0.00    -0.205 F 
ATOM     68  C   UNL A   1      40.636  26.206  26.964  1.00  0.00     0.022 A 
BRANCH  66  69
ATOM     69  S   UNL A   1      42.511  27.637  25.571  1.00  0.00     0.127 S 
ATOM     70  O   UNL A   1      42.204  26.478  24.732  1.00  0.00    -0.237 OA
ATOM     71  O   UNL A   1      41.984  28.907  25.070  1.00  0.00    -0.237 OA
ATOM     72  O   UNL A   1      43.875  27.709  26.076  1.00  0.00    -0.744 OA
ENDBRANCH  66  69
ENDBRANCH  48  62
BRANCH  49  73
ATOM     73  C   UNL A   1      39.549  33.858  37.144  1.00  0.00     0.023 A 
ATOM     74  C   UNL A   1      39.993  35.192  37.065  1.00  0.00     0.012 A 
ATOM     75  C   UNL A   1      38.926  33.408  38.324  1.00  0.00     0.148 A 
ATOM     76  C   UNL A   1      39.838  36.060  38.147  1.00  0.00     0.002 A 
ATOM     77  C   UNL A   1      38.730  34.291  39.380  1.00  0.00     0.091 A 
ATOM     78  F   UNL A   1      38.518  32.133  38.379  1.00  0.00    -0.205 F 
ATOM     79  C   UNL A   1      39.199  35.612  39.300  1.00  0.00     0.022 A 
BRANCH  77  80
ATOM     80  S   UNL A   1      37.806  33.848  40.856  1.00  0.00     0.127 S 
ATOM     81  O   UNL A   1      37.542  35.157  41.448  1.00  0.00    -0.237 OA
ATOM     82  O   UNL A   1      36.635  33.181  40.287  1.00  0.00    -0.237 OA
ATOM     83  O   UNL A   1      38.684  32.976  41.625  1.00  0.00    -0.744 OA
ENDBRANCH  77  80
ENDBRANCH  49  73
BRANCH  61  84
ATOM     84  C   UNL A   1      44.128  28.882  35.390  1.00  0.00     0.023 A 
ATOM     85  C   UNL A   1      45.408  29.442  35.205  1.00  0.00     0.012 A 
ATOM     86  C   UNL A   1      43.964  27.820  36.301  1.00  0.00     0.148 A 
ATOM     87  C   UNL A   1      46.510  28.936  35.893  1.00  0.00     0.002 A 
ATOM     88  C   UNL A   1      45.058  27.351  37.019  1.00  0.00     0.091 A 
ATOM     89  F   UNL A   1      42.742  27.286  36.449  1.00  0.00    -0.205 F 
ATOM     90  C   UNL A   1      46.333  27.900  36.808  1.00  0.00     0.022 A 
BRANCH  88  91
ATOM     91  S   UNL A   1      44.906  26.089  38.288  1.00  0.00     0.127 S 
ATOM     92  O   UNL A   1      46.282  25.982  38.770  1.00  0.00    -0.237 OA
ATOM     93  O   UNL A   1      43.975  26.706  39.233  1.00  0.00    -0.237 OA
ATOM     94  O   UNL A   1      44.383  24.908  37.614  1.00  0.00    -0.744 OA
ENDBRANCH  88  91
ENDBRANCH  61  84
ENDBRANCH  35  36
ENDBRANCH  27  30
ENDBRANCH  25  26
ENDBRANCH  24  25
ENDBRANCH  23  24
ENDBRANCH   1  23
TORSDOF 20
ENDMDL
MODEL 2
REMARK VINA RESULT:     -10.7      2.488      8.327
REMARK SMILES C[NH2+]CCCC(=O)NC[C@@H]1CC[C@H](C(=O)NCCCCNC(=O)c2ccc(-c3c4nc(c(-c5cccc(S(=O)(=O)[O-])c5F)c5ccc([nH]5)c(-c5cccc(S(=O)(=O)[O-])c5F)c5nc(c(-c6cccc(S(=O)(=O)[O-])c6F)c6ccc3[nH]6)C=C5)C=C4)cc2)O1
REMARK SMILES IDX 17 1 16 2 14 3 15 4 13 6 10 7 11 8 87 9 12 10 9 11 8 12 6 13
REMARK SMILES IDX 7 14 5 16 4 17 3 18 2 19 1 20 18 23 19 24 20 25 21 26 22 27
REMARK SMILES IDX 23 29 24 30 25 31 86 32 26 33 85 34 27 35 28 36 29 37 79 38
REMARK SMILES IDX 30 39 84 40 78 41 80 42 31 43 83 44 77 45 76 46 32 48 64 49
REMARK SMILES IDX 44 50 63 51 45 52 48 53 62 54 81 55 46 56 47 57 61 59 82 60
REMARK SMILES IDX 49 61 33 62 34 63 42 64 35 65 37 66 43 67 36 68 38 69 39 70
REMARK SMILES IDX 40 71 41 72 65 73 66 74 74 75 67 76 69 77 75 78 68 79 70 80
REMARK SMILES IDX 71 81 72 82 73 83 50 84 51 85 59 86 52 87 54 88 60 89 53 90
REMARK SMILES IDX 55 91 56 92 57 93 58 94
REMARK H PARENT 16 5 8 15 2 21 2 22 21 28 80 47 48 58
REMARK Flexibility Score: inf
ROOT
ATOM      1  C   UNL A   1      33.361  27.552  25.896  1.00  0.00     0.116 C 
ENDROOT
BRANCH   1   2
ATOM      2  N   UNL A   1      33.355  26.702  24.725  1.00  0.00    -0.354 N 
ATOM      3  C   UNL A   1      33.036  25.381  24.603  1.00  0.00     0.249 C 
ATOM      4  O   UNL A   1      33.148  24.862  23.488  1.00  0.00    -0.272 OA
ATOM      5  H   UNL A   1      33.622  27.145  23.887  1.00  0.00     0.163 HD
BRANCH   3   6
ATOM      6  C   UNL A   1      32.583  24.537  25.812  1.00  0.00     0.207 C 
ATOM      7  C   UNL A   1      32.780  22.315  26.502  1.00  0.00     0.138 C 
ATOM      8  C   UNL A   1      31.472  22.411  25.733  1.00  0.00     0.037 C 
ATOM      9  O   UNL A   1      33.507  23.515  26.193  1.00  0.00    -0.363 OA
ATOM     10  C   UNL A   1      31.213  23.897  25.639  1.00  0.00     0.045 C 
BRANCH   7  11
ATOM     11  C   UNL A   1      33.659  21.098  26.152  1.00  0.00     0.147 C 
BRANCH  11  12
ATOM     12  N   UNL A   1      32.942  19.839  26.270  1.00  0.00    -0.353 N 
ATOM     13  C   UNL A   1      32.724  18.855  25.360  1.00  0.00     0.220 C 
ATOM     14  O   UNL A   1      32.154  17.829  25.738  1.00  0.00    -0.275 OA
ATOM     15  H   UNL A   1      32.548  19.672  27.157  1.00  0.00     0.163 HD
BRANCH  13  16
ATOM     16  C   UNL A   1      33.150  19.015  23.916  1.00  0.00     0.106 C 
BRANCH  16  17
ATOM     17  C   UNL A   1      33.054  17.710  23.119  1.00  0.00     0.071 C 
BRANCH  17  18
ATOM     18  C   UNL A   1      33.968  16.583  23.601  1.00  0.00     0.260 C 
BRANCH  18  19
ATOM     19  N   UNL A   1      34.932  16.981  24.630  1.00  0.00    -0.349 N 
ATOM     20  C   UNL A   1      35.500  15.828  25.321  1.00  0.00     0.330 C 
ATOM     21  H   UNL A   1      35.687  17.506  24.190  1.00  0.00     0.346 HD
ATOM     22  H   UNL A   1      34.441  17.551  25.319  1.00  0.00     0.346 HD
ENDBRANCH  18  19
ENDBRANCH  17  18
ENDBRANCH  16  17
ENDBRANCH  13  16
ENDBRANCH  11  12
ENDBRANCH   7  11
ENDBRANCH   3   6
ENDBRANCH   1   2
BRANCH   1  23
ATOM     23  C   UNL A   1      31.945  27.938  26.317  1.00  0.00     0.023 C 
BRANCH  23  24
ATOM     24  C   UNL A   1      31.810  29.381  26.803  1.00  0.00     0.023 C 
BRANCH  24  25
ATOM     25  C   UNL A   1      32.898  30.331  26.309  1.00  0.00     0.116 C 
BRANCH  25  26
ATOM     26  N   UNL A   1      32.744  31.698  26.791  1.00  0.00    -0.352 N 
ATOM     27  C   UNL A   1      33.586  32.400  27.627  1.00  0.00     0.251 C 
ATOM     28  H   UNL A   1      31.943  32.178  26.482  1.00  0.00     0.163 HD
ATOM     29  O   UNL A   1      33.283  33.513  28.028  1.00  0.00    -0.269 OA
BRANCH  27  30
ATOM     30  C   UNL A   1      34.847  31.755  28.059  1.00  0.00     0.039 A 
ATOM     31  C   UNL A   1      35.995  32.537  28.207  1.00  0.00     0.014 A 
ATOM     32  C   UNL A   1      34.864  30.400  28.395  1.00  0.00     0.014 A 
ATOM     33  C   UNL A   1      37.143  31.972  28.769  1.00  0.00     0.010 A 
ATOM     34  C   UNL A   1      35.981  29.862  29.025  1.00  0.00     0.010 A 
ATOM     35  C   UNL A   1      37.131  30.641  29.220  1.00  0.00    -0.014 A 
BRANCH  35  36
ATOM     36  C   UNL A   1      38.298  30.045  29.920  1.00  0.00     0.031 A 
ATOM     37  C   UNL A   1      38.664  30.506  31.305  1.00  0.00     0.074 A 
ATOM     38  C   UNL A   1      39.094  29.176  29.268  1.00  0.00     0.049 A 
ATOM     39  N   UNL A   1      39.681  30.156  32.048  1.00  0.00    -0.248 NA
ATOM     40  C   UNL A   1      37.791  31.519  31.920  1.00  0.00     0.031 C 
ATOM     41  C   UNL A   1      38.899  28.716  27.892  1.00  0.00     0.029 A 
ATOM     42  N   UNL A   1      40.244  28.543  29.668  1.00  0.00    -0.354 N 
ATOM     43  C   UNL A   1      39.597  30.936  33.195  1.00  0.00     0.074 A 
ATOM     44  C   UNL A   1      38.450  31.803  33.033  1.00  0.00     0.031 C 
ATOM     45  C   UNL A   1      39.885  27.864  27.567  1.00  0.00     0.029 A 
ATOM     46  C   UNL A   1      40.798  27.738  28.699  1.00  0.00     0.049 A 
ATOM     47  H   UNL A   1      40.638  28.653  30.564  1.00  0.00     0.167 HD
ATOM     48  C   UNL A   1      40.381  30.912  34.300  1.00  0.00     0.034 A 
ATOM     49  C   UNL A   1      41.912  26.980  28.721  1.00  0.00     0.034 A 
ATOM     50  C   UNL A   1      41.487  30.011  34.480  1.00  0.00     0.049 A 
ATOM     51  C   UNL A   1      42.740  26.931  29.976  1.00  0.00     0.074 A 
ATOM     52  C   UNL A   1      42.273  29.825  35.603  1.00  0.00     0.029 A 
ATOM     53  N   UNL A   1      41.968  29.147  33.507  1.00  0.00    -0.354 N 
ATOM     54  N   UNL A   1      42.543  27.543  31.119  1.00  0.00    -0.248 NA
ATOM     55  C   UNL A   1      43.924  26.060  29.958  1.00  0.00     0.031 C 
ATOM     56  C   UNL A   1      43.243  28.864  35.302  1.00  0.00     0.029 A 
ATOM     57  C   UNL A   1      43.049  28.436  33.999  1.00  0.00     0.049 A 
ATOM     58  H   UNL A   1      41.596  29.054  32.601  1.00  0.00     0.167 HD
ATOM     59  C   UNL A   1      43.554  27.107  31.967  1.00  0.00     0.074 A 
ATOM     60  C   UNL A   1      44.353  26.164  31.209  1.00  0.00     0.031 C 
ATOM     61  C   UNL A   1      43.806  27.462  33.251  1.00  0.00     0.034 A 
BRANCH  48  62
ATOM     62  C   UNL A   1      40.027  31.855  35.420  1.00  0.00     0.023 A 
ATOM     63  C   UNL A   1      40.739  33.065  35.561  1.00  0.00     0.012 A 
ATOM     64  C   UNL A   1      38.984  31.561  36.320  1.00  0.00     0.148 A 
ATOM     65  C   UNL A   1      40.454  33.942  36.607  1.00  0.00     0.002 A 
ATOM     66  C   UNL A   1      38.675  32.462  37.333  1.00  0.00     0.091 A 
ATOM     67  F   UNL A   1      38.334  30.396  36.189  1.00  0.00    -0.205 F 
ATOM     68  C   UNL A   1      39.417  33.645  37.487  1.00  0.00     0.022 A 
BRANCH  66  69
ATOM     69  S   UNL A   1      37.304  32.200  38.463  1.00  0.00     0.127 S 
ATOM     70  O   UNL A   1      37.845  32.731  39.714  1.00  0.00    -0.237 OA
ATOM     71  O   UNL A   1      36.245  33.014  37.864  1.00  0.00    -0.237 OA
ATOM     72  O   UNL A   1      37.045  30.767  38.443  1.00  0.00    -0.744 OA
ENDBRANCH  66  69
ENDBRANCH  48  62
BRANCH  49  73
ATOM     73  C   UNL A   1      42.248  26.126  27.546  1.00  0.00     0.023 A 
ATOM     74  C   UNL A   1      43.000  26.684  26.494  1.00  0.00     0.012 A 
ATOM     75  C   UNL A   1      41.882  24.768  27.485  1.00  0.00     0.148 A 
ATOM     76  C   UNL A   1      43.364  25.912  25.390  1.00  0.00     0.002 A 
ATOM     77  C   UNL A   1      42.290  23.991  26.407  1.00  0.00     0.091 A 
ATOM     78  F   UNL A   1      41.161  24.260  28.494  1.00  0.00    -0.205 F 
ATOM     79  C   UNL A   1      43.018  24.564  25.352  1.00  0.00     0.022 A 
BRANCH  77  80
ATOM     80  S   UNL A   1      42.004  22.219  26.325  1.00  0.00     0.127 S 
ATOM     81  O   UNL A   1      42.621  21.758  27.566  1.00  0.00    -0.237 OA
ATOM     82  O   UNL A   1      40.543  22.153  26.301  1.00  0.00    -0.237 OA
ATOM     83  O   UNL A   1      42.649  21.771  25.098  1.00  0.00    -0.744 OA
ENDBRANCH  77  80
ENDBRANCH  49  73
BRANCH  61  84
ATOM     84  C   UNL A   1      44.977  26.813  33.940  1.00  0.00     0.023 A 
ATOM     85  C   UNL A   1      46.234  27.448  33.930  1.00  0.00     0.012 A 
ATOM     86  C   UNL A   1      44.813  25.616  34.664  1.00  0.00     0.148 A 
ATOM     87  C   UNL A   1      47.318  26.888  34.606  1.00  0.00     0.002 A 
ATOM     88  C   UNL A   1      45.884  25.087  35.374  1.00  0.00     0.091 A 
ATOM     89  F   UNL A   1      43.614  25.014  34.644  1.00  0.00    -0.205 F 
ATOM     90  C   UNL A   1      47.140  25.715  35.337  1.00  0.00     0.022 A 
BRANCH  88  91
ATOM     91  S   UNL A   1      45.721  23.636  36.420  1.00  0.00     0.127 S 
ATOM     92  O   UNL A   1      44.929  22.745  35.574  1.00  0.00    -0.237 OA
ATOM     93  O   UNL A   1      47.113  23.225  36.604  1.00  0.00    -0.237 OA
ATOM     94  O   UNL A   1      45.064  24.094  37.638  1.00  0.00    -0.744 OA
ENDBRANCH  88  91
ENDBRANCH  61  84
ENDBRANCH  35  36
ENDBRANCH  27  30
ENDBRANCH  25  26
ENDBRANCH  24  25
ENDBRANCH  23  24
ENDBRANCH   1  23
TORSDOF 20
ENDMDL
MODEL 3
REMARK VINA RESULT:     -10.1      2.495      8.127
REMARK SMILES C[NH2+]CCCC(=O)NC[C@@H]1CC[C@H](C(=O)NCCCCNC(=O)c2ccc(-c3c4nc(c(-c5cccc(S(=O)(=O)[O-])c5F)c5ccc([nH]5)c(-c5cccc(S(=O)(=O)[O-])c5F)c5nc(c(-c6cccc(S(=O)(=O)[O-])c6F)c6ccc3[nH]6)C=C5)C=C4)cc2)O1
REMARK SMILES IDX 17 1 16 2 14 3 15 4 13 6 10 7 11 8 87 9 12 10 9 11 8 12 6 13
REMARK SMILES IDX 7 14 5 16 4 17 3 18 2 19 1 20 18 23 19 24 20 25 21 26 22 27
REMARK SMILES IDX 23 29 24 30 25 31 86 32 26 33 85 34 27 35 28 36 29 37 79 38
REMARK SMILES IDX 30 39 84 40 78 41 80 42 31 43 83 44 77 45 76 46 32 48 64 49
REMARK SMILES IDX 44 50 63 51 45 52 48 53 62 54 81 55 46 56 47 57 61 59 82 60
REMARK SMILES IDX 49 61 33 62 34 63 42 64 35 65 37 66 43 67 36 68 38 69 39 70
REMARK SMILES IDX 40 71 41 72 65 73 66 74 74 75 67 76 69 77 75 78 68 79 70 80
REMARK SMILES IDX 71 81 72 82 73 83 50 84 51 85 59 86 52 87 54 88 60 89 53 90
REMARK SMILES IDX 55 91 56 92 57 93 58 94
REMARK H PARENT 16 5 8 15 2 21 2 22 21 28 80 47 48 58
REMARK Flexibility Score: inf
ROOT
ATOM      1  C   UNL A   1      32.154  27.466  25.946  1.00  0.00     0.116 C 
ENDROOT
BRANCH   1   2
ATOM      2  N   UNL A   1      31.178  26.537  26.471  1.00  0.00    -0.354 N 
ATOM      3  C   UNL A   1      30.736  25.350  25.963  1.00  0.00     0.249 C 
ATOM      4  O   UNL A   1      29.855  24.749  26.585  1.00  0.00    -0.272 OA
ATOM      5  H   UNL A   1      30.768  26.801  27.327  1.00  0.00     0.163 HD
BRANCH   3   6
ATOM      6  C   UNL A   1      31.280  24.777  24.638  1.00  0.00     0.207 C 
ATOM      7  C   UNL A   1      32.275  22.788  23.926  1.00  0.00     0.138 C 
ATOM      8  C   UNL A   1      33.411  23.725  24.304  1.00  0.00     0.037 C 
ATOM      9  O   UNL A   1      31.084  23.370  24.482  1.00  0.00    -0.363 OA
ATOM     10  C   UNL A   1      32.750  25.082  24.391  1.00  0.00     0.045 C 
BRANCH   7  11
ATOM     11  C   UNL A   1      32.413  21.345  24.450  1.00  0.00     0.147 C 
BRANCH  11  12
ATOM     12  N   UNL A   1      32.203  20.351  23.410  1.00  0.00    -0.353 N 
ATOM     13  C   UNL A   1      32.629  19.065  23.315  1.00  0.00     0.220 C 
ATOM     14  O   UNL A   1      32.235  18.391  22.360  1.00  0.00    -0.275 OA
ATOM     15  H   UNL A   1      31.664  20.662  22.647  1.00  0.00     0.163 HD
BRANCH  13  16
ATOM     16  C   UNL A   1      33.575  18.475  24.339  1.00  0.00     0.106 C 
BRANCH  16  17
ATOM     17  C   UNL A   1      32.889  18.169  25.675  1.00  0.00     0.071 C 
BRANCH  17  18
ATOM     18  C   UNL A   1      32.844  16.690  26.061  1.00  0.00     0.260 C 
BRANCH  18  19
ATOM     19  N   UNL A   1      32.370  15.800  24.998  1.00  0.00    -0.349 N 
ATOM     20  C   UNL A   1      32.431  14.397  25.396  1.00  0.00     0.330 C 
ATOM     21  H   UNL A   1      31.404  16.038  24.775  1.00  0.00     0.346 HD
ATOM     22  H   UNL A   1      32.977  15.925  24.188  1.00  0.00     0.346 HD
ENDBRANCH  18  19
ENDBRANCH  17  18
ENDBRANCH  16  17
ENDBRANCH  13  16
ENDBRANCH  11  12
ENDBRANCH   7  11
ENDBRANCH   3   6
ENDBRANCH   1   2
BRANCH   1  23
ATOM     23  C   UNL A   1      31.492  28.577  25.134  1.00  0.00     0.023 C 
BRANCH  23  24
ATOM     24  C   UNL A   1      32.119  29.956  25.335  1.00  0.00     0.023 C 
BRANCH  24  25
ATOM     25  C   UNL A   1      32.172  30.434  26.783  1.00  0.00     0.116 C 
BRANCH  25  26
ATOM     26  N   UNL A   1      32.165  31.884  26.922  1.00  0.00    -0.352 N 
ATOM     27  C   UNL A   1      33.141  32.686  27.474  1.00  0.00     0.251 C 
ATOM     28  H   UNL A   1      31.366  32.348  26.581  1.00  0.00     0.163 HD
ATOM     29  O   UNL A   1      32.959  33.886  27.612  1.00  0.00    -0.269 OA
BRANCH  27  30
ATOM     30  C   UNL A   1      34.398  32.052  27.931  1.00  0.00     0.039 A 
ATOM     31  C   UNL A   1      35.548  32.834  28.057  1.00  0.00     0.014 A 
ATOM     32  C   UNL A   1      34.409  30.708  28.311  1.00  0.00     0.014 A 
ATOM     33  C   UNL A   1      36.692  32.284  28.641  1.00  0.00     0.010 A 
ATOM     34  C   UNL A   1      35.522  30.188  28.962  1.00  0.00     0.010 A 
ATOM     35  C   UNL A   1      36.675  30.969  29.135  1.00  0.00    -0.014 A 
BRANCH  35  36
ATOM     36  C   UNL A   1      37.836  30.392  29.858  1.00  0.00     0.031 A 
ATOM     37  C   UNL A   1      38.133  30.815  31.271  1.00  0.00     0.074 A 
ATOM     38  C   UNL A   1      38.690  29.578  29.207  1.00  0.00     0.049 A 
ATOM     39  N   UNL A   1      39.134  30.477  32.041  1.00  0.00    -0.248 NA
ATOM     40  C   UNL A   1      37.198  31.771  31.888  1.00  0.00     0.031 C 
ATOM     41  C   UNL A   1      38.564  29.162  27.809  1.00  0.00     0.029 A 
ATOM     42  N   UNL A   1      39.849  28.974  29.628  1.00  0.00    -0.354 N 
ATOM     43  C   UNL A   1      38.977  31.210  33.211  1.00  0.00     0.074 A 
ATOM     44  C   UNL A   1      37.804  32.039  33.035  1.00  0.00     0.031 C 
ATOM     45  C   UNL A   1      39.594  28.361  27.493  1.00  0.00     0.029 A 
ATOM     46  C   UNL A   1      40.469  28.227  28.654  1.00  0.00     0.049 A 
ATOM     47  H   UNL A   1      40.204  29.066  30.542  1.00  0.00     0.167 HD
ATOM     48  C   UNL A   1      39.720  31.175  34.343  1.00  0.00     0.034 A 
ATOM     49  C   UNL A   1      41.610  27.511  28.691  1.00  0.00     0.034 A 
ATOM     50  C   UNL A   1      40.853  30.310  34.534  1.00  0.00     0.049 A 
ATOM     51  C   UNL A   1      42.392  27.448  29.975  1.00  0.00     0.074 A 
ATOM     52  C   UNL A   1      41.603  30.114  35.679  1.00  0.00     0.029 A 
ATOM     53  N   UNL A   1      41.403  29.502  33.550  1.00  0.00    -0.354 N 
ATOM     54  N   UNL A   1      42.129  28.010  31.131  1.00  0.00    -0.248 NA
ATOM     55  C   UNL A   1      43.609  26.624  29.973  1.00  0.00     0.031 C 
ATOM     56  C   UNL A   1      42.621  29.201  35.382  1.00  0.00     0.029 A 
ATOM     57  C   UNL A   1      42.493  28.814  34.057  1.00  0.00     0.049 A 
ATOM     58  H   UNL A   1      41.069  29.428  32.628  1.00  0.00     0.167 HD
ATOM     59  C   UNL A   1      43.124  27.581  32.001  1.00  0.00     0.074 A 
ATOM     60  C   UNL A   1      43.988  26.698  31.241  1.00  0.00     0.031 C 
ATOM     61  C   UNL A   1      43.314  27.898  33.306  1.00  0.00     0.034 A 
BRANCH  48  62
ATOM     62  C   UNL A   1      39.288  32.063  35.481  1.00  0.00     0.023 A 
ATOM     63  C   UNL A   1      38.401  31.561  36.456  1.00  0.00     0.012 A 
ATOM     64  C   UNL A   1      39.770  33.381  35.601  1.00  0.00     0.148 A 
ATOM     65  C   UNL A   1      37.961  32.370  37.503  1.00  0.00     0.002 A 
ATOM     66  C   UNL A   1      39.362  34.167  36.673  1.00  0.00     0.091 A 
ATOM     67  F   UNL A   1      40.592  33.853  34.653  1.00  0.00    -0.205 F 
ATOM     68  C   UNL A   1      38.447  33.670  37.616  1.00  0.00     0.022 A 
BRANCH  66  69
ATOM     69  S   UNL A   1      39.999  35.824  36.943  1.00  0.00     0.127 S 
ATOM     70  O   UNL A   1      39.311  36.210  38.175  1.00  0.00    -0.237 OA
ATOM     71  O   UNL A   1      41.435  35.586  37.097  1.00  0.00    -0.237 OA
ATOM     72  O   UNL A   1      39.640  36.584  35.754  1.00  0.00    -0.744 OA
ENDBRANCH  66  69
ENDBRANCH  48  62
BRANCH  49  73
ATOM     73  C   UNL A   1      42.023  26.715  27.501  1.00  0.00     0.023 A 
ATOM     74  C   UNL A   1      42.727  27.358  26.465  1.00  0.00     0.012 A 
ATOM     75  C   UNL A   1      41.776  25.332  27.411  1.00  0.00     0.148 A 
ATOM     76  C   UNL A   1      43.161  26.643  25.347  1.00  0.00     0.002 A 
ATOM     77  C   UNL A   1      42.254  24.616  26.319  1.00  0.00     0.091 A 
ATOM     78  F   UNL A   1      41.098  24.742  28.405  1.00  0.00    -0.205 F 
ATOM     79  C   UNL A   1      42.932  25.271  25.279  1.00  0.00     0.022 A 
BRANCH  77  80
ATOM     80  S   UNL A   1      42.122  22.828  26.199  1.00  0.00     0.127 S 
ATOM     81  O   UNL A   1      42.793  22.563  24.928  1.00  0.00    -0.237 OA
ATOM     82  O   UNL A   1      42.857  22.393  27.387  1.00  0.00    -0.237 OA
ATOM     83  O   UNL A   1      40.696  22.534  26.230  1.00  0.00    -0.744 OA
ENDBRANCH  77  80
ENDBRANCH  49  73
BRANCH  61  84
ATOM     84  C   UNL A   1      44.483  27.269  34.016  1.00  0.00     0.023 A 
ATOM     85  C   UNL A   1      45.737  27.912  34.005  1.00  0.00     0.012 A 
ATOM     86  C   UNL A   1      44.320  26.084  34.759  1.00  0.00     0.148 A 
ATOM     87  C   UNL A   1      46.818  27.370  34.700  1.00  0.00     0.002 A 
ATOM     88  C   UNL A   1      45.389  25.574  35.488  1.00  0.00     0.091 A 
ATOM     89  F   UNL A   1      43.126  25.474  34.740  1.00  0.00    -0.205 F 
ATOM     90  C   UNL A   1      46.641  26.210  35.451  1.00  0.00     0.022 A 
BRANCH  88  91
ATOM     91  S   UNL A   1      45.226  24.141  36.559  1.00  0.00     0.127 S 
ATOM     92  O   UNL A   1      44.229  24.601  37.524  1.00  0.00    -0.237 OA
ATOM     93  O   UNL A   1      44.750  23.112  35.634  1.00  0.00    -0.237 OA
ATOM     94  O   UNL A   1      46.556  23.894  37.099  1.00  0.00    -0.744 OA
ENDBRANCH  88  91
ENDBRANCH  61  84
ENDBRANCH  35  36
ENDBRANCH  27  30
ENDBRANCH  25  26
ENDBRANCH  24  25
ENDBRANCH  23  24
ENDBRANCH   1  23
TORSDOF 20
ENDMDL
