MODEL 1
REMARK VINA RESULT:     -12.6      0.000      0.000
REMARK SMILES NS(=O)(=O)c1ccc(-n2nc(C(=O)NCCCCNC(=O)c3ccc(-c4c5nc(c(-c6cccc(S(=O)(=O)[O-])c6F)c6ccc([nH]6)c(-c6cccc(S(=O)(=O)[O-])c6F)c6nc(c(-c7cccc(S(=O)(=O)[O-])c7F)c7ccc4[nH]7)C=C6)C=C5)cc3)cc2-c2cc3ccccc3s2)cc1
REMARK SMILES IDX 16 1 15 2 14 3 12 4 13 5 11 7 9 8 10 9 86 10 85 11 8 12 5 13
REMARK SMILES IDX 6 14 97 15 7 16 96 17 2 18 3 19 4 20 1 21 87 24 88 25 95 26
REMARK SMILES IDX 89 27 94 28 90 29 93 30 91 31 92 32 17 33 18 34 19 35 20 36
REMARK SMILES IDX 21 38 22 39 23 40 84 41 24 42 83 43 25 44 26 45 27 46 77 47
REMARK SMILES IDX 28 48 82 49 76 50 78 51 29 52 81 53 75 54 74 55 30 57 62 58
REMARK SMILES IDX 42 59 61 60 43 61 46 62 60 63 79 64 44 65 45 66 59 68 80 69
REMARK SMILES IDX 47 70 31 71 32 72 40 73 33 74 35 75 41 76 34 77 36 78 37 79
REMARK SMILES IDX 38 80 39 81 63 82 64 83 72 84 65 85 67 86 73 87 66 88 68 89
REMARK SMILES IDX 69 90 70 91 71 92 48 93 49 94 57 95 50 96 52 97 58 98 51 99
REMARK SMILES IDX 53 100 54 101 55 102 56 103
REMARK H PARENT 14 6 1 22 1 23 19 37 78 56 46 67
REMARK Flexibility Score: inf
ROOT
ATOM      1  C   UNL A   1      37.571  19.718  24.730  1.00  0.00     0.023 C 
ENDROOT
BRANCH   1   2
ATOM      2  C   UNL A   1      36.582  20.723  25.342  1.00  0.00     0.116 C 
BRANCH   2   3
ATOM      3  N   UNL A   1      37.206  22.011  25.621  1.00  0.00    -0.351 N 
ATOM      4  C   UNL A   1      36.827  23.319  25.365  1.00  0.00     0.271 C 
ATOM      5  O   UNL A   1      37.591  24.204  25.751  1.00  0.00    -0.267 OA
ATOM      6  H   UNL A   1      38.073  21.936  26.083  1.00  0.00     0.163 HD
BRANCH   4   7
ATOM      7  C   UNL A   1      35.549  23.625  24.688  1.00  0.00     0.151 A 
ATOM      8  N   UNL A   1      33.740  24.721  24.249  1.00  0.00    -0.231 N 
ATOM      9  N   UNL A   1      35.048  24.875  24.603  1.00  0.00    -0.162 NA
ATOM     10  C   UNL A   1      33.447  23.391  24.038  1.00  0.00     0.085 A 
ATOM     11  C   UNL A   1      34.673  22.752  24.032  1.00  0.00     0.066 A 
BRANCH   8  12
ATOM     12  C   UNL A   1      32.954  25.857  23.937  1.00  0.00     0.065 A 
ATOM     13  C   UNL A   1      31.227  27.937  23.260  1.00  0.00     0.082 A 
ATOM     14  C   UNL A   1      31.834  27.920  24.522  1.00  0.00     0.024 A 
ATOM     15  C   UNL A   1      31.510  26.946  22.319  1.00  0.00     0.024 A 
ATOM     16  C   UNL A   1      32.679  26.861  24.874  1.00  0.00     0.030 A 
ATOM     17  C   UNL A   1      32.394  25.922  22.650  1.00  0.00     0.030 A 
BRANCH  13  18
ATOM     18  S   UNL A   1      30.103  29.230  22.826  1.00  0.00     0.238 S 
ATOM     19  O   UNL A   1      29.951  30.144  23.924  1.00  0.00    -0.207 OA
ATOM     20  O   UNL A   1      28.969  28.667  22.114  1.00  0.00    -0.207 OA
BRANCH  18  21
ATOM     21  N   UNL A   1      30.984  30.073  21.666  1.00  0.00    -0.225 NA
ATOM     22  H   UNL A   1      31.391  29.414  21.003  1.00  0.00     0.137 HD
ATOM     23  H   UNL A   1      31.728  30.601  22.122  1.00  0.00     0.137 HD
ENDBRANCH  18  21
ENDBRANCH  13  18
ENDBRANCH   8  12
BRANCH  10  24
ATOM     24  C   UNL A   1      32.201  22.682  23.942  1.00  0.00     0.054 A 
ATOM     25  C   UNL A   1      31.879  21.799  22.916  1.00  0.00     0.031 A 
ATOM     26  S   UNL A   1      31.602  21.952  25.401  1.00  0.00    -0.134 S 
ATOM     27  C   UNL A   1      32.192  20.464  23.404  1.00  0.00    -0.007 A 
ATOM     28  C   UNL A   1      32.191  20.431  24.806  1.00  0.00     0.035 A 
ATOM     29  C   UNL A   1      32.620  19.307  22.712  1.00  0.00     0.009 A 
ATOM     30  C   UNL A   1      32.644  19.320  25.533  1.00  0.00     0.019 A 
ATOM     31  C   UNL A   1      33.126  18.216  23.430  1.00  0.00     0.001 A 
ATOM     32  C   UNL A   1      33.155  18.232  24.821  1.00  0.00     0.001 A 
ENDBRANCH  10  24
ENDBRANCH   4   7
ENDBRANCH   2   3
ENDBRANCH   1   2
BRANCH   1  33
ATOM     33  C   UNL A   1      39.050  19.936  25.087  1.00  0.00     0.023 C 
BRANCH  33  34
ATOM     34  C   UNL A   1      39.685  18.851  25.956  1.00  0.00     0.116 C 
BRANCH  34  35
ATOM     35  N   UNL A   1      41.119  18.661  25.697  1.00  0.00    -0.352 N 
ATOM     36  C   UNL A   1      42.124  19.614  25.673  1.00  0.00     0.251 C 
ATOM     37  H   UNL A   1      41.402  17.736  25.518  1.00  0.00     0.163 HD
ATOM     38  O   UNL A   1      43.176  19.402  25.079  1.00  0.00    -0.269 OA
BRANCH  36  39
ATOM     39  C   UNL A   1      41.915  20.883  26.393  1.00  0.00     0.039 A 
ATOM     40  C   UNL A   1      41.518  20.925  27.733  1.00  0.00     0.014 A 
ATOM     41  C   UNL A   1      42.196  22.053  25.698  1.00  0.00     0.014 A 
ATOM     42  C   UNL A   1      41.510  22.155  28.390  1.00  0.00     0.010 A 
ATOM     43  C   UNL A   1      42.374  23.220  26.391  1.00  0.00     0.010 A 
ATOM     44  C   UNL A   1      41.972  23.299  27.718  1.00  0.00    -0.014 A 
BRANCH  44  45
ATOM     45  C   UNL A   1      42.162  24.567  28.420  1.00  0.00     0.031 A 
ATOM     46  C   UNL A   1      41.033  25.519  28.256  1.00  0.00     0.074 A 
ATOM     47  C   UNL A   1      43.141  24.770  29.333  1.00  0.00     0.049 A 
ATOM     48  N   UNL A   1      40.996  26.581  27.520  1.00  0.00    -0.248 NA
ATOM     49  C   UNL A   1      39.729  25.159  28.840  1.00  0.00     0.031 C 
ATOM     50  C   UNL A   1      44.080  23.770  29.864  1.00  0.00     0.029 A 
ATOM     51  N   UNL A   1      43.417  25.866  30.096  1.00  0.00    -0.354 N 
ATOM     52  C   UNL A   1      39.770  27.176  27.812  1.00  0.00     0.074 A 
ATOM     53  C   UNL A   1      38.950  26.142  28.380  1.00  0.00     0.031 C 
ATOM     54  C   UNL A   1      44.605  24.212  31.026  1.00  0.00     0.029 A 
ATOM     55  C   UNL A   1      44.216  25.595  31.203  1.00  0.00     0.049 A 
ATOM     56  H   UNL A   1      43.080  26.767  29.884  1.00  0.00     0.167 HD
ATOM     57  C   UNL A   1      39.673  28.532  27.920  1.00  0.00     0.034 A 
ATOM     58  C   UNL A   1      44.535  26.440  32.210  1.00  0.00     0.034 A 
ATOM     59  C   UNL A   1      40.878  29.163  27.446  1.00  0.00     0.049 A 
ATOM     60  C   UNL A   1      44.368  27.814  31.699  1.00  0.00     0.074 A 
ATOM     61  C   UNL A   1      41.484  29.437  26.242  1.00  0.00     0.029 A 
ATOM     62  N   UNL A   1      41.826  29.288  28.426  1.00  0.00    -0.354 N 
ATOM     63  N   UNL A   1      45.094  28.313  30.737  1.00  0.00    -0.248 NA
ATOM     64  C   UNL A   1      43.165  28.565  32.038  1.00  0.00     0.031 C 
ATOM     65  C   UNL A   1      42.872  29.603  26.526  1.00  0.00     0.029 A 
ATOM     66  C   UNL A   1      43.073  29.464  27.898  1.00  0.00     0.049 A 
ATOM     67  H   UNL A   1      41.634  29.257  29.392  1.00  0.00     0.167 HD
ATOM     68  C   UNL A   1      44.218  29.145  30.068  1.00  0.00     0.074 A 
ATOM     69  C   UNL A   1      43.138  29.411  31.006  1.00  0.00     0.031 C 
ATOM     70  C   UNL A   1      44.250  29.248  28.711  1.00  0.00     0.034 A 
BRANCH  57  71
ATOM     71  C   UNL A   1      38.781  29.299  28.888  1.00  0.00     0.023 A 
ATOM     72  C   UNL A   1      38.154  30.465  28.383  1.00  0.00     0.012 A 
ATOM     73  C   UNL A   1      38.761  29.134  30.291  1.00  0.00     0.148 A 
ATOM     74  C   UNL A   1      37.593  31.432  29.225  1.00  0.00     0.002 A 
ATOM     75  C   UNL A   1      38.137  30.062  31.121  1.00  0.00     0.091 A 
ATOM     76  F   UNL A   1      39.462  28.154  30.863  1.00  0.00    -0.205 F 
ATOM     77  C   UNL A   1      37.580  31.229  30.598  1.00  0.00     0.022 A 
BRANCH  75  78
ATOM     78  S   UNL A   1      38.060  29.829  32.904  1.00  0.00     0.127 S 
ATOM     79  O   UNL A   1      37.386  28.539  32.998  1.00  0.00    -0.237 OA
ATOM     80  O   UNL A   1      39.478  29.819  33.262  1.00  0.00    -0.237 OA
ATOM     81  O   UNL A   1      37.323  30.978  33.416  1.00  0.00    -0.744 OA
ENDBRANCH  75  78
ENDBRANCH  57  71
BRANCH  58  82
ATOM     82  C   UNL A   1      44.814  26.172  33.638  1.00  0.00     0.023 A 
ATOM     83  C   UNL A   1      46.137  26.264  34.114  1.00  0.00     0.012 A 
ATOM     84  C   UNL A   1      43.763  26.134  34.578  1.00  0.00     0.148 A 
ATOM     85  C   UNL A   1      46.402  26.379  35.483  1.00  0.00     0.002 A 
ATOM     86  C   UNL A   1      44.031  26.250  35.938  1.00  0.00     0.091 A 
ATOM     87  F   UNL A   1      42.501  26.078  34.129  1.00  0.00    -0.205 F 
ATOM     88  C   UNL A   1      45.350  26.390  36.393  1.00  0.00     0.022 A 
BRANCH  86  89
ATOM     89  S   UNL A   1      42.728  26.310  37.175  1.00  0.00     0.127 S 
ATOM     90  O   UNL A   1      42.067  25.021  36.972  1.00  0.00    -0.237 OA
ATOM     91  O   UNL A   1      43.495  26.418  38.412  1.00  0.00    -0.237 OA
ATOM     92  O   UNL A   1      41.912  27.466  36.829  1.00  0.00    -0.744 OA
ENDBRANCH  86  89
ENDBRANCH  58  82
BRANCH  70  93
ATOM     93  C   UNL A   1      45.538  28.959  28.007  1.00  0.00     0.023 A 
ATOM     94  C   UNL A   1      46.640  29.835  28.010  1.00  0.00     0.012 A 
ATOM     95  C   UNL A   1      45.670  27.688  27.424  1.00  0.00     0.148 A 
ATOM     96  C   UNL A   1      47.853  29.442  27.436  1.00  0.00     0.002 A 
ATOM     97  C   UNL A   1      46.887  27.284  26.901  1.00  0.00     0.091 A 
ATOM     98  F   UNL A   1      44.596  26.882  27.418  1.00  0.00    -0.205 F 
ATOM     99  C   UNL A   1      47.982  28.161  26.896  1.00  0.00     0.022 A 
BRANCH  97 100
ATOM    100  S   UNL A   1      47.137  25.608  26.315  1.00  0.00     0.127 S 
ATOM    101  O   UNL A   1      46.795  24.817  27.495  1.00  0.00    -0.237 OA
ATOM    102  O   UNL A   1      46.176  25.516  25.215  1.00  0.00    -0.237 OA
ATOM    103  O   UNL A   1      48.531  25.534  25.893  1.00  0.00    -0.744 OA
ENDBRANCH  97 100
ENDBRANCH  70  93
ENDBRANCH  44  45
ENDBRANCH  36  39
ENDBRANCH  34  35
ENDBRANCH  33  34
ENDBRANCH   1  33
TORSDOF 18
ENDMDL
MODEL 2
REMARK VINA RESULT:     -12.6      1.538      3.229
REMARK SMILES NS(=O)(=O)c1ccc(-n2nc(C(=O)NCCCCNC(=O)c3ccc(-c4c5nc(c(-c6cccc(S(=O)(=O)[O-])c6F)c6ccc([nH]6)c(-c6cccc(S(=O)(=O)[O-])c6F)c6nc(c(-c7cccc(S(=O)(=O)[O-])c7F)c7ccc4[nH]7)C=C6)C=C5)cc3)cc2-c2cc3ccccc3s2)cc1
REMARK SMILES IDX 16 1 15 2 14 3 12 4 13 5 11 7 9 8 10 9 86 10 85 11 8 12 5 13
REMARK SMILES IDX 6 14 97 15 7 16 96 17 2 18 3 19 4 20 1 21 87 24 88 25 95 26
REMARK SMILES IDX 89 27 94 28 90 29 93 30 91 31 92 32 17 33 18 34 19 35 20 36
REMARK SMILES IDX 21 38 22 39 23 40 84 41 24 42 83 43 25 44 26 45 27 46 77 47
REMARK SMILES IDX 28 48 82 49 76 50 78 51 29 52 81 53 75 54 74 55 30 57 62 58
REMARK SMILES IDX 42 59 61 60 43 61 46 62 60 63 79 64 44 65 45 66 59 68 80 69
REMARK SMILES IDX 47 70 31 71 32 72 40 73 33 74 35 75 41 76 34 77 36 78 37 79
REMARK SMILES IDX 38 80 39 81 63 82 64 83 72 84 65 85 67 86 73 87 66 88 68 89
REMARK SMILES IDX 69 90 70 91 71 92 48 93 49 94 57 95 50 96 52 97 58 98 51 99
REMARK SMILES IDX 53 100 54 101 55 102 56 103
REMARK H PARENT 14 6 1 22 1 23 19 37 78 56 46 67
REMARK Flexibility Score: inf
ROOT
ATOM      1  C   UNL A   1      35.672  20.415  24.997  1.00  0.00     0.023 C 
ENDROOT
BRANCH   1   2
ATOM      2  C   UNL A   1      34.271  21.010  25.217  1.00  0.00     0.116 C 
BRANCH   2   3
ATOM      3  N   UNL A   1      33.388  20.772  24.082  1.00  0.00    -0.351 N 
ATOM      4  C   UNL A   1      32.526  21.592  23.369  1.00  0.00     0.271 C 
ATOM      5  O   UNL A   1      31.918  21.075  22.431  1.00  0.00    -0.267 OA
ATOM      6  H   UNL A   1      33.406  19.843  23.756  1.00  0.00     0.163 HD
BRANCH   4   7
ATOM      7  C   UNL A   1      32.376  23.022  23.709  1.00  0.00     0.151 A 
ATOM      8  N   UNL A   1      31.807  25.087  23.429  1.00  0.00    -0.231 N 
ATOM      9  N   UNL A   1      31.420  23.806  23.168  1.00  0.00    -0.162 NA
ATOM     10  C   UNL A   1      32.954  25.102  24.194  1.00  0.00     0.085 A 
ATOM     11  C   UNL A   1      33.126  23.794  24.605  1.00  0.00     0.066 A 
BRANCH   8  12
ATOM     12  C   UNL A   1      30.943  26.164  23.114  1.00  0.00     0.065 A 
ATOM     13  C   UNL A   1      29.248  28.344  22.734  1.00  0.00     0.082 A 
ATOM     14  C   UNL A   1      30.408  28.222  21.960  1.00  0.00     0.024 A 
ATOM     15  C   UNL A   1      28.906  27.362  23.666  1.00  0.00     0.024 A 
ATOM     16  C   UNL A   1      31.276  27.143  22.170  1.00  0.00     0.030 A 
ATOM     17  C   UNL A   1      29.741  26.260  23.836  1.00  0.00     0.030 A 
BRANCH  13  18
ATOM     18  S   UNL A   1      28.179  29.736  22.531  1.00  0.00     0.238 S 
ATOM     19  O   UNL A   1      28.019  30.038  21.135  1.00  0.00    -0.207 OA
ATOM     20  O   UNL A   1      28.510  30.750  23.516  1.00  0.00    -0.207 OA
BRANCH  18  21
ATOM     21  N   UNL A   1      26.698  29.104  23.020  1.00  0.00    -0.225 NA
ATOM     22  H   UNL A   1      26.107  29.857  23.373  1.00  0.00     0.137 HD
ATOM     23  H   UNL A   1      26.849  28.416  23.756  1.00  0.00     0.137 HD
ENDBRANCH  18  21
ENDBRANCH  13  18
ENDBRANCH   8  12
BRANCH  10  24
ATOM     24  C   UNL A   1      33.904  26.139  24.485  1.00  0.00     0.054 A 
ATOM     25  C   UNL A   1      33.849  27.425  23.958  1.00  0.00     0.031 A 
ATOM     26  S   UNL A   1      34.366  26.330  26.150  1.00  0.00    -0.134 S 
ATOM     27  C   UNL A   1      33.177  28.252  24.950  1.00  0.00    -0.007 A 
ATOM     28  C   UNL A   1      33.286  27.687  26.228  1.00  0.00     0.035 A 
ATOM     29  C   UNL A   1      32.355  29.393  24.795  1.00  0.00     0.009 A 
ATOM     30  C   UNL A   1      32.572  28.178  27.332  1.00  0.00     0.019 A 
ATOM     31  C   UNL A   1      31.596  29.853  25.878  1.00  0.00     0.001 A 
ATOM     32  C   UNL A   1      31.691  29.241  27.124  1.00  0.00     0.001 A 
ENDBRANCH  10  24
ENDBRANCH   4   7
ENDBRANCH   2   3
ENDBRANCH   1   2
BRANCH   1  33
ATOM     33  C   UNL A   1      36.817  21.111  25.750  1.00  0.00     0.023 C 
BRANCH  33  34
ATOM     34  C   UNL A   1      38.188  21.034  25.080  1.00  0.00     0.116 C 
BRANCH  34  35
ATOM     35  N   UNL A   1      38.939  19.818  25.425  1.00  0.00    -0.352 N 
ATOM     36  C   UNL A   1      40.257  19.706  25.835  1.00  0.00     0.251 C 
ATOM     37  H   UNL A   1      38.439  18.973  25.355  1.00  0.00     0.163 HD
ATOM     38  O   UNL A   1      40.863  18.646  25.718  1.00  0.00    -0.269 OA
BRANCH  36  39
ATOM     39  C   UNL A   1      40.914  20.879  26.437  1.00  0.00     0.039 A 
ATOM     40  C   UNL A   1      41.551  21.857  25.667  1.00  0.00     0.014 A 
ATOM     41  C   UNL A   1      40.817  21.013  27.818  1.00  0.00     0.014 A 
ATOM     42  C   UNL A   1      41.996  23.019  26.296  1.00  0.00     0.010 A 
ATOM     43  C   UNL A   1      41.077  22.228  28.394  1.00  0.00     0.010 A 
ATOM     44  C   UNL A   1      41.725  23.212  27.660  1.00  0.00    -0.014 A 
BRANCH  44  45
ATOM     45  C   UNL A   1      42.000  24.490  28.315  1.00  0.00     0.031 A 
ATOM     46  C   UNL A   1      40.899  25.479  28.188  1.00  0.00     0.074 A 
ATOM     47  C   UNL A   1      43.035  24.680  29.167  1.00  0.00     0.049 A 
ATOM     48  N   UNL A   1      40.859  26.522  27.425  1.00  0.00    -0.248 NA
ATOM     49  C   UNL A   1      39.618  25.184  28.852  1.00  0.00     0.031 C 
ATOM     50  C   UNL A   1      43.966  23.658  29.673  1.00  0.00     0.029 A 
ATOM     51  N   UNL A   1      43.393  25.784  29.883  1.00  0.00    -0.354 N 
ATOM     52  C   UNL A   1      39.674  27.171  27.768  1.00  0.00     0.074 A 
ATOM     53  C   UNL A   1      38.850  26.183  28.409  1.00  0.00     0.031 C 
ATOM     54  C   UNL A   1      44.571  24.110  30.791  1.00  0.00     0.029 A 
ATOM     55  C   UNL A   1      44.244  25.511  30.951  1.00  0.00     0.049 A 
ATOM     56  H   UNL A   1      43.078  26.691  29.664  1.00  0.00     0.167 HD
ATOM     57  C   UNL A   1      39.632  28.532  27.843  1.00  0.00     0.034 A 
ATOM     58  C   UNL A   1      44.648  26.370  31.915  1.00  0.00     0.034 A 
ATOM     59  C   UNL A   1      40.831  29.104  27.286  1.00  0.00     0.049 A 
ATOM     60  C   UNL A   1      44.503  27.736  31.375  1.00  0.00     0.074 A 
ATOM     61  C   UNL A   1      41.377  29.323  26.043  1.00  0.00     0.029 A 
ATOM     62  N   UNL A   1      41.837  29.219  28.208  1.00  0.00    -0.354 N 
ATOM     63  N   UNL A   1      45.192  28.181  30.361  1.00  0.00    -0.248 NA
ATOM     64  C   UNL A   1      43.349  28.540  31.759  1.00  0.00     0.031 C 
ATOM     65  C   UNL A   1      42.785  29.445  26.244  1.00  0.00     0.029 A 
ATOM     66  C   UNL A   1      43.057  29.333  27.607  1.00  0.00     0.049 A 
ATOM     67  H   UNL A   1      41.698  29.220  29.183  1.00  0.00     0.167 HD
ATOM     68  C   UNL A   1      44.310  29.028  29.718  1.00  0.00     0.074 A 
ATOM     69  C   UNL A   1      43.294  29.359  30.707  1.00  0.00     0.031 C 
ATOM     70  C   UNL A   1      44.269  29.095  28.359  1.00  0.00     0.034 A 
BRANCH  57  71
ATOM     71  C   UNL A   1      38.824  29.357  28.836  1.00  0.00     0.023 A 
ATOM     72  C   UNL A   1      38.084  30.441  28.305  1.00  0.00     0.012 A 
ATOM     73  C   UNL A   1      38.980  29.331  30.241  1.00  0.00     0.148 A 
ATOM     74  C   UNL A   1      37.580  31.466  29.115  1.00  0.00     0.002 A 
ATOM     75  C   UNL A   1      38.413  30.313  31.050  1.00  0.00     0.091 A 
ATOM     76  F   UNL A   1      39.792  28.441  30.812  1.00  0.00    -0.205 F 
ATOM     77  C   UNL A   1      37.740  31.399  30.492  1.00  0.00     0.022 A 
BRANCH  75  78
ATOM     78  S   UNL A   1      38.560  30.256  32.843  1.00  0.00     0.127 S 
ATOM     79  O   UNL A   1      37.702  31.367  33.239  1.00  0.00    -0.237 OA
ATOM     80  O   UNL A   1      38.033  28.924  33.141  1.00  0.00    -0.237 OA
ATOM     81  O   UNL A   1      39.983  30.411  33.123  1.00  0.00    -0.744 OA
ENDBRANCH  75  78
ENDBRANCH  57  71
BRANCH  58  82
ATOM     82  C   UNL A   1      44.998  26.128  33.332  1.00  0.00     0.023 A 
ATOM     83  C   UNL A   1      46.351  26.150  33.725  1.00  0.00     0.012 A 
ATOM     84  C   UNL A   1      44.006  26.187  34.333  1.00  0.00     0.148 A 
ATOM     85  C   UNL A   1      46.705  26.290  35.071  1.00  0.00     0.002 A 
ATOM     86  C   UNL A   1      44.364  26.328  35.670  1.00  0.00     0.091 A 
ATOM     87  F   UNL A   1      42.718  26.198  33.962  1.00  0.00    -0.205 F 
ATOM     88  C   UNL A   1      45.714  26.396  36.041  1.00  0.00     0.022 A 
BRANCH  86  89
ATOM     89  S   UNL A   1      43.145  26.509  36.979  1.00  0.00     0.127 S 
ATOM     90  O   UNL A   1      42.240  27.506  36.408  1.00  0.00    -0.237 OA
ATOM     91  O   UNL A   1      42.596  25.159  37.065  1.00  0.00    -0.237 OA
ATOM     92  O   UNL A   1      43.888  26.968  38.146  1.00  0.00    -0.744 OA
ENDBRANCH  86  89
ENDBRANCH  58  82
BRANCH  70  93
ATOM     93  C   UNL A   1      45.505  28.739  27.594  1.00  0.00     0.023 A 
ATOM     94  C   UNL A   1      46.655  29.549  27.553  1.00  0.00     0.012 A 
ATOM     95  C   UNL A   1      45.534  27.470  26.994  1.00  0.00     0.148 A 
ATOM     96  C   UNL A   1      47.816  29.093  26.920  1.00  0.00     0.002 A 
ATOM     97  C   UNL A   1      46.700  27.001  26.411  1.00  0.00     0.091 A 
ATOM     98  F   UNL A   1      44.416  26.728  27.031  1.00  0.00    -0.205 F 
ATOM     99  C   UNL A   1      47.844  27.813  26.364  1.00  0.00     0.022 A 
BRANCH  97 100
ATOM    100  S   UNL A   1      46.824  25.321  25.799  1.00  0.00     0.127 S 
ATOM    101  O   UNL A   1      48.207  25.266  25.331  1.00  0.00    -0.237 OA
ATOM    102  O   UNL A   1      46.551  24.531  27.001  1.00  0.00    -0.237 OA
ATOM    103  O   UNL A   1      45.806  25.195  24.763  1.00  0.00    -0.744 OA
ENDBRANCH  97 100
ENDBRANCH  70  93
ENDBRANCH  44  45
ENDBRANCH  36  39
ENDBRANCH  34  35
ENDBRANCH  33  34
ENDBRANCH   1  33
TORSDOF 18
ENDMDL
MODEL 3
REMARK VINA RESULT:     -12.4      3.201      8.351
REMARK SMILES NS(=O)(=O)c1ccc(-n2nc(C(=O)NCCCCNC(=O)c3ccc(-c4c5nc(c(-c6cccc(S(=O)(=O)[O-])c6F)c6ccc([nH]6)c(-c6cccc(S(=O)(=O)[O-])c6F)c6nc(c(-c7cccc(S(=O)(=O)[O-])c7F)c7ccc4[nH]7)C=C6)C=C5)cc3)cc2-c2cc3ccccc3s2)cc1
REMARK SMILES IDX 16 1 15 2 14 3 12 4 13 5 11 7 9 8 10 9 86 10 85 11 8 12 5 13
REMARK SMILES IDX 6 14 97 15 7 16 96 17 2 18 3 19 4 20 1 21 87 24 88 25 95 26
REMARK SMILES IDX 89 27 94 28 90 29 93 30 91 31 92 32 17 33 18 34 19 35 20 36
REMARK SMILES IDX 21 38 22 39 23 40 84 41 24 42 83 43 25 44 26 45 27 46 77 47
REMARK SMILES IDX 28 48 82 49 76 50 78 51 29 52 81 53 75 54 74 55 30 57 62 58
REMARK SMILES IDX 42 59 61 60 43 61 46 62 60 63 79 64 44 65 45 66 59 68 80 69
REMARK SMILES IDX 47 70 31 71 32 72 40 73 33 74 35 75 41 76 34 77 36 78 37 79
REMARK SMILES IDX 38 80 39 81 63 82 64 83 72 84 65 85 67 86 73 87 66 88 68 89
REMARK SMILES IDX 69 90 70 91 71 92 48 93 49 94 57 95 50 96 52 97 58 98 51 99
REMARK SMILES IDX 53 100 54 101 55 102 56 103
REMARK H PARENT 14 6 1 22 1 23 19 37 78 56 46 67
REMARK Flexibility Score: inf
ROOT
ATOM      1  C   UNL A   1      35.928  31.582  27.829  1.00  0.00     0.023 C 
ENDROOT
BRANCH   1   2
ATOM      2  C   UNL A   1      34.575  30.855  27.915  1.00  0.00     0.116 C 
BRANCH   2   3
ATOM      3  N   UNL A   1      33.451  31.754  27.685  1.00  0.00    -0.351 N 
ATOM      4  C   UNL A   1      32.268  31.623  26.975  1.00  0.00     0.271 C 
ATOM      5  O   UNL A   1      31.503  32.588  26.989  1.00  0.00    -0.267 OA
ATOM      6  H   UNL A   1      33.553  32.631  28.121  1.00  0.00     0.163 HD
BRANCH   4   7
ATOM      7  C   UNL A   1      31.939  30.370  26.264  1.00  0.00     0.151 A 
ATOM      8  N   UNL A   1      32.128  28.295  25.693  1.00  0.00    -0.231 N 
ATOM      9  N   UNL A   1      32.257  29.150  26.747  1.00  0.00    -0.162 NA
ATOM     10  C   UNL A   1      31.658  28.961  24.581  1.00  0.00     0.085 A 
ATOM     11  C   UNL A   1      31.266  30.202  25.047  1.00  0.00     0.066 A 
BRANCH   8  12
ATOM     12  C   UNL A   1      32.255  26.899  25.896  1.00  0.00     0.065 A 
ATOM     13  C   UNL A   1      32.668  24.204  26.473  1.00  0.00     0.082 A 
ATOM     14  C   UNL A   1      31.368  24.723  26.467  1.00  0.00     0.024 A 
ATOM     15  C   UNL A   1      33.760  25.012  26.150  1.00  0.00     0.024 A 
ATOM     16  C   UNL A   1      31.161  26.083  26.206  1.00  0.00     0.030 A 
ATOM     17  C   UNL A   1      33.549  26.352  25.836  1.00  0.00     0.030 A 
BRANCH  13  18
ATOM     18  S   UNL A   1      32.952  22.506  26.869  1.00  0.00     0.238 S 
ATOM     19  O   UNL A   1      32.678  22.268  28.259  1.00  0.00    -0.207 OA
ATOM     20  O   UNL A   1      34.175  22.056  26.226  1.00  0.00    -0.207 OA
BRANCH  18  21
ATOM     21  N   UNL A   1      31.703  21.746  26.035  1.00  0.00    -0.225 NA
ATOM     22  H   UNL A   1      30.868  22.330  26.069  1.00  0.00     0.137 HD
ATOM     23  H   UNL A   1      31.506  20.844  26.466  1.00  0.00     0.137 HD
ENDBRANCH  18  21
ENDBRANCH  13  18
ENDBRANCH   8  12
BRANCH  10  24
ATOM     24  C   UNL A   1      31.627  28.609  23.189  1.00  0.00     0.054 A 
ATOM     25  C   UNL A   1      32.718  28.122  22.478  1.00  0.00     0.031 A 
ATOM     26  S   UNL A   1      30.258  27.685  22.647  1.00  0.00    -0.134 S 
ATOM     27  C   UNL A   1      32.601  26.670  22.481  1.00  0.00    -0.007 A 
ATOM     28  C   UNL A   1      31.272  26.277  22.689  1.00  0.00     0.035 A 
ATOM     29  C   UNL A   1      33.597  25.665  22.458  1.00  0.00     0.009 A 
ATOM     30  C   UNL A   1      30.910  24.941  22.925  1.00  0.00     0.019 A 
ATOM     31  C   UNL A   1      33.251  24.340  22.748  1.00  0.00     0.001 A 
ATOM     32  C   UNL A   1      31.928  23.988  22.996  1.00  0.00     0.001 A 
ENDBRANCH  10  24
ENDBRANCH   4   7
ENDBRANCH   2   3
ENDBRANCH   1   2
BRANCH   1  33
ATOM     33  C   UNL A   1      35.892  33.093  28.108  1.00  0.00     0.023 C 
BRANCH  33  34
ATOM     34  C   UNL A   1      36.864  33.588  29.179  1.00  0.00     0.116 C 
BRANCH  34  35
ATOM     35  N   UNL A   1      36.420  33.296  30.549  1.00  0.00    -0.352 N 
ATOM     36  C   UNL A   1      36.735  32.206  31.344  1.00  0.00     0.251 C 
ATOM     37  H   UNL A   1      35.821  33.963  30.956  1.00  0.00     0.163 HD
ATOM     38  O   UNL A   1      36.018  31.888  32.286  1.00  0.00    -0.269 OA
BRANCH  36  39
ATOM     39  C   UNL A   1      37.962  31.445  31.049  1.00  0.00     0.039 A 
ATOM     40  C   UNL A   1      39.234  32.024  31.114  1.00  0.00     0.014 A 
ATOM     41  C   UNL A   1      37.810  30.094  30.763  1.00  0.00     0.014 A 
ATOM     42  C   UNL A   1      40.351  31.198  30.991  1.00  0.00     0.010 A 
ATOM     43  C   UNL A   1      38.897  29.265  30.837  1.00  0.00     0.010 A 
ATOM     44  C   UNL A   1      40.174  29.808  30.884  1.00  0.00    -0.014 A 
BRANCH  44  45
ATOM     45  C   UNL A   1      41.311  28.891  30.945  1.00  0.00     0.031 A 
ATOM     46  C   UNL A   1      41.881  28.733  32.308  1.00  0.00     0.074 A 
ATOM     47  C   UNL A   1      41.658  28.072  29.926  1.00  0.00     0.049 A 
ATOM     48  N   UNL A   1      42.982  29.232  32.765  1.00  0.00    -0.248 NA
ATOM     49  C   UNL A   1      41.049  28.092  33.340  1.00  0.00     0.031 C 
ATOM     50  C   UNL A   1      40.925  27.861  28.667  1.00  0.00     0.029 A 
ATOM     51  N   UNL A   1      42.651  27.139  29.847  1.00  0.00    -0.354 N 
ATOM     52  C   UNL A   1      43.117  28.691  34.043  1.00  0.00     0.074 A 
ATOM     53  C   UNL A   1      41.804  28.255  34.430  1.00  0.00     0.031 C 
ATOM     54  C   UNL A   1      41.318  26.700  28.103  1.00  0.00     0.029 A 
ATOM     55  C   UNL A   1      42.467  26.206  28.830  1.00  0.00     0.049 A 
ATOM     56  H   UNL A   1      43.426  27.127  30.454  1.00  0.00     0.167 HD
ATOM     57  C   UNL A   1      44.341  28.303  34.500  1.00  0.00     0.034 A 
ATOM     58  C   UNL A   1      43.199  25.092  28.600  1.00  0.00     0.034 A 
ATOM     59  C   UNL A   1      45.380  28.772  33.618  1.00  0.00     0.049 A 
ATOM     60  C   UNL A   1      44.518  25.295  29.230  1.00  0.00     0.074 A 
ATOM     61  C   UNL A   1      46.014  29.956  33.324  1.00  0.00     0.029 A 
ATOM     62  N   UNL A   1      45.635  27.899  32.594  1.00  0.00    -0.354 N 
ATOM     63  N   UNL A   1      45.361  26.212  28.846  1.00  0.00    -0.248 NA
ATOM     64  C   UNL A   1      44.797  24.679  30.522  1.00  0.00     0.031 C 
ATOM     65  C   UNL A   1      46.553  29.802  32.012  1.00  0.00     0.029 A 
ATOM     66  C   UNL A   1      46.267  28.517  31.554  1.00  0.00     0.049 A 
ATOM     67  H   UNL A   1      45.393  26.944  32.606  1.00  0.00     0.167 HD
ATOM     68  C   UNL A   1      45.978  26.598  30.020  1.00  0.00     0.074 A 
ATOM     69  C   UNL A   1      45.746  25.510  30.959  1.00  0.00     0.031 C 
ATOM     70  C   UNL A   1      46.299  27.902  30.245  1.00  0.00     0.034 A 
BRANCH  57  71
ATOM     71  C   UNL A   1      44.633  27.107  35.397  1.00  0.00     0.023 A 
ATOM     72  C   UNL A   1      45.393  27.362  36.565  1.00  0.00     0.012 A 
ATOM     73  C   UNL A   1      44.482  25.751  35.030  1.00  0.00     0.148 A 
ATOM     74  C   UNL A   1      46.012  26.335  37.289  1.00  0.00     0.002 A 
ATOM     75  C   UNL A   1      45.036  24.727  35.795  1.00  0.00     0.091 A 
ATOM     76  F   UNL A   1      43.921  25.427  33.865  1.00  0.00    -0.205 F 
ATOM     77  C   UNL A   1      45.829  25.014  36.907  1.00  0.00     0.022 A 
BRANCH  75  78
ATOM     78  S   UNL A   1      44.801  22.996  35.365  1.00  0.00     0.127 S 
ATOM     79  O   UNL A   1      43.355  22.937  35.182  1.00  0.00    -0.237 OA
ATOM     80  O   UNL A   1      45.590  22.886  34.137  1.00  0.00    -0.237 OA
ATOM     81  O   UNL A   1      45.338  22.238  36.489  1.00  0.00    -0.744 OA
ENDBRANCH  75  78
ENDBRANCH  57  71
BRANCH  58  82
ATOM     82  C   UNL A   1      42.808  23.788  28.022  1.00  0.00     0.023 A 
ATOM     83  C   UNL A   1      41.473  23.351  28.139  1.00  0.00     0.012 A 
ATOM     84  C   UNL A   1      43.651  23.131  27.101  1.00  0.00     0.148 A 
ATOM     85  C   UNL A   1      40.976  22.331  27.320  1.00  0.00     0.002 A 
ATOM     86  C   UNL A   1      43.151  22.119  26.287  1.00  0.00     0.091 A 
ATOM     87  F   UNL A   1      44.912  23.564  26.963  1.00  0.00    -0.205 F 
ATOM     88  C   UNL A   1      41.808  21.728  26.383  1.00  0.00     0.022 A 
BRANCH  86  89
ATOM     89  S   UNL A   1      44.150  21.315  25.027  1.00  0.00     0.127 S 
ATOM     90  O   UNL A   1      43.529  19.993  24.954  1.00  0.00    -0.237 OA
ATOM     91  O   UNL A   1      43.913  22.170  23.868  1.00  0.00    -0.237 OA
ATOM     92  O   UNL A   1      45.511  21.313  25.548  1.00  0.00    -0.744 OA
ENDBRANCH  86  89
ENDBRANCH  58  82
BRANCH  70  93
ATOM     93  C   UNL A   1      46.536  28.789  29.064  1.00  0.00     0.023 A 
ATOM     94  C   UNL A   1      47.688  28.719  28.258  1.00  0.00     0.012 A 
ATOM     95  C   UNL A   1      45.485  29.642  28.692  1.00  0.00     0.148 A 
ATOM     96  C   UNL A   1      47.783  29.494  27.098  1.00  0.00     0.002 A 
ATOM     97  C   UNL A   1      45.561  30.371  27.517  1.00  0.00     0.091 A 
ATOM     98  F   UNL A   1      44.408  29.702  29.491  1.00  0.00    -0.205 F 
ATOM     99  C   UNL A   1      46.714  30.307  26.718  1.00  0.00     0.022 A 
BRANCH  97 100
ATOM    100  S   UNL A   1      44.166  31.327  26.922  1.00  0.00     0.127 S 
ATOM    101  O   UNL A   1      44.765  32.099  25.835  1.00  0.00    -0.237 OA
ATOM    102  O   UNL A   1      43.234  30.283  26.492  1.00  0.00    -0.237 OA
ATOM    103  O   UNL A   1      43.699  32.106  28.062  1.00  0.00    -0.744 OA
ENDBRANCH  97 100
ENDBRANCH  70  93
ENDBRANCH  44  45
ENDBRANCH  36  39
ENDBRANCH  34  35
ENDBRANCH  33  34
ENDBRANCH   1  33
TORSDOF 18
ENDMDL
