MODEL 1
REMARK VINA RESULT:     -11.8      0.000      0.000
REMARK SMILES O=C(CC[N@@H+]1CCc2ccccc2C1)NCCCCNC(=O)c1ccc(-c2c3nc(c(-c4cccc(S(=O)(=O)[O-])c4F)c4ccc([nH]4)c(-c4cccc(S(=O)(=O)[O-])c4F)c4nc(c(-c5cccc(S(=O)(=O)[O-])c5F)c5ccc2[nH]5)C=C4)C=C3)cc1
REMARK SMILES IDX 18 1 17 2 16 3 15 4 1 5 2 6 3 8 4 9 5 10 6 11 14 12 7 14
REMARK SMILES IDX 13 15 8 16 12 17 9 18 11 19 10 20 19 21 20 22 21 23 22 25
REMARK SMILES IDX 23 26 24 27 85 28 25 29 84 30 26 31 27 32 28 33 78 34 29 35
REMARK SMILES IDX 83 36 77 37 79 38 30 39 82 40 76 41 75 42 31 44 63 45 43 46
REMARK SMILES IDX 62 47 44 48 47 49 61 50 80 51 45 52 46 53 60 55 81 56 48 57
REMARK SMILES IDX 32 58 33 59 41 60 34 61 36 62 42 63 35 64 37 65 38 66 39 67
REMARK SMILES IDX 40 68 64 69 65 70 73 71 66 72 68 73 74 74 67 75 69 76 70 77
REMARK SMILES IDX 71 78 72 79 49 80 50 81 58 82 51 83 53 84 59 85 52 86 54 87
REMARK SMILES IDX 55 88 56 89 57 90
REMARK H PARENT 15 7 5 13 20 24 79 43 47 54
REMARK Flexibility Score: inf
ROOT
ATOM      1  C   UNL A   1      31.621  28.736  24.943  1.00  0.00     0.023 C 
ENDROOT
BRANCH   1   2
ATOM      2  C   UNL A   1      30.647  29.460  24.008  1.00  0.00     0.023 C 
BRANCH   2   3
ATOM      3  C   UNL A   1      30.035  28.590  22.911  1.00  0.00     0.116 C 
BRANCH   3   4
ATOM      4  N   UNL A   1      31.037  27.852  22.178  1.00  0.00    -0.356 N 
ATOM      5  O   UNL A   1      30.641  25.794  23.120  1.00  0.00    -0.275 OA
ATOM      6  C   UNL A   1      31.266  26.507  22.340  1.00  0.00     0.225 C 
ATOM      7  H   UNL A   1      31.587  28.340  21.525  1.00  0.00     0.163 HD
BRANCH   6   8
ATOM      8  C   UNL A   1      32.420  25.969  21.515  1.00  0.00     0.161 C 
BRANCH   8   9
ATOM      9  C   UNL A   1      33.638  25.595  22.365  1.00  0.00     0.272 C 
BRANCH   9  10
ATOM     10  N   UNL A   1      33.392  24.501  23.327  1.00  0.00    -0.330 N 
ATOM     11  C   UNL A   1      34.509  24.377  24.293  1.00  0.00     0.267 C 
ATOM     12  C   UNL A   1      33.052  23.230  22.643  1.00  0.00     0.299 C 
ATOM     13  H   UNL A   1      32.567  24.740  23.877  1.00  0.00     0.348 HD
ATOM     14  C   UNL A   1      35.352  23.095  24.222  1.00  0.00     0.097 C 
ATOM     15  C   UNL A   1      33.251  22.000  23.498  1.00  0.00     0.010 A 
ATOM     16  C   UNL A   1      34.433  21.909  24.253  1.00  0.00    -0.034 A 
ATOM     17  C   UNL A   1      32.359  20.924  23.481  1.00  0.00     0.010 A 
ATOM     18  C   UNL A   1      34.720  20.752  24.978  1.00  0.00     0.004 A 
ATOM     19  C   UNL A   1      32.642  19.775  24.222  1.00  0.00     0.001 A 
ATOM     20  C   UNL A   1      33.819  19.688  24.966  1.00  0.00     0.000 A 
ENDBRANCH   9  10
ENDBRANCH   8   9
ENDBRANCH   6   8
ENDBRANCH   3   4
ENDBRANCH   2   3
ENDBRANCH   1   2
BRANCH   1  21
ATOM     21  C   UNL A   1      32.781  29.577  25.470  1.00  0.00     0.116 C 
BRANCH  21  22
ATOM     22  N   UNL A   1      32.352  30.863  26.004  1.00  0.00    -0.352 N 
ATOM     23  C   UNL A   1      32.910  31.632  26.997  1.00  0.00     0.251 C 
ATOM     24  H   UNL A   1      31.540  31.237  25.591  1.00  0.00     0.163 HD
ATOM     25  O   UNL A   1      32.313  32.632  27.397  1.00  0.00    -0.269 OA
BRANCH  23  26
ATOM     26  C   UNL A   1      34.205  31.253  27.608  1.00  0.00     0.039 A 
ATOM     27  C   UNL A   1      35.180  32.240  27.787  1.00  0.00     0.014 A 
ATOM     28  C   UNL A   1      34.467  29.938  28.000  1.00  0.00     0.014 A 
ATOM     29  C   UNL A   1      36.385  31.922  28.420  1.00  0.00     0.010 A 
ATOM     30  C   UNL A   1      35.635  29.640  28.700  1.00  0.00     0.010 A 
ATOM     31  C   UNL A   1      36.607  30.628  28.919  1.00  0.00    -0.014 A 
BRANCH  31  32
ATOM     32  C   UNL A   1      37.837  30.298  29.689  1.00  0.00     0.031 A 
ATOM     33  C   UNL A   1      38.856  29.342  29.134  1.00  0.00     0.074 A 
ATOM     34  C   UNL A   1      37.996  30.797  30.932  1.00  0.00     0.049 A 
ATOM     35  N   UNL A   1      39.953  28.891  29.688  1.00  0.00    -0.248 NA
ATOM     36  C   UNL A   1      38.598  28.799  27.790  1.00  0.00     0.031 C 
ATOM     37  C   UNL A   1      37.046  31.677  31.618  1.00  0.00     0.029 A 
ATOM     38  N   UNL A   1      39.001  30.615  31.851  1.00  0.00    -0.354 N 
ATOM     39  C   UNL A   1      40.499  27.993  28.778  1.00  0.00     0.074 A 
ATOM     40  C   UNL A   1      39.594  27.933  27.651  1.00  0.00     0.031 C 
ATOM     41  C   UNL A   1      37.514  31.957  32.845  1.00  0.00     0.029 A 
ATOM     42  C   UNL A   1      38.774  31.251  33.050  1.00  0.00     0.049 A 
ATOM     43  H   UNL A   1      39.806  30.078  31.670  1.00  0.00     0.167 HD
ATOM     44  C   UNL A   1      41.660  27.299  28.859  1.00  0.00     0.034 A 
ATOM     45  C   UNL A   1      39.491  31.255  34.191  1.00  0.00     0.034 A 
ATOM     46  C   UNL A   1      42.575  27.381  29.967  1.00  0.00     0.049 A 
ATOM     47  C   UNL A   1      40.787  30.494  34.248  1.00  0.00     0.074 A 
ATOM     48  C   UNL A   1      43.813  26.778  30.106  1.00  0.00     0.029 A 
ATOM     49  N   UNL A   1      42.348  28.098  31.132  1.00  0.00    -0.354 N 
ATOM     50  N   UNL A   1      41.359  29.768  33.319  1.00  0.00    -0.248 NA
ATOM     51  C   UNL A   1      41.555  30.580  35.499  1.00  0.00     0.031 C 
ATOM     52  C   UNL A   1      44.318  27.101  31.369  1.00  0.00     0.029 A 
ATOM     53  C   UNL A   1      43.415  27.941  32.001  1.00  0.00     0.049 A 
ATOM     54  H   UNL A   1      41.546  28.639  31.315  1.00  0.00     0.167 HD
ATOM     55  C   UNL A   1      42.568  29.343  33.857  1.00  0.00     0.074 A 
ATOM     56  C   UNL A   1      42.655  29.910  35.187  1.00  0.00     0.031 C 
ATOM     57  C   UNL A   1      43.516  28.546  33.304  1.00  0.00     0.034 A 
BRANCH  44  58
ATOM     58  C   UNL A   1      42.033  26.418  27.694  1.00  0.00     0.023 A 
ATOM     59  C   UNL A   1      42.748  26.963  26.607  1.00  0.00     0.012 A 
ATOM     60  C   UNL A   1      41.728  25.043  27.697  1.00  0.00     0.148 A 
ATOM     61  C   UNL A   1      43.120  26.164  25.527  1.00  0.00     0.002 A 
ATOM     62  C   UNL A   1      42.144  24.243  26.639  1.00  0.00     0.091 A 
ATOM     63  F   UNL A   1      41.032  24.545  28.729  1.00  0.00    -0.205 F 
ATOM     64  C   UNL A   1      42.828  24.803  25.548  1.00  0.00     0.022 A 
BRANCH  62  65
ATOM     65  S   UNL A   1      41.888  22.465  26.609  1.00  0.00     0.127 S 
ATOM     66  O   UNL A   1      42.554  22.051  27.843  1.00  0.00    -0.237 OA
ATOM     67  O   UNL A   1      40.429  22.364  26.639  1.00  0.00    -0.237 OA
ATOM     68  O   UNL A   1      42.505  21.990  25.379  1.00  0.00    -0.744 OA
ENDBRANCH  62  65
ENDBRANCH  44  58
BRANCH  45  69
ATOM     69  C   UNL A   1      39.016  32.044  35.364  1.00  0.00     0.023 A 
ATOM     70  C   UNL A   1      39.162  33.445  35.366  1.00  0.00     0.012 A 
ATOM     71  C   UNL A   1      38.403  31.416  36.465  1.00  0.00     0.148 A 
ATOM     72  C   UNL A   1      38.739  34.203  36.458  1.00  0.00     0.002 A 
ATOM     73  C   UNL A   1      37.929  32.182  37.523  1.00  0.00     0.091 A 
ATOM     74  F   UNL A   1      38.283  30.081  36.448  1.00  0.00    -0.205 F 
ATOM     75  C   UNL A   1      38.113  33.573  37.531  1.00  0.00     0.022 A 
BRANCH  73  76
ATOM     76  S   UNL A   1      36.995  31.471  38.882  1.00  0.00     0.127 S 
ATOM     77  O   UNL A   1      35.785  32.290  38.874  1.00  0.00    -0.237 OA
ATOM     78  O   UNL A   1      36.809  30.092  38.430  1.00  0.00    -0.237 OA
ATOM     79  O   UNL A   1      37.842  31.609  40.059  1.00  0.00    -0.744 OA
ENDBRANCH  73  76
ENDBRANCH  45  69
BRANCH  57  80
ATOM     80  C   UNL A   1      44.757  28.268  34.112  1.00  0.00     0.023 A 
ATOM     81  C   UNL A   1      45.855  29.150  34.048  1.00  0.00     0.012 A 
ATOM     82  C   UNL A   1      44.807  27.166  34.989  1.00  0.00     0.148 A 
ATOM     83  C   UNL A   1      46.994  28.920  34.819  1.00  0.00     0.002 A 
ATOM     84  C   UNL A   1      45.923  26.973  35.793  1.00  0.00     0.091 A 
ATOM     85  F   UNL A   1      43.760  26.329  35.023  1.00  0.00    -0.205 F 
ATOM     86  C   UNL A   1      47.024  27.840  35.699  1.00  0.00     0.022 A 
BRANCH  84  87
ATOM     87  S   UNL A   1      46.011  25.669  37.026  1.00  0.00     0.127 S 
ATOM     88  O   UNL A   1      44.906  26.025  37.915  1.00  0.00    -0.237 OA
ATOM     89  O   UNL A   1      45.784  24.468  36.221  1.00  0.00    -0.237 OA
ATOM     90  O   UNL A   1      47.340  25.762  37.616  1.00  0.00    -0.744 OA
ENDBRANCH  84  87
ENDBRANCH  57  80
ENDBRANCH  31  32
ENDBRANCH  23  26
ENDBRANCH  21  22
ENDBRANCH   1  21
TORSDOF 16
ENDMDL
MODEL 2
REMARK VINA RESULT:     -11.7      5.283      8.122
REMARK SMILES O=C(CC[N@@H+]1CCc2ccccc2C1)NCCCCNC(=O)c1ccc(-c2c3nc(c(-c4cccc(S(=O)(=O)[O-])c4F)c4ccc([nH]4)c(-c4cccc(S(=O)(=O)[O-])c4F)c4nc(c(-c5cccc(S(=O)(=O)[O-])c5F)c5ccc2[nH]5)C=C4)C=C3)cc1
REMARK SMILES IDX 18 1 17 2 16 3 15 4 1 5 2 6 3 8 4 9 5 10 6 11 14 12 7 14
REMARK SMILES IDX 13 15 8 16 12 17 9 18 11 19 10 20 19 21 20 22 21 23 22 25
REMARK SMILES IDX 23 26 24 27 85 28 25 29 84 30 26 31 27 32 28 33 78 34 29 35
REMARK SMILES IDX 83 36 77 37 79 38 30 39 82 40 76 41 75 42 31 44 63 45 43 46
REMARK SMILES IDX 62 47 44 48 47 49 61 50 80 51 45 52 46 53 60 55 81 56 48 57
REMARK SMILES IDX 32 58 33 59 41 60 34 61 36 62 42 63 35 64 37 65 38 66 39 67
REMARK SMILES IDX 40 68 64 69 65 70 73 71 66 72 68 73 74 74 67 75 69 76 70 77
REMARK SMILES IDX 71 78 72 79 49 80 50 81 58 82 51 83 53 84 59 85 52 86 54 87
REMARK SMILES IDX 55 88 56 89 57 90
REMARK H PARENT 15 7 5 13 20 24 79 43 47 54
REMARK Flexibility Score: inf
ROOT
ATOM      1  C   UNL A   1      36.552  23.494  24.675  1.00  0.00     0.023 C 
ENDROOT
BRANCH   1   2
ATOM      2  C   UNL A   1      35.705  22.572  23.792  1.00  0.00     0.023 C 
BRANCH   2   3
ATOM      3  C   UNL A   1      34.795  21.607  24.549  1.00  0.00     0.116 C 
BRANCH   3   4
ATOM      4  N   UNL A   1      33.430  22.076  24.606  1.00  0.00    -0.356 N 
ATOM      5  O   UNL A   1      33.416  22.694  26.819  1.00  0.00    -0.275 OA
ATOM      6  C   UNL A   1      32.842  22.582  25.739  1.00  0.00     0.225 C 
ATOM      7  H   UNL A   1      32.889  22.029  23.785  1.00  0.00     0.163 HD
BRANCH   6   8
ATOM      8  C   UNL A   1      31.376  22.940  25.573  1.00  0.00     0.161 C 
BRANCH   8   9
ATOM      9  C   UNL A   1      31.113  23.820  24.348  1.00  0.00     0.272 C 
BRANCH   9  10
ATOM     10  N   UNL A   1      31.447  25.245  24.542  1.00  0.00    -0.330 N 
ATOM     11  C   UNL A   1      32.773  25.568  23.963  1.00  0.00     0.267 C 
ATOM     12  C   UNL A   1      31.299  25.659  25.958  1.00  0.00     0.299 C 
ATOM     13  H   UNL A   1      30.769  25.805  24.025  1.00  0.00     0.348 HD
ATOM     14  C   UNL A   1      33.885  25.963  24.947  1.00  0.00     0.097 C 
ATOM     15  C   UNL A   1      32.052  26.921  26.311  1.00  0.00     0.010 A 
ATOM     16  C   UNL A   1      33.371  27.050  25.846  1.00  0.00    -0.034 A 
ATOM     17  C   UNL A   1      31.521  27.898  27.158  1.00  0.00     0.010 A 
ATOM     18  C   UNL A   1      34.152  28.143  26.228  1.00  0.00     0.004 A 
ATOM     19  C   UNL A   1      32.299  28.999  27.523  1.00  0.00     0.001 A 
ATOM     20  C   UNL A   1      33.610  29.120  27.062  1.00  0.00     0.000 A 
ENDBRANCH   9  10
ENDBRANCH   8   9
ENDBRANCH   6   8
ENDBRANCH   3   4
ENDBRANCH   2   3
ENDBRANCH   1   2
BRANCH   1  21
ATOM     21  C   UNL A   1      36.831  22.985  26.086  1.00  0.00     0.116 C 
BRANCH  21  22
ATOM     22  N   UNL A   1      38.060  22.207  26.177  1.00  0.00    -0.352 N 
ATOM     23  C   UNL A   1      39.341  22.617  26.455  1.00  0.00     0.251 C 
ATOM     24  H   UNL A   1      37.956  21.242  26.013  1.00  0.00     0.163 HD
ATOM     25  O   UNL A   1      40.271  21.818  26.350  1.00  0.00    -0.269 OA
BRANCH  23  26
ATOM     26  C   UNL A   1      39.616  24.018  26.851  1.00  0.00     0.039 A 
ATOM     27  C   UNL A   1      39.416  24.393  28.183  1.00  0.00     0.014 A 
ATOM     28  C   UNL A   1      40.062  24.962  25.923  1.00  0.00     0.014 A 
ATOM     29  C   UNL A   1      39.730  25.691  28.597  1.00  0.00     0.010 A 
ATOM     30  C   UNL A   1      40.447  26.232  26.352  1.00  0.00     0.010 A 
ATOM     31  C   UNL A   1      40.286  26.611  27.693  1.00  0.00    -0.014 A 
BRANCH  31  32
ATOM     32  C   UNL A   1      40.726  27.961  28.138  1.00  0.00     0.031 A 
ATOM     33  C   UNL A   1      42.188  28.315  28.183  1.00  0.00     0.074 A 
ATOM     34  C   UNL A   1      39.811  28.845  28.585  1.00  0.00     0.049 A 
ATOM     35  N   UNL A   1      42.758  29.417  28.599  1.00  0.00    -0.248 NA
ATOM     36  C   UNL A   1      43.137  27.287  27.724  1.00  0.00     0.031 C 
ATOM     37  C   UNL A   1      38.368  28.601  28.664  1.00  0.00     0.029 A 
ATOM     38  N   UNL A   1      39.959  30.117  29.082  1.00  0.00    -0.354 N 
ATOM     39  C   UNL A   1      44.127  29.206  28.482  1.00  0.00     0.074 A 
ATOM     40  C   UNL A   1      44.304  27.857  27.990  1.00  0.00     0.031 C 
ATOM     41  C   UNL A   1      37.767  29.686  29.177  1.00  0.00     0.029 A 
ATOM     42  C   UNL A   1      38.778  30.688  29.498  1.00  0.00     0.049 A 
ATOM     43  H   UNL A   1      40.828  30.577  29.137  1.00  0.00     0.167 HD
ATOM     44  C   UNL A   1      45.145  30.064  28.735  1.00  0.00     0.034 A 
ATOM     45  C   UNL A   1      38.536  31.876  30.085  1.00  0.00     0.034 A 
ATOM     46  C   UNL A   1      44.967  31.416  29.197  1.00  0.00     0.049 A 
ATOM     47  C   UNL A   1      39.681  32.819  30.336  1.00  0.00     0.074 A 
ATOM     48  C   UNL A   1      45.931  32.386  29.407  1.00  0.00     0.029 A 
ATOM     49  N   UNL A   1      43.749  31.985  29.534  1.00  0.00    -0.354 N 
ATOM     50  N   UNL A   1      40.955  32.657  30.079  1.00  0.00    -0.248 NA
ATOM     51  C   UNL A   1      39.350  34.125  30.926  1.00  0.00     0.031 C 
ATOM     52  C   UNL A   1      45.300  33.530  29.905  1.00  0.00     0.029 A 
ATOM     53  C   UNL A   1      43.937  33.287  29.964  1.00  0.00     0.049 A 
ATOM     54  H   UNL A   1      42.878  31.530  29.475  1.00  0.00     0.167 HD
ATOM     55  C   UNL A   1      41.573  33.849  30.439  1.00  0.00     0.074 A 
ATOM     56  C   UNL A   1      40.529  34.733  30.914  1.00  0.00     0.031 C 
ATOM     57  C   UNL A   1      42.888  34.177  30.391  1.00  0.00     0.034 A 
BRANCH  44  58
ATOM     58  C   UNL A   1      46.549  29.580  28.477  1.00  0.00     0.023 A 
ATOM     59  C   UNL A   1      47.153  29.824  27.226  1.00  0.00     0.012 A 
ATOM     60  C   UNL A   1      47.293  28.938  29.487  1.00  0.00     0.148 A 
ATOM     61  C   UNL A   1      48.457  29.402  26.970  1.00  0.00     0.002 A 
ATOM     62  C   UNL A   1      48.609  28.564  29.240  1.00  0.00     0.091 A 
ATOM     63  F   UNL A   1      46.699  28.699  30.664  1.00  0.00    -0.205 F 
ATOM     64  C   UNL A   1      49.188  28.783  27.979  1.00  0.00     0.022 A 
BRANCH  62  65
ATOM     65  S   UNL A   1      49.661  27.833  30.499  1.00  0.00     0.127 S 
ATOM     66  O   UNL A   1      50.809  27.394  29.705  1.00  0.00    -0.237 OA
ATOM     67  O   UNL A   1      49.927  28.973  31.377  1.00  0.00    -0.237 OA
ATOM     68  O   UNL A   1      48.881  26.766  31.108  1.00  0.00    -0.744 OA
ENDBRANCH  62  65
ENDBRANCH  44  58
BRANCH  45  69
ATOM     69  C   UNL A   1      37.139  32.261  30.437  1.00  0.00     0.023 A 
ATOM     70  C   UNL A   1      36.666  32.044  31.747  1.00  0.00     0.012 A 
ATOM     71  C   UNL A   1      36.286  32.857  29.489  1.00  0.00     0.148 A 
ATOM     72  C   UNL A   1      35.359  32.382  32.096  1.00  0.00     0.002 A 
ATOM     73  C   UNL A   1      35.005  33.247  29.860  1.00  0.00     0.091 A 
ATOM     74  F   UNL A   1      36.752  33.045  28.246  1.00  0.00    -0.205 F 
ATOM     75  C   UNL A   1      34.531  32.993  31.156  1.00  0.00     0.022 A 
BRANCH  73  76
ATOM     76  S   UNL A   1      33.920  34.158  28.755  1.00  0.00     0.127 S 
ATOM     77  O   UNL A   1      33.528  33.123  27.802  1.00  0.00    -0.237 OA
ATOM     78  O   UNL A   1      32.859  34.590  29.666  1.00  0.00    -0.237 OA
ATOM     79  O   UNL A   1      34.727  35.243  28.214  1.00  0.00    -0.744 OA
ENDBRANCH  73  76
ENDBRANCH  45  69
BRANCH  57  80
ATOM     80  C   UNL A   1      43.279  35.567  30.823  1.00  0.00     0.023 A 
ATOM     81  C   UNL A   1      43.623  35.820  32.166  1.00  0.00     0.012 A 
ATOM     82  C   UNL A   1      43.374  36.609  29.878  1.00  0.00     0.148 A 
ATOM     83  C   UNL A   1      44.021  37.095  32.568  1.00  0.00     0.002 A 
ATOM     84  C   UNL A   1      43.822  37.862  30.275  1.00  0.00     0.091 A 
ATOM     85  F   UNL A   1      43.027  36.354  28.608  1.00  0.00    -0.205 F 
ATOM     86  C   UNL A   1      44.131  38.112  31.622  1.00  0.00     0.022 A 
BRANCH  84  87
ATOM     87  S   UNL A   1      44.090  39.204  29.111  1.00  0.00     0.127 S 
ATOM     88  O   UNL A   1      42.726  39.492  28.669  1.00  0.00    -0.237 OA
ATOM     89  O   UNL A   1      44.686  40.236  29.962  1.00  0.00    -0.237 OA
ATOM     90  O   UNL A   1      44.979  38.677  28.086  1.00  0.00    -0.744 OA
ENDBRANCH  84  87
ENDBRANCH  57  80
ENDBRANCH  31  32
ENDBRANCH  23  26
ENDBRANCH  21  22
ENDBRANCH   1  21
TORSDOF 16
ENDMDL
MODEL 3
REMARK VINA RESULT:     -11.7      4.101     10.218
REMARK SMILES O=C(CC[N@@H+]1CCc2ccccc2C1)NCCCCNC(=O)c1ccc(-c2c3nc(c(-c4cccc(S(=O)(=O)[O-])c4F)c4ccc([nH]4)c(-c4cccc(S(=O)(=O)[O-])c4F)c4nc(c(-c5cccc(S(=O)(=O)[O-])c5F)c5ccc2[nH]5)C=C4)C=C3)cc1
REMARK SMILES IDX 18 1 17 2 16 3 15 4 1 5 2 6 3 8 4 9 5 10 6 11 14 12 7 14
REMARK SMILES IDX 13 15 8 16 12 17 9 18 11 19 10 20 19 21 20 22 21 23 22 25
REMARK SMILES IDX 23 26 24 27 85 28 25 29 84 30 26 31 27 32 28 33 78 34 29 35
REMARK SMILES IDX 83 36 77 37 79 38 30 39 82 40 76 41 75 42 31 44 63 45 43 46
REMARK SMILES IDX 62 47 44 48 47 49 61 50 80 51 45 52 46 53 60 55 81 56 48 57
REMARK SMILES IDX 32 58 33 59 41 60 34 61 36 62 42 63 35 64 37 65 38 66 39 67
REMARK SMILES IDX 40 68 64 69 65 70 73 71 66 72 68 73 74 74 67 75 69 76 70 77
REMARK SMILES IDX 71 78 72 79 49 80 50 81 58 82 51 83 53 84 59 85 52 86 54 87
REMARK SMILES IDX 55 88 56 89 57 90
REMARK H PARENT 15 7 5 13 20 24 79 43 47 54
REMARK Flexibility Score: inf
ROOT
ATOM      1  C   UNL A   1      34.692  33.685  28.087  1.00  0.00     0.023 C 
ENDROOT
BRANCH   1   2
ATOM      2  C   UNL A   1      33.522  34.670  28.006  1.00  0.00     0.023 C 
BRANCH   2   3
ATOM      3  C   UNL A   1      33.648  35.901  28.902  1.00  0.00     0.116 C 
BRANCH   3   4
ATOM      4  N   UNL A   1      33.451  35.582  30.297  1.00  0.00    -0.356 N 
ATOM      5  O   UNL A   1      32.903  37.695  31.013  1.00  0.00    -0.275 OA
ATOM      6  C   UNL A   1      33.095  36.506  31.249  1.00  0.00     0.225 C 
ATOM      7  H   UNL A   1      33.580  34.649  30.582  1.00  0.00     0.163 HD
BRANCH   6   8
ATOM      8  C   UNL A   1      33.021  35.948  32.659  1.00  0.00     0.161 C 
BRANCH   8   9
ATOM      9  C   UNL A   1      34.396  35.818  33.322  1.00  0.00     0.272 C 
BRANCH   9  10
ATOM     10  N   UNL A   1      34.741  34.444  33.738  1.00  0.00    -0.330 N 
ATOM     11  C   UNL A   1      35.490  34.444  35.017  1.00  0.00     0.267 C 
ATOM     12  C   UNL A   1      35.414  33.691  32.652  1.00  0.00     0.299 C 
ATOM     13  H   UNL A   1      33.873  33.939  33.919  1.00  0.00     0.348 HD
ATOM     14  C   UNL A   1      36.952  33.975  34.966  1.00  0.00     0.097 C 
ATOM     15  C   UNL A   1      36.197  32.491  33.132  1.00  0.00     0.010 A 
ATOM     16  C   UNL A   1      37.011  32.649  34.266  1.00  0.00    -0.034 A 
ATOM     17  C   UNL A   1      36.215  31.281  32.434  1.00  0.00     0.010 A 
ATOM     18  C   UNL A   1      37.838  31.608  34.693  1.00  0.00     0.004 A 
ATOM     19  C   UNL A   1      37.030  30.235  32.874  1.00  0.00     0.001 A 
ATOM     20  C   UNL A   1      37.841  30.400  33.998  1.00  0.00     0.000 A 
ENDBRANCH   9  10
ENDBRANCH   8   9
ENDBRANCH   6   8
ENDBRANCH   3   4
ENDBRANCH   2   3
ENDBRANCH   1   2
BRANCH   1  21
ATOM     21  C   UNL A   1      34.403  32.374  28.813  1.00  0.00     0.116 C 
BRANCH  21  22
ATOM     22  N   UNL A   1      33.973  31.310  27.914  1.00  0.00    -0.352 N 
ATOM     23  C   UNL A   1      34.660  30.208  27.466  1.00  0.00     0.251 C 
ATOM     24  H   UNL A   1      33.052  31.394  27.578  1.00  0.00     0.163 HD
ATOM     25  O   UNL A   1      34.161  29.494  26.596  1.00  0.00    -0.269 OA
BRANCH  23  26
ATOM     26  C   UNL A   1      36.006  29.888  27.998  1.00  0.00     0.039 A 
ATOM     27  C   UNL A   1      36.110  29.328  29.274  1.00  0.00     0.014 A 
ATOM     28  C   UNL A   1      37.161  30.142  27.253  1.00  0.00     0.014 A 
ATOM     29  C   UNL A   1      37.362  28.958  29.773  1.00  0.00     0.010 A 
ATOM     30  C   UNL A   1      38.399  29.701  27.719  1.00  0.00     0.010 A 
ATOM     31  C   UNL A   1      38.515  29.104  28.983  1.00  0.00    -0.014 A 
BRANCH  31  32
ATOM     32  C   UNL A   1      39.840  28.618  29.454  1.00  0.00     0.031 A 
ATOM     33  C   UNL A   1      40.583  29.348  30.539  1.00  0.00     0.074 A 
ATOM     34  C   UNL A   1      40.416  27.563  28.842  1.00  0.00     0.049 A 
ATOM     35  N   UNL A   1      41.771  29.106  31.032  1.00  0.00    -0.248 NA
ATOM     36  C   UNL A   1      39.917  30.519  31.132  1.00  0.00     0.031 C 
ATOM     37  C   UNL A   1      39.836  26.811  27.727  1.00  0.00     0.029 A 
ATOM     38  N   UNL A   1      41.630  26.956  29.054  1.00  0.00    -0.354 N 
ATOM     39  C   UNL A   1      42.008  30.107  31.967  1.00  0.00     0.074 A 
ATOM     40  C   UNL A   1      40.856  30.981  31.947  1.00  0.00     0.031 C 
ATOM     41  C   UNL A   1      40.691  25.846  27.355  1.00  0.00     0.029 A 
ATOM     42  C   UNL A   1      41.895  25.930  28.175  1.00  0.00     0.049 A 
ATOM     43  H   UNL A   1      42.253  27.229  29.766  1.00  0.00     0.167 HD
ATOM     44  C   UNL A   1      43.073  30.272  32.787  1.00  0.00     0.034 A 
ATOM     45  C   UNL A   1      42.987  25.154  28.035  1.00  0.00     0.034 A 
ATOM     46  C   UNL A   1      44.207  29.385  32.827  1.00  0.00     0.049 A 
ATOM     47  C   UNL A   1      44.148  25.343  28.971  1.00  0.00     0.074 A 
ATOM     48  C   UNL A   1      45.298  29.423  33.677  1.00  0.00     0.029 A 
ATOM     49  N   UNL A   1      44.403  28.310  31.974  1.00  0.00    -0.354 N 
ATOM     50  N   UNL A   1      44.288  26.203  29.950  1.00  0.00    -0.248 NA
ATOM     51  C   UNL A   1      45.290  24.430  28.808  1.00  0.00     0.031 C 
ATOM     52  C   UNL A   1      46.172  28.394  33.315  1.00  0.00     0.029 A 
ATOM     53  C   UNL A   1      45.605  27.687  32.267  1.00  0.00     0.049 A 
ATOM     54  H   UNL A   1      43.781  28.031  31.265  1.00  0.00     0.167 HD
ATOM     55  C   UNL A   1      45.512  25.913  30.542  1.00  0.00     0.074 A 
ATOM     56  C   UNL A   1      46.065  24.783  29.824  1.00  0.00     0.031 C 
ATOM     57  C   UNL A   1      46.127  26.533  31.579  1.00  0.00     0.034 A 
BRANCH  44  58
ATOM     58  C   UNL A   1      43.047  31.435  33.745  1.00  0.00     0.023 A 
ATOM     59  C   UNL A   1      43.632  32.662  33.369  1.00  0.00     0.012 A 
ATOM     60  C   UNL A   1      42.396  31.336  34.990  1.00  0.00     0.148 A 
ATOM     61  C   UNL A   1      43.604  33.758  34.231  1.00  0.00     0.002 A 
ATOM     62  C   UNL A   1      42.330  32.447  35.823  1.00  0.00     0.091 A 
ATOM     63  F   UNL A   1      41.860  30.158  35.340  1.00  0.00    -0.205 F 
ATOM     64  C   UNL A   1      42.945  33.654  35.452  1.00  0.00     0.022 A 
BRANCH  62  65
ATOM     65  S   UNL A   1      41.434  32.440  37.380  1.00  0.00     0.127 S 
ATOM     66  O   UNL A   1      42.281  31.578  38.204  1.00  0.00    -0.237 OA
ATOM     67  O   UNL A   1      41.456  33.854  37.753  1.00  0.00    -0.237 OA
ATOM     68  O   UNL A   1      40.112  31.911  37.082  1.00  0.00    -0.744 OA
ENDBRANCH  62  65
ENDBRANCH  44  58
BRANCH  45  69
ATOM     69  C   UNL A   1      43.015  24.094  26.986  1.00  0.00     0.023 A 
ATOM     70  C   UNL A   1      43.745  24.306  25.800  1.00  0.00     0.012 A 
ATOM     71  C   UNL A   1      42.343  22.871  27.169  1.00  0.00     0.148 A 
ATOM     72  C   UNL A   1      43.774  23.335  24.800  1.00  0.00     0.002 A 
ATOM     73  C   UNL A   1      42.426  21.883  26.195  1.00  0.00     0.091 A 
ATOM     74  F   UNL A   1      41.646  22.692  28.301  1.00  0.00    -0.205 F 
ATOM     75  C   UNL A   1      43.124  22.119  25.001  1.00  0.00     0.022 A 
BRANCH  73  76
ATOM     76  S   UNL A   1      41.731  20.242  26.427  1.00  0.00     0.127 S 
ATOM     77  O   UNL A   1      42.294  19.516  25.291  1.00  0.00    -0.237 OA
ATOM     78  O   UNL A   1      42.278  19.867  27.731  1.00  0.00    -0.237 OA
ATOM     79  O   UNL A   1      40.286  20.420  26.409  1.00  0.00    -0.744 OA
ENDBRANCH  73  76
ENDBRANCH  45  69
BRANCH  57  80
ATOM     80  C   UNL A   1      47.453  25.983  32.039  1.00  0.00     0.023 A 
ATOM     81  C   UNL A   1      48.646  26.405  31.419  1.00  0.00     0.012 A 
ATOM     82  C   UNL A   1      47.519  25.100  33.135  1.00  0.00     0.148 A 
ATOM     83  C   UNL A   1      49.881  25.929  31.860  1.00  0.00     0.002 A 
ATOM     84  C   UNL A   1      48.754  24.672  33.603  1.00  0.00     0.091 A 
ATOM     85  F   UNL A   1      46.372  24.697  33.701  1.00  0.00    -0.205 F 
ATOM     86  C   UNL A   1      49.936  25.073  32.958  1.00  0.00     0.022 A 
BRANCH  84  87
ATOM     87  S   UNL A   1      48.929  23.649  35.070  1.00  0.00     0.127 S 
ATOM     88  O   UNL A   1      50.379  23.460  35.129  1.00  0.00    -0.237 OA
ATOM     89  O   UNL A   1      48.384  24.515  36.116  1.00  0.00    -0.237 OA
ATOM     90  O   UNL A   1      48.153  22.444  34.815  1.00  0.00    -0.744 OA
ENDBRANCH  84  87
ENDBRANCH  57  80
ENDBRANCH  31  32
ENDBRANCH  23  26
ENDBRANCH  21  22
ENDBRANCH   1  21
TORSDOF 16
ENDMDL
