MODEL 1
REMARK VINA RESULT:     -12.3      0.000      0.000
REMARK SMILES Cc1ccccc1-c1nn(-c2ccccc2)cc1/C=C(\C#N)C(=O)NCCCCNC(=O)c1ccc(-c2c3nc(c(-c4cccc(S(=O)(=O)[O-])c4F)c4ccc([nH]4)c(-c4cccc(S(=O)(=O)[O-])c4F)c4nc(c(-c5cccc(S(=O)(=O)[O-])c5F)c5ccc2[nH]5)C=C4)C=C3)cc1
REMARK SMILES IDX 28 1 27 2 26 3 25 4 23 5 24 6 20 8 19 9 18 10 8 11 9 12
REMARK SMILES IDX 10 13 17 14 7 15 1 16 2 17 3 18 4 19 6 20 5 21 11 22 12 23
REMARK SMILES IDX 16 24 13 25 15 26 14 27 21 28 22 29 29 30 30 31 31 32 32 34
REMARK SMILES IDX 33 35 34 36 95 37 35 38 94 39 36 40 37 41 38 42 88 43 39 44
REMARK SMILES IDX 93 45 87 46 89 47 40 48 92 49 86 50 85 51 41 53 73 54 53 55
REMARK SMILES IDX 72 56 54 57 57 58 71 59 90 60 55 61 56 62 70 64 91 65 58 66
REMARK SMILES IDX 42 67 43 68 51 69 44 70 46 71 52 72 45 73 47 74 48 75 49 76
REMARK SMILES IDX 50 77 74 78 75 79 83 80 76 81 78 82 84 83 77 84 79 85 80 86
REMARK SMILES IDX 81 87 82 88 59 89 60 90 68 91 61 92 63 93 69 94 62 95 64 96
REMARK SMILES IDX 65 97 66 98 67 99
REMARK H PARENT 25 7 30 33 89 52 57 63
REMARK Flexibility Score: inf
ROOT
ATOM      1  C   UNL A   1      37.238  22.324  25.198  1.00  0.00     0.023 C 
ENDROOT
BRANCH   1   2
ATOM      2  C   UNL A   1      35.953  22.462  24.360  1.00  0.00     0.023 C 
BRANCH   2   3
ATOM      3  C   UNL A   1      34.900  23.442  24.894  1.00  0.00     0.116 C 
BRANCH   3   4
ATOM      4  N   UNL A   1      33.531  22.965  24.707  1.00  0.00    -0.351 N 
ATOM      5  C   UNL A   1      32.361  23.582  24.371  1.00  0.00     0.261 C 
ATOM      6  O   UNL A   1      31.341  22.893  24.292  1.00  0.00    -0.268 OA
ATOM      7  H   UNL A   1      33.433  21.996  24.852  1.00  0.00     0.163 HD
BRANCH   5   8
ATOM      8  C   UNL A   1      32.275  25.032  24.101  1.00  0.00     0.117 C 
ATOM      9  C   UNL A   1      31.499  25.941  24.756  1.00  0.00     0.037 C 
BRANCH   9  10
ATOM     10  C   UNL A   1      31.290  27.401  24.523  1.00  0.00     0.022 A 
ATOM     11  C   UNL A   1      31.908  28.693  24.879  1.00  0.00     0.100 A 
ATOM     12  N   UNL A   1      31.395  29.672  24.128  1.00  0.00    -0.167 NA
ATOM     13  N   UNL A   1      30.290  29.175  23.580  1.00  0.00    -0.240 N 
ATOM     14  C   UNL A   1      30.199  27.814  23.760  1.00  0.00     0.123 A 
BRANCH  11  15
ATOM     15  C   UNL A   1      32.928  29.202  25.815  1.00  0.00     0.006 A 
ATOM     16  C   UNL A   1      31.468  31.224  26.486  1.00  0.00     0.045 C 
ATOM     17  C   UNL A   1      32.734  30.411  26.549  1.00  0.00    -0.042 A 
ATOM     18  C   UNL A   1      33.671  30.770  27.546  1.00  0.00     0.004 A 
ATOM     19  C   UNL A   1      34.790  29.973  27.795  1.00  0.00     0.000 A 
ATOM     20  C   UNL A   1      34.120  28.475  26.005  1.00  0.00     0.011 A 
ATOM     21  C   UNL A   1      35.028  28.843  27.010  1.00  0.00     0.001 A 
ENDBRANCH  11  15
BRANCH  13  22
ATOM     22  C   UNL A   1      29.391  30.085  22.973  1.00  0.00     0.065 A 
ATOM     23  C   UNL A   1      29.322  30.117  21.567  1.00  0.00     0.028 A 
ATOM     24  C   UNL A   1      28.660  30.997  23.733  1.00  0.00     0.028 A 
ATOM     25  C   UNL A   1      28.506  31.043  20.924  1.00  0.00     0.002 A 
ATOM     26  C   UNL A   1      27.879  31.954  23.076  1.00  0.00     0.002 A 
ATOM     27  C   UNL A   1      27.793  31.970  21.679  1.00  0.00     0.000 A 
ENDBRANCH  13  22
ENDBRANCH   9  10
BRANCH   8  28
ATOM     28  C   UNL A   1      33.043  25.734  22.994  1.00  0.00     0.105 C 
ATOM     29  N   UNL A   1      33.680  26.316  22.075  1.00  0.00    -0.192 NA
ENDBRANCH   8  28
ENDBRANCH   5   8
ENDBRANCH   3   4
ENDBRANCH   2   3
ENDBRANCH   1   2
BRANCH   1  30
ATOM     30  C   UNL A   1      37.777  23.608  25.817  1.00  0.00     0.116 C 
BRANCH  30  31
ATOM     31  N   UNL A   1      38.721  23.343  26.903  1.00  0.00    -0.352 N 
ATOM     32  C   UNL A   1      39.778  24.102  27.355  1.00  0.00     0.251 C 
ATOM     33  H   UNL A   1      38.580  22.495  27.381  1.00  0.00     0.163 HD
ATOM     34  O   UNL A   1      40.799  23.503  27.725  1.00  0.00    -0.269 OA
BRANCH  32  35
ATOM     35  C   UNL A   1      39.656  25.563  27.509  1.00  0.00     0.039 A 
ATOM     36  C   UNL A   1      40.454  26.461  26.789  1.00  0.00     0.014 A 
ATOM     37  C   UNL A   1      38.910  26.041  28.576  1.00  0.00     0.014 A 
ATOM     38  C   UNL A   1      40.656  27.737  27.314  1.00  0.00     0.010 A 
ATOM     39  C   UNL A   1      38.839  27.357  28.871  1.00  0.00     0.010 A 
ATOM     40  C   UNL A   1      39.911  28.102  28.429  1.00  0.00    -0.014 A 
BRANCH  40  41
ATOM     41  C   UNL A   1      40.197  29.154  29.376  1.00  0.00     0.031 A 
ATOM     42  C   UNL A   1      39.346  30.337  29.346  1.00  0.00     0.074 A 
ATOM     43  C   UNL A   1      40.924  28.766  30.456  1.00  0.00     0.049 A 
ATOM     44  N   UNL A   1      39.556  31.393  30.041  1.00  0.00    -0.248 NA
ATOM     45  C   UNL A   1      38.176  30.416  28.480  1.00  0.00     0.031 C 
ATOM     46  C   UNL A   1      40.861  29.272  31.822  1.00  0.00     0.029 A 
ATOM     47  N   UNL A   1      41.854  27.733  30.585  1.00  0.00    -0.354 N 
ATOM     48  C   UNL A   1      38.395  32.130  29.979  1.00  0.00     0.074 A 
ATOM     49  C   UNL A   1      37.674  31.593  28.854  1.00  0.00     0.031 C 
ATOM     50  C   UNL A   1      41.904  28.777  32.518  1.00  0.00     0.029 A 
ATOM     51  C   UNL A   1      42.773  28.114  31.561  1.00  0.00     0.049 A 
ATOM     52  H   UNL A   1      41.860  26.889  30.077  1.00  0.00     0.167 HD
ATOM     53  C   UNL A   1      38.107  32.951  31.027  1.00  0.00     0.034 A 
ATOM     54  C   UNL A   1      44.041  28.534  31.244  1.00  0.00     0.034 A 
ATOM     55  C   UNL A   1      39.245  32.964  31.979  1.00  0.00     0.049 A 
ATOM     56  C   UNL A   1      44.244  30.023  31.531  1.00  0.00     0.074 A 
ATOM     57  C   UNL A   1      39.468  32.333  33.194  1.00  0.00     0.029 A 
ATOM     58  N   UNL A   1      40.501  33.391  31.539  1.00  0.00    -0.354 N 
ATOM     59  N   UNL A   1      43.293  30.847  31.883  1.00  0.00    -0.248 NA
ATOM     60  C   UNL A   1      45.538  30.693  31.452  1.00  0.00     0.031 C 
ATOM     61  C   UNL A   1      40.878  32.292  33.419  1.00  0.00     0.029 A 
ATOM     62  C   UNL A   1      41.518  32.930  32.368  1.00  0.00     0.049 A 
ATOM     63  H   UNL A   1      40.647  33.949  30.740  1.00  0.00     0.167 HD
ATOM     64  C   UNL A   1      43.761  32.131  31.931  1.00  0.00     0.074 A 
ATOM     65  C   UNL A   1      45.197  31.960  31.754  1.00  0.00     0.031 C 
ATOM     66  C   UNL A   1      42.925  33.216  32.050  1.00  0.00     0.034 A 
BRANCH  53  67
ATOM     67  C   UNL A   1      36.718  33.492  31.365  1.00  0.00     0.023 A 
ATOM     68  C   UNL A   1      36.268  33.310  32.691  1.00  0.00     0.012 A 
ATOM     69  C   UNL A   1      35.784  34.111  30.492  1.00  0.00     0.148 A 
ATOM     70  C   UNL A   1      34.975  33.657  33.108  1.00  0.00     0.002 A 
ATOM     71  C   UNL A   1      34.487  34.441  30.896  1.00  0.00     0.091 A 
ATOM     72  F   UNL A   1      36.129  34.434  29.250  1.00  0.00    -0.205 F 
ATOM     73  C   UNL A   1      34.077  34.210  32.206  1.00  0.00     0.022 A 
BRANCH  71  74
ATOM     74  S   UNL A   1      33.265  35.152  29.769  1.00  0.00     0.127 S 
ATOM     75  O   UNL A   1      32.136  35.411  30.665  1.00  0.00    -0.237 OA
ATOM     76  O   UNL A   1      33.947  36.352  29.288  1.00  0.00    -0.237 OA
ATOM     77  O   UNL A   1      32.998  34.144  28.749  1.00  0.00    -0.744 OA
ENDBRANCH  71  74
ENDBRANCH  53  67
BRANCH  54  78
ATOM     78  C   UNL A   1      44.614  27.795  30.069  1.00  0.00     0.023 A 
ATOM     79  C   UNL A   1      44.707  26.386  30.186  1.00  0.00     0.012 A 
ATOM     80  C   UNL A   1      44.596  28.365  28.784  1.00  0.00     0.148 A 
ATOM     81  C   UNL A   1      44.553  25.566  29.064  1.00  0.00     0.002 A 
ATOM     82  C   UNL A   1      44.444  27.541  27.670  1.00  0.00     0.091 A 
ATOM     83  F   UNL A   1      44.657  29.698  28.668  1.00  0.00    -0.205 F 
ATOM     84  C   UNL A   1      44.363  26.147  27.814  1.00  0.00     0.022 A 
BRANCH  82  85
ATOM     85  S   UNL A   1      44.206  28.247  26.032  1.00  0.00     0.127 S 
ATOM     86  O   UNL A   1      43.829  27.069  25.255  1.00  0.00    -0.237 OA
ATOM     87  O   UNL A   1      43.125  29.208  26.241  1.00  0.00    -0.237 OA
ATOM     88  O   UNL A   1      45.486  28.857  25.702  1.00  0.00    -0.744 OA
ENDBRANCH  82  85
ENDBRANCH  54  78
BRANCH  66  89
ATOM     89  C   UNL A   1      43.356  34.670  31.877  1.00  0.00     0.023 A 
ATOM     90  C   UNL A   1      43.868  35.443  32.936  1.00  0.00     0.012 A 
ATOM     91  C   UNL A   1      43.368  35.288  30.596  1.00  0.00     0.148 A 
ATOM     92  C   UNL A   1      44.265  36.774  32.771  1.00  0.00     0.002 A 
ATOM     93  C   UNL A   1      43.898  36.562  30.411  1.00  0.00     0.091 A 
ATOM     94  F   UNL A   1      42.833  34.661  29.540  1.00  0.00    -0.205 F 
ATOM     95  C   UNL A   1      44.302  37.329  31.502  1.00  0.00     0.022 A 
BRANCH  93  96
ATOM     96  S   UNL A   1      44.231  37.211  28.768  1.00  0.00     0.127 S 
ATOM     97  O   UNL A   1      42.896  37.604  28.323  1.00  0.00    -0.237 OA
ATOM     98  O   UNL A   1      45.132  38.330  29.055  1.00  0.00    -0.237 OA
ATOM     99  O   UNL A   1      44.856  36.118  28.036  1.00  0.00    -0.744 OA
ENDBRANCH  93  96
ENDBRANCH  66  89
ENDBRANCH  40  41
ENDBRANCH  32  35
ENDBRANCH  30  31
ENDBRANCH   1  30
TORSDOF 18
ENDMDL
MODEL 2
REMARK VINA RESULT:     -12.0      1.884      3.457
REMARK SMILES Cc1ccccc1-c1nn(-c2ccccc2)cc1/C=C(\C#N)C(=O)NCCCCNC(=O)c1ccc(-c2c3nc(c(-c4cccc(S(=O)(=O)[O-])c4F)c4ccc([nH]4)c(-c4cccc(S(=O)(=O)[O-])c4F)c4nc(c(-c5cccc(S(=O)(=O)[O-])c5F)c5ccc2[nH]5)C=C4)C=C3)cc1
REMARK SMILES IDX 28 1 27 2 26 3 25 4 23 5 24 6 20 8 19 9 18 10 8 11 9 12
REMARK SMILES IDX 10 13 17 14 7 15 1 16 2 17 3 18 4 19 6 20 5 21 11 22 12 23
REMARK SMILES IDX 16 24 13 25 15 26 14 27 21 28 22 29 29 30 30 31 31 32 32 34
REMARK SMILES IDX 33 35 34 36 95 37 35 38 94 39 36 40 37 41 38 42 88 43 39 44
REMARK SMILES IDX 93 45 87 46 89 47 40 48 92 49 86 50 85 51 41 53 73 54 53 55
REMARK SMILES IDX 72 56 54 57 57 58 71 59 90 60 55 61 56 62 70 64 91 65 58 66
REMARK SMILES IDX 42 67 43 68 51 69 44 70 46 71 52 72 45 73 47 74 48 75 49 76
REMARK SMILES IDX 50 77 74 78 75 79 83 80 76 81 78 82 84 83 77 84 79 85 80 86
REMARK SMILES IDX 81 87 82 88 59 89 60 90 68 91 61 92 63 93 69 94 62 95 64 96
REMARK SMILES IDX 65 97 66 98 67 99
REMARK H PARENT 25 7 30 33 89 52 57 63
REMARK Flexibility Score: inf
ROOT
ATOM      1  C   UNL A   1      37.544  21.813  25.270  1.00  0.00     0.023 C 
ENDROOT
BRANCH   1   2
ATOM      2  C   UNL A   1      37.018  21.957  23.829  1.00  0.00     0.023 C 
BRANCH   2   3
ATOM      3  C   UNL A   1      36.060  23.128  23.573  1.00  0.00     0.116 C 
BRANCH   3   4
ATOM      4  N   UNL A   1      34.691  22.693  23.296  1.00  0.00    -0.351 N 
ATOM      5  C   UNL A   1      33.489  23.338  23.274  1.00  0.00     0.261 C 
ATOM      6  O   UNL A   1      32.481  22.682  23.001  1.00  0.00    -0.268 OA
ATOM      7  H   UNL A   1      34.623  21.735  23.079  1.00  0.00     0.163 HD
BRANCH   5   8
ATOM      8  C   UNL A   1      33.355  24.781  23.563  1.00  0.00     0.117 C 
ATOM      9  C   UNL A   1      32.978  25.348  24.744  1.00  0.00     0.037 C 
BRANCH   9  10
ATOM     10  C   UNL A   1      32.750  26.775  25.119  1.00  0.00     0.022 A 
ATOM     11  C   UNL A   1      31.750  27.841  24.916  1.00  0.00     0.100 A 
ATOM     12  N   UNL A   1      31.987  28.860  25.748  1.00  0.00    -0.167 NA
ATOM     13  N   UNL A   1      33.221  28.679  26.210  1.00  0.00    -0.240 N 
ATOM     14  C   UNL A   1      33.708  27.432  25.889  1.00  0.00     0.123 A 
BRANCH  11  15
ATOM     15  C   UNL A   1      30.571  28.094  24.066  1.00  0.00     0.006 A 
ATOM     16  C   UNL A   1      29.410  25.918  24.835  1.00  0.00     0.045 C 
ATOM     17  C   UNL A   1      29.482  27.172  24.004  1.00  0.00    -0.042 A 
ATOM     18  C   UNL A   1      28.311  27.536  23.298  1.00  0.00     0.004 A 
ATOM     19  C   UNL A   1      28.224  28.765  22.643  1.00  0.00     0.000 A 
ATOM     20  C   UNL A   1      30.504  29.278  23.305  1.00  0.00     0.011 A 
ATOM     21  C   UNL A   1      29.326  29.623  22.624  1.00  0.00     0.001 A 
ENDBRANCH  11  15
BRANCH  13  22
ATOM     22  C   UNL A   1      33.836  29.762  26.881  1.00  0.00     0.065 A 
ATOM     23  C   UNL A   1      33.057  30.897  27.172  1.00  0.00     0.028 A 
ATOM     24  C   UNL A   1      35.202  29.756  27.164  1.00  0.00     0.028 A 
ATOM     25  C   UNL A   1      33.636  32.015  27.767  1.00  0.00     0.002 A 
ATOM     26  C   UNL A   1      35.783  30.901  27.720  1.00  0.00     0.002 A 
ATOM     27  C   UNL A   1      35.003  32.020  28.029  1.00  0.00     0.000 A 
ENDBRANCH  13  22
ENDBRANCH   9  10
BRANCH   8  28
ATOM     28  C   UNL A   1      33.596  25.875  22.536  1.00  0.00     0.105 C 
ATOM     29  N   UNL A   1      33.796  26.782  21.684  1.00  0.00    -0.192 NA
ENDBRANCH   8  28
ENDBRANCH   5   8
ENDBRANCH   3   4
ENDBRANCH   2   3
ENDBRANCH   1   2
BRANCH   1  30
ATOM     30  C   UNL A   1      38.052  23.090  25.928  1.00  0.00     0.116 C 
BRANCH  30  31
ATOM     31  N   UNL A   1      39.124  22.826  26.889  1.00  0.00    -0.352 N 
ATOM     32  C   UNL A   1      40.198  23.610  27.247  1.00  0.00     0.251 C 
ATOM     33  H   UNL A   1      39.068  21.957  27.348  1.00  0.00     0.163 HD
ATOM     34  O   UNL A   1      41.275  23.038  27.476  1.00  0.00    -0.269 OA
BRANCH  32  35
ATOM     35  C   UNL A   1      40.044  25.059  27.470  1.00  0.00     0.039 A 
ATOM     36  C   UNL A   1      40.480  26.010  26.539  1.00  0.00     0.014 A 
ATOM     37  C   UNL A   1      39.688  25.484  28.741  1.00  0.00     0.014 A 
ATOM     38  C   UNL A   1      40.769  27.297  26.991  1.00  0.00     0.010 A 
ATOM     39  C   UNL A   1      39.640  26.791  29.075  1.00  0.00     0.010 A 
ATOM     40  C   UNL A   1      40.440  27.609  28.304  1.00  0.00    -0.014 A 
BRANCH  40  41
ATOM     41  C   UNL A   1      40.970  28.678  29.119  1.00  0.00     0.031 A 
ATOM     42  C   UNL A   1      40.084  29.791  29.429  1.00  0.00     0.074 A 
ATOM     43  C   UNL A   1      42.062  28.344  29.856  1.00  0.00     0.049 A 
ATOM     44  N   UNL A   1      40.452  30.859  30.033  1.00  0.00    -0.248 NA
ATOM     45  C   UNL A   1      38.678  29.782  29.040  1.00  0.00     0.031 C 
ATOM     46  C   UNL A   1      42.456  28.842  31.168  1.00  0.00     0.029 A 
ATOM     47  N   UNL A   1      43.047  27.386  29.613  1.00  0.00    -0.354 N 
ATOM     48  C   UNL A   1      39.297  31.505  30.412  1.00  0.00     0.074 A 
ATOM     49  C   UNL A   1      38.261  30.916  29.603  1.00  0.00     0.031 C 
ATOM     50  C   UNL A   1      43.712  28.426  31.431  1.00  0.00     0.029 A 
ATOM     51  C   UNL A   1      44.225  27.834  30.207  1.00  0.00     0.049 A 
ATOM     52  H   UNL A   1      42.931  26.546  29.112  1.00  0.00     0.167 HD
ATOM     53  C   UNL A   1      39.346  32.299  31.518  1.00  0.00     0.034 A 
ATOM     54  C   UNL A   1      45.262  28.352  29.471  1.00  0.00     0.034 A 
ATOM     55  C   UNL A   1      40.745  32.397  32.001  1.00  0.00     0.049 A 
ATOM     56  C   UNL A   1      45.447  29.851  29.711  1.00  0.00     0.074 A 
ATOM     57  C   UNL A   1      41.433  31.783  33.037  1.00  0.00     0.029 A 
ATOM     58  N   UNL A   1      41.726  32.921  31.154  1.00  0.00    -0.354 N 
ATOM     59  N   UNL A   1      44.630  30.599  30.404  1.00  0.00    -0.248 NA
ATOM     60  C   UNL A   1      46.577  30.619  29.196  1.00  0.00     0.031 C 
ATOM     61  C   UNL A   1      42.829  31.850  32.743  1.00  0.00     0.029 A 
ATOM     62  C   UNL A   1      43.003  32.538  31.551  1.00  0.00     0.049 A 
ATOM     63  H   UNL A   1      41.537  33.490  30.373  1.00  0.00     0.167 HD
ATOM     64  C   UNL A   1      44.991  31.915  30.319  1.00  0.00     0.074 A 
ATOM     65  C   UNL A   1      46.277  31.856  29.636  1.00  0.00     0.031 C 
ATOM     66  C   UNL A   1      44.178  32.932  30.761  1.00  0.00     0.034 A 
BRANCH  53  67
ATOM     67  C   UNL A   1      38.135  32.730  32.345  1.00  0.00     0.023 A 
ATOM     68  C   UNL A   1      38.156  32.410  33.720  1.00  0.00     0.012 A 
ATOM     69  C   UNL A   1      36.950  33.369  31.893  1.00  0.00     0.148 A 
ATOM     70  C   UNL A   1      37.067  32.647  34.570  1.00  0.00     0.002 A 
ATOM     71  C   UNL A   1      35.853  33.590  32.731  1.00  0.00     0.091 A 
ATOM     72  F   UNL A   1      36.854  33.817  30.646  1.00  0.00    -0.205 F 
ATOM     73  C   UNL A   1      35.907  33.224  34.074  1.00  0.00     0.022 A 
BRANCH  71  74
ATOM     74  S   UNL A   1      34.309  34.327  32.146  1.00  0.00     0.127 S 
ATOM     75  O   UNL A   1      34.651  35.749  32.087  1.00  0.00    -0.237 OA
ATOM     76  O   UNL A   1      34.136  33.689  30.841  1.00  0.00    -0.237 OA
ATOM     77  O   UNL A   1      33.287  33.998  33.133  1.00  0.00    -0.744 OA
ENDBRANCH  71  74
ENDBRANCH  53  67
BRANCH  54  78
ATOM     78  C   UNL A   1      45.428  27.661  28.148  1.00  0.00     0.023 A 
ATOM     79  C   UNL A   1      44.920  28.335  27.010  1.00  0.00     0.012 A 
ATOM     80  C   UNL A   1      46.427  26.690  27.967  1.00  0.00     0.148 A 
ATOM     81  C   UNL A   1      45.548  28.209  25.768  1.00  0.00     0.002 A 
ATOM     82  C   UNL A   1      47.048  26.569  26.724  1.00  0.00     0.091 A 
ATOM     83  F   UNL A   1      46.805  25.948  29.015  1.00  0.00    -0.205 F 
ATOM     84  C   UNL A   1      46.650  27.368  25.641  1.00  0.00     0.022 A 
BRANCH  82  85
ATOM     85  S   UNL A   1      48.469  25.486  26.510  1.00  0.00     0.127 S 
ATOM     86  O   UNL A   1      47.902  24.185  26.854  1.00  0.00    -0.237 OA
ATOM     87  O   UNL A   1      48.800  25.650  25.097  1.00  0.00    -0.237 OA
ATOM     88  O   UNL A   1      49.476  26.013  27.420  1.00  0.00    -0.744 OA
ENDBRANCH  82  85
ENDBRANCH  54  78
BRANCH  66  89
ATOM     89  C   UNL A   1      44.414  34.415  30.488  1.00  0.00     0.023 A 
ATOM     90  C   UNL A   1      45.071  35.262  31.402  1.00  0.00     0.012 A 
ATOM     91  C   UNL A   1      44.078  34.997  29.235  1.00  0.00     0.148 A 
ATOM     92  C   UNL A   1      45.288  36.620  31.144  1.00  0.00     0.002 A 
ATOM     93  C   UNL A   1      44.425  36.310  28.929  1.00  0.00     0.091 A 
ATOM     94  F   UNL A   1      43.385  34.294  28.330  1.00  0.00    -0.205 F 
ATOM     95  C   UNL A   1      44.985  37.141  29.898  1.00  0.00     0.022 A 
BRANCH  93  96
ATOM     96  S   UNL A   1      44.316  36.944  27.250  1.00  0.00     0.127 S 
ATOM     97  O   UNL A   1      44.577  38.368  27.449  1.00  0.00    -0.237 OA
ATOM     98  O   UNL A   1      45.393  36.215  26.575  1.00  0.00    -0.237 OA
ATOM     99  O   UNL A   1      42.981  36.594  26.788  1.00  0.00    -0.744 OA
ENDBRANCH  93  96
ENDBRANCH  66  89
ENDBRANCH  40  41
ENDBRANCH  32  35
ENDBRANCH  30  31
ENDBRANCH   1  30
TORSDOF 18
ENDMDL
MODEL 3
REMARK VINA RESULT:     -11.9      5.581     10.359
REMARK SMILES Cc1ccccc1-c1nn(-c2ccccc2)cc1/C=C(\C#N)C(=O)NCCCCNC(=O)c1ccc(-c2c3nc(c(-c4cccc(S(=O)(=O)[O-])c4F)c4ccc([nH]4)c(-c4cccc(S(=O)(=O)[O-])c4F)c4nc(c(-c5cccc(S(=O)(=O)[O-])c5F)c5ccc2[nH]5)C=C4)C=C3)cc1
REMARK SMILES IDX 28 1 27 2 26 3 25 4 23 5 24 6 20 8 19 9 18 10 8 11 9 12
REMARK SMILES IDX 10 13 17 14 7 15 1 16 2 17 3 18 4 19 6 20 5 21 11 22 12 23
REMARK SMILES IDX 16 24 13 25 15 26 14 27 21 28 22 29 29 30 30 31 31 32 32 34
REMARK SMILES IDX 33 35 34 36 95 37 35 38 94 39 36 40 37 41 38 42 88 43 39 44
REMARK SMILES IDX 93 45 87 46 89 47 40 48 92 49 86 50 85 51 41 53 73 54 53 55
REMARK SMILES IDX 72 56 54 57 57 58 71 59 90 60 55 61 56 62 70 64 91 65 58 66
REMARK SMILES IDX 42 67 43 68 51 69 44 70 46 71 52 72 45 73 47 74 48 75 49 76
REMARK SMILES IDX 50 77 74 78 75 79 83 80 76 81 78 82 84 83 77 84 79 85 80 86
REMARK SMILES IDX 81 87 82 88 59 89 60 90 68 91 61 92 63 93 69 94 62 95 64 96
REMARK SMILES IDX 65 97 66 98 67 99
REMARK H PARENT 25 7 30 33 89 52 57 63
REMARK Flexibility Score: inf
ROOT
ATOM      1  C   UNL A   1      37.712  22.115  25.819  1.00  0.00     0.023 C 
ENDROOT
BRANCH   1   2
ATOM      2  C   UNL A   1      37.384  22.260  24.322  1.00  0.00     0.023 C 
BRANCH   2   3
ATOM      3  C   UNL A   1      36.321  23.306  23.961  1.00  0.00     0.116 C 
BRANCH   3   4
ATOM      4  N   UNL A   1      35.067  22.709  23.503  1.00  0.00    -0.351 N 
ATOM      5  C   UNL A   1      33.756  23.059  23.642  1.00  0.00     0.261 C 
ATOM      6  O   UNL A   1      32.901  22.333  23.131  1.00  0.00    -0.268 OA
ATOM      7  H   UNL A   1      35.196  21.881  22.984  1.00  0.00     0.163 HD
BRANCH   5   8
ATOM      8  C   UNL A   1      33.329  24.268  24.377  1.00  0.00     0.117 C 
ATOM      9  C   UNL A   1      33.460  25.562  23.969  1.00  0.00     0.037 C 
BRANCH   9  10
ATOM     10  C   UNL A   1      33.126  26.846  24.654  1.00  0.00     0.022 A 
ATOM     11  C   UNL A   1      32.016  27.814  24.743  1.00  0.00     0.100 A 
ATOM     12  N   UNL A   1      32.219  28.657  25.760  1.00  0.00    -0.167 NA
ATOM     13  N   UNL A   1      33.498  28.522  26.100  1.00  0.00    -0.240 N 
ATOM     14  C   UNL A   1      34.075  27.431  25.492  1.00  0.00     0.123 A 
BRANCH  11  15
ATOM     15  C   UNL A   1      30.755  28.106  24.037  1.00  0.00     0.006 A 
ATOM     16  C   UNL A   1      29.781  25.775  24.576  1.00  0.00     0.045 C 
ATOM     17  C   UNL A   1      29.714  27.134  23.931  1.00  0.00    -0.042 A 
ATOM     18  C   UNL A   1      28.467  27.516  23.382  1.00  0.00     0.004 A 
ATOM     19  C   UNL A   1      28.259  28.816  22.919  1.00  0.00     0.000 A 
ATOM     20  C   UNL A   1      30.558  29.377  23.462  1.00  0.00     0.011 A 
ATOM     21  C   UNL A   1      29.308  29.737  22.935  1.00  0.00     0.001 A 
ENDBRANCH  11  15
BRANCH  13  22
ATOM     22  C   UNL A   1      34.058  29.503  26.953  1.00  0.00     0.065 A 
ATOM     23  C   UNL A   1      33.338  30.693  27.165  1.00  0.00     0.028 A 
ATOM     24  C   UNL A   1      35.333  29.348  27.496  1.00  0.00     0.028 A 
ATOM     25  C   UNL A   1      33.881  31.716  27.938  1.00  0.00     0.002 A 
ATOM     26  C   UNL A   1      35.889  30.399  28.232  1.00  0.00     0.002 A 
ATOM     27  C   UNL A   1      35.163  31.573  28.461  1.00  0.00     0.000 A 
ENDBRANCH  13  22
ENDBRANCH   9  10
BRANCH   8  28
ATOM     28  C   UNL A   1      32.690  24.240  25.755  1.00  0.00     0.105 C 
ATOM     29  N   UNL A   1      32.160  24.215  26.898  1.00  0.00    -0.192 NA
ENDBRANCH   8  28
ENDBRANCH   5   8
ENDBRANCH   3   4
ENDBRANCH   2   3
ENDBRANCH   1   2
BRANCH   1  30
ATOM     30  C   UNL A   1      39.030  22.727  26.279  1.00  0.00     0.116 C 
BRANCH  30  31
ATOM     31  N   UNL A   1      40.125  21.756  26.258  1.00  0.00    -0.352 N 
ATOM     32  C   UNL A   1      41.487  21.965  26.248  1.00  0.00     0.251 C 
ATOM     33  H   UNL A   1      39.847  20.812  26.249  1.00  0.00     0.163 HD
ATOM     34  O   UNL A   1      42.182  21.192  25.570  1.00  0.00    -0.269 OA
BRANCH  32  35
ATOM     35  C   UNL A   1      42.107  22.991  27.106  1.00  0.00     0.039 A 
ATOM     36  C   UNL A   1      41.980  24.361  26.846  1.00  0.00     0.014 A 
ATOM     37  C   UNL A   1      43.042  22.574  28.041  1.00  0.00     0.014 A 
ATOM     38  C   UNL A   1      42.952  25.225  27.349  1.00  0.00     0.010 A 
ATOM     39  C   UNL A   1      43.751  23.446  28.788  1.00  0.00     0.010 A 
ATOM     40  C   UNL A   1      43.891  24.698  28.227  1.00  0.00    -0.014 A 
BRANCH  40  41
ATOM     41  C   UNL A   1      45.188  25.240  28.564  1.00  0.00     0.031 A 
ATOM     42  C   UNL A   1      46.284  24.985  27.640  1.00  0.00     0.074 A 
ATOM     43  C   UNL A   1      45.162  26.268  29.452  1.00  0.00     0.049 A 
ATOM     44  N   UNL A   1      47.506  25.297  27.868  1.00  0.00    -0.248 NA
ATOM     45  C   UNL A   1      46.070  24.314  26.363  1.00  0.00     0.031 C 
ATOM     46  C   UNL A   1      46.056  27.416  29.536  1.00  0.00     0.029 A 
ATOM     47  N   UNL A   1      44.239  26.560  30.457  1.00  0.00    -0.354 N 
ATOM     48  C   UNL A   1      48.162  25.190  26.662  1.00  0.00     0.074 A 
ATOM     49  C   UNL A   1      47.292  24.393  25.838  1.00  0.00     0.031 C 
ATOM     50  C   UNL A   1      45.820  28.068  30.692  1.00  0.00     0.029 A 
ATOM     51  C   UNL A   1      44.919  27.234  31.470  1.00  0.00     0.049 A 
ATOM     52  H   UNL A   1      43.281  26.330  30.453  1.00  0.00     0.167 HD
ATOM     53  C   UNL A   1      49.254  25.978  26.461  1.00  0.00     0.034 A 
ATOM     54  C   UNL A   1      45.254  26.626  32.653  1.00  0.00     0.034 A 
ATOM     55  C   UNL A   1      49.582  26.707  27.711  1.00  0.00     0.049 A 
ATOM     56  C   UNL A   1      46.765  26.426  32.792  1.00  0.00     0.074 A 
ATOM     57  C   UNL A   1      49.354  28.008  28.134  1.00  0.00     0.029 A 
ATOM     58  N   UNL A   1      49.886  25.982  28.866  1.00  0.00    -0.354 N 
ATOM     59  N   UNL A   1      47.634  26.653  31.843  1.00  0.00    -0.248 NA
ATOM     60  C   UNL A   1      47.411  25.965  34.018  1.00  0.00     0.031 C 
ATOM     61  C   UNL A   1      49.418  28.028  29.561  1.00  0.00     0.029 A 
ATOM     62  C   UNL A   1      49.723  26.753  30.012  1.00  0.00     0.049 A 
ATOM     63  H   UNL A   1      50.179  25.042  28.869  1.00  0.00     0.167 HD
ATOM     64  C   UNL A   1      48.883  26.250  32.227  1.00  0.00     0.074 A 
ATOM     65  C   UNL A   1      48.701  25.924  33.636  1.00  0.00     0.031 C 
ATOM     66  C   UNL A   1      49.933  26.163  31.343  1.00  0.00     0.034 A 
BRANCH  53  67
ATOM     67  C   UNL A   1      49.838  26.340  25.095  1.00  0.00     0.023 A 
ATOM     68  C   UNL A   1      51.246  26.370  24.992  1.00  0.00     0.012 A 
ATOM     69  C   UNL A   1      49.139  26.710  23.916  1.00  0.00     0.148 A 
ATOM     70  C   UNL A   1      51.912  26.792  23.832  1.00  0.00     0.002 A 
ATOM     71  C   UNL A   1      49.796  27.151  22.763  1.00  0.00     0.091 A 
ATOM     72  F   UNL A   1      47.815  26.617  23.855  1.00  0.00    -0.205 F 
ATOM     73  C   UNL A   1      51.188  27.198  22.720  1.00  0.00     0.022 A 
BRANCH  71  74
ATOM     74  S   UNL A   1      48.913  27.705  21.286  1.00  0.00     0.127 S 
ATOM     75  O   UNL A   1      48.004  28.714  21.833  1.00  0.00    -0.237 OA
ATOM     76  O   UNL A   1      49.994  28.242  20.461  1.00  0.00    -0.237 OA
ATOM     77  O   UNL A   1      48.242  26.532  20.736  1.00  0.00    -0.744 OA
ENDBRANCH  71  74
ENDBRANCH  53  67
BRANCH  54  78
ATOM     78  C   UNL A   1      44.208  25.652  33.116  1.00  0.00     0.023 A 
ATOM     79  C   UNL A   1      44.493  24.277  32.932  1.00  0.00     0.012 A 
ATOM     80  C   UNL A   1      43.266  26.022  34.090  1.00  0.00     0.148 A 
ATOM     81  C   UNL A   1      44.027  23.325  33.843  1.00  0.00     0.002 A 
ATOM     82  C   UNL A   1      42.804  25.066  34.995  1.00  0.00     0.091 A 
ATOM     83  F   UNL A   1      42.885  27.303  34.168  1.00  0.00    -0.205 F 
ATOM     84  C   UNL A   1      43.229  23.731  34.909  1.00  0.00     0.022 A 
BRANCH  82  85
ATOM     85  S   UNL A   1      41.762  25.544  36.382  1.00  0.00     0.127 S 
ATOM     86  O   UNL A   1      40.594  26.091  35.698  1.00  0.00    -0.237 OA
ATOM     87  O   UNL A   1      41.525  24.276  37.069  1.00  0.00    -0.237 OA
ATOM     88  O   UNL A   1      42.568  26.489  37.142  1.00  0.00    -0.744 OA
ENDBRANCH  82  85
ENDBRANCH  54  78
BRANCH  66  89
ATOM     89  C   UNL A   1      51.276  25.506  31.650  1.00  0.00     0.023 A 
ATOM     90  C   UNL A   1      52.497  26.203  31.583  1.00  0.00     0.012 A 
ATOM     91  C   UNL A   1      51.349  24.171  32.132  1.00  0.00     0.148 A 
ATOM     92  C   UNL A   1      53.725  25.596  31.869  1.00  0.00     0.002 A 
ATOM     93  C   UNL A   1      52.556  23.618  32.552  1.00  0.00     0.091 A 
ATOM     94  F   UNL A   1      50.253  23.402  32.160  1.00  0.00    -0.205 F 
ATOM     95  C   UNL A   1      53.754  24.308  32.375  1.00  0.00     0.022 A 
BRANCH  93  96
ATOM     96  S   UNL A   1      52.613  22.074  33.473  1.00  0.00     0.127 S 
ATOM     97  O   UNL A   1      51.976  22.452  34.732  1.00  0.00    -0.237 OA
ATOM     98  O   UNL A   1      51.814  21.182  32.629  1.00  0.00    -0.237 OA
ATOM     99  O   UNL A   1      54.023  21.717  33.548  1.00  0.00    -0.744 OA
ENDBRANCH  93  96
ENDBRANCH  66  89
ENDBRANCH  40  41
ENDBRANCH  32  35
ENDBRANCH  30  31
ENDBRANCH   1  30
TORSDOF 18
ENDMDL
