MODEL 1
REMARK VINA RESULT:     -12.5      0.000      0.000
REMARK SMILES COC(=O)c1ccc(Cl)c(-c2ccc(C(=O)NCCCCNC(=O)c3ccc(-c4c5nc(c(-c6cccc(S(=O)(=O)[O-])c6F)c6ccc([nH]6)c(-c6cccc(S(=O)(=O)[O-])c6F)c6nc(c(-c7cccc(S(=O)(=O)[O-])c7F)c7ccc4[nH]7)C=C6)C=C5)cc3)c(F)c2)c1
REMARK SMILES IDX 19 1 18 2 17 3 15 4 16 5 14 7 11 8 12 9 90 10 13 11 88 12
REMARK SMILES IDX 89 13 10 14 5 15 6 16 91 17 7 18 8 19 9 20 3 21 4 22 2 23
REMARK SMILES IDX 1 24 20 25 21 26 22 27 23 28 24 30 25 31 26 32 87 33 27 34
REMARK SMILES IDX 86 35 28 36 29 37 30 38 80 39 31 40 85 41 79 42 81 43 32 44
REMARK SMILES IDX 84 45 78 46 77 47 33 49 65 50 45 51 64 52 46 53 49 54 63 55
REMARK SMILES IDX 82 56 47 57 48 58 62 60 83 61 50 62 34 63 35 64 43 65 36 66
REMARK SMILES IDX 38 67 44 68 37 69 39 70 40 71 41 72 42 73 66 74 67 75 75 76
REMARK SMILES IDX 68 77 70 78 76 79 69 80 71 81 72 82 73 83 74 84 51 85 52 86
REMARK SMILES IDX 60 87 53 88 55 89 61 90 54 91 56 92 57 93 58 94 59 95
REMARK H PARENT 17 6 22 29 81 48 49 59
REMARK Flexibility Score: inf
ROOT
ATOM      1  C   UNL A   1      34.880  21.106  24.389  1.00  0.00     0.023 C 
ENDROOT
BRANCH   1   2
ATOM      2  C   UNL A   1      33.416  21.113  24.838  1.00  0.00     0.116 C 
BRANCH   2   3
ATOM      3  N   UNL A   1      33.325  21.265  26.275  1.00  0.00    -0.352 N 
ATOM      4  C   UNL A   1      33.059  22.335  27.087  1.00  0.00     0.254 C 
ATOM      5  O   UNL A   1      33.046  22.110  28.300  1.00  0.00    -0.269 OA
ATOM      6  H   UNL A   1      33.486  20.429  26.769  1.00  0.00     0.163 HD
BRANCH   4   7
ATOM      7  C   UNL A   1      32.734  23.718  26.632  1.00  0.00     0.075 A 
ATOM      8  C   UNL A   1      31.844  26.314  25.859  1.00  0.00    -0.014 A 
ATOM      9  C   UNL A   1      30.957  25.406  26.441  1.00  0.00     0.010 A 
ATOM     10  C   UNL A   1      33.173  25.916  25.687  1.00  0.00     0.048 A 
ATOM     11  C   UNL A   1      31.397  24.127  26.814  1.00  0.00     0.017 A 
ATOM     12  C   UNL A   1      33.612  24.656  26.097  1.00  0.00     0.136 A 
ATOM     13  F   UNL A   1      34.926  24.452  25.990  1.00  0.00    -0.206 F 
BRANCH   8  14
ATOM     14  C   UNL A   1      31.439  27.659  25.440  1.00  0.00     0.001 A 
ATOM     15  C   UNL A   1      30.363  29.055  23.742  1.00  0.00     0.060 A 
ATOM     16  C   UNL A   1      30.826  30.206  24.385  1.00  0.00     0.017 A 
ATOM     17  C   UNL A   1      30.659  27.794  24.276  1.00  0.00     0.026 A 
ATOM     18  C   UNL A   1      31.572  30.091  25.560  1.00  0.00     0.022 A 
ATOM     19  C   UNL A   1      31.880  28.830  26.083  1.00  0.00     0.048 A 
ATOM     20  Cl  UNL A   1      32.853  28.777  27.513  1.00  0.00    -0.084 Cl
BRANCH  15  21
ATOM     21  C   UNL A   1      29.575  29.106  22.484  1.00  0.00     0.337 C 
ATOM     22  O   UNL A   1      29.927  29.724  21.496  1.00  0.00    -0.246 OA
BRANCH  21  23
ATOM     23  O   UNL A   1      28.408  28.431  22.638  1.00  0.00    -0.465 OA
ATOM     24  C   UNL A   1      27.302  29.275  22.964  1.00  0.00     0.282 C 
ENDBRANCH  21  23
ENDBRANCH  15  21
ENDBRANCH   8  14
ENDBRANCH   4   7
ENDBRANCH   2   3
ENDBRANCH   1   2
BRANCH   1  25
ATOM     25  C   UNL A   1      35.889  21.215  25.534  1.00  0.00     0.023 C 
BRANCH  25  26
ATOM     26  C   UNL A   1      37.313  21.538  25.099  1.00  0.00     0.116 C 
BRANCH  26  27
ATOM     27  N   UNL A   1      38.274  20.496  25.441  1.00  0.00    -0.352 N 
ATOM     28  C   UNL A   1      39.464  20.637  26.115  1.00  0.00     0.251 C 
ATOM     29  H   UNL A   1      38.044  19.582  25.154  1.00  0.00     0.163 HD
ATOM     30  O   UNL A   1      40.232  19.691  26.245  1.00  0.00    -0.269 OA
BRANCH  28  31
ATOM     31  C   UNL A   1      39.813  21.970  26.643  1.00  0.00     0.039 A 
ATOM     32  C   UNL A   1      40.792  22.071  27.632  1.00  0.00     0.014 A 
ATOM     33  C   UNL A   1      39.243  23.115  26.080  1.00  0.00     0.014 A 
ATOM     34  C   UNL A   1      41.258  23.333  28.005  1.00  0.00     0.010 A 
ATOM     35  C   UNL A   1      39.765  24.363  26.395  1.00  0.00     0.010 A 
ATOM     36  C   UNL A   1      40.781  24.485  27.356  1.00  0.00    -0.014 A 
BRANCH  36  37
ATOM     37  C   UNL A   1      41.351  25.824  27.641  1.00  0.00     0.031 A 
ATOM     38  C   UNL A   1      42.767  26.142  27.248  1.00  0.00     0.074 A 
ATOM     39  C   UNL A   1      40.622  26.724  28.333  1.00  0.00     0.049 A 
ATOM     40  N   UNL A   1      43.459  27.227  27.475  1.00  0.00    -0.248 NA
ATOM     41  C   UNL A   1      43.512  25.096  26.527  1.00  0.00     0.031 C 
ATOM     42  C   UNL A   1      39.261  26.508  28.829  1.00  0.00     0.029 A 
ATOM     43  N   UNL A   1      40.930  27.993  28.757  1.00  0.00    -0.354 N 
ATOM     44  C   UNL A   1      44.723  26.987  26.952  1.00  0.00     0.074 A 
ATOM     45  C   UNL A   1      44.717  25.639  26.431  1.00  0.00     0.031 C 
ATOM     46  C   UNL A   1      38.847  27.609  29.475  1.00  0.00     0.029 A 
ATOM     47  C   UNL A   1      39.923  28.595  29.476  1.00  0.00     0.049 A 
ATOM     48  H   UNL A   1      41.790  28.431  28.565  1.00  0.00     0.167 HD
ATOM     49  C   UNL A   1      45.783  27.825  26.885  1.00  0.00     0.034 A 
ATOM     50  C   UNL A   1      39.873  29.800  30.077  1.00  0.00     0.034 A 
ATOM     51  C   UNL A   1      45.771  29.177  27.374  1.00  0.00     0.049 A 
ATOM     52  C   UNL A   1      41.060  30.719  29.972  1.00  0.00     0.074 A 
ATOM     53  C   UNL A   1      46.774  30.126  27.289  1.00  0.00     0.029 A 
ATOM     54  N   UNL A   1      44.711  29.773  28.039  1.00  0.00    -0.354 N 
ATOM     55  N   UNL A   1      42.203  30.520  29.363  1.00  0.00    -0.248 NA
ATOM     56  C   UNL A   1      40.940  32.040  30.606  1.00  0.00     0.031 C 
ATOM     57  C   UNL A   1      46.334  31.285  27.932  1.00  0.00     0.029 A 
ATOM     58  C   UNL A   1      45.038  31.073  28.379  1.00  0.00     0.049 A 
ATOM     59  H   UNL A   1      43.853  29.334  28.241  1.00  0.00     0.167 HD
ATOM     60  C   UNL A   1      42.923  31.701  29.506  1.00  0.00     0.074 A 
ATOM     61  C   UNL A   1      42.080  32.615  30.248  1.00  0.00     0.031 C 
ATOM     62  C   UNL A   1      44.172  31.994  29.071  1.00  0.00     0.034 A 
BRANCH  49  63
ATOM     63  C   UNL A   1      47.035  27.331  26.208  1.00  0.00     0.023 A 
ATOM     64  C   UNL A   1      47.281  27.682  24.864  1.00  0.00     0.012 A 
ATOM     65  C   UNL A   1      48.010  26.610  26.924  1.00  0.00     0.148 A 
ATOM     66  C   UNL A   1      48.468  27.305  24.238  1.00  0.00     0.002 A 
ATOM     67  C   UNL A   1      49.212  26.283  26.308  1.00  0.00     0.091 A 
ATOM     68  F   UNL A   1      47.748  26.269  28.193  1.00  0.00    -0.205 F 
ATOM     69  C   UNL A   1      49.438  26.619  24.963  1.00  0.00     0.022 A 
BRANCH  67  70
ATOM     70  S   UNL A   1      50.563  25.481  27.179  1.00  0.00     0.127 S 
ATOM     71  O   UNL A   1      51.526  25.270  26.099  1.00  0.00    -0.237 OA
ATOM     72  O   UNL A   1      50.950  26.504  28.150  1.00  0.00    -0.237 OA
ATOM     73  O   UNL A   1      50.007  24.267  27.759  1.00  0.00    -0.744 OA
ENDBRANCH  67  70
ENDBRANCH  49  63
BRANCH  50  74
ATOM     74  C   UNL A   1      38.624  30.231  30.768  1.00  0.00     0.023 A 
ATOM     75  C   UNL A   1      38.457  29.947  32.137  1.00  0.00     0.012 A 
ATOM     76  C   UNL A   1      37.627  30.963  30.093  1.00  0.00     0.148 A 
ATOM     77  C   UNL A   1      37.313  30.364  32.817  1.00  0.00     0.002 A 
ATOM     78  C   UNL A   1      36.518  31.426  30.790  1.00  0.00     0.091 A 
ATOM     79  F   UNL A   1      37.800  31.214  28.788  1.00  0.00    -0.205 F 
ATOM     80  C   UNL A   1      36.350  31.114  32.148  1.00  0.00     0.022 A 
BRANCH  78  81
ATOM     81  S   UNL A   1      35.296  32.516  30.049  1.00  0.00     0.127 S 
ATOM     82  O   UNL A   1      36.128  33.623  29.582  1.00  0.00    -0.237 OA
ATOM     83  O   UNL A   1      34.744  31.670  28.991  1.00  0.00    -0.237 OA
ATOM     84  O   UNL A   1      34.358  32.840  31.114  1.00  0.00    -0.744 OA
ENDBRANCH  78  81
ENDBRANCH  50  74
BRANCH  62  85
ATOM     85  C   UNL A   1      44.712  33.376  29.337  1.00  0.00     0.023 A 
ATOM     86  C   UNL A   1      45.418  33.639  30.527  1.00  0.00     0.012 A 
ATOM     87  C   UNL A   1      44.614  34.381  28.353  1.00  0.00     0.148 A 
ATOM     88  C   UNL A   1      45.997  34.890  30.743  1.00  0.00     0.002 A 
ATOM     89  C   UNL A   1      45.242  35.604  28.552  1.00  0.00     0.091 A 
ATOM     90  F   UNL A   1      43.924  34.114  27.234  1.00  0.00    -0.205 F 
ATOM     91  C   UNL A   1      45.922  35.865  29.752  1.00  0.00     0.022 A 
BRANCH  89  92
ATOM     92  S   UNL A   1      45.293  36.880  27.287  1.00  0.00     0.127 S 
ATOM     93  O   UNL A   1      46.016  37.950  27.973  1.00  0.00    -0.237 OA
ATOM     94  O   UNL A   1      46.046  36.223  26.218  1.00  0.00    -0.237 OA
ATOM     95  O   UNL A   1      43.905  37.177  26.957  1.00  0.00    -0.744 OA
ENDBRANCH  89  92
ENDBRANCH  62  85
ENDBRANCH  36  37
ENDBRANCH  28  31
ENDBRANCH  26  27
ENDBRANCH  25  26
ENDBRANCH   1  25
TORSDOF 17
ENDMDL
MODEL 2
REMARK VINA RESULT:     -12.1      2.290      7.834
REMARK SMILES COC(=O)c1ccc(Cl)c(-c2ccc(C(=O)NCCCCNC(=O)c3ccc(-c4c5nc(c(-c6cccc(S(=O)(=O)[O-])c6F)c6ccc([nH]6)c(-c6cccc(S(=O)(=O)[O-])c6F)c6nc(c(-c7cccc(S(=O)(=O)[O-])c7F)c7ccc4[nH]7)C=C6)C=C5)cc3)c(F)c2)c1
REMARK SMILES IDX 19 1 18 2 17 3 15 4 16 5 14 7 11 8 12 9 90 10 13 11 88 12
REMARK SMILES IDX 89 13 10 14 5 15 6 16 91 17 7 18 8 19 9 20 3 21 4 22 2 23
REMARK SMILES IDX 1 24 20 25 21 26 22 27 23 28 24 30 25 31 26 32 87 33 27 34
REMARK SMILES IDX 86 35 28 36 29 37 30 38 80 39 31 40 85 41 79 42 81 43 32 44
REMARK SMILES IDX 84 45 78 46 77 47 33 49 65 50 45 51 64 52 46 53 49 54 63 55
REMARK SMILES IDX 82 56 47 57 48 58 62 60 83 61 50 62 34 63 35 64 43 65 36 66
REMARK SMILES IDX 38 67 44 68 37 69 39 70 40 71 41 72 42 73 66 74 67 75 75 76
REMARK SMILES IDX 68 77 70 78 76 79 69 80 71 81 72 82 73 83 74 84 51 85 52 86
REMARK SMILES IDX 60 87 53 88 55 89 61 90 54 91 56 92 57 93 58 94 59 95
REMARK H PARENT 17 6 22 29 81 48 49 59
REMARK Flexibility Score: inf
ROOT
ATOM      1  C   UNL A   1      37.404  22.093  24.674  1.00  0.00     0.023 C 
ENDROOT
BRANCH   1   2
ATOM      2  C   UNL A   1      35.880  22.105  24.522  1.00  0.00     0.116 C 
BRANCH   2   3
ATOM      3  N   UNL A   1      35.242  21.680  25.749  1.00  0.00    -0.352 N 
ATOM      4  C   UNL A   1      34.314  22.261  26.570  1.00  0.00     0.254 C 
ATOM      5  O   UNL A   1      33.968  21.603  27.556  1.00  0.00    -0.269 OA
ATOM      6  H   UNL A   1      35.534  20.791  26.056  1.00  0.00     0.163 HD
BRANCH   4   7
ATOM      7  C   UNL A   1      33.654  23.580  26.348  1.00  0.00     0.075 A 
ATOM      8  C   UNL A   1      32.641  26.188  25.798  1.00  0.00    -0.014 A 
ATOM      9  C   UNL A   1      33.951  25.850  25.452  1.00  0.00     0.010 A 
ATOM     10  C   UNL A   1      31.847  25.207  26.400  1.00  0.00     0.048 A 
ATOM     11  C   UNL A   1      34.448  24.569  25.731  1.00  0.00     0.017 A 
ATOM     12  C   UNL A   1      32.336  23.921  26.638  1.00  0.00     0.136 A 
ATOM     13  F   UNL A   1      31.438  23.051  27.101  1.00  0.00    -0.206 F 
BRANCH   8  14
ATOM     14  C   UNL A   1      32.069  27.513  25.541  1.00  0.00     0.001 A 
ATOM     15  C   UNL A   1      30.753  28.939  24.051  1.00  0.00     0.060 A 
ATOM     16  C   UNL A   1      31.123  30.066  24.790  1.00  0.00     0.017 A 
ATOM     17  C   UNL A   1      31.214  27.673  24.435  1.00  0.00     0.026 A 
ATOM     18  C   UNL A   1      31.943  29.920  25.911  1.00  0.00     0.022 A 
ATOM     19  C   UNL A   1      32.415  28.657  26.284  1.00  0.00     0.048 A 
ATOM     20  Cl  UNL A   1      33.468  28.573  27.655  1.00  0.00    -0.084 Cl
BRANCH  15  21
ATOM     21  C   UNL A   1      29.894  29.025  22.842  1.00  0.00     0.337 C 
ATOM     22  O   UNL A   1      29.795  28.130  22.024  1.00  0.00    -0.246 OA
BRANCH  21  23
ATOM     23  O   UNL A   1      29.312  30.248  22.770  1.00  0.00    -0.465 OA
ATOM     24  C   UNL A   1      28.487  30.419  21.615  1.00  0.00     0.282 C 
ENDBRANCH  21  23
ENDBRANCH  15  21
ENDBRANCH   8  14
ENDBRANCH   4   7
ENDBRANCH   2   3
ENDBRANCH   1   2
BRANCH   1  25
ATOM     25  C   UNL A   1      37.968  20.789  25.241  1.00  0.00     0.023 C 
BRANCH  25  26
ATOM     26  C   UNL A   1      39.312  20.929  25.944  1.00  0.00     0.116 C 
BRANCH  26  27
ATOM     27  N   UNL A   1      40.095  19.700  25.950  1.00  0.00    -0.352 N 
ATOM     28  C   UNL A   1      41.457  19.570  26.093  1.00  0.00     0.251 C 
ATOM     29  H   UNL A   1      39.589  18.863  25.838  1.00  0.00     0.163 HD
ATOM     30  O   UNL A   1      42.003  18.479  25.975  1.00  0.00    -0.269 OA
BRANCH  28  31
ATOM     31  C   UNL A   1      42.250  20.786  26.353  1.00  0.00     0.039 A 
ATOM     32  C   UNL A   1      42.607  21.604  25.280  1.00  0.00     0.014 A 
ATOM     33  C   UNL A   1      42.544  21.160  27.667  1.00  0.00     0.014 A 
ATOM     34  C   UNL A   1      43.195  22.844  25.533  1.00  0.00     0.010 A 
ATOM     35  C   UNL A   1      43.055  22.428  27.918  1.00  0.00     0.010 A 
ATOM     36  C   UNL A   1      43.381  23.284  26.855  1.00  0.00    -0.014 A 
BRANCH  36  37
ATOM     37  C   UNL A   1      43.884  24.648  27.151  1.00  0.00     0.031 A 
ATOM     38  C   UNL A   1      42.949  25.699  27.682  1.00  0.00     0.074 A 
ATOM     39  C   UNL A   1      45.162  24.964  26.860  1.00  0.00     0.049 A 
ATOM     40  N   UNL A   1      43.187  26.959  27.933  1.00  0.00    -0.248 NA
ATOM     41  C   UNL A   1      41.559  25.289  27.941  1.00  0.00     0.031 C 
ATOM     42  C   UNL A   1      46.147  24.049  26.278  1.00  0.00     0.029 A 
ATOM     43  N   UNL A   1      45.848  26.145  26.993  1.00  0.00    -0.354 N 
ATOM     44  C   UNL A   1      41.978  27.498  28.352  1.00  0.00     0.074 A 
ATOM     45  C   UNL A   1      40.996  26.439  28.284  1.00  0.00     0.031 C 
ATOM     46  C   UNL A   1      47.312  24.698  26.119  1.00  0.00     0.029 A 
ATOM     47  C   UNL A   1      47.149  26.083  26.548  1.00  0.00     0.049 A 
ATOM     48  H   UNL A   1      45.447  26.961  27.372  1.00  0.00     0.167 HD
ATOM     49  C   UNL A   1      41.715  28.753  28.783  1.00  0.00     0.034 A 
ATOM     50  C   UNL A   1      48.101  27.035  26.483  1.00  0.00     0.034 A 
ATOM     51  C   UNL A   1      42.704  29.793  28.881  1.00  0.00     0.049 A 
ATOM     52  C   UNL A   1      47.787  28.418  26.986  1.00  0.00     0.074 A 
ATOM     53  C   UNL A   1      42.549  31.076  29.372  1.00  0.00     0.029 A 
ATOM     54  N   UNL A   1      44.025  29.673  28.481  1.00  0.00    -0.354 N 
ATOM     55  N   UNL A   1      46.670  28.874  27.496  1.00  0.00    -0.248 NA
ATOM     56  C   UNL A   1      48.871  29.409  26.934  1.00  0.00     0.031 C 
ATOM     57  C   UNL A   1      43.768  31.745  29.237  1.00  0.00     0.029 A 
ATOM     58  C   UNL A   1      44.695  30.863  28.705  1.00  0.00     0.049 A 
ATOM     59  H   UNL A   1      44.427  28.862  28.093  1.00  0.00     0.167 HD
ATOM     60  C   UNL A   1      46.926  30.190  27.863  1.00  0.00     0.074 A 
ATOM     61  C   UNL A   1      48.311  30.454  27.529  1.00  0.00     0.031 C 
ATOM     62  C   UNL A   1      46.087  31.099  28.418  1.00  0.00     0.034 A 
BRANCH  49  63
ATOM     63  C   UNL A   1      40.315  29.067  29.241  1.00  0.00     0.023 A 
ATOM     64  C   UNL A   1      39.334  29.413  28.288  1.00  0.00     0.012 A 
ATOM     65  C   UNL A   1      39.945  28.923  30.593  1.00  0.00     0.148 A 
ATOM     66  C   UNL A   1      38.013  29.631  28.677  1.00  0.00     0.002 A 
ATOM     67  C   UNL A   1      38.617  29.092  30.964  1.00  0.00     0.091 A 
ATOM     68  F   UNL A   1      40.897  28.614  31.485  1.00  0.00    -0.205 F 
ATOM     69  C   UNL A   1      37.652  29.456  30.010  1.00  0.00     0.022 A 
BRANCH  67  70
ATOM     70  S   UNL A   1      38.031  28.802  32.636  1.00  0.00     0.127 S 
ATOM     71  O   UNL A   1      36.652  29.284  32.554  1.00  0.00    -0.237 OA
ATOM     72  O   UNL A   1      38.163  27.350  32.759  1.00  0.00    -0.237 OA
ATOM     73  O   UNL A   1      38.905  29.571  33.511  1.00  0.00    -0.744 OA
ENDBRANCH  67  70
ENDBRANCH  49  63
BRANCH  50  74
ATOM     74  C   UNL A   1      49.463  26.686  25.987  1.00  0.00     0.023 A 
ATOM     75  C   UNL A   1      50.298  25.871  26.776  1.00  0.00     0.012 A 
ATOM     76  C   UNL A   1      49.915  27.109  24.722  1.00  0.00     0.148 A 
ATOM     77  C   UNL A   1      51.566  25.504  26.326  1.00  0.00     0.002 A 
ATOM     78  C   UNL A   1      51.154  26.690  24.255  1.00  0.00     0.091 A 
ATOM     79  F   UNL A   1      49.109  27.891  23.991  1.00  0.00    -0.205 F 
ATOM     80  C   UNL A   1      51.989  25.901  25.062  1.00  0.00     0.022 A 
BRANCH  78  81
ATOM     81  S   UNL A   1      51.726  27.035  22.586  1.00  0.00     0.127 S 
ATOM     82  O   UNL A   1      52.874  26.139  22.472  1.00  0.00    -0.237 OA
ATOM     83  O   UNL A   1      50.562  26.651  21.787  1.00  0.00    -0.237 OA
ATOM     84  O   UNL A   1      52.033  28.457  22.559  1.00  0.00    -0.744 OA
ENDBRANCH  78  81
ENDBRANCH  50  74
BRANCH  62  85
ATOM     85  C   UNL A   1      46.635  32.464  28.748  1.00  0.00     0.023 A 
ATOM     86  C   UNL A   1      47.218  32.704  30.007  1.00  0.00     0.012 A 
ATOM     87  C   UNL A   1      46.671  33.473  27.764  1.00  0.00     0.148 A 
ATOM     88  C   UNL A   1      47.806  33.936  30.290  1.00  0.00     0.002 A 
ATOM     89  C   UNL A   1      47.308  34.678  28.035  1.00  0.00     0.091 A 
ATOM     90  F   UNL A   1      46.096  33.230  26.576  1.00  0.00    -0.205 F 
ATOM     91  C   UNL A   1      47.864  34.916  29.302  1.00  0.00     0.022 A 
BRANCH  89  92
ATOM     92  S   UNL A   1      47.530  35.954  26.790  1.00  0.00     0.127 S 
ATOM     93  O   UNL A   1      46.148  36.344  26.514  1.00  0.00    -0.237 OA
ATOM     94  O   UNL A   1      48.315  36.956  27.512  1.00  0.00    -0.237 OA
ATOM     95  O   UNL A   1      48.231  35.319  25.681  1.00  0.00    -0.744 OA
ENDBRANCH  89  92
ENDBRANCH  62  85
ENDBRANCH  36  37
ENDBRANCH  28  31
ENDBRANCH  26  27
ENDBRANCH  25  26
ENDBRANCH   1  25
TORSDOF 17
ENDMDL
MODEL 3
REMARK VINA RESULT:     -12.0      1.838      7.718
REMARK SMILES COC(=O)c1ccc(Cl)c(-c2ccc(C(=O)NCCCCNC(=O)c3ccc(-c4c5nc(c(-c6cccc(S(=O)(=O)[O-])c6F)c6ccc([nH]6)c(-c6cccc(S(=O)(=O)[O-])c6F)c6nc(c(-c7cccc(S(=O)(=O)[O-])c7F)c7ccc4[nH]7)C=C6)C=C5)cc3)c(F)c2)c1
REMARK SMILES IDX 19 1 18 2 17 3 15 4 16 5 14 7 11 8 12 9 90 10 13 11 88 12
REMARK SMILES IDX 89 13 10 14 5 15 6 16 91 17 7 18 8 19 9 20 3 21 4 22 2 23
REMARK SMILES IDX 1 24 20 25 21 26 22 27 23 28 24 30 25 31 26 32 87 33 27 34
REMARK SMILES IDX 86 35 28 36 29 37 30 38 80 39 31 40 85 41 79 42 81 43 32 44
REMARK SMILES IDX 84 45 78 46 77 47 33 49 65 50 45 51 64 52 46 53 49 54 63 55
REMARK SMILES IDX 82 56 47 57 48 58 62 60 83 61 50 62 34 63 35 64 43 65 36 66
REMARK SMILES IDX 38 67 44 68 37 69 39 70 40 71 41 72 42 73 66 74 67 75 75 76
REMARK SMILES IDX 68 77 70 78 76 79 69 80 71 81 72 82 73 83 74 84 51 85 52 86
REMARK SMILES IDX 60 87 53 88 55 89 61 90 54 91 56 92 57 93 58 94 59 95
REMARK H PARENT 17 6 22 29 81 48 49 59
REMARK Flexibility Score: inf
ROOT
ATOM      1  C   UNL A   1      35.078  20.399  25.069  1.00  0.00     0.023 C 
ENDROOT
BRANCH   1   2
ATOM      2  C   UNL A   1      33.603  20.488  25.472  1.00  0.00     0.116 C 
BRANCH   2   3
ATOM      3  N   UNL A   1      33.473  21.009  26.817  1.00  0.00    -0.352 N 
ATOM      4  C   UNL A   1      33.092  22.225  27.315  1.00  0.00     0.254 C 
ATOM      5  O   UNL A   1      33.079  22.332  28.545  1.00  0.00    -0.269 OA
ATOM      6  H   UNL A   1      33.705  20.354  27.515  1.00  0.00     0.163 HD
BRANCH   4   7
ATOM      7  C   UNL A   1      32.644  23.399  26.510  1.00  0.00     0.075 A 
ATOM      8  C   UNL A   1      32.067  25.724  24.965  1.00  0.00    -0.014 A 
ATOM      9  C   UNL A   1      33.373  25.458  25.383  1.00  0.00     0.010 A 
ATOM     10  C   UNL A   1      31.067  24.810  25.312  1.00  0.00     0.048 A 
ATOM     11  C   UNL A   1      33.651  24.317  26.149  1.00  0.00     0.017 A 
ATOM     12  C   UNL A   1      31.359  23.656  26.040  1.00  0.00     0.136 A 
ATOM     13  F   UNL A   1      30.339  22.810  26.194  1.00  0.00    -0.206 F 
BRANCH   8  14
ATOM     14  C   UNL A   1      31.713  26.906  24.172  1.00  0.00     0.001 A 
ATOM     15  C   UNL A   1      31.049  29.261  24.164  1.00  0.00     0.060 A 
ATOM     16  C   UNL A   1      30.771  29.185  22.796  1.00  0.00     0.017 A 
ATOM     17  C   UNL A   1      31.529  28.132  24.839  1.00  0.00     0.026 A 
ATOM     18  C   UNL A   1      30.981  27.986  22.112  1.00  0.00     0.022 A 
ATOM     19  C   UNL A   1      31.446  26.854  22.792  1.00  0.00     0.048 A 
ATOM     20  Cl  UNL A   1      31.628  25.395  21.880  1.00  0.00    -0.084 Cl
BRANCH  15  21
ATOM     21  C   UNL A   1      30.838  30.501  24.953  1.00  0.00     0.337 C 
ATOM     22  O   UNL A   1      29.951  31.301  24.721  1.00  0.00    -0.246 OA
BRANCH  21  23
ATOM     23  O   UNL A   1      31.805  30.623  25.897  1.00  0.00    -0.465 OA
ATOM     24  C   UNL A   1      31.579  31.703  26.806  1.00  0.00     0.282 C 
ENDBRANCH  21  23
ENDBRANCH  15  21
ENDBRANCH   8  14
ENDBRANCH   4   7
ENDBRANCH   2   3
ENDBRANCH   1   2
BRANCH   1  25
ATOM     25  C   UNL A   1      35.972  21.457  25.718  1.00  0.00     0.023 C 
BRANCH  25  26
ATOM     26  C   UNL A   1      37.349  21.605  25.082  1.00  0.00     0.116 C 
BRANCH  26  27
ATOM     27  N   UNL A   1      38.258  20.513  25.406  1.00  0.00    -0.352 N 
ATOM     28  C   UNL A   1      39.451  20.585  26.086  1.00  0.00     0.251 C 
ATOM     29  H   UNL A   1      37.986  19.617  25.101  1.00  0.00     0.163 HD
ATOM     30  O   UNL A   1      40.174  19.601  26.200  1.00  0.00    -0.269 OA
BRANCH  28  31
ATOM     31  C   UNL A   1      39.861  21.889  26.640  1.00  0.00     0.039 A 
ATOM     32  C   UNL A   1      40.852  21.927  27.622  1.00  0.00     0.014 A 
ATOM     33  C   UNL A   1      39.335  23.070  26.107  1.00  0.00     0.014 A 
ATOM     34  C   UNL A   1      41.374  23.160  28.018  1.00  0.00     0.010 A 
ATOM     35  C   UNL A   1      39.912  24.287  26.445  1.00  0.00     0.010 A 
ATOM     36  C   UNL A   1      40.940  24.345  27.399  1.00  0.00    -0.014 A 
BRANCH  36  37
ATOM     37  C   UNL A   1      41.569  25.652  27.709  1.00  0.00     0.031 A 
ATOM     38  C   UNL A   1      40.797  26.705  28.453  1.00  0.00     0.074 A 
ATOM     39  C   UNL A   1      42.806  25.922  27.243  1.00  0.00     0.049 A 
ATOM     40  N   UNL A   1      41.151  27.926  28.753  1.00  0.00    -0.248 NA
ATOM     41  C   UNL A   1      39.439  26.349  28.899  1.00  0.00     0.031 C 
ATOM     42  C   UNL A   1      43.629  25.007  26.449  1.00  0.00     0.029 A 
ATOM     43  N   UNL A   1      43.579  27.051  27.350  1.00  0.00    -0.354 N 
ATOM     44  C   UNL A   1      40.058  28.493  29.395  1.00  0.00     0.074 A 
ATOM     45  C   UNL A   1      39.011  27.496  29.408  1.00  0.00     0.031 C 
ATOM     46  C   UNL A   1      44.795  25.604  26.155  1.00  0.00     0.029 A 
ATOM     47  C   UNL A   1      44.789  26.957  26.702  1.00  0.00     0.049 A 
ATOM     48  H   UNL A   1      43.295  27.854  27.844  1.00  0.00     0.167 HD
ATOM     49  C   UNL A   1      39.947  29.721  29.951  1.00  0.00     0.034 A 
ATOM     50  C   UNL A   1      45.780  27.859  26.555  1.00  0.00     0.034 A 
ATOM     51  C   UNL A   1      41.004  30.696  29.966  1.00  0.00     0.049 A 
ATOM     52  C   UNL A   1      45.637  29.212  27.199  1.00  0.00     0.074 A 
ATOM     53  C   UNL A   1      41.009  31.942  30.565  1.00  0.00     0.029 A 
ATOM     54  N   UNL A   1      42.238  30.539  29.354  1.00  0.00    -0.354 N 
ATOM     55  N   UNL A   1      44.643  29.684  27.911  1.00  0.00    -0.248 NA
ATOM     56  C   UNL A   1      46.762  30.145  27.048  1.00  0.00     0.031 C 
ATOM     57  C   UNL A   1      42.234  32.554  30.288  1.00  0.00     0.029 A 
ATOM     58  C   UNL A   1      43.010  31.670  29.554  1.00  0.00     0.049 A 
ATOM     59  H   UNL A   1      42.522  29.742  28.851  1.00  0.00     0.167 HD
ATOM     60  C   UNL A   1      45.037  30.951  28.326  1.00  0.00     0.074 A 
ATOM     61  C   UNL A   1      46.368  31.167  27.796  1.00  0.00     0.031 C 
ATOM     62  C   UNL A   1      44.354  31.854  29.069  1.00  0.00     0.034 A 
BRANCH  49  63
ATOM     63  C   UNL A   1      38.656  30.071  30.645  1.00  0.00     0.023 A 
ATOM     64  C   UNL A   1      38.465  29.685  31.988  1.00  0.00     0.012 A 
ATOM     65  C   UNL A   1      37.681  30.861  30.007  1.00  0.00     0.148 A 
ATOM     66  C   UNL A   1      37.314  30.064  32.678  1.00  0.00     0.002 A 
ATOM     67  C   UNL A   1      36.561  31.278  30.717  1.00  0.00     0.091 A 
ATOM     68  F   UNL A   1      37.873  31.200  28.724  1.00  0.00    -0.205 F 
ATOM     69  C   UNL A   1      36.371  30.871  32.048  1.00  0.00     0.022 A 
BRANCH  67  70
ATOM     70  S   UNL A   1      35.333  32.393  30.029  1.00  0.00     0.127 S 
ATOM     71  O   UNL A   1      34.406  32.539  31.151  1.00  0.00    -0.237 OA
ATOM     72  O   UNL A   1      36.131  33.583  29.738  1.00  0.00    -0.237 OA
ATOM     73  O   UNL A   1      34.787  31.720  28.858  1.00  0.00    -0.744 OA
ENDBRANCH  67  70
ENDBRANCH  49  63
BRANCH  50  74
ATOM     74  C   UNL A   1      47.024  27.479  25.828  1.00  0.00     0.023 A 
ATOM     75  C   UNL A   1      48.026  26.753  26.502  1.00  0.00     0.012 A 
ATOM     76  C   UNL A   1      47.200  27.785  24.464  1.00  0.00     0.148 A 
ATOM     77  C   UNL A   1      49.188  26.359  25.839  1.00  0.00     0.002 A 
ATOM     78  C   UNL A   1      48.332  27.337  23.795  1.00  0.00     0.091 A 
ATOM     79  F   UNL A   1      46.240  28.485  23.843  1.00  0.00    -0.205 F 
ATOM     80  C   UNL A   1      49.336  26.639  24.484  1.00  0.00     0.022 A 
BRANCH  78  81
ATOM     81  S   UNL A   1      48.546  27.528  22.021  1.00  0.00     0.127 S 
ATOM     82  O   UNL A   1      47.253  28.079  21.621  1.00  0.00    -0.237 OA
ATOM     83  O   UNL A   1      49.665  28.467  21.954  1.00  0.00    -0.237 OA
ATOM     84  O   UNL A   1      48.845  26.196  21.514  1.00  0.00    -0.744 OA
ENDBRANCH  78  81
ENDBRANCH  50  74
BRANCH  62  85
ATOM     85  C   UNL A   1      45.033  33.158  29.404  1.00  0.00     0.023 A 
ATOM     86  C   UNL A   1      45.841  33.256  30.553  1.00  0.00     0.012 A 
ATOM     87  C   UNL A   1      44.956  34.250  28.516  1.00  0.00     0.148 A 
ATOM     88  C   UNL A   1      46.543  34.429  30.825  1.00  0.00     0.002 A 
ATOM     89  C   UNL A   1      45.703  35.395  28.765  1.00  0.00     0.091 A 
ATOM     90  F   UNL A   1      44.168  34.142  27.436  1.00  0.00    -0.205 F 
ATOM     91  C   UNL A   1      46.487  35.491  29.926  1.00  0.00     0.022 A 
BRANCH  89  92
ATOM     92  S   UNL A   1      45.780  36.768  27.609  1.00  0.00     0.127 S 
ATOM     93  O   UNL A   1      46.305  36.117  26.409  1.00  0.00    -0.237 OA
ATOM     94  O   UNL A   1      44.378  37.174  27.519  1.00  0.00    -0.237 OA
ATOM     95  O   UNL A   1      46.661  37.757  28.215  1.00  0.00    -0.744 OA
ENDBRANCH  89  92
ENDBRANCH  62  85
ENDBRANCH  36  37
ENDBRANCH  28  31
ENDBRANCH  26  27
ENDBRANCH  25  26
ENDBRANCH   1  25
TORSDOF 17
ENDMDL
