MODEL 1
REMARK VINA RESULT:     -11.0      0.000      0.000
REMARK SMILES CCCC[C@H](C(=O)NCCCCNC(=O)c1ccc(-c2c3nc(c(-c4cccc(S(=O)(=O)[O-])c4F)c4ccc([nH]4)c(-c4cccc(S(=O)(=O)[O-])c4F)c4nc(c(-c5cccc(S(=O)(=O)[O-])c5F)c5ccc2[nH]5)C=C4)C=C3)cc1)[C@](C)(O)c1ccc(Cl)c(Cl)c1
REMARK SMILES IDX 10 1 9 2 8 3 6 4 7 5 5 7 4 8 3 9 2 10 1 11 79 12 80 13 81 14
REMARK SMILES IDX 82 16 83 17 89 18 84 19 87 20 85 21 88 22 86 23 11 24 12 25
REMARK SMILES IDX 13 26 14 27 15 29 16 30 17 31 78 32 18 33 77 34 19 35 20 36
REMARK SMILES IDX 21 37 71 38 22 39 76 40 70 41 72 42 23 43 75 44 69 45 68 46
REMARK SMILES IDX 24 48 56 49 36 50 55 51 37 52 40 53 54 54 73 55 38 56 39 57
REMARK SMILES IDX 53 59 74 60 41 61 25 62 26 63 34 64 27 65 29 66 35 67 28 68
REMARK SMILES IDX 30 69 31 70 32 71 33 72 57 73 58 74 66 75 59 76 61 77 67 78
REMARK SMILES IDX 60 79 62 80 63 81 64 82 65 83 42 84 43 85 51 86 44 87 46 88
REMARK SMILES IDX 52 89 45 90 47 91 48 92 49 93 50 94
REMARK H PARENT 8 6 81 15 13 28 72 47 40 58
REMARK Flexibility Score: inf
ROOT
ATOM      1  C   UNL A   1      31.593  30.429  26.765  1.00  0.00     0.023 C 
ENDROOT
BRANCH   1   2
ATOM      2  C   UNL A   1      32.311  29.911  25.523  1.00  0.00     0.116 C 
BRANCH   2   3
ATOM      3  N   UNL A   1      31.533  30.087  24.310  1.00  0.00    -0.356 N 
ATOM      4  C   UNL A   1      30.950  29.152  23.503  1.00  0.00     0.226 C 
ATOM      5  O   UNL A   1      30.230  29.537  22.579  1.00  0.00    -0.275 OA
ATOM      6  H   UNL A   1      31.405  31.021  24.027  1.00  0.00     0.163 HD
BRANCH   4   7
ATOM      7  C   UNL A   1      31.186  27.668  23.751  1.00  0.00     0.114 C 
BRANCH   7   8
ATOM      8  C   UNL A   1      29.873  26.839  23.788  1.00  0.00     0.017 C 
BRANCH   8   9
ATOM      9  C   UNL A   1      29.773  25.593  24.676  1.00  0.00     0.001 C 
BRANCH   9  10
ATOM     10  C   UNL A   1      30.302  25.714  26.109  1.00  0.00    -0.003 C 
ATOM     11  C   UNL A   1      31.472  24.792  26.414  1.00  0.00     0.004 C 
ENDBRANCH   9  10
ENDBRANCH   8   9
ENDBRANCH   7   8
BRANCH   7  12
ATOM     12  C   UNL A   1      32.189  27.101  22.675  1.00  0.00     0.098 C 
ATOM     13  C   UNL A   1      33.314  28.098  22.336  1.00  0.00     0.048 C 
BRANCH  12  14
ATOM     14  O   UNL A   1      31.468  26.842  21.459  1.00  0.00    -0.385 OA
ATOM     15  H   UNL A   1      31.776  27.446  20.765  1.00  0.00     0.211 HD
ENDBRANCH  12  14
BRANCH  12  16
ATOM     16  C   UNL A   1      32.866  25.779  23.092  1.00  0.00    -0.014 A 
ATOM     17  C   UNL A   1      33.981  25.740  23.947  1.00  0.00     0.008 A 
ATOM     18  C   UNL A   1      32.391  24.552  22.586  1.00  0.00     0.028 A 
ATOM     19  C   UNL A   1      34.552  24.523  24.334  1.00  0.00     0.022 A 
ATOM     20  C   UNL A   1      32.971  23.332  22.955  1.00  0.00     0.060 A 
ATOM     21  C   UNL A   1      34.046  23.318  23.845  1.00  0.00     0.059 A 
ATOM     22  Cl  UNL A   1      32.315  21.885  22.274  1.00  0.00    -0.083 Cl
ATOM     23  Cl  UNL A   1      34.798  21.856  24.375  1.00  0.00    -0.083 Cl
ENDBRANCH  12  16
ENDBRANCH   7  12
ENDBRANCH   4   7
ENDBRANCH   2   3
ENDBRANCH   1   2
BRANCH   1  24
ATOM     24  C   UNL A   1      31.511  31.953  26.876  1.00  0.00     0.023 C 
BRANCH  24  25
ATOM     25  C   UNL A   1      32.815  32.664  27.238  1.00  0.00     0.116 C 
BRANCH  25  26
ATOM     26  N   UNL A   1      32.614  34.055  27.619  1.00  0.00    -0.352 N 
ATOM     27  C   UNL A   1      33.213  34.791  28.613  1.00  0.00     0.251 C 
ATOM     28  H   UNL A   1      31.949  34.542  27.082  1.00  0.00     0.163 HD
ATOM     29  O   UNL A   1      32.789  35.915  28.865  1.00  0.00    -0.269 OA
BRANCH  27  30
ATOM     30  C   UNL A   1      34.342  34.233  29.392  1.00  0.00     0.039 A 
ATOM     31  C   UNL A   1      34.059  33.497  30.544  1.00  0.00     0.014 A 
ATOM     32  C   UNL A   1      35.669  34.440  29.004  1.00  0.00     0.014 A 
ATOM     33  C   UNL A   1      35.103  32.920  31.273  1.00  0.00     0.010 A 
ATOM     34  C   UNL A   1      36.702  33.799  29.688  1.00  0.00     0.010 A 
ATOM     35  C   UNL A   1      36.433  33.037  30.832  1.00  0.00    -0.014 A 
BRANCH  35  36
ATOM     36  C   UNL A   1      37.527  32.329  31.548  1.00  0.00     0.031 A 
ATOM     37  C   UNL A   1      38.282  31.199  30.899  1.00  0.00     0.074 A 
ATOM     38  C   UNL A   1      37.811  32.676  32.820  1.00  0.00     0.049 A 
ATOM     39  N   UNL A   1      39.303  30.523  31.359  1.00  0.00    -0.248 NA
ATOM     40  C   UNL A   1      37.816  30.752  29.578  1.00  0.00     0.031 C 
ATOM     41  C   UNL A   1      37.082  33.676  33.605  1.00  0.00     0.029 A 
ATOM     42  N   UNL A   1      38.778  32.220  33.682  1.00  0.00    -0.354 N 
ATOM     43  C   UNL A   1      39.585  29.556  30.401  1.00  0.00     0.074 A 
ATOM     44  C   UNL A   1      38.601  29.708  29.351  1.00  0.00     0.031 C 
ATOM     45  C   UNL A   1      37.638  33.771  34.822  1.00  0.00     0.029 A 
ATOM     46  C   UNL A   1      38.751  32.831  34.913  1.00  0.00     0.049 A 
ATOM     47  H   UNL A   1      39.427  31.520  33.441  1.00  0.00     0.167 HD
ATOM     48  C   UNL A   1      40.587  28.645  30.381  1.00  0.00     0.034 A 
ATOM     49  C   UNL A   1      39.542  32.667  35.991  1.00  0.00     0.034 A 
ATOM     50  C   UNL A   1      41.586  28.520  31.409  1.00  0.00     0.049 A 
ATOM     51  C   UNL A   1      40.701  31.712  35.909  1.00  0.00     0.074 A 
ATOM     52  C   UNL A   1      42.700  27.697  31.435  1.00  0.00     0.029 A 
ATOM     53  N   UNL A   1      41.590  29.229  32.601  1.00  0.00    -0.354 N 
ATOM     54  N   UNL A   1      41.066  30.942  34.914  1.00  0.00    -0.248 NA
ATOM     55  C   UNL A   1      41.586  31.642  37.080  1.00  0.00     0.031 C 
ATOM     56  C   UNL A   1      43.363  27.894  32.651  1.00  0.00     0.029 A 
ATOM     57  C   UNL A   1      42.680  28.860  33.371  1.00  0.00     0.049 A 
ATOM     58  H   UNL A   1      40.916  29.898  32.861  1.00  0.00     0.167 HD
ATOM     59  C   UNL A   1      42.241  30.321  35.323  1.00  0.00     0.074 A 
ATOM     60  C   UNL A   1      42.540  30.828  36.647  1.00  0.00     0.031 C 
ATOM     61  C   UNL A   1      42.995  29.403  34.669  1.00  0.00     0.034 A 
BRANCH  48  62
ATOM     62  C   UNL A   1      40.691  27.743  29.176  1.00  0.00     0.023 A 
ATOM     63  C   UNL A   1      39.873  26.596  29.095  1.00  0.00     0.012 A 
ATOM     64  C   UNL A   1      41.545  28.058  28.102  1.00  0.00     0.148 A 
ATOM     65  C   UNL A   1      39.930  25.759  27.981  1.00  0.00     0.002 A 
ATOM     66  C   UNL A   1      41.564  27.243  26.975  1.00  0.00     0.091 A 
ATOM     67  F   UNL A   1      42.331  29.138  28.205  1.00  0.00    -0.205 F 
ATOM     68  C   UNL A   1      40.766  26.087  26.918  1.00  0.00     0.022 A 
BRANCH  66  69
ATOM     69  S   UNL A   1      42.545  27.625  25.520  1.00  0.00     0.127 S 
ATOM     70  O   UNL A   1      42.264  26.473  24.664  1.00  0.00    -0.237 OA
ATOM     71  O   UNL A   1      41.947  28.882  25.065  1.00  0.00    -0.237 OA
ATOM     72  O   UNL A   1      43.920  27.741  25.984  1.00  0.00    -0.744 OA
ENDBRANCH  66  69
ENDBRANCH  48  62
BRANCH  49  73
ATOM     73  C   UNL A   1      39.315  33.496  37.209  1.00  0.00     0.023 A 
ATOM     74  C   UNL A   1      39.830  34.806  37.264  1.00  0.00     0.012 A 
ATOM     75  C   UNL A   1      38.556  33.011  38.291  1.00  0.00     0.148 A 
ATOM     76  C   UNL A   1      39.623  35.605  38.388  1.00  0.00     0.002 A 
ATOM     77  C   UNL A   1      38.303  33.833  39.383  1.00  0.00     0.091 A 
ATOM     78  F   UNL A   1      38.083  31.759  38.224  1.00  0.00    -0.205 F 
ATOM     79  C   UNL A   1      38.851  35.125  39.441  1.00  0.00     0.022 A 
BRANCH  77  80
ATOM     80  S   UNL A   1      37.202  33.348  40.716  1.00  0.00     0.127 S 
ATOM     81  O   UNL A   1      37.098  34.585  41.484  1.00  0.00    -0.237 OA
ATOM     82  O   UNL A   1      35.991  32.971  39.986  1.00  0.00    -0.237 OA
ATOM     83  O   UNL A   1      37.866  32.237  41.386  1.00  0.00    -0.744 OA
ENDBRANCH  77  80
ENDBRANCH  49  73
BRANCH  61  84
ATOM     84  C   UNL A   1      44.238  28.906  35.361  1.00  0.00     0.023 A 
ATOM     85  C   UNL A   1      45.482  29.512  35.091  1.00  0.00     0.012 A 
ATOM     86  C   UNL A   1      44.168  27.867  36.309  1.00  0.00     0.148 A 
ATOM     87  C   UNL A   1      46.643  29.059  35.718  1.00  0.00     0.002 A 
ATOM     88  C   UNL A   1      45.321  27.455  36.968  1.00  0.00     0.091 A 
ATOM     89  F   UNL A   1      42.981  27.286  36.539  1.00  0.00    -0.205 F 
ATOM     90  C   UNL A   1      46.561  28.038  36.663  1.00  0.00     0.022 A 
BRANCH  88  91
ATOM     91  S   UNL A   1      45.285  26.215  38.267  1.00  0.00     0.127 S 
ATOM     92  O   UNL A   1      44.316  26.788  39.200  1.00  0.00    -0.237 OA
ATOM     93  O   UNL A   1      44.814  25.026  37.555  1.00  0.00    -0.237 OA
ATOM     94  O   UNL A   1      46.653  26.117  38.758  1.00  0.00    -0.744 OA
ENDBRANCH  88  91
ENDBRANCH  61  84
ENDBRANCH  35  36
ENDBRANCH  27  30
ENDBRANCH  25  26
ENDBRANCH  24  25
ENDBRANCH   1  24
TORSDOF 20
ENDMDL
MODEL 2
REMARK VINA RESULT:     -10.9      5.856      8.750
REMARK SMILES CCCC[C@H](C(=O)NCCCCNC(=O)c1ccc(-c2c3nc(c(-c4cccc(S(=O)(=O)[O-])c4F)c4ccc([nH]4)c(-c4cccc(S(=O)(=O)[O-])c4F)c4nc(c(-c5cccc(S(=O)(=O)[O-])c5F)c5ccc2[nH]5)C=C4)C=C3)cc1)[C@](C)(O)c1ccc(Cl)c(Cl)c1
REMARK SMILES IDX 10 1 9 2 8 3 6 4 7 5 5 7 4 8 3 9 2 10 1 11 79 12 80 13 81 14
REMARK SMILES IDX 82 16 83 17 89 18 84 19 87 20 85 21 88 22 86 23 11 24 12 25
REMARK SMILES IDX 13 26 14 27 15 29 16 30 17 31 78 32 18 33 77 34 19 35 20 36
REMARK SMILES IDX 21 37 71 38 22 39 76 40 70 41 72 42 23 43 75 44 69 45 68 46
REMARK SMILES IDX 24 48 56 49 36 50 55 51 37 52 40 53 54 54 73 55 38 56 39 57
REMARK SMILES IDX 53 59 74 60 41 61 25 62 26 63 34 64 27 65 29 66 35 67 28 68
REMARK SMILES IDX 30 69 31 70 32 71 33 72 57 73 58 74 66 75 59 76 61 77 67 78
REMARK SMILES IDX 60 79 62 80 63 81 64 82 65 83 42 84 43 85 51 86 44 87 46 88
REMARK SMILES IDX 52 89 45 90 47 91 48 92 49 93 50 94
REMARK H PARENT 8 6 81 15 13 28 72 47 40 58
REMARK Flexibility Score: inf
ROOT
ATOM      1  C   UNL A   1      35.575  22.859  23.593  1.00  0.00     0.023 C 
ENDROOT
BRANCH   1   2
ATOM      2  C   UNL A   1      34.401  23.822  23.736  1.00  0.00     0.116 C 
BRANCH   2   3
ATOM      3  N   UNL A   1      34.266  24.717  22.599  1.00  0.00    -0.356 N 
ATOM      4  C   UNL A   1      33.620  25.916  22.504  1.00  0.00     0.226 C 
ATOM      5  O   UNL A   1      33.735  26.567  21.463  1.00  0.00    -0.275 OA
ATOM      6  H   UNL A   1      34.710  24.414  21.775  1.00  0.00     0.163 HD
BRANCH   4   7
ATOM      7  C   UNL A   1      32.782  26.432  23.666  1.00  0.00     0.114 C 
BRANCH   7   8
ATOM      8  C   UNL A   1      32.939  27.960  23.902  1.00  0.00     0.017 C 
BRANCH   8   9
ATOM      9  C   UNL A   1      33.224  28.497  25.309  1.00  0.00     0.001 C 
BRANCH   9  10
ATOM     10  C   UNL A   1      32.014  28.879  26.168  1.00  0.00    -0.003 C 
ATOM     11  C   UNL A   1      31.479  27.739  27.021  1.00  0.00     0.004 C 
ENDBRANCH   9  10
ENDBRANCH   8   9
ENDBRANCH   7   8
BRANCH   7  12
ATOM     12  C   UNL A   1      31.270  26.041  23.448  1.00  0.00     0.098 C 
ATOM     13  C   UNL A   1      30.654  25.359  24.684  1.00  0.00     0.048 C 
BRANCH  12  14
ATOM     14  O   UNL A   1      31.185  25.106  22.358  1.00  0.00    -0.385 OA
ATOM     15  H   UNL A   1      30.576  24.389  22.595  1.00  0.00     0.211 HD
ENDBRANCH  12  14
BRANCH  12  16
ATOM     16  C   UNL A   1      30.364  27.236  23.091  1.00  0.00    -0.014 A 
ATOM     17  C   UNL A   1      30.837  28.358  22.389  1.00  0.00     0.008 A 
ATOM     18  C   UNL A   1      29.015  27.248  23.500  1.00  0.00     0.028 A 
ATOM     19  C   UNL A   1      29.982  29.413  22.050  1.00  0.00     0.022 A 
ATOM     20  C   UNL A   1      28.160  28.309  23.181  1.00  0.00     0.060 A 
ATOM     21  C   UNL A   1      28.643  29.388  22.440  1.00  0.00     0.059 A 
ATOM     22  Cl  UNL A   1      26.525  28.226  23.735  1.00  0.00    -0.083 Cl
ATOM     23  Cl  UNL A   1      27.646  30.722  21.977  1.00  0.00    -0.083 Cl
ENDBRANCH  12  16
ENDBRANCH   7  12
ENDBRANCH   4   7
ENDBRANCH   2   3
ENDBRANCH   1   2
BRANCH   1  24
ATOM     24  C   UNL A   1      35.653  21.772  24.667  1.00  0.00     0.023 C 
BRANCH  24  25
ATOM     25  C   UNL A   1      36.633  22.036  25.810  1.00  0.00     0.116 C 
BRANCH  25  26
ATOM     26  N   UNL A   1      37.732  21.082  25.846  1.00  0.00    -0.352 N 
ATOM     27  C   UNL A   1      39.062  21.281  26.127  1.00  0.00     0.251 C 
ATOM     28  H   UNL A   1      37.484  20.153  25.637  1.00  0.00     0.163 HD
ATOM     29  O   UNL A   1      39.856  20.360  25.954  1.00  0.00    -0.269 OA
BRANCH  27  30
ATOM     30  C   UNL A   1      39.545  22.594  26.610  1.00  0.00     0.039 A 
ATOM     31  C   UNL A   1      40.537  22.621  27.593  1.00  0.00     0.014 A 
ATOM     32  C   UNL A   1      39.022  23.792  26.114  1.00  0.00     0.014 A 
ATOM     33  C   UNL A   1      41.044  23.847  28.034  1.00  0.00     0.010 A 
ATOM     34  C   UNL A   1      39.583  25.010  26.499  1.00  0.00     0.010 A 
ATOM     35  C   UNL A   1      40.596  25.053  27.466  1.00  0.00    -0.014 A 
BRANCH  35  36
ATOM     36  C   UNL A   1      41.217  26.345  27.859  1.00  0.00     0.031 A 
ATOM     37  C   UNL A   1      42.639  26.673  27.489  1.00  0.00     0.074 A 
ATOM     38  C   UNL A   1      40.505  27.214  28.605  1.00  0.00     0.049 A 
ATOM     39  N   UNL A   1      43.307  27.779  27.696  1.00  0.00    -0.248 NA
ATOM     40  C   UNL A   1      43.420  25.619  26.824  1.00  0.00     0.031 C 
ATOM     41  C   UNL A   1      39.158  26.973  29.128  1.00  0.00     0.029 A 
ATOM     42  N   UNL A   1      40.817  28.470  29.065  1.00  0.00    -0.354 N 
ATOM     43  C   UNL A   1      44.591  27.546  27.216  1.00  0.00     0.074 A 
ATOM     44  C   UNL A   1      44.618  26.180  26.741  1.00  0.00     0.031 C 
ATOM     45  C   UNL A   1      38.753  28.050  29.817  1.00  0.00     0.029 A 
ATOM     46  C   UNL A   1      39.813  29.053  29.801  1.00  0.00     0.049 A 
ATOM     47  H   UNL A   1      41.679  28.911  28.884  1.00  0.00     0.167 HD
ATOM     48  C   UNL A   1      45.642  28.399  27.147  1.00  0.00     0.034 A 
ATOM     49  C   UNL A   1      39.745  30.264  30.387  1.00  0.00     0.034 A 
ATOM     50  C   UNL A   1      45.600  29.769  27.586  1.00  0.00     0.049 A 
ATOM     51  C   UNL A   1      40.891  31.223  30.220  1.00  0.00     0.074 A 
ATOM     52  C   UNL A   1      46.577  30.742  27.469  1.00  0.00     0.029 A 
ATOM     53  N   UNL A   1      44.528  30.360  28.237  1.00  0.00    -0.354 N 
ATOM     54  N   UNL A   1      42.027  31.049  29.591  1.00  0.00    -0.248 NA
ATOM     55  C   UNL A   1      40.724  32.564  30.799  1.00  0.00     0.031 C 
ATOM     56  C   UNL A   1      46.104  31.914  28.069  1.00  0.00     0.029 A 
ATOM     57  C   UNL A   1      44.821  31.681  28.534  1.00  0.00     0.049 A 
ATOM     58  H   UNL A   1      43.681  29.907  28.457  1.00  0.00     0.167 HD
ATOM     59  C   UNL A   1      42.697  32.265  29.668  1.00  0.00     0.074 A 
ATOM     60  C   UNL A   1      41.825  33.175  30.381  1.00  0.00     0.031 C 
ATOM     61  C   UNL A   1      43.929  32.593  29.205  1.00  0.00     0.034 A 
BRANCH  48  62
ATOM     62  C   UNL A   1      46.916  27.892  26.520  1.00  0.00     0.023 A 
ATOM     63  C   UNL A   1      47.887  27.265  27.329  1.00  0.00     0.012 A 
ATOM     64  C   UNL A   1      47.128  27.977  25.130  1.00  0.00     0.148 A 
ATOM     65  C   UNL A   1      49.063  26.765  26.772  1.00  0.00     0.002 A 
ATOM     66  C   UNL A   1      48.282  27.436  24.575  1.00  0.00     0.091 A 
ATOM     67  F   UNL A   1      46.206  28.594  24.379  1.00  0.00    -0.205 F 
ATOM     68  C   UNL A   1      49.256  26.841  25.395  1.00  0.00     0.022 A 
BRANCH  66  69
ATOM     69  S   UNL A   1      48.585  27.409  22.805  1.00  0.00     0.127 S 
ATOM     70  O   UNL A   1      49.879  28.084  22.717  1.00  0.00    -0.237 OA
ATOM     71  O   UNL A   1      48.627  25.973  22.520  1.00  0.00    -0.237 OA
ATOM     72  O   UNL A   1      47.466  28.114  22.197  1.00  0.00    -0.744 OA
ENDBRANCH  66  69
ENDBRANCH  48  62
BRANCH  49  73
ATOM     73  C   UNL A   1      38.505  30.668  31.109  1.00  0.00     0.023 A 
ATOM     74  C   UNL A   1      38.400  30.436  32.494  1.00  0.00     0.012 A 
ATOM     75  C   UNL A   1      37.449  31.315  30.440  1.00  0.00     0.148 A 
ATOM     76  C   UNL A   1      37.254  30.813  33.194  1.00  0.00     0.002 A 
ATOM     77  C   UNL A   1      36.335  31.742  31.154  1.00  0.00     0.091 A 
ATOM     78  F   UNL A   1      37.562  31.517  29.119  1.00  0.00    -0.205 F 
ATOM     79  C   UNL A   1      36.227  31.475  32.528  1.00  0.00     0.022 A 
BRANCH  77  80
ATOM     80  S   UNL A   1      35.033  32.726  30.405  1.00  0.00     0.127 S 
ATOM     81  O   UNL A   1      34.606  31.870  29.302  1.00  0.00    -0.237 OA
ATOM     82  O   UNL A   1      34.073  32.843  31.503  1.00  0.00    -0.237 OA
ATOM     83  O   UNL A   1      35.663  33.985  30.026  1.00  0.00    -0.744 OA
ENDBRANCH  77  80
ENDBRANCH  49  73
BRANCH  61  84
ATOM     84  C   UNL A   1      44.398  34.007  29.425  1.00  0.00     0.023 A 
ATOM     85  C   UNL A   1      44.984  34.370  30.655  1.00  0.00     0.012 A 
ATOM     86  C   UNL A   1      44.297  34.968  28.400  1.00  0.00     0.148 A 
ATOM     87  C   UNL A   1      45.417  35.678  30.877  1.00  0.00     0.002 A 
ATOM     88  C   UNL A   1      44.777  36.256  28.610  1.00  0.00     0.091 A 
ATOM     89  F   UNL A   1      43.719  34.613  27.242  1.00  0.00    -0.205 F 
ATOM     90  C   UNL A   1      45.323  36.617  29.852  1.00  0.00     0.022 A 
BRANCH  88  91
ATOM     91  S   UNL A   1      44.783  37.495  27.309  1.00  0.00     0.127 S 
ATOM     92  O   UNL A   1      45.730  36.922  26.355  1.00  0.00    -0.237 OA
ATOM     93  O   UNL A   1      43.389  37.488  26.862  1.00  0.00    -0.237 OA
ATOM     94  O   UNL A   1      45.201  38.736  27.948  1.00  0.00    -0.744 OA
ENDBRANCH  88  91
ENDBRANCH  61  84
ENDBRANCH  35  36
ENDBRANCH  27  30
ENDBRANCH  25  26
ENDBRANCH  24  25
ENDBRANCH   1  24
TORSDOF 20
ENDMDL
MODEL 3
REMARK VINA RESULT:     -10.9      5.330      8.318
REMARK SMILES CCCC[C@H](C(=O)NCCCCNC(=O)c1ccc(-c2c3nc(c(-c4cccc(S(=O)(=O)[O-])c4F)c4ccc([nH]4)c(-c4cccc(S(=O)(=O)[O-])c4F)c4nc(c(-c5cccc(S(=O)(=O)[O-])c5F)c5ccc2[nH]5)C=C4)C=C3)cc1)[C@](C)(O)c1ccc(Cl)c(Cl)c1
REMARK SMILES IDX 10 1 9 2 8 3 6 4 7 5 5 7 4 8 3 9 2 10 1 11 79 12 80 13 81 14
REMARK SMILES IDX 82 16 83 17 89 18 84 19 87 20 85 21 88 22 86 23 11 24 12 25
REMARK SMILES IDX 13 26 14 27 15 29 16 30 17 31 78 32 18 33 77 34 19 35 20 36
REMARK SMILES IDX 21 37 71 38 22 39 76 40 70 41 72 42 23 43 75 44 69 45 68 46
REMARK SMILES IDX 24 48 56 49 36 50 55 51 37 52 40 53 54 54 73 55 38 56 39 57
REMARK SMILES IDX 53 59 74 60 41 61 25 62 26 63 34 64 27 65 29 66 35 67 28 68
REMARK SMILES IDX 30 69 31 70 32 71 33 72 57 73 58 74 66 75 59 76 61 77 67 78
REMARK SMILES IDX 60 79 62 80 63 81 64 82 65 83 42 84 43 85 51 86 44 87 46 88
REMARK SMILES IDX 52 89 45 90 47 91 48 92 49 93 50 94
REMARK H PARENT 8 6 81 15 13 28 72 47 40 58
REMARK Flexibility Score: inf
ROOT
ATOM      1  C   UNL A   1      35.428  21.873  26.727  1.00  0.00     0.023 C 
ENDROOT
BRANCH   1   2
ATOM      2  C   UNL A   1      34.107  21.720  27.474  1.00  0.00     0.116 C 
BRANCH   2   3
ATOM      3  N   UNL A   1      33.095  21.032  26.691  1.00  0.00    -0.356 N 
ATOM      4  C   UNL A   1      32.395  21.461  25.600  1.00  0.00     0.226 C 
ATOM      5  O   UNL A   1      31.662  20.658  25.017  1.00  0.00    -0.275 OA
ATOM      6  H   UNL A   1      32.884  20.119  26.991  1.00  0.00     0.163 HD
BRANCH   4   7
ATOM      7  C   UNL A   1      32.529  22.898  25.117  1.00  0.00     0.114 C 
BRANCH   7   8
ATOM      8  C   UNL A   1      32.956  23.006  23.626  1.00  0.00     0.017 C 
BRANCH   8   9
ATOM      9  C   UNL A   1      33.898  24.127  23.174  1.00  0.00     0.001 C 
BRANCH   9  10
ATOM     10  C   UNL A   1      33.312  25.204  22.256  1.00  0.00    -0.003 C 
ATOM     11  C   UNL A   1      33.698  26.622  22.646  1.00  0.00     0.004 C 
ENDBRANCH   9  10
ENDBRANCH   8   9
ENDBRANCH   7   8
BRANCH   7  12
ATOM     12  C   UNL A   1      31.183  23.677  25.383  1.00  0.00     0.098 C 
ATOM     13  C   UNL A   1      30.494  23.233  26.687  1.00  0.00     0.048 C 
BRANCH  12  14
ATOM     14  O   UNL A   1      30.270  23.407  24.305  1.00  0.00    -0.385 OA
ATOM     15  H   UNL A   1      30.493  23.968  23.545  1.00  0.00     0.211 HD
ENDBRANCH  12  14
BRANCH  12  16
ATOM     16  C   UNL A   1      31.355  25.207  25.459  1.00  0.00    -0.014 A 
ATOM     17  C   UNL A   1      32.217  25.824  26.383  1.00  0.00     0.008 A 
ATOM     18  C   UNL A   1      30.609  26.046  24.606  1.00  0.00     0.028 A 
ATOM     19  C   UNL A   1      32.377  27.214  26.405  1.00  0.00     0.022 A 
ATOM     20  C   UNL A   1      30.751  27.439  24.638  1.00  0.00     0.060 A 
ATOM     21  C   UNL A   1      31.651  28.022  25.531  1.00  0.00     0.059 A 
ATOM     22  Cl  UNL A   1      29.786  28.375  23.553  1.00  0.00    -0.083 Cl
ATOM     23  Cl  UNL A   1      31.909  29.729  25.612  1.00  0.00    -0.083 Cl
ENDBRANCH  12  16
ENDBRANCH   7  12
ENDBRANCH   4   7
ENDBRANCH   2   3
ENDBRANCH   1   2
BRANCH   1  24
ATOM     24  C   UNL A   1      35.742  23.294  26.253  1.00  0.00     0.023 C 
BRANCH  24  25
ATOM     25  C   UNL A   1      36.973  23.440  25.360  1.00  0.00     0.116 C 
BRANCH  25  26
ATOM     26  N   UNL A   1      38.045  22.523  25.719  1.00  0.00    -0.352 N 
ATOM     27  C   UNL A   1      39.261  22.776  26.307  1.00  0.00     0.251 C 
ATOM     28  H   UNL A   1      37.872  21.577  25.510  1.00  0.00     0.163 HD
ATOM     29  O   UNL A   1      40.088  21.872  26.388  1.00  0.00    -0.269 OA
BRANCH  27  30
ATOM     30  C   UNL A   1      39.587  24.127  26.818  1.00  0.00     0.039 A 
ATOM     31  C   UNL A   1      39.272  24.433  28.144  1.00  0.00     0.014 A 
ATOM     32  C   UNL A   1      40.185  25.091  26.002  1.00  0.00     0.014 A 
ATOM     33  C   UNL A   1      39.610  25.685  28.666  1.00  0.00     0.010 A 
ATOM     34  C   UNL A   1      40.592  26.310  26.547  1.00  0.00     0.010 A 
ATOM     35  C   UNL A   1      40.305  26.623  27.883  1.00  0.00    -0.014 A 
BRANCH  35  36
ATOM     36  C   UNL A   1      40.760  27.909  28.475  1.00  0.00     0.031 A 
ATOM     37  C   UNL A   1      42.224  28.214  28.646  1.00  0.00     0.074 A 
ATOM     38  C   UNL A   1      39.839  28.792  28.912  1.00  0.00     0.049 A 
ATOM     39  N   UNL A   1      42.789  29.311  29.084  1.00  0.00    -0.248 NA
ATOM     40  C   UNL A   1      43.177  27.145  28.310  1.00  0.00     0.031 C 
ATOM     41  C   UNL A   1      38.391  28.572  28.910  1.00  0.00     0.029 A 
ATOM     42  N   UNL A   1      39.983  30.045  29.455  1.00  0.00    -0.354 N 
ATOM     43  C   UNL A   1      44.155  29.057  29.102  1.00  0.00     0.074 A 
ATOM     44  C   UNL A   1      44.332  27.688  28.668  1.00  0.00     0.031 C 
ATOM     45  C   UNL A   1      37.780  29.659  29.406  1.00  0.00     0.029 A 
ATOM     46  C   UNL A   1      38.789  30.646  29.777  1.00  0.00     0.049 A 
ATOM     47  H   UNL A   1      40.858  30.472  29.600  1.00  0.00     0.167 HD
ATOM     48  C   UNL A   1      45.172  29.894  29.420  1.00  0.00     0.034 A 
ATOM     49  C   UNL A   1      38.531  31.861  30.299  1.00  0.00     0.034 A 
ATOM     50  C   UNL A   1      44.995  31.266  29.815  1.00  0.00     0.049 A 
ATOM     51  C   UNL A   1      39.674  32.802  30.561  1.00  0.00     0.074 A 
ATOM     52  C   UNL A   1      45.963  32.224  30.062  1.00  0.00     0.029 A 
ATOM     53  N   UNL A   1      43.769  31.876  30.033  1.00  0.00    -0.354 N 
ATOM     54  N   UNL A   1      40.958  32.608  30.387  1.00  0.00    -0.248 NA
ATOM     55  C   UNL A   1      39.329  34.148  31.041  1.00  0.00     0.031 C 
ATOM     56  C   UNL A   1      45.323  33.406  30.450  1.00  0.00     0.029 A 
ATOM     57  C   UNL A   1      43.954  33.194  30.417  1.00  0.00     0.049 A 
ATOM     58  H   UNL A   1      42.894  31.436  29.930  1.00  0.00     0.167 HD
ATOM     59  C   UNL A   1      41.573  33.814  30.703  1.00  0.00     0.074 A 
ATOM     60  C   UNL A   1      40.516  34.741  31.052  1.00  0.00     0.031 C 
ATOM     61  C   UNL A   1      42.894  34.122  30.719  1.00  0.00     0.034 A 
BRANCH  48  62
ATOM     62  C   UNL A   1      46.579  29.365  29.298  1.00  0.00     0.023 A 
ATOM     63  C   UNL A   1      47.173  28.710  30.398  1.00  0.00     0.012 A 
ATOM     64  C   UNL A   1      47.290  29.459  28.086  1.00  0.00     0.148 A 
ATOM     65  C   UNL A   1      48.463  28.190  30.305  1.00  0.00     0.002 A 
ATOM     66  C   UNL A   1      48.559  28.898  27.986  1.00  0.00     0.091 A 
ATOM     67  F   UNL A   1      46.721  30.103  27.058  1.00  0.00    -0.205 F 
ATOM     68  C   UNL A   1      49.151  28.274  29.097  1.00  0.00     0.022 A 
BRANCH  66  69
ATOM     69  S   UNL A   1      49.493  28.881  26.452  1.00  0.00     0.127 S 
ATOM     70  O   UNL A   1      49.903  30.280  26.341  1.00  0.00    -0.237 OA
ATOM     71  O   UNL A   1      50.579  27.950  26.762  1.00  0.00    -0.237 OA
ATOM     72  O   UNL A   1      48.569  28.415  25.427  1.00  0.00    -0.744 OA
ENDBRANCH  66  69
ENDBRANCH  48  62
BRANCH  49  73
ATOM     73  C   UNL A   1      37.120  32.286  30.522  1.00  0.00     0.023 A 
ATOM     74  C   UNL A   1      36.552  32.167  31.805  1.00  0.00     0.012 A 
ATOM     75  C   UNL A   1      36.353  32.845  29.482  1.00  0.00     0.148 A 
ATOM     76  C   UNL A   1      35.237  32.566  32.042  1.00  0.00     0.002 A 
ATOM     77  C   UNL A   1      35.063  33.296  29.737  1.00  0.00     0.091 A 
ATOM     78  F   UNL A   1      36.908  32.940  28.265  1.00  0.00    -0.205 F 
ATOM     79  C   UNL A   1      34.497  33.141  31.012  1.00  0.00     0.022 A 
BRANCH  77  80
ATOM     80  S   UNL A   1      34.093  34.177  28.510  1.00  0.00     0.127 S 
ATOM     81  O   UNL A   1      34.961  35.308  28.196  1.00  0.00    -0.237 OA
ATOM     82  O   UNL A   1      33.971  33.178  27.447  1.00  0.00    -0.237 OA
ATOM     83  O   UNL A   1      32.834  34.504  29.168  1.00  0.00    -0.744 OA
ENDBRANCH  77  80
ENDBRANCH  49  73
BRANCH  61  84
ATOM     84  C   UNL A   1      43.273  35.531  31.096  1.00  0.00     0.023 A 
ATOM     85  C   UNL A   1      43.536  36.482  30.090  1.00  0.00     0.012 A 
ATOM     86  C   UNL A   1      43.329  35.924  32.448  1.00  0.00     0.148 A 
ATOM     87  C   UNL A   1      43.895  37.788  30.424  1.00  0.00     0.002 A 
ATOM     88  C   UNL A   1      43.637  37.240  32.772  1.00  0.00     0.091 A 
ATOM     89  F   UNL A   1      43.097  35.003  33.395  1.00  0.00    -0.205 F 
ATOM     90  C   UNL A   1      43.936  38.169  31.763  1.00  0.00     0.022 A 
BRANCH  88  91
ATOM     91  S   UNL A   1      43.615  37.835  34.467  1.00  0.00     0.127 S 
ATOM     92  O   UNL A   1      43.962  39.244  34.293  1.00  0.00    -0.237 OA
ATOM     93  O   UNL A   1      42.228  37.594  34.867  1.00  0.00    -0.237 OA
ATOM     94  O   UNL A   1      44.594  37.026  35.182  1.00  0.00    -0.744 OA
ENDBRANCH  88  91
ENDBRANCH  61  84
ENDBRANCH  35  36
ENDBRANCH  27  30
ENDBRANCH  25  26
ENDBRANCH  24  25
ENDBRANCH   1  24
TORSDOF 20
ENDMDL
