MODEL 1
REMARK VINA RESULT:     -11.5      0.000      0.000
REMARK SMILES Cc1cc(C)n([C@@H](C(=O)NCCCCNC(=O)c2ccc(-c3c4nc(c(-c5cccc(S(=O)(=O)[O-])c5F)c5ccc([nH]5)c(-c5cccc(S(=O)(=O)[O-])c5F)c5nc(c(-c6cccc(S(=O)(=O)[O-])c6F)c6ccc3[nH]6)C=C5)C=C4)cc2)C(C)C)n1
REMARK SMILES IDX 13 1 12 2 11 3 10 4 8 5 9 6 7 8 6 9 1 10 2 11 3 12 84 13
REMARK SMILES IDX 4 14 5 15 81 16 82 17 83 18 14 19 15 20 16 21 17 23 18 24
REMARK SMILES IDX 19 25 80 26 20 27 79 28 21 29 22 30 23 31 73 32 24 33 78 34
REMARK SMILES IDX 72 35 74 36 25 37 77 38 71 39 70 40 26 42 58 43 38 44 57 45
REMARK SMILES IDX 39 46 42 47 56 48 75 49 40 50 41 51 55 53 76 54 43 55 27 56
REMARK SMILES IDX 28 57 36 58 29 59 31 60 37 61 30 62 32 63 33 64 34 65 35 66
REMARK SMILES IDX 59 67 60 68 68 69 61 70 63 71 69 72 62 73 64 74 65 75 66 76
REMARK SMILES IDX 67 77 44 78 45 79 53 80 46 81 48 82 54 83 47 84 49 85 50 86
REMARK SMILES IDX 51 87 52 88
REMARK H PARENT 10 7 15 22 74 41 42 52
REMARK Flexibility Score: inf
ROOT
ATOM      1  C   UNL A   1      37.998  19.936  24.673  1.00  0.00     0.023 C 
ENDROOT
BRANCH   1   2
ATOM      2  C   UNL A   1      36.551  20.322  25.011  1.00  0.00     0.023 C 
BRANCH   2   3
ATOM      3  C   UNL A   1      36.364  21.628  25.795  1.00  0.00     0.116 C 
BRANCH   3   4
ATOM      4  N   UNL A   1      35.334  21.513  26.814  1.00  0.00    -0.354 N 
ATOM      5  C   UNL A   1      34.037  21.955  26.800  1.00  0.00     0.245 C 
ATOM      6  O   UNL A   1      33.411  21.903  27.862  1.00  0.00    -0.273 OA
ATOM      7  H   UNL A   1      35.608  21.048  27.637  1.00  0.00     0.163 HD
BRANCH   5   8
ATOM      8  C   UNL A   1      33.413  22.510  25.514  1.00  0.00     0.199 C 
BRANCH   8   9
ATOM      9  N   UNL A   1      32.895  23.861  25.769  1.00  0.00    -0.257 N 
ATOM     10  C   UNL A   1      33.711  27.305  26.020  1.00  0.00     0.069 C 
ATOM     11  C   UNL A   1      33.062  25.975  25.989  1.00  0.00     0.060 A 
ATOM     12  C   UNL A   1      31.778  25.627  26.450  1.00  0.00     0.048 A 
ATOM     13  N   UNL A   1      33.720  24.911  25.521  1.00  0.00    -0.177 NA
ATOM     14  C   UNL A   1      31.685  24.259  26.297  1.00  0.00     0.037 A 
ATOM     15  C   UNL A   1      30.570  23.350  26.662  1.00  0.00     0.066 C 
ENDBRANCH   8   9
BRANCH   8  16
ATOM     16  C   UNL A   1      32.342  21.573  24.880  1.00  0.00     0.017 C 
ATOM     17  C   UNL A   1      32.113  21.892  23.394  1.00  0.00     0.010 C 
ATOM     18  C   UNL A   1      32.727  20.090  24.993  1.00  0.00     0.010 C 
ENDBRANCH   8  16
ENDBRANCH   5   8
ENDBRANCH   3   4
ENDBRANCH   2   3
ENDBRANCH   1   2
BRANCH   1  19
ATOM     19  C   UNL A   1      39.004  20.197  25.785  1.00  0.00     0.116 C 
BRANCH  19  20
ATOM     20  N   UNL A   1      40.065  19.192  25.835  1.00  0.00    -0.352 N 
ATOM     21  C   UNL A   1      41.423  19.398  26.010  1.00  0.00     0.251 C 
ATOM     22  H   UNL A   1      39.779  18.256  25.735  1.00  0.00     0.163 HD
ATOM     23  O   UNL A   1      42.237  18.556  25.668  1.00  0.00    -0.269 OA
BRANCH  21  24
ATOM     24  C   UNL A   1      41.864  20.663  26.625  1.00  0.00     0.039 A 
ATOM     25  C   UNL A   1      42.391  21.700  25.850  1.00  0.00     0.014 A 
ATOM     26  C   UNL A   1      41.683  20.815  27.995  1.00  0.00     0.014 A 
ATOM     27  C   UNL A   1      42.648  22.927  26.458  1.00  0.00     0.010 A 
ATOM     28  C   UNL A   1      41.796  22.061  28.560  1.00  0.00     0.010 A 
ATOM     29  C   UNL A   1      42.323  23.110  27.810  1.00  0.00    -0.014 A 
BRANCH  29  30
ATOM     30  C   UNL A   1      42.407  24.433  28.425  1.00  0.00     0.031 A 
ATOM     31  C   UNL A   1      41.236  25.319  28.175  1.00  0.00     0.074 A 
ATOM     32  C   UNL A   1      43.346  24.752  29.345  1.00  0.00     0.049 A 
ATOM     33  N   UNL A   1      41.215  26.435  27.522  1.00  0.00    -0.248 NA
ATOM     34  C   UNL A   1      39.904  24.851  28.593  1.00  0.00     0.031 C 
ATOM     35  C   UNL A   1      44.365  23.869  29.929  1.00  0.00     0.029 A 
ATOM     36  N   UNL A   1      43.481  25.891  30.078  1.00  0.00    -0.354 N 
ATOM     37  C   UNL A   1      39.919  26.929  27.663  1.00  0.00     0.074 A 
ATOM     38  C   UNL A   1      39.120  25.832  28.145  1.00  0.00     0.031 C 
ATOM     39  C   UNL A   1      44.807  24.401  31.088  1.00  0.00     0.029 A 
ATOM     40  C   UNL A   1      44.247  25.729  31.230  1.00  0.00     0.049 A 
ATOM     41  H   UNL A   1      43.075  26.749  29.818  1.00  0.00     0.167 HD
ATOM     42  C   UNL A   1      39.660  28.265  27.630  1.00  0.00     0.034 A 
ATOM     43  C   UNL A   1      44.376  26.607  32.253  1.00  0.00     0.034 A 
ATOM     44  C   UNL A   1      40.773  29.010  27.098  1.00  0.00     0.049 A 
ATOM     45  C   UNL A   1      43.988  27.937  31.738  1.00  0.00     0.074 A 
ATOM     46  C   UNL A   1      41.495  28.986  25.922  1.00  0.00     0.029 A 
ATOM     47  N   UNL A   1      41.545  29.698  28.001  1.00  0.00    -0.354 N 
ATOM     48  N   UNL A   1      44.664  28.583  30.830  1.00  0.00    -0.248 NA
ATOM     49  C   UNL A   1      42.616  28.375  31.928  1.00  0.00     0.031 C 
ATOM     50  C   UNL A   1      42.845  29.222  26.319  1.00  0.00     0.029 A 
ATOM     51  C   UNL A   1      42.856  29.445  27.698  1.00  0.00     0.049 A 
ATOM     52  H   UNL A   1      41.216  30.269  28.732  1.00  0.00     0.167 HD
ATOM     53  C   UNL A   1      43.691  29.159  30.026  1.00  0.00     0.074 A 
ATOM     54  C   UNL A   1      42.467  29.109  30.822  1.00  0.00     0.031 C 
ATOM     55  C   UNL A   1      43.905  29.346  28.689  1.00  0.00     0.034 A 
BRANCH  42  56
ATOM     56  C   UNL A   1      38.566  28.954  28.415  1.00  0.00     0.023 A 
ATOM     57  C   UNL A   1      37.691  29.810  27.708  1.00  0.00     0.012 A 
ATOM     58  C   UNL A   1      38.522  29.024  29.827  1.00  0.00     0.148 A 
ATOM     59  C   UNL A   1      36.851  30.715  28.368  1.00  0.00     0.002 A 
ATOM     60  C   UNL A   1      37.622  29.858  30.480  1.00  0.00     0.091 A 
ATOM     61  F   UNL A   1      39.446  28.394  30.557  1.00  0.00    -0.205 F 
ATOM     62  C   UNL A   1      36.808  30.731  29.756  1.00  0.00     0.022 A 
BRANCH  60  63
ATOM     63  S   UNL A   1      37.481  29.864  32.271  1.00  0.00     0.127 S 
ATOM     64  O   UNL A   1      37.271  28.447  32.551  1.00  0.00    -0.237 OA
ATOM     65  O   UNL A   1      38.786  30.390  32.672  1.00  0.00    -0.237 OA
ATOM     66  O   UNL A   1      36.365  30.753  32.566  1.00  0.00    -0.744 OA
ENDBRANCH  60  63
ENDBRANCH  42  56
BRANCH  43  67
ATOM     67  C   UNL A   1      44.599  26.358  33.694  1.00  0.00     0.023 A 
ATOM     68  C   UNL A   1      45.888  26.517  34.238  1.00  0.00     0.012 A 
ATOM     69  C   UNL A   1      43.508  26.243  34.585  1.00  0.00     0.148 A 
ATOM     70  C   UNL A   1      46.082  26.604  35.621  1.00  0.00     0.002 A 
ATOM     71  C   UNL A   1      43.705  26.323  35.960  1.00  0.00     0.091 A 
ATOM     72  F   UNL A   1      42.269  26.152  34.081  1.00  0.00    -0.205 F 
ATOM     73  C   UNL A   1      44.991  26.517  36.482  1.00  0.00     0.022 A 
BRANCH  71  74
ATOM     74  S   UNL A   1      42.342  26.244  37.130  1.00  0.00     0.127 S 
ATOM     75  O   UNL A   1      41.821  24.897  36.898  1.00  0.00    -0.237 OA
ATOM     76  O   UNL A   1      43.028  26.425  38.405  1.00  0.00    -0.237 OA
ATOM     77  O   UNL A   1      41.427  27.312  36.744  1.00  0.00    -0.744 OA
ENDBRANCH  71  74
ENDBRANCH  43  67
BRANCH  55  78
ATOM     78  C   UNL A   1      45.309  29.172  28.162  1.00  0.00     0.023 A 
ATOM     79  C   UNL A   1      46.283  30.191  28.244  1.00  0.00     0.012 A 
ATOM     80  C   UNL A   1      45.701  27.898  27.722  1.00  0.00     0.148 A 
ATOM     81  C   UNL A   1      47.608  29.951  27.870  1.00  0.00     0.002 A 
ATOM     82  C   UNL A   1      47.029  27.649  27.395  1.00  0.00     0.091 A 
ATOM     83  F   UNL A   1      44.769  26.935  27.652  1.00  0.00    -0.205 F 
ATOM     84  C   UNL A   1      47.985  28.675  27.457  1.00  0.00     0.022 A 
BRANCH  82  85
ATOM     85  S   UNL A   1      47.595  25.997  26.981  1.00  0.00     0.127 S 
ATOM     86  O   UNL A   1      46.422  25.429  26.320  1.00  0.00    -0.237 OA
ATOM     87  O   UNL A   1      48.729  26.265  26.092  1.00  0.00    -0.237 OA
ATOM     88  O   UNL A   1      47.969  25.376  28.245  1.00  0.00    -0.744 OA
ENDBRANCH  82  85
ENDBRANCH  55  78
ENDBRANCH  29  30
ENDBRANCH  21  24
ENDBRANCH  19  20
ENDBRANCH   1  19
TORSDOF 16
ENDMDL
MODEL 2
REMARK VINA RESULT:     -11.5      1.415      1.683
REMARK SMILES Cc1cc(C)n([C@@H](C(=O)NCCCCNC(=O)c2ccc(-c3c4nc(c(-c5cccc(S(=O)(=O)[O-])c5F)c5ccc([nH]5)c(-c5cccc(S(=O)(=O)[O-])c5F)c5nc(c(-c6cccc(S(=O)(=O)[O-])c6F)c6ccc3[nH]6)C=C5)C=C4)cc2)C(C)C)n1
REMARK SMILES IDX 13 1 12 2 11 3 10 4 8 5 9 6 7 8 6 9 1 10 2 11 3 12 84 13
REMARK SMILES IDX 4 14 5 15 81 16 82 17 83 18 14 19 15 20 16 21 17 23 18 24
REMARK SMILES IDX 19 25 80 26 20 27 79 28 21 29 22 30 23 31 73 32 24 33 78 34
REMARK SMILES IDX 72 35 74 36 25 37 77 38 71 39 70 40 26 42 58 43 38 44 57 45
REMARK SMILES IDX 39 46 42 47 56 48 75 49 40 50 41 51 55 53 76 54 43 55 27 56
REMARK SMILES IDX 28 57 36 58 29 59 31 60 37 61 30 62 32 63 33 64 34 65 35 66
REMARK SMILES IDX 59 67 60 68 68 69 61 70 63 71 69 72 62 73 64 74 65 75 66 76
REMARK SMILES IDX 67 77 44 78 45 79 53 80 46 81 48 82 54 83 47 84 49 85 50 86
REMARK SMILES IDX 51 87 52 88
REMARK H PARENT 10 7 15 22 74 41 42 52
REMARK Flexibility Score: inf
ROOT
ATOM      1  C   UNL A   1      38.165  19.959  24.694  1.00  0.00     0.023 C 
ENDROOT
BRANCH   1   2
ATOM      2  C   UNL A   1      36.695  20.299  24.982  1.00  0.00     0.023 C 
BRANCH   2   3
ATOM      3  C   UNL A   1      36.438  21.614  25.730  1.00  0.00     0.116 C 
BRANCH   3   4
ATOM      4  N   UNL A   1      35.396  21.480  26.734  1.00  0.00    -0.354 N 
ATOM      5  C   UNL A   1      34.097  21.915  26.710  1.00  0.00     0.245 C 
ATOM      6  O   UNL A   1      33.458  21.845  27.763  1.00  0.00    -0.273 OA
ATOM      7  H   UNL A   1      35.662  21.004  27.553  1.00  0.00     0.163 HD
BRANCH   5   8
ATOM      8  C   UNL A   1      33.486  22.486  25.424  1.00  0.00     0.199 C 
BRANCH   8   9
ATOM      9  N   UNL A   1      32.948  23.825  25.695  1.00  0.00    -0.257 N 
ATOM     10  C   UNL A   1      33.714  27.275  26.012  1.00  0.00     0.069 C 
ATOM     11  C   UNL A   1      33.083  25.937  25.951  1.00  0.00     0.060 A 
ATOM     12  C   UNL A   1      31.798  25.565  26.390  1.00  0.00     0.048 A 
ATOM     13  N   UNL A   1      33.761  24.890  25.474  1.00  0.00    -0.177 NA
ATOM     14  C   UNL A   1      31.725  24.199  26.214  1.00  0.00     0.037 A 
ATOM     15  C   UNL A   1      30.619  23.269  26.550  1.00  0.00     0.066 C 
ENDBRANCH   8   9
BRANCH   8  16
ATOM     16  C   UNL A   1      32.438  21.547  24.756  1.00  0.00     0.017 C 
ATOM     17  C   UNL A   1      32.159  21.948  23.299  1.00  0.00     0.010 C 
ATOM     18  C   UNL A   1      32.884  20.077  24.766  1.00  0.00     0.010 C 
ENDBRANCH   8  16
ENDBRANCH   5   8
ENDBRANCH   3   4
ENDBRANCH   2   3
ENDBRANCH   1   2
BRANCH   1  19
ATOM     19  C   UNL A   1      39.095  20.089  25.891  1.00  0.00     0.116 C 
BRANCH  19  20
ATOM     20  N   UNL A   1      40.201  19.132  25.855  1.00  0.00    -0.352 N 
ATOM     21  C   UNL A   1      41.556  19.395  25.950  1.00  0.00     0.251 C 
ATOM     22  H   UNL A   1      39.950  18.186  25.753  1.00  0.00     0.163 HD
ATOM     23  O   UNL A   1      42.383  18.597  25.541  1.00  0.00    -0.269 OA
BRANCH  21  24
ATOM     24  C   UNL A   1      41.979  20.668  26.562  1.00  0.00     0.039 A 
ATOM     25  C   UNL A   1      42.458  21.723  25.781  1.00  0.00     0.014 A 
ATOM     26  C   UNL A   1      41.830  20.806  27.938  1.00  0.00     0.014 A 
ATOM     27  C   UNL A   1      42.698  22.953  26.391  1.00  0.00     0.010 A 
ATOM     28  C   UNL A   1      41.925  22.051  28.508  1.00  0.00     0.010 A 
ATOM     29  C   UNL A   1      42.403  23.119  27.753  1.00  0.00    -0.014 A 
BRANCH  29  30
ATOM     30  C   UNL A   1      42.469  24.440  28.374  1.00  0.00     0.031 A 
ATOM     31  C   UNL A   1      41.286  25.311  28.124  1.00  0.00     0.074 A 
ATOM     32  C   UNL A   1      43.399  24.765  29.300  1.00  0.00     0.049 A 
ATOM     33  N   UNL A   1      41.254  26.430  27.477  1.00  0.00    -0.248 NA
ATOM     34  C   UNL A   1      39.960  24.825  28.535  1.00  0.00     0.031 C 
ATOM     35  C   UNL A   1      44.428  23.893  29.883  1.00  0.00     0.029 A 
ATOM     36  N   UNL A   1      43.517  25.903  30.039  1.00  0.00    -0.354 N 
ATOM     37  C   UNL A   1      39.951  26.907  27.615  1.00  0.00     0.074 A 
ATOM     38  C   UNL A   1      39.164  25.798  28.088  1.00  0.00     0.031 C 
ATOM     39  C   UNL A   1      44.858  24.425  31.047  1.00  0.00     0.029 A 
ATOM     40  C   UNL A   1      44.281  25.745  31.193  1.00  0.00     0.049 A 
ATOM     41  H   UNL A   1      43.101  26.757  29.782  1.00  0.00     0.167 HD
ATOM     42  C   UNL A   1      39.675  28.240  27.588  1.00  0.00     0.034 A 
ATOM     43  C   UNL A   1      44.394  26.619  32.221  1.00  0.00     0.034 A 
ATOM     44  C   UNL A   1      40.781  29.002  27.064  1.00  0.00     0.049 A 
ATOM     45  C   UNL A   1      43.991  27.947  31.711  1.00  0.00     0.074 A 
ATOM     46  C   UNL A   1      41.508  28.993  25.891  1.00  0.00     0.029 A 
ATOM     47  N   UNL A   1      41.541  29.695  27.974  1.00  0.00    -0.354 N 
ATOM     48  N   UNL A   1      44.663  28.605  30.810  1.00  0.00    -0.248 NA
ATOM     49  C   UNL A   1      42.613  28.366  31.899  1.00  0.00     0.031 C 
ATOM     50  C   UNL A   1      42.853  29.245  26.295  1.00  0.00     0.029 A 
ATOM     51  C   UNL A   1      42.856  29.461  27.675  1.00  0.00     0.049 A 
ATOM     52  H   UNL A   1      41.202  30.258  28.707  1.00  0.00     0.167 HD
ATOM     53  C   UNL A   1      43.686  29.173  30.005  1.00  0.00     0.074 A 
ATOM     54  C   UNL A   1      42.459  29.104  30.796  1.00  0.00     0.031 C 
ATOM     55  C   UNL A   1      43.902  29.370  28.670  1.00  0.00     0.034 A 
BRANCH  42  56
ATOM     56  C   UNL A   1      38.570  28.912  28.372  1.00  0.00     0.023 A 
ATOM     57  C   UNL A   1      37.684  29.756  27.665  1.00  0.00     0.012 A 
ATOM     58  C   UNL A   1      38.522  28.977  29.784  1.00  0.00     0.148 A 
ATOM     59  C   UNL A   1      36.830  30.647  28.326  1.00  0.00     0.002 A 
ATOM     60  C   UNL A   1      37.607  29.796  30.437  1.00  0.00     0.091 A 
ATOM     61  F   UNL A   1      39.453  28.358  30.515  1.00  0.00    -0.205 F 
ATOM     62  C   UNL A   1      36.782  30.659  29.714  1.00  0.00     0.022 A 
BRANCH  60  63
ATOM     63  S   UNL A   1      37.462  29.795  32.227  1.00  0.00     0.127 S 
ATOM     64  O   UNL A   1      37.296  28.371  32.506  1.00  0.00    -0.237 OA
ATOM     65  O   UNL A   1      38.748  30.362  32.633  1.00  0.00    -0.237 OA
ATOM     66  O   UNL A   1      36.318  30.648  32.521  1.00  0.00    -0.744 OA
ENDBRANCH  60  63
ENDBRANCH  42  56
BRANCH  43  67
ATOM     67  C   UNL A   1      44.615  26.365  33.662  1.00  0.00     0.023 A 
ATOM     68  C   UNL A   1      45.893  26.565  34.217  1.00  0.00     0.012 A 
ATOM     69  C   UNL A   1      43.521  26.205  34.543  1.00  0.00     0.148 A 
ATOM     70  C   UNL A   1      46.073  26.646  35.603  1.00  0.00     0.002 A 
ATOM     71  C   UNL A   1      43.705  26.279  35.920  1.00  0.00     0.091 A 
ATOM     72  F   UNL A   1      42.291  26.075  34.028  1.00  0.00    -0.205 F 
ATOM     73  C   UNL A   1      44.979  26.514  36.454  1.00  0.00     0.022 A 
BRANCH  71  74
ATOM     74  S   UNL A   1      42.337  26.143  37.078  1.00  0.00     0.127 S 
ATOM     75  O   UNL A   1      41.428  27.185  36.599  1.00  0.00    -0.237 OA
ATOM     76  O   UNL A   1      41.879  24.776  36.846  1.00  0.00    -0.237 OA
ATOM     77  O   UNL A   1      42.905  26.406  38.396  1.00  0.00    -0.744 OA
ENDBRANCH  71  74
ENDBRANCH  43  67
BRANCH  55  78
ATOM     78  C   UNL A   1      45.310  29.217  28.147  1.00  0.00     0.023 A 
ATOM     79  C   UNL A   1      45.796  28.003  27.616  1.00  0.00     0.012 A 
ATOM     80  C   UNL A   1      46.108  30.368  28.040  1.00  0.00     0.148 A 
ATOM     81  C   UNL A   1      47.057  27.934  27.018  1.00  0.00     0.002 A 
ATOM     82  C   UNL A   1      47.342  30.306  27.402  1.00  0.00     0.091 A 
ATOM     83  F   UNL A   1      45.635  31.518  28.544  1.00  0.00    -0.205 F 
ATOM     84  C   UNL A   1      47.826  29.088  26.898  1.00  0.00     0.022 A 
BRANCH  82  85
ATOM     85  S   UNL A   1      48.316  31.784  27.108  1.00  0.00     0.127 S 
ATOM     86  O   UNL A   1      48.435  32.344  28.453  1.00  0.00    -0.237 OA
ATOM     87  O   UNL A   1      49.560  31.240  26.559  1.00  0.00    -0.237 OA
ATOM     88  O   UNL A   1      47.551  32.583  26.159  1.00  0.00    -0.744 OA
ENDBRANCH  82  85
ENDBRANCH  55  78
ENDBRANCH  29  30
ENDBRANCH  21  24
ENDBRANCH  19  20
ENDBRANCH   1  19
TORSDOF 16
ENDMDL
MODEL 3
REMARK VINA RESULT:     -11.4      4.246      9.619
REMARK SMILES Cc1cc(C)n([C@@H](C(=O)NCCCCNC(=O)c2ccc(-c3c4nc(c(-c5cccc(S(=O)(=O)[O-])c5F)c5ccc([nH]5)c(-c5cccc(S(=O)(=O)[O-])c5F)c5nc(c(-c6cccc(S(=O)(=O)[O-])c6F)c6ccc3[nH]6)C=C5)C=C4)cc2)C(C)C)n1
REMARK SMILES IDX 13 1 12 2 11 3 10 4 8 5 9 6 7 8 6 9 1 10 2 11 3 12 84 13
REMARK SMILES IDX 4 14 5 15 81 16 82 17 83 18 14 19 15 20 16 21 17 23 18 24
REMARK SMILES IDX 19 25 80 26 20 27 79 28 21 29 22 30 23 31 73 32 24 33 78 34
REMARK SMILES IDX 72 35 74 36 25 37 77 38 71 39 70 40 26 42 58 43 38 44 57 45
REMARK SMILES IDX 39 46 42 47 56 48 75 49 40 50 41 51 55 53 76 54 43 55 27 56
REMARK SMILES IDX 28 57 36 58 29 59 31 60 37 61 30 62 32 63 33 64 34 65 35 66
REMARK SMILES IDX 59 67 60 68 68 69 61 70 63 71 69 72 62 73 64 74 65 75 66 76
REMARK SMILES IDX 67 77 44 78 45 79 53 80 46 81 48 82 54 83 47 84 49 85 50 86
REMARK SMILES IDX 51 87 52 88
REMARK H PARENT 10 7 15 22 74 41 42 52
REMARK Flexibility Score: inf
ROOT
ATOM      1  C   UNL A   1      31.448  31.767  26.479  1.00  0.00     0.023 C 
ENDROOT
BRANCH   1   2
ATOM      2  C   UNL A   1      31.558  30.254  26.242  1.00  0.00     0.023 C 
BRANCH   2   3
ATOM      3  C   UNL A   1      32.935  29.736  25.804  1.00  0.00     0.116 C 
BRANCH   3   4
ATOM      4  N   UNL A   1      33.067  29.684  24.357  1.00  0.00    -0.354 N 
ATOM      5  C   UNL A   1      32.643  28.727  23.474  1.00  0.00     0.245 C 
ATOM      6  O   UNL A   1      33.039  28.818  22.309  1.00  0.00    -0.273 OA
ATOM      7  H   UNL A   1      33.530  30.453  23.952  1.00  0.00     0.163 HD
BRANCH   5   8
ATOM      8  C   UNL A   1      31.733  27.583  23.937  1.00  0.00     0.199 C 
BRANCH   8   9
ATOM      9  N   UNL A   1      32.466  26.313  23.849  1.00  0.00    -0.257 N 
ATOM     10  C   UNL A   1      33.178  23.483  21.830  1.00  0.00     0.069 C 
ATOM     11  C   UNL A   1      33.082  24.511  22.892  1.00  0.00     0.060 A 
ATOM     12  C   UNL A   1      33.496  24.410  24.233  1.00  0.00     0.048 A 
ATOM     13  N   UNL A   1      32.508  25.690  22.643  1.00  0.00    -0.177 NA
ATOM     14  C   UNL A   1      33.095  25.584  24.837  1.00  0.00     0.037 A 
ATOM     15  C   UNL A   1      33.228  26.002  26.254  1.00  0.00     0.066 C 
ENDBRANCH   8   9
BRANCH   8  16
ATOM     16  C   UNL A   1      30.363  27.531  23.197  1.00  0.00     0.017 C 
ATOM     17  C   UNL A   1      29.373  26.586  23.895  1.00  0.00     0.010 C 
ATOM     18  C   UNL A   1      29.705  28.916  23.096  1.00  0.00     0.010 C 
ENDBRANCH   8  16
ENDBRANCH   5   8
ENDBRANCH   3   4
ENDBRANCH   2   3
ENDBRANCH   1   2
BRANCH   1  19
ATOM     19  C   UNL A   1      32.630  32.386  27.210  1.00  0.00     0.116 C 
BRANCH  19  20
ATOM     20  N   UNL A   1      32.389  33.774  27.604  1.00  0.00    -0.352 N 
ATOM     21  C   UNL A   1      33.028  34.500  28.594  1.00  0.00     0.251 C 
ATOM     22  H   UNL A   1      31.687  34.250  27.104  1.00  0.00     0.163 HD
ATOM     23  O   UNL A   1      32.511  35.491  29.083  1.00  0.00    -0.269 OA
BRANCH  21  24
ATOM     24  C   UNL A   1      34.357  34.046  29.045  1.00  0.00     0.039 A 
ATOM     25  C   UNL A   1      34.504  33.263  30.192  1.00  0.00     0.014 A 
ATOM     26  C   UNL A   1      35.455  34.376  28.257  1.00  0.00     0.014 A 
ATOM     27  C   UNL A   1      35.759  32.734  30.487  1.00  0.00     0.010 A 
ATOM     28  C   UNL A   1      36.652  33.738  28.464  1.00  0.00     0.010 A 
ATOM     29  C   UNL A   1      36.826  32.954  29.602  1.00  0.00    -0.014 A 
BRANCH  29  30
ATOM     30  C   UNL A   1      38.101  32.263  29.786  1.00  0.00     0.031 A 
ATOM     31  C   UNL A   1      38.138  30.865  29.274  1.00  0.00     0.074 A 
ATOM     32  C   UNL A   1      39.230  32.905  30.162  1.00  0.00     0.049 A 
ATOM     33  N   UNL A   1      38.293  29.778  29.958  1.00  0.00    -0.248 NA
ATOM     34  C   UNL A   1      37.846  30.634  27.850  1.00  0.00     0.031 C 
ATOM     35  C   UNL A   1      39.413  34.346  30.382  1.00  0.00     0.029 A 
ATOM     36  N   UNL A   1      40.500  32.424  30.265  1.00  0.00    -0.354 N 
ATOM     37  C   UNL A   1      38.366  28.750  29.019  1.00  0.00     0.074 A 
ATOM     38  C   UNL A   1      37.885  29.302  27.779  1.00  0.00     0.031 C 
ATOM     39  C   UNL A   1      40.727  34.647  30.311  1.00  0.00     0.029 A 
ATOM     40  C   UNL A   1      41.480  33.413  30.228  1.00  0.00     0.049 A 
ATOM     41  H   UNL A   1      40.706  31.466  30.356  1.00  0.00     0.167 HD
ATOM     42  C   UNL A   1      39.066  27.609  29.267  1.00  0.00     0.034 A 
ATOM     43  C   UNL A   1      42.815  33.233  30.091  1.00  0.00     0.034 A 
ATOM     44  C   UNL A   1      39.380  27.471  30.667  1.00  0.00     0.049 A 
ATOM     45  C   UNL A   1      43.109  31.838  30.482  1.00  0.00     0.074 A 
ATOM     46  C   UNL A   1      38.647  27.434  31.836  1.00  0.00     0.029 A 
ATOM     47  N   UNL A   1      40.674  27.742  31.040  1.00  0.00    -0.354 N 
ATOM     48  N   UNL A   1      42.967  31.387  31.696  1.00  0.00    -0.248 NA
ATOM     49  C   UNL A   1      43.168  30.830  29.440  1.00  0.00     0.031 C 
ATOM     50  C   UNL A   1      39.432  28.162  32.780  1.00  0.00     0.029 A 
ATOM     51  C   UNL A   1      40.623  28.537  32.153  1.00  0.00     0.049 A 
ATOM     52  H   UNL A   1      41.488  27.421  30.590  1.00  0.00     0.167 HD
ATOM     53  C   UNL A   1      42.447  30.112  31.526  1.00  0.00     0.074 A 
ATOM     54  C   UNL A   1      42.718  29.778  30.129  1.00  0.00     0.031 C 
ATOM     55  C   UNL A   1      41.588  29.575  32.443  1.00  0.00     0.034 A 
BRANCH  42  56
ATOM     56  C   UNL A   1      39.800  26.798  28.221  1.00  0.00     0.023 A 
ATOM     57  C   UNL A   1      39.574  25.404  28.196  1.00  0.00     0.012 A 
ATOM     58  C   UNL A   1      40.887  27.282  27.458  1.00  0.00     0.148 A 
ATOM     59  C   UNL A   1      40.410  24.534  27.486  1.00  0.00     0.002 A 
ATOM     60  C   UNL A   1      41.659  26.426  26.681  1.00  0.00     0.091 A 
ATOM     61  F   UNL A   1      41.280  28.552  27.582  1.00  0.00    -0.205 F 
ATOM     62  C   UNL A   1      41.447  25.047  26.717  1.00  0.00     0.022 A 
BRANCH  60  63
ATOM     63  S   UNL A   1      42.966  27.050  25.618  1.00  0.00     0.127 S 
ATOM     64  O   UNL A   1      42.232  27.983  24.768  1.00  0.00    -0.237 OA
ATOM     65  O   UNL A   1      43.870  27.670  26.587  1.00  0.00    -0.237 OA
ATOM     66  O   UNL A   1      43.520  25.874  24.958  1.00  0.00    -0.744 OA
ENDBRANCH  60  63
ENDBRANCH  42  56
BRANCH  43  67
ATOM     67  C   UNL A   1      43.828  34.098  29.446  1.00  0.00     0.023 A 
ATOM     68  C   UNL A   1      44.614  34.958  30.236  1.00  0.00     0.012 A 
ATOM     69  C   UNL A   1      44.218  33.877  28.106  1.00  0.00     0.148 A 
ATOM     70  C   UNL A   1      45.777  35.546  29.723  1.00  0.00     0.002 A 
ATOM     71  C   UNL A   1      45.370  34.469  27.598  1.00  0.00     0.091 A 
ATOM     72  F   UNL A   1      43.513  33.014  27.362  1.00  0.00    -0.205 F 
ATOM     73  C   UNL A   1      46.161  35.294  28.409  1.00  0.00     0.022 A 
BRANCH  71  74
ATOM     74  S   UNL A   1      45.941  34.170  25.920  1.00  0.00     0.127 S 
ATOM     75  O   UNL A   1      46.120  32.718  25.914  1.00  0.00    -0.237 OA
ATOM     76  O   UNL A   1      44.814  34.651  25.127  1.00  0.00    -0.237 OA
ATOM     77  O   UNL A   1      47.182  34.924  25.783  1.00  0.00    -0.744 OA
ENDBRANCH  71  74
ENDBRANCH  43  67
BRANCH  55  78
ATOM     78  C   UNL A   1      41.435  30.277  33.771  1.00  0.00     0.023 A 
ATOM     79  C   UNL A   1      42.346  30.098  34.834  1.00  0.00     0.012 A 
ATOM     80  C   UNL A   1      40.443  31.264  33.892  1.00  0.00     0.148 A 
ATOM     81  C   UNL A   1      42.252  30.864  35.999  1.00  0.00     0.002 A 
ATOM     82  C   UNL A   1      40.381  32.057  35.032  1.00  0.00     0.091 A 
ATOM     83  F   UNL A   1      39.584  31.429  32.874  1.00  0.00    -0.205 F 
ATOM     84  C   UNL A   1      41.277  31.854  36.094  1.00  0.00     0.022 A 
BRANCH  82  85
ATOM     85  S   UNL A   1      39.229  33.427  35.154  1.00  0.00     0.127 S 
ATOM     86  O   UNL A   1      39.588  34.233  33.989  1.00  0.00    -0.237 OA
ATOM     87  O   UNL A   1      37.930  32.758  35.059  1.00  0.00    -0.237 OA
ATOM     88  O   UNL A   1      39.482  34.046  36.450  1.00  0.00    -0.744 OA
ENDBRANCH  82  85
ENDBRANCH  55  78
ENDBRANCH  29  30
ENDBRANCH  21  24
ENDBRANCH  19  20
ENDBRANCH   1  19
TORSDOF 16
ENDMDL
