MODEL 1
REMARK VINA RESULT:     -11.4      0.000      0.000
REMARK SMILES Cc1cccc(CN(C)c2nc(C)c(C(=O)NCCCCNC(=O)c3ccc(-c4c5nc(c(-c6cccc(S(=O)(=O)[O-])c6F)c6ccc([nH]6)c(-c6cccc(S(=O)(=O)[O-])c6F)c6nc(c(-c7cccc(S(=O)(=O)[O-])c7F)c7ccc4[nH]7)C=C6)C=C5)cc3)s2)n1
REMARK SMILES IDX 19 1 18 2 17 3 15 4 16 5 14 7 10 8 11 9 88 10 12 11 13 12
REMARK SMILES IDX 8 13 9 14 7 15 6 16 1 17 2 18 3 19 89 20 4 21 5 22 20 23
REMARK SMILES IDX 21 24 22 25 23 26 24 28 25 29 26 30 87 31 27 32 86 33 28 34
REMARK SMILES IDX 29 35 30 36 80 37 31 38 85 39 79 40 81 41 32 42 84 43 78 44
REMARK SMILES IDX 77 45 33 47 65 48 45 49 64 50 46 51 49 52 63 53 82 54 47 55
REMARK SMILES IDX 48 56 62 58 83 59 50 60 34 61 35 62 43 63 36 64 38 65 44 66
REMARK SMILES IDX 37 67 39 68 40 69 41 70 42 71 66 72 67 73 75 74 68 75 70 76
REMARK SMILES IDX 76 77 69 78 71 79 72 80 73 81 74 82 51 83 52 84 60 85 53 86
REMARK SMILES IDX 55 87 61 88 54 89 56 90 57 91 58 92 59 93
REMARK H PARENT 17 6 22 27 81 46 49 57
REMARK Flexibility Score: inf
ROOT
ATOM      1  C   UNL A   1      35.646  21.693  26.085  1.00  0.00     0.023 C 
ENDROOT
BRANCH   1   2
ATOM      2  C   UNL A   1      34.438  21.408  26.979  1.00  0.00     0.116 C 
BRANCH   2   3
ATOM      3  N   UNL A   1      33.480  20.617  26.256  1.00  0.00    -0.351 N 
ATOM      4  C   UNL A   1      32.468  20.932  25.391  1.00  0.00     0.263 C 
ATOM      5  O   UNL A   1      31.790  19.946  25.075  1.00  0.00    -0.268 OA
ATOM      6  H   UNL A   1      33.570  19.650  26.417  1.00  0.00     0.163 HD
BRANCH   4   7
ATOM      7  C   UNL A   1      32.219  22.260  24.835  1.00  0.00     0.117 A 
ATOM      8  C   UNL A   1      31.207  24.526  24.702  1.00  0.00     0.186 A 
ATOM      9  N   UNL A   1      32.001  24.298  23.684  1.00  0.00    -0.225 NA
ATOM     10  S   UNL A   1      31.099  23.197  25.770  1.00  0.00    -0.091 S 
ATOM     11  C   UNL A   1      32.643  23.064  23.780  1.00  0.00     0.063 A 
ATOM     12  C   UNL A   1      33.694  22.883  22.750  1.00  0.00     0.068 C 
BRANCH   8  13
ATOM     13  N   UNL A   1      30.517  25.690  24.857  1.00  0.00    -0.345 N 
ATOM     14  C   UNL A   1      30.631  26.369  26.133  1.00  0.00     0.146 C 
BRANCH  13  15
ATOM     15  C   UNL A   1      29.384  26.035  23.992  1.00  0.00     0.174 C 
BRANCH  15  16
ATOM     16  C   UNL A   1      29.545  27.359  23.263  1.00  0.00     0.060 A 
ATOM     17  C   UNL A   1      27.537  30.417  22.944  1.00  0.00     0.067 C 
ATOM     18  C   UNL A   1      28.683  29.466  22.793  1.00  0.00     0.038 A 
ATOM     19  C   UNL A   1      29.898  29.886  22.263  1.00  0.00     0.023 A 
ATOM     20  N   UNL A   1      28.487  28.212  23.262  1.00  0.00    -0.256 NA
ATOM     21  C   UNL A   1      30.952  28.982  22.202  1.00  0.00     0.004 A 
ATOM     22  C   UNL A   1      30.778  27.699  22.707  1.00  0.00     0.026 A 
ENDBRANCH  15  16
ENDBRANCH  13  15
ENDBRANCH   8  13
ENDBRANCH   4   7
ENDBRANCH   2   3
ENDBRANCH   1   2
BRANCH   1  23
ATOM     23  C   UNL A   1      35.904  23.176  25.822  1.00  0.00     0.023 C 
BRANCH  23  24
ATOM     24  C   UNL A   1      37.244  23.475  25.163  1.00  0.00     0.116 C 
BRANCH  24  25
ATOM     25  N   UNL A   1      38.306  22.560  25.563  1.00  0.00    -0.352 N 
ATOM     26  C   UNL A   1      39.431  22.839  26.303  1.00  0.00     0.251 C 
ATOM     27  H   UNL A   1      38.205  21.627  25.265  1.00  0.00     0.163 HD
ATOM     28  O   UNL A   1      40.280  21.980  26.494  1.00  0.00    -0.269 OA
BRANCH  26  29
ATOM     29  C   UNL A   1      39.612  24.211  26.817  1.00  0.00     0.039 A 
ATOM     30  C   UNL A   1      39.298  24.474  28.151  1.00  0.00     0.014 A 
ATOM     31  C   UNL A   1      40.168  25.201  26.003  1.00  0.00     0.014 A 
ATOM     32  C   UNL A   1      39.612  25.720  28.693  1.00  0.00     0.010 A 
ATOM     33  C   UNL A   1      40.551  26.411  26.566  1.00  0.00     0.010 A 
ATOM     34  C   UNL A   1      40.275  26.683  27.914  1.00  0.00    -0.014 A 
BRANCH  34  35
ATOM     35  C   UNL A   1      40.702  27.979  28.494  1.00  0.00     0.031 A 
ATOM     36  C   UNL A   1      42.164  28.269  28.688  1.00  0.00     0.074 A 
ATOM     37  C   UNL A   1      39.772  28.846  28.939  1.00  0.00     0.049 A 
ATOM     38  N   UNL A   1      42.731  29.317  29.224  1.00  0.00    -0.248 NA
ATOM     39  C   UNL A   1      43.114  27.229  28.255  1.00  0.00     0.031 C 
ATOM     40  C   UNL A   1      38.323  28.629  28.898  1.00  0.00     0.029 A 
ATOM     41  N   UNL A   1      39.905  30.073  29.537  1.00  0.00    -0.354 N 
ATOM     42  C   UNL A   1      44.093  29.049  29.231  1.00  0.00     0.074 A 
ATOM     43  C   UNL A   1      44.268  27.723  28.679  1.00  0.00     0.031 C 
ATOM     44  C   UNL A   1      37.705  29.690  29.442  1.00  0.00     0.029 A 
ATOM     45  C   UNL A   1      38.707  30.652  29.886  1.00  0.00     0.049 A 
ATOM     46  H   UNL A   1      40.777  30.500  29.701  1.00  0.00     0.167 HD
ATOM     47  C   UNL A   1      45.112  29.849  29.624  1.00  0.00     0.034 A 
ATOM     48  C   UNL A   1      38.449  31.828  30.491  1.00  0.00     0.034 A 
ATOM     49  C   UNL A   1      44.936  31.190  30.108  1.00  0.00     0.049 A 
ATOM     50  C   UNL A   1      39.599  32.732  30.843  1.00  0.00     0.074 A 
ATOM     51  C   UNL A   1      45.904  32.122  30.432  1.00  0.00     0.029 A 
ATOM     52  N   UNL A   1      43.707  31.790  30.340  1.00  0.00    -0.354 N 
ATOM     53  N   UNL A   1      40.884  32.535  30.672  1.00  0.00    -0.248 NA
ATOM     54  C   UNL A   1      39.264  34.037  31.430  1.00  0.00     0.031 C 
ATOM     55  C   UNL A   1      45.261  33.286  30.866  1.00  0.00     0.029 A 
ATOM     56  C   UNL A   1      43.891  33.081  30.803  1.00  0.00     0.049 A 
ATOM     57  H   UNL A   1      42.833  31.360  30.196  1.00  0.00     0.167 HD
ATOM     58  C   UNL A   1      41.509  33.702  31.098  1.00  0.00     0.074 A 
ATOM     59  C   UNL A   1      40.458  34.609  31.515  1.00  0.00     0.031 C 
ATOM     60  C   UNL A   1      42.833  33.991  31.154  1.00  0.00     0.034 A 
BRANCH  47  61
ATOM     61  C   UNL A   1      46.512  29.318  29.474  1.00  0.00     0.023 A 
ATOM     62  C   UNL A   1      47.109  28.630  30.552  1.00  0.00     0.012 A 
ATOM     63  C   UNL A   1      47.220  29.456  28.265  1.00  0.00     0.148 A 
ATOM     64  C   UNL A   1      48.401  28.118  30.440  1.00  0.00     0.002 A 
ATOM     65  C   UNL A   1      48.492  28.906  28.148  1.00  0.00     0.091 A 
ATOM     66  F   UNL A   1      46.648  30.137  27.262  1.00  0.00    -0.205 F 
ATOM     67  C   UNL A   1      49.087  28.246  29.236  1.00  0.00     0.022 A 
BRANCH  65  68
ATOM     68  S   UNL A   1      49.425  28.954  26.614  1.00  0.00     0.127 S 
ATOM     69  O   UNL A   1      50.485  27.983  26.883  1.00  0.00    -0.237 OA
ATOM     70  O   UNL A   1      48.433  28.515  25.633  1.00  0.00    -0.237 OA
ATOM     71  O   UNL A   1      49.862  30.335  26.457  1.00  0.00    -0.744 OA
ENDBRANCH  65  68
ENDBRANCH  47  61
BRANCH  48  72
ATOM     72  C   UNL A   1      37.039  32.254  30.712  1.00  0.00     0.023 A 
ATOM     73  C   UNL A   1      36.467  32.096  31.990  1.00  0.00     0.012 A 
ATOM     74  C   UNL A   1      36.276  32.846  29.688  1.00  0.00     0.148 A 
ATOM     75  C   UNL A   1      35.152  32.494  32.237  1.00  0.00     0.002 A 
ATOM     76  C   UNL A   1      34.984  33.287  29.954  1.00  0.00     0.091 A 
ATOM     77  F   UNL A   1      36.833  32.976  28.476  1.00  0.00    -0.205 F 
ATOM     78  C   UNL A   1      34.415  33.097  31.222  1.00  0.00     0.022 A 
BRANCH  76  79
ATOM     79  S   UNL A   1      34.012  34.192  28.744  1.00  0.00     0.127 S 
ATOM     80  O   UNL A   1      33.741  33.162  27.746  1.00  0.00    -0.237 OA
ATOM     81  O   UNL A   1      32.851  34.607  29.535  1.00  0.00    -0.237 OA
ATOM     82  O   UNL A   1      34.861  35.294  28.309  1.00  0.00    -0.744 OA
ENDBRANCH  76  79
ENDBRANCH  48  72
BRANCH  60  83
ATOM     83  C   UNL A   1      43.229  35.352  31.657  1.00  0.00     0.023 A 
ATOM     84  C   UNL A   1      43.428  35.555  33.037  1.00  0.00     0.012 A 
ATOM     85  C   UNL A   1      43.492  36.404  30.756  1.00  0.00     0.148 A 
ATOM     86  C   UNL A   1      43.856  36.792  33.516  1.00  0.00     0.002 A 
ATOM     87  C   UNL A   1      43.963  37.619  31.237  1.00  0.00     0.091 A 
ATOM     88  F   UNL A   1      43.278  36.196  29.449  1.00  0.00    -0.205 F 
ATOM     89  C   UNL A   1      44.136  37.819  32.617  1.00  0.00     0.022 A 
BRANCH  87  90
ATOM     90  S   UNL A   1      44.439  38.962  30.143  1.00  0.00     0.127 S 
ATOM     91  O   UNL A   1      45.022  39.919  31.081  1.00  0.00    -0.237 OA
ATOM     92  O   UNL A   1      45.403  38.315  29.253  1.00  0.00    -0.237 OA
ATOM     93  O   UNL A   1      43.211  39.394  29.487  1.00  0.00    -0.744 OA
ENDBRANCH  87  90
ENDBRANCH  60  83
ENDBRANCH  34  35
ENDBRANCH  26  29
ENDBRANCH  24  25
ENDBRANCH  23  24
ENDBRANCH   1  23
TORSDOF 17
ENDMDL
MODEL 2
REMARK VINA RESULT:     -11.3      2.556      8.007
REMARK SMILES Cc1cccc(CN(C)c2nc(C)c(C(=O)NCCCCNC(=O)c3ccc(-c4c5nc(c(-c6cccc(S(=O)(=O)[O-])c6F)c6ccc([nH]6)c(-c6cccc(S(=O)(=O)[O-])c6F)c6nc(c(-c7cccc(S(=O)(=O)[O-])c7F)c7ccc4[nH]7)C=C6)C=C5)cc3)s2)n1
REMARK SMILES IDX 19 1 18 2 17 3 15 4 16 5 14 7 10 8 11 9 88 10 12 11 13 12
REMARK SMILES IDX 8 13 9 14 7 15 6 16 1 17 2 18 3 19 89 20 4 21 5 22 20 23
REMARK SMILES IDX 21 24 22 25 23 26 24 28 25 29 26 30 87 31 27 32 86 33 28 34
REMARK SMILES IDX 29 35 30 36 80 37 31 38 85 39 79 40 81 41 32 42 84 43 78 44
REMARK SMILES IDX 77 45 33 47 65 48 45 49 64 50 46 51 49 52 63 53 82 54 47 55
REMARK SMILES IDX 48 56 62 58 83 59 50 60 34 61 35 62 43 63 36 64 38 65 44 66
REMARK SMILES IDX 37 67 39 68 40 69 41 70 42 71 66 72 67 73 75 74 68 75 70 76
REMARK SMILES IDX 76 77 69 78 71 79 72 80 73 81 74 82 51 83 52 84 60 85 53 86
REMARK SMILES IDX 55 87 61 88 54 89 56 90 57 91 58 92 59 93
REMARK H PARENT 17 6 22 27 81 46 49 57
REMARK Flexibility Score: inf
ROOT
ATOM      1  C   UNL A   1      35.338  22.130  26.455  1.00  0.00     0.023 C 
ENDROOT
BRANCH   1   2
ATOM      2  C   UNL A   1      34.204  21.472  27.242  1.00  0.00     0.116 C 
BRANCH   2   3
ATOM      3  N   UNL A   1      33.462  20.597  26.377  1.00  0.00    -0.351 N 
ATOM      4  C   UNL A   1      32.406  20.792  25.528  1.00  0.00     0.263 C 
ATOM      5  O   UNL A   1      31.981  19.733  25.048  1.00  0.00    -0.268 OA
ATOM      6  H   UNL A   1      33.778  19.664  26.399  1.00  0.00     0.163 HD
BRANCH   4   7
ATOM      7  C   UNL A   1      31.852  22.093  25.162  1.00  0.00     0.117 A 
ATOM      8  C   UNL A   1      31.537  24.132  23.775  1.00  0.00     0.186 A 
ATOM      9  N   UNL A   1      30.813  24.181  24.867  1.00  0.00    -0.225 NA
ATOM     10  S   UNL A   1      32.479  22.711  23.667  1.00  0.00    -0.091 S 
ATOM     11  C   UNL A   1      30.911  23.012  25.620  1.00  0.00     0.063 A 
ATOM     12  C   UNL A   1      29.944  22.970  26.743  1.00  0.00     0.068 C 
BRANCH   8  13
ATOM     13  N   UNL A   1      31.557  25.135  22.853  1.00  0.00    -0.345 N 
ATOM     14  C   UNL A   1      32.510  25.024  21.767  1.00  0.00     0.146 C 
BRANCH  13  15
ATOM     15  C   UNL A   1      30.989  26.456  23.140  1.00  0.00     0.174 C 
BRANCH  15  16
ATOM     16  C   UNL A   1      31.858  27.319  24.038  1.00  0.00     0.060 A 
ATOM     17  C   UNL A   1      31.643  28.514  27.505  1.00  0.00     0.067 C 
ATOM     18  C   UNL A   1      32.192  28.272  26.133  1.00  0.00     0.038 A 
ATOM     19  C   UNL A   1      33.512  28.581  25.824  1.00  0.00     0.023 A 
ATOM     20  N   UNL A   1      31.357  27.676  25.250  1.00  0.00    -0.256 NA
ATOM     21  C   UNL A   1      33.993  28.277  24.556  1.00  0.00     0.004 A 
ATOM     22  C   UNL A   1      33.158  27.639  23.646  1.00  0.00     0.026 A 
ENDBRANCH  15  16
ENDBRANCH  13  15
ENDBRANCH   8  13
ENDBRANCH   4   7
ENDBRANCH   2   3
ENDBRANCH   1   2
BRANCH   1  23
ATOM     23  C   UNL A   1      35.954  21.246  25.372  1.00  0.00     0.023 C 
BRANCH  23  24
ATOM     24  C   UNL A   1      37.414  21.551  25.065  1.00  0.00     0.116 C 
BRANCH  24  25
ATOM     25  N   UNL A   1      38.320  20.458  25.396  1.00  0.00    -0.352 N 
ATOM     26  C   UNL A   1      39.518  20.523  26.069  1.00  0.00     0.251 C 
ATOM     27  H   UNL A   1      38.038  19.561  25.103  1.00  0.00     0.163 HD
ATOM     28  O   UNL A   1      40.211  19.526  26.205  1.00  0.00    -0.269 OA
BRANCH  26  29
ATOM     29  C   UNL A   1      39.968  21.835  26.574  1.00  0.00     0.039 A 
ATOM     30  C   UNL A   1      40.987  21.872  27.527  1.00  0.00     0.014 A 
ATOM     31  C   UNL A   1      39.442  23.015  26.042  1.00  0.00     0.014 A 
ATOM     32  C   UNL A   1      41.532  23.102  27.896  1.00  0.00     0.010 A 
ATOM     33  C   UNL A   1      40.040  24.229  26.351  1.00  0.00     0.010 A 
ATOM     34  C   UNL A   1      41.087  24.284  27.282  1.00  0.00    -0.014 A 
BRANCH  34  35
ATOM     35  C   UNL A   1      41.716  25.592  27.589  1.00  0.00     0.031 A 
ATOM     36  C   UNL A   1      40.936  26.646  28.324  1.00  0.00     0.074 A 
ATOM     37  C   UNL A   1      42.948  25.864  27.117  1.00  0.00     0.049 A 
ATOM     38  N   UNL A   1      41.291  27.863  28.638  1.00  0.00    -0.248 NA
ATOM     39  C   UNL A   1      39.562  26.299  28.729  1.00  0.00     0.031 C 
ATOM     40  C   UNL A   1      43.762  24.957  26.303  1.00  0.00     0.029 A 
ATOM     41  N   UNL A   1      43.721  26.991  27.229  1.00  0.00    -0.354 N 
ATOM     42  C   UNL A   1      40.179  28.439  29.237  1.00  0.00     0.074 A 
ATOM     43  C   UNL A   1      39.122  27.452  29.211  1.00  0.00     0.031 C 
ATOM     44  C   UNL A   1      44.921  25.562  25.996  1.00  0.00     0.029 A 
ATOM     45  C   UNL A   1      44.927  26.902  26.572  1.00  0.00     0.049 A 
ATOM     46  H   UNL A   1      43.440  27.789  27.733  1.00  0.00     0.167 HD
ATOM     47  C   UNL A   1      40.058  29.667  29.795  1.00  0.00     0.034 A 
ATOM     48  C   UNL A   1      45.925  27.801  26.455  1.00  0.00     0.034 A 
ATOM     49  C   UNL A   1      41.131  30.618  29.876  1.00  0.00     0.049 A 
ATOM     50  C   UNL A   1      45.796  29.126  27.154  1.00  0.00     0.074 A 
ATOM     51  C   UNL A   1      41.147  31.846  30.513  1.00  0.00     0.029 A 
ATOM     52  N   UNL A   1      42.381  30.449  29.300  1.00  0.00    -0.354 N 
ATOM     53  N   UNL A   1      44.800  29.584  27.875  1.00  0.00    -0.248 NA
ATOM     54  C   UNL A   1      46.941  30.042  27.060  1.00  0.00     0.031 C 
ATOM     55  C   UNL A   1      42.406  32.422  30.317  1.00  0.00     0.029 A 
ATOM     56  C   UNL A   1      43.177  31.548  29.567  1.00  0.00     0.049 A 
ATOM     57  H   UNL A   1      42.660  29.662  28.780  1.00  0.00     0.167 HD
ATOM     58  C   UNL A   1      45.213  30.825  28.349  1.00  0.00     0.074 A 
ATOM     59  C   UNL A   1      46.557  31.037  27.850  1.00  0.00     0.031 C 
ATOM     60  C   UNL A   1      44.534  31.715  29.114  1.00  0.00     0.034 A 
BRANCH  47  61
ATOM     61  C   UNL A   1      38.738  30.019  30.426  1.00  0.00     0.023 A 
ATOM     62  C   UNL A   1      38.478  29.616  31.753  1.00  0.00     0.012 A 
ATOM     63  C   UNL A   1      37.777  30.779  29.734  1.00  0.00     0.148 A 
ATOM     64  C   UNL A   1      37.268  29.936  32.369  1.00  0.00     0.002 A 
ATOM     65  C   UNL A   1      36.591  31.130  30.369  1.00  0.00     0.091 A 
ATOM     66  F   UNL A   1      38.030  31.129  28.464  1.00  0.00    -0.205 F 
ATOM     67  C   UNL A   1      36.331  30.701  31.682  1.00  0.00     0.022 A 
BRANCH  65  68
ATOM     68  S   UNL A   1      35.354  32.176  29.594  1.00  0.00     0.127 S 
ATOM     69  O   UNL A   1      34.841  31.298  28.543  1.00  0.00    -0.237 OA
ATOM     70  O   UNL A   1      34.419  32.419  30.693  1.00  0.00    -0.237 OA
ATOM     71  O   UNL A   1      36.065  33.360  29.132  1.00  0.00    -0.744 OA
ENDBRANCH  65  68
ENDBRANCH  47  61
BRANCH  48  72
ATOM     72  C   UNL A   1      47.169  27.434  25.721  1.00  0.00     0.023 A 
ATOM     73  C   UNL A   1      48.171  26.707  26.392  1.00  0.00     0.012 A 
ATOM     74  C   UNL A   1      47.350  27.761  24.365  1.00  0.00     0.148 A 
ATOM     75  C   UNL A   1      49.346  26.338  25.734  1.00  0.00     0.002 A 
ATOM     76  C   UNL A   1      48.499  27.345  23.700  1.00  0.00     0.091 A 
ATOM     77  F   UNL A   1      46.390  28.464  23.747  1.00  0.00    -0.205 F 
ATOM     78  C   UNL A   1      49.505  26.648  24.387  1.00  0.00     0.022 A 
BRANCH  76  79
ATOM     79  S   UNL A   1      48.726  27.588  21.934  1.00  0.00     0.127 S 
ATOM     80  O   UNL A   1      49.653  28.716  21.903  1.00  0.00    -0.237 OA
ATOM     81  O   UNL A   1      49.301  26.305  21.523  1.00  0.00    -0.237 OA
ATOM     82  O   UNL A   1      47.394  27.841  21.402  1.00  0.00    -0.744 OA
ENDBRANCH  76  79
ENDBRANCH  48  72
BRANCH  60  83
ATOM     83  C   UNL A   1      45.237  32.991  29.490  1.00  0.00     0.023 A 
ATOM     84  C   UNL A   1      46.032  33.032  30.652  1.00  0.00     0.012 A 
ATOM     85  C   UNL A   1      45.181  34.119  28.647  1.00  0.00     0.148 A 
ATOM     86  C   UNL A   1      46.742  34.185  30.984  1.00  0.00     0.002 A 
ATOM     87  C   UNL A   1      45.927  35.249  28.960  1.00  0.00     0.091 A 
ATOM     88  F   UNL A   1      44.402  34.066  27.557  1.00  0.00    -0.205 F 
ATOM     89  C   UNL A   1      46.700  35.288  30.133  1.00  0.00     0.022 A 
BRANCH  87  90
ATOM     90  S   UNL A   1      46.006  36.676  27.872  1.00  0.00     0.127 S 
ATOM     91  O   UNL A   1      46.764  37.627  28.682  1.00  0.00    -0.237 OA
ATOM     92  O   UNL A   1      46.728  36.148  26.714  1.00  0.00    -0.237 OA
ATOM     93  O   UNL A   1      44.622  37.044  27.600  1.00  0.00    -0.744 OA
ENDBRANCH  87  90
ENDBRANCH  60  83
ENDBRANCH  34  35
ENDBRANCH  26  29
ENDBRANCH  24  25
ENDBRANCH  23  24
ENDBRANCH   1  23
TORSDOF 17
ENDMDL
MODEL 3
REMARK VINA RESULT:     -11.2      2.436      3.387
REMARK SMILES Cc1cccc(CN(C)c2nc(C)c(C(=O)NCCCCNC(=O)c3ccc(-c4c5nc(c(-c6cccc(S(=O)(=O)[O-])c6F)c6ccc([nH]6)c(-c6cccc(S(=O)(=O)[O-])c6F)c6nc(c(-c7cccc(S(=O)(=O)[O-])c7F)c7ccc4[nH]7)C=C6)C=C5)cc3)s2)n1
REMARK SMILES IDX 19 1 18 2 17 3 15 4 16 5 14 7 10 8 11 9 88 10 12 11 13 12
REMARK SMILES IDX 8 13 9 14 7 15 6 16 1 17 2 18 3 19 89 20 4 21 5 22 20 23
REMARK SMILES IDX 21 24 22 25 23 26 24 28 25 29 26 30 87 31 27 32 86 33 28 34
REMARK SMILES IDX 29 35 30 36 80 37 31 38 85 39 79 40 81 41 32 42 84 43 78 44
REMARK SMILES IDX 77 45 33 47 65 48 45 49 64 50 46 51 49 52 63 53 82 54 47 55
REMARK SMILES IDX 48 56 62 58 83 59 50 60 34 61 35 62 43 63 36 64 38 65 44 66
REMARK SMILES IDX 37 67 39 68 40 69 41 70 42 71 66 72 67 73 75 74 68 75 70 76
REMARK SMILES IDX 76 77 69 78 71 79 72 80 73 81 74 82 51 83 52 84 60 85 53 86
REMARK SMILES IDX 55 87 61 88 54 89 56 90 57 91 58 92 59 93
REMARK H PARENT 17 6 22 27 81 46 49 57
REMARK Flexibility Score: inf
ROOT
ATOM      1  C   UNL A   1      37.068  21.948  24.673  1.00  0.00     0.023 C 
ENDROOT
BRANCH   1   2
ATOM      2  C   UNL A   1      36.955  23.065  25.712  1.00  0.00     0.116 C 
BRANCH   2   3
ATOM      3  N   UNL A   1      35.718  22.931  26.432  1.00  0.00    -0.351 N 
ATOM      4  C   UNL A   1      34.489  23.517  26.300  1.00  0.00     0.263 C 
ATOM      5  O   UNL A   1      33.714  23.206  27.214  1.00  0.00    -0.268 OA
ATOM      6  H   UNL A   1      35.765  22.283  27.173  1.00  0.00     0.163 HD
BRANCH   4   7
ATOM      7  C   UNL A   1      34.081  24.375  25.190  1.00  0.00     0.117 A 
ATOM      8  C   UNL A   1      33.337  26.469  24.076  1.00  0.00     0.186 A 
ATOM      9  N   UNL A   1      33.430  25.481  23.220  1.00  0.00    -0.225 NA
ATOM     10  S   UNL A   1      33.725  26.002  25.673  1.00  0.00    -0.091 S 
ATOM     11  C   UNL A   1      33.924  24.316  23.808  1.00  0.00     0.063 A 
ATOM     12  C   UNL A   1      34.228  23.258  22.815  1.00  0.00     0.068 C 
BRANCH   8  13
ATOM     13  N   UNL A   1      32.935  27.721  23.722  1.00  0.00    -0.345 N 
ATOM     14  C   UNL A   1      33.661  28.378  22.654  1.00  0.00     0.146 C 
BRANCH  13  15
ATOM     15  C   UNL A   1      32.126  28.553  24.619  1.00  0.00     0.174 C 
BRANCH  15  16
ATOM     16  C   UNL A   1      30.729  28.844  24.099  1.00  0.00     0.060 A 
ATOM     17  C   UNL A   1      28.785  31.885  23.416  1.00  0.00     0.067 C 
ATOM     18  C   UNL A   1      29.145  30.433  23.487  1.00  0.00     0.038 A 
ATOM     19  C   UNL A   1      28.363  29.468  22.862  1.00  0.00     0.023 A 
ATOM     20  N   UNL A   1      30.300  30.133  24.127  1.00  0.00    -0.256 NA
ATOM     21  C   UNL A   1      28.776  28.141  22.902  1.00  0.00     0.004 A 
ATOM     22  C   UNL A   1      29.973  27.820  23.529  1.00  0.00     0.026 A 
ENDBRANCH  15  16
ENDBRANCH  13  15
ENDBRANCH   8  13
ENDBRANCH   4   7
ENDBRANCH   2   3
ENDBRANCH   1   2
BRANCH   1  23
ATOM     23  C   UNL A   1      37.869  20.732  25.136  1.00  0.00     0.023 C 
BRANCH  23  24
ATOM     24  C   UNL A   1      39.087  21.066  25.986  1.00  0.00     0.116 C 
BRANCH  24  25
ATOM     25  N   UNL A   1      40.086  20.005  26.014  1.00  0.00    -0.352 N 
ATOM     26  C   UNL A   1      41.432  20.115  26.277  1.00  0.00     0.251 C 
ATOM     27  H   UNL A   1      39.757  19.098  25.821  1.00  0.00     0.163 HD
ATOM     28  O   UNL A   1      42.166  19.141  26.187  1.00  0.00    -0.269 OA
BRANCH  26  29
ATOM     29  C   UNL A   1      41.974  21.444  26.620  1.00  0.00     0.039 A 
ATOM     30  C   UNL A   1      42.190  22.365  25.594  1.00  0.00     0.014 A 
ATOM     31  C   UNL A   1      42.183  21.798  27.955  1.00  0.00     0.014 A 
ATOM     32  C   UNL A   1      42.549  23.674  25.915  1.00  0.00     0.010 A 
ATOM     33  C   UNL A   1      42.462  23.120  28.275  1.00  0.00     0.010 A 
ATOM     34  C   UNL A   1      42.650  24.069  27.259  1.00  0.00    -0.014 A 
BRANCH  34  35
ATOM     35  C   UNL A   1      42.939  25.476  27.627  1.00  0.00     0.031 A 
ATOM     36  C   UNL A   1      44.343  26.004  27.533  1.00  0.00     0.074 A 
ATOM     37  C   UNL A   1      41.957  26.243  28.140  1.00  0.00     0.049 A 
ATOM     38  N   UNL A   1      44.801  27.184  27.857  1.00  0.00    -0.248 NA
ATOM     39  C   UNL A   1      45.375  25.073  27.044  1.00  0.00     0.031 C 
ATOM     40  C   UNL A   1      40.577  25.808  28.374  1.00  0.00     0.029 A 
ATOM     41  N   UNL A   1      41.973  27.541  28.582  1.00  0.00    -0.354 N 
ATOM     42  C   UNL A   1      46.173  27.126  27.651  1.00  0.00     0.074 A 
ATOM     43  C   UNL A   1      46.481  25.783  27.210  1.00  0.00     0.031 C 
ATOM     44  C   UNL A   1      39.881  26.823  28.911  1.00  0.00     0.029 A 
ATOM     45  C   UNL A   1      40.765  27.972  29.077  1.00  0.00     0.049 A 
ATOM     46  H   UNL A   1      42.776  28.111  28.549  1.00  0.00     0.167 HD
ATOM     47  C   UNL A   1      47.092  28.112  27.780  1.00  0.00     0.034 A 
ATOM     48  C   UNL A   1      40.410  29.163  29.600  1.00  0.00     0.034 A 
ATOM     49  C   UNL A   1      46.770  29.461  28.155  1.00  0.00     0.049 A 
ATOM     50  C   UNL A   1      41.432  30.266  29.656  1.00  0.00     0.074 A 
ATOM     51  C   UNL A   1      47.606  30.561  28.212  1.00  0.00     0.029 A 
ATOM     52  N   UNL A   1      45.509  29.895  28.538  1.00  0.00    -0.354 N 
ATOM     53  N   UNL A   1      42.689  30.244  29.283  1.00  0.00    -0.248 NA
ATOM     54  C   UNL A   1      40.978  31.568  30.162  1.00  0.00     0.031 C 
ATOM     55  C   UNL A   1      46.852  31.660  28.636  1.00  0.00     0.029 A 
ATOM     56  C   UNL A   1      45.544  31.246  28.833  1.00  0.00     0.049 A 
ATOM     57  H   UNL A   1      44.709  29.324  28.591  1.00  0.00     0.167 HD
ATOM     58  C   UNL A   1      43.166  31.535  29.478  1.00  0.00     0.074 A 
ATOM     59  C   UNL A   1      42.056  32.319  29.981  1.00  0.00     0.031 C 
ATOM     60  C   UNL A   1      44.415  32.024  29.273  1.00  0.00     0.034 A 
BRANCH  47  61
ATOM     61  C   UNL A   1      48.521  27.783  27.441  1.00  0.00     0.023 A 
ATOM     62  C   UNL A   1      49.388  27.339  28.462  1.00  0.00     0.012 A 
ATOM     63  C   UNL A   1      48.995  27.867  26.118  1.00  0.00     0.148 A 
ATOM     64  C   UNL A   1      50.714  27.017  28.176  1.00  0.00     0.002 A 
ATOM     65  C   UNL A   1      50.307  27.503  25.835  1.00  0.00     0.091 A 
ATOM     66  F   UNL A   1      48.164  28.316  25.167  1.00  0.00    -0.205 F 
ATOM     67  C   UNL A   1      51.169  27.088  26.864  1.00  0.00     0.022 A 
BRANCH  65  68
ATOM     68  S   UNL A   1      50.965  27.490  24.164  1.00  0.00     0.127 S 
ATOM     69  O   UNL A   1      51.099  28.919  23.888  1.00  0.00    -0.237 OA
ATOM     70  O   UNL A   1      52.233  26.782  24.336  1.00  0.00    -0.237 OA
ATOM     71  O   UNL A   1      49.982  26.783  23.355  1.00  0.00    -0.744 OA
ENDBRANCH  65  68
ENDBRANCH  47  61
BRANCH  48  72
ATOM     72  C   UNL A   1      39.000  29.397  30.022  1.00  0.00     0.023 A 
ATOM     73  C   UNL A   1      38.617  29.081  31.340  1.00  0.00     0.012 A 
ATOM     74  C   UNL A   1      38.052  29.961  29.148  1.00  0.00     0.148 A 
ATOM     75  C   UNL A   1      37.308  29.296  31.773  1.00  0.00     0.002 A 
ATOM     76  C   UNL A   1      36.763  30.222  29.601  1.00  0.00     0.091 A 
ATOM     77  F   UNL A   1      38.432  30.243  27.894  1.00  0.00    -0.205 F 
ATOM     78  C   UNL A   1      36.385  29.875  30.908  1.00  0.00     0.022 A 
BRANCH  76  79
ATOM     79  S   UNL A   1      35.549  31.084  28.596  1.00  0.00     0.127 S 
ATOM     80  O   UNL A   1      34.710  31.713  29.611  1.00  0.00    -0.237 OA
ATOM     81  O   UNL A   1      36.389  32.009  27.831  1.00  0.00    -0.237 OA
ATOM     82  O   UNL A   1      34.910  30.053  27.788  1.00  0.00    -0.744 OA
ENDBRANCH  76  79
ENDBRANCH  48  72
BRANCH  60  83
ATOM     83  C   UNL A   1      44.650  33.481  29.563  1.00  0.00     0.023 A 
ATOM     84  C   UNL A   1      45.103  33.873  30.839  1.00  0.00     0.012 A 
ATOM     85  C   UNL A   1      44.509  34.449  28.549  1.00  0.00     0.148 A 
ATOM     86  C   UNL A   1      45.387  35.211  31.108  1.00  0.00     0.002 A 
ATOM     87  C   UNL A   1      44.838  35.773  28.812  1.00  0.00     0.091 A 
ATOM     88  F   UNL A   1      44.059  34.057  27.349  1.00  0.00    -0.205 F 
ATOM     89  C   UNL A   1      45.267  36.158  30.093  1.00  0.00     0.022 A 
BRANCH  87  90
ATOM     90  S   UNL A   1      44.805  37.039  27.538  1.00  0.00     0.127 S 
ATOM     91  O   UNL A   1      45.785  36.526  26.582  1.00  0.00    -0.237 OA
ATOM     92  O   UNL A   1      43.417  36.985  27.078  1.00  0.00    -0.237 OA
ATOM     93  O   UNL A   1      45.169  38.282  28.204  1.00  0.00    -0.744 OA
ENDBRANCH  87  90
ENDBRANCH  60  83
ENDBRANCH  34  35
ENDBRANCH  26  29
ENDBRANCH  24  25
ENDBRANCH  23  24
ENDBRANCH   1  23
TORSDOF 17
ENDMDL
