MODEL 1
REMARK VINA RESULT:     -11.3      0.000      0.000
REMARK SMILES O=C(C[N@@H+]1CCC[C@@H]1c1ccccc1Cl)NCCCCNC(=O)c1ccc(-c2c3nc(c(-c4cccc(S(=O)(=O)[O-])c4F)c4ccc([nH]4)c(-c4cccc(S(=O)(=O)[O-])c4F)c4nc(c(-c5cccc(S(=O)(=O)[O-])c5F)c5ccc2[nH]5)C=C4)C=C3)cc1
REMARK SMILES IDX 19 1 18 2 17 3 16 4 1 5 2 6 3 8 4 9 5 10 8 11 6 13 7 14 9 15
REMARK SMILES IDX 10 16 14 17 11 18 13 19 15 20 12 21 20 22 21 23 22 24 23 26
REMARK SMILES IDX 24 27 25 28 86 29 26 30 85 31 27 32 28 33 29 34 79 35 30 36
REMARK SMILES IDX 84 37 78 38 80 39 31 40 83 41 77 42 76 43 32 45 64 46 44 47
REMARK SMILES IDX 63 48 45 49 48 50 62 51 81 52 46 53 47 54 61 56 82 57 49 58
REMARK SMILES IDX 33 59 34 60 42 61 35 62 37 63 43 64 36 65 38 66 39 67 40 68
REMARK SMILES IDX 41 69 65 70 66 71 74 72 67 73 69 74 75 75 68 76 70 77 71 78
REMARK SMILES IDX 72 79 73 80 50 81 51 82 59 83 52 84 54 85 60 86 53 87 55 88
REMARK SMILES IDX 56 89 57 90 58 91
REMARK H PARENT 16 7 4 12 21 25 80 44 48 55
REMARK Flexibility Score: inf
ROOT
ATOM      1  C   UNL A   1      31.637  31.474  26.717  1.00  0.00     0.023 C 
ENDROOT
BRANCH   1   2
ATOM      2  C   UNL A   1      31.927  30.068  26.193  1.00  0.00     0.023 C 
BRANCH   2   3
ATOM      3  C   UNL A   1      32.007  28.988  27.265  1.00  0.00     0.116 C 
BRANCH   3   4
ATOM      4  N   UNL A   1      31.894  27.654  26.714  1.00  0.00    -0.351 N 
ATOM      5  O   UNL A   1      34.100  27.530  26.095  1.00  0.00    -0.269 OA
ATOM      6  C   UNL A   1      32.984  27.015  26.167  1.00  0.00     0.275 C 
ATOM      7  H   UNL A   1      31.024  27.196  26.732  1.00  0.00     0.163 HD
BRANCH   6   8
ATOM      8  C   UNL A   1      32.709  25.645  25.552  1.00  0.00     0.364 C 
BRANCH   8   9
ATOM      9  N   UNL A   1      32.618  25.558  24.068  1.00  0.00    -0.321 N 
ATOM     10  C   UNL A   1      31.503  26.358  23.510  1.00  0.00     0.263 C 
ATOM     11  C   UNL A   1      32.299  24.153  23.565  1.00  0.00     0.217 C 
ATOM     12  H   UNL A   1      33.537  25.887  23.770  1.00  0.00     0.349 HD
ATOM     13  C   UNL A   1      30.274  25.538  23.800  1.00  0.00     0.068 C 
ATOM     14  C   UNL A   1      30.746  24.141  23.468  1.00  0.00     0.076 C 
BRANCH  11  15
ATOM     15  C   UNL A   1      32.862  22.901  24.262  1.00  0.00     0.028 A 
ATOM     16  C   UNL A   1      32.041  22.006  24.970  1.00  0.00     0.011 A 
ATOM     17  C   UNL A   1      34.238  22.577  24.242  1.00  0.00     0.050 A 
ATOM     18  C   UNL A   1      32.490  20.739  25.362  1.00  0.00     0.001 A 
ATOM     19  C   UNL A   1      34.697  21.313  24.646  1.00  0.00     0.021 A 
ATOM     20  Cl  UNL A   1      35.478  23.714  23.824  1.00  0.00    -0.084 Cl
ATOM     21  C   UNL A   1      33.811  20.373  25.154  1.00  0.00     0.002 A 
ENDBRANCH  11  15
ENDBRANCH   8   9
ENDBRANCH   6   8
ENDBRANCH   3   4
ENDBRANCH   2   3
ENDBRANCH   1   2
BRANCH   1  22
ATOM     22  C   UNL A   1      32.832  32.201  27.324  1.00  0.00     0.116 C 
BRANCH  22  23
ATOM     23  N   UNL A   1      32.576  33.615  27.560  1.00  0.00    -0.352 N 
ATOM     24  C   UNL A   1      33.160  34.465  28.470  1.00  0.00     0.251 C 
ATOM     25  H   UNL A   1      31.884  34.019  26.989  1.00  0.00     0.163 HD
ATOM     26  O   UNL A   1      32.713  35.592  28.630  1.00  0.00    -0.269 OA
BRANCH  24  27
ATOM     27  C   UNL A   1      34.316  34.001  29.269  1.00  0.00     0.039 A 
ATOM     28  C   UNL A   1      34.080  33.217  30.401  1.00  0.00     0.014 A 
ATOM     29  C   UNL A   1      35.623  34.324  28.897  1.00  0.00     0.014 A 
ATOM     30  C   UNL A   1      35.161  32.701  31.120  1.00  0.00     0.010 A 
ATOM     31  C   UNL A   1      36.696  33.743  29.566  1.00  0.00     0.010 A 
ATOM     32  C   UNL A   1      36.478  32.928  30.688  1.00  0.00    -0.014 A 
BRANCH  32  33
ATOM     33  C   UNL A   1      37.636  32.309  31.384  1.00  0.00     0.031 A 
ATOM     34  C   UNL A   1      38.386  31.170  30.749  1.00  0.00     0.074 A 
ATOM     35  C   UNL A   1      37.960  32.717  32.627  1.00  0.00     0.049 A 
ATOM     36  N   UNL A   1      39.382  30.471  31.229  1.00  0.00    -0.248 NA
ATOM     37  C   UNL A   1      37.943  30.742  29.412  1.00  0.00     0.031 C 
ATOM     38  C   UNL A   1      37.261  33.757  33.386  1.00  0.00     0.029 A 
ATOM     39  N   UNL A   1      38.943  32.288  33.485  1.00  0.00    -0.354 N 
ATOM     40  C   UNL A   1      39.665  29.504  30.271  1.00  0.00     0.074 A 
ATOM     41  C   UNL A   1      38.708  29.681  29.200  1.00  0.00     0.031 C 
ATOM     42  C   UNL A   1      37.838  33.886  34.591  1.00  0.00     0.029 A 
ATOM     43  C   UNL A   1      38.922  32.918  34.708  1.00  0.00     0.049 A 
ATOM     44  H   UNL A   1      39.600  31.594  33.247  1.00  0.00     0.167 HD
ATOM     45  C   UNL A   1      40.648  28.573  30.266  1.00  0.00     0.034 A 
ATOM     46  C   UNL A   1      39.682  32.729  35.804  1.00  0.00     0.034 A 
ATOM     47  C   UNL A   1      41.616  28.418  31.318  1.00  0.00     0.049 A 
ATOM     48  C   UNL A   1      40.785  31.706  35.766  1.00  0.00     0.074 A 
ATOM     49  C   UNL A   1      42.699  27.558  31.372  1.00  0.00     0.029 A 
ATOM     50  N   UNL A   1      41.614  29.130  32.509  1.00  0.00    -0.354 N 
ATOM     51  N   UNL A   1      41.133  30.905  34.788  1.00  0.00    -0.248 NA
ATOM     52  C   UNL A   1      41.623  31.585  36.967  1.00  0.00     0.031 C 
ATOM     53  C   UNL A   1      43.332  27.727  32.608  1.00  0.00     0.029 A 
ATOM     54  C   UNL A   1      42.668  28.721  33.307  1.00  0.00     0.049 A 
ATOM     55  H   UNL A   1      40.958  29.824  32.750  1.00  0.00     0.167 HD
ATOM     56  C   UNL A   1      42.250  30.213  35.241  1.00  0.00     0.074 A 
ATOM     57  C   UNL A   1      42.533  30.705  36.574  1.00  0.00     0.031 C 
ATOM     58  C   UNL A   1      42.969  29.249  34.614  1.00  0.00     0.034 A 
BRANCH  45  59
ATOM     59  C   UNL A   1      40.754  27.673  29.061  1.00  0.00     0.023 A 
ATOM     60  C   UNL A   1      39.903  26.552  28.952  1.00  0.00     0.012 A 
ATOM     61  C   UNL A   1      41.652  27.961  28.016  1.00  0.00     0.148 A 
ATOM     62  C   UNL A   1      39.973  25.711  27.842  1.00  0.00     0.002 A 
ATOM     63  C   UNL A   1      41.681  27.146  26.890  1.00  0.00     0.091 A 
ATOM     64  F   UNL A   1      42.465  29.019  28.144  1.00  0.00    -0.205 F 
ATOM     65  C   UNL A   1      40.854  26.013  26.808  1.00  0.00     0.022 A 
BRANCH  63  66
ATOM     66  S   UNL A   1      42.720  27.495  25.467  1.00  0.00     0.127 S 
ATOM     67  O   UNL A   1      42.447  26.340  24.611  1.00  0.00    -0.237 OA
ATOM     68  O   UNL A   1      42.163  28.758  24.982  1.00  0.00    -0.237 OA
ATOM     69  O   UNL A   1      44.082  27.586  25.975  1.00  0.00    -0.744 OA
ENDBRANCH  63  66
ENDBRANCH  45  59
BRANCH  46  70
ATOM     70  C   UNL A   1      39.455  33.565  37.019  1.00  0.00     0.023 A 
ATOM     71  C   UNL A   1      39.932  34.890  37.051  1.00  0.00     0.012 A 
ATOM     72  C   UNL A   1      38.749  33.061  38.128  1.00  0.00     0.148 A 
ATOM     73  C   UNL A   1      39.739  35.687  38.180  1.00  0.00     0.002 A 
ATOM     74  C   UNL A   1      38.510  33.880  39.226  1.00  0.00     0.091 A 
ATOM     75  F   UNL A   1      38.312  31.795  38.081  1.00  0.00    -0.205 F 
ATOM     76  C   UNL A   1      39.021  35.187  39.261  1.00  0.00     0.022 A 
BRANCH  74  77
ATOM     77  S   UNL A   1      37.482  33.366  40.606  1.00  0.00     0.127 S 
ATOM     78  O   UNL A   1      36.268  32.923  39.925  1.00  0.00    -0.237 OA
ATOM     79  O   UNL A   1      38.284  32.295  41.196  1.00  0.00    -0.237 OA
ATOM     80  O   UNL A   1      37.337  34.544  41.451  1.00  0.00    -0.744 OA
ENDBRANCH  74  77
ENDBRANCH  46  70
BRANCH  58  81
ATOM     81  C   UNL A   1      44.163  28.684  35.338  1.00  0.00     0.023 A 
ATOM     82  C   UNL A   1      45.445  29.228  35.119  1.00  0.00     0.012 A 
ATOM     83  C   UNL A   1      44.001  27.657  36.291  1.00  0.00     0.148 A 
ATOM     84  C   UNL A   1      46.551  28.736  35.812  1.00  0.00     0.002 A 
ATOM     85  C   UNL A   1      45.099  27.209  37.014  1.00  0.00     0.091 A 
ATOM     86  F   UNL A   1      42.777  27.142  36.472  1.00  0.00    -0.205 F 
ATOM     87  C   UNL A   1      46.377  27.736  36.766  1.00  0.00     0.022 A 
BRANCH  85  88
ATOM     88  S   UNL A   1      44.956  25.997  38.331  1.00  0.00     0.127 S 
ATOM     89  O   UNL A   1      46.353  25.816  38.724  1.00  0.00    -0.237 OA
ATOM     90  O   UNL A   1      44.132  26.703  39.314  1.00  0.00    -0.237 OA
ATOM     91  O   UNL A   1      44.321  24.828  37.737  1.00  0.00    -0.744 OA
ENDBRANCH  85  88
ENDBRANCH  58  81
ENDBRANCH  32  33
ENDBRANCH  24  27
ENDBRANCH  22  23
ENDBRANCH   1  22
TORSDOF 16
ENDMDL
MODEL 2
REMARK VINA RESULT:     -11.2      5.815      8.589
REMARK SMILES O=C(C[N@@H+]1CCC[C@@H]1c1ccccc1Cl)NCCCCNC(=O)c1ccc(-c2c3nc(c(-c4cccc(S(=O)(=O)[O-])c4F)c4ccc([nH]4)c(-c4cccc(S(=O)(=O)[O-])c4F)c4nc(c(-c5cccc(S(=O)(=O)[O-])c5F)c5ccc2[nH]5)C=C4)C=C3)cc1
REMARK SMILES IDX 19 1 18 2 17 3 16 4 1 5 2 6 3 8 4 9 5 10 8 11 6 13 7 14 9 15
REMARK SMILES IDX 10 16 14 17 11 18 13 19 15 20 12 21 20 22 21 23 22 24 23 26
REMARK SMILES IDX 24 27 25 28 86 29 26 30 85 31 27 32 28 33 29 34 79 35 30 36
REMARK SMILES IDX 84 37 78 38 80 39 31 40 83 41 77 42 76 43 32 45 64 46 44 47
REMARK SMILES IDX 63 48 45 49 48 50 62 51 81 52 46 53 47 54 61 56 82 57 49 58
REMARK SMILES IDX 33 59 34 60 42 61 35 62 37 63 43 64 36 65 38 66 39 67 40 68
REMARK SMILES IDX 41 69 65 70 66 71 74 72 67 73 69 74 75 75 68 76 70 77 71 78
REMARK SMILES IDX 72 79 73 80 50 81 51 82 59 83 52 84 54 85 60 86 53 87 55 88
REMARK SMILES IDX 56 89 57 90 58 91
REMARK H PARENT 16 7 4 12 21 25 80 44 48 55
REMARK Flexibility Score: inf
ROOT
ATOM      1  C   UNL A   1      36.414  21.477  24.515  1.00  0.00     0.023 C 
ENDROOT
BRANCH   1   2
ATOM      2  C   UNL A   1      36.040  22.500  23.442  1.00  0.00     0.023 C 
BRANCH   2   3
ATOM      3  C   UNL A   1      36.110  23.955  23.893  1.00  0.00     0.116 C 
BRANCH   3   4
ATOM      4  N   UNL A   1      34.846  24.433  24.409  1.00  0.00    -0.351 N 
ATOM      5  O   UNL A   1      34.096  25.186  22.376  1.00  0.00    -0.269 OA
ATOM      6  C   UNL A   1      33.913  25.018  23.582  1.00  0.00     0.275 C 
ATOM      7  H   UNL A   1      34.648  24.337  25.368  1.00  0.00     0.163 HD
BRANCH   6   8
ATOM      8  C   UNL A   1      32.657  25.547  24.269  1.00  0.00     0.364 C 
BRANCH   8   9
ATOM      9  N   UNL A   1      31.370  24.851  23.990  1.00  0.00    -0.321 N 
ATOM     10  C   UNL A   1      30.204  25.764  24.003  1.00  0.00     0.263 C 
ATOM     11  C   UNL A   1      30.998  23.823  25.055  1.00  0.00     0.217 C 
ATOM     12  H   UNL A   1      31.540  24.431  23.076  1.00  0.00     0.349 HD
ATOM     13  C   UNL A   1      29.944  26.013  25.466  1.00  0.00     0.068 C 
ATOM     14  C   UNL A   1      30.120  24.632  26.054  1.00  0.00     0.076 C 
BRANCH  11  15
ATOM     15  C   UNL A   1      32.068  22.968  25.758  1.00  0.00     0.028 A 
ATOM     16  C   UNL A   1      32.594  23.315  27.014  1.00  0.00     0.011 A 
ATOM     17  C   UNL A   1      32.593  21.788  25.184  1.00  0.00     0.050 A 
ATOM     18  C   UNL A   1      33.347  22.413  27.776  1.00  0.00     0.001 A 
ATOM     19  C   UNL A   1      33.359  20.886  25.938  1.00  0.00     0.021 A 
ATOM     20  Cl  UNL A   1      32.433  21.395  23.502  1.00  0.00    -0.084 Cl
ATOM     21  C   UNL A   1      33.688  21.174  27.255  1.00  0.00     0.002 A 
ENDBRANCH  11  15
ENDBRANCH   8   9
ENDBRANCH   6   8
ENDBRANCH   3   4
ENDBRANCH   2   3
ENDBRANCH   1   2
BRANCH   1  22
ATOM     22  C   UNL A   1      37.369  21.982  25.591  1.00  0.00     0.116 C 
BRANCH  22  23
ATOM     23  N   UNL A   1      38.423  21.029  25.906  1.00  0.00    -0.352 N 
ATOM     24  C   UNL A   1      39.684  21.259  26.408  1.00  0.00     0.251 C 
ATOM     25  H   UNL A   1      38.203  20.085  25.734  1.00  0.00     0.163 HD
ATOM     26  O   UNL A   1      40.494  20.345  26.472  1.00  0.00    -0.269 OA
BRANCH  24  27
ATOM     27  C   UNL A   1      40.061  22.622  26.845  1.00  0.00     0.039 A 
ATOM     28  C   UNL A   1      40.979  22.764  27.889  1.00  0.00     0.014 A 
ATOM     29  C   UNL A   1      39.524  23.751  26.221  1.00  0.00     0.014 A 
ATOM     30  C   UNL A   1      41.409  24.041  28.259  1.00  0.00     0.010 A 
ATOM     31  C   UNL A   1      40.014  25.014  26.537  1.00  0.00     0.010 A 
ATOM     32  C   UNL A   1      40.959  25.175  27.563  1.00  0.00    -0.014 A 
BRANCH  32  33
ATOM     33  C   UNL A   1      41.478  26.531  27.880  1.00  0.00     0.031 A 
ATOM     34  C   UNL A   1      42.903  26.894  27.564  1.00  0.00     0.074 A 
ATOM     35  C   UNL A   1      40.689  27.409  28.531  1.00  0.00     0.049 A 
ATOM     36  N   UNL A   1      43.546  28.005  27.817  1.00  0.00    -0.248 NA
ATOM     37  C   UNL A   1      43.722  25.867  26.900  1.00  0.00     0.031 C 
ATOM     38  C   UNL A   1      39.314  27.151  28.967  1.00  0.00     0.029 A 
ATOM     39  N   UNL A   1      40.938  28.688  28.967  1.00  0.00    -0.354 N 
ATOM     40  C   UNL A   1      44.847  27.801  27.374  1.00  0.00     0.074 A 
ATOM     41  C   UNL A   1      44.913  26.446  26.873  1.00  0.00     0.031 C 
ATOM     42  C   UNL A   1      38.842  28.235  29.602  1.00  0.00     0.029 A 
ATOM     43  C   UNL A   1      39.887  29.251  29.653  1.00  0.00     0.049 A 
ATOM     44  H   UNL A   1      41.788  29.155  28.803  1.00  0.00     0.167 HD
ATOM     45  C   UNL A   1      45.886  28.670  27.358  1.00  0.00     0.034 A 
ATOM     46  C   UNL A   1      39.781  30.446  30.265  1.00  0.00     0.034 A 
ATOM     47  C   UNL A   1      45.809  30.026  27.830  1.00  0.00     0.049 A 
ATOM     48  C   UNL A   1      40.940  31.405  30.211  1.00  0.00     0.074 A 
ATOM     49  C   UNL A   1      46.782  31.010  27.784  1.00  0.00     0.029 A 
ATOM     50  N   UNL A   1      44.702  30.590  28.446  1.00  0.00    -0.354 N 
ATOM     51  N   UNL A   1      42.114  31.247  29.650  1.00  0.00    -0.248 NA
ATOM     52  C   UNL A   1      40.747  32.718  30.841  1.00  0.00     0.031 C 
ATOM     53  C   UNL A   1      46.274  32.157  28.401  1.00  0.00     0.029 A 
ATOM     54  C   UNL A   1      44.971  31.902  28.796  1.00  0.00     0.049 A 
ATOM     55  H   UNL A   1      43.850  30.124  28.611  1.00  0.00     0.167 HD
ATOM     56  C   UNL A   1      42.786  32.451  29.827  1.00  0.00     0.074 A 
ATOM     57  C   UNL A   1      41.879  33.335  30.529  1.00  0.00     0.031 C 
ATOM     58  C   UNL A   1      44.045  32.789  29.453  1.00  0.00     0.034 A 
BRANCH  45  59
ATOM     59  C   UNL A   1      47.189  28.192  26.769  1.00  0.00     0.023 A 
ATOM     60  C   UNL A   1      48.252  27.837  27.626  1.00  0.00     0.012 A 
ATOM     61  C   UNL A   1      47.346  28.042  25.378  1.00  0.00     0.148 A 
ATOM     62  C   UNL A   1      49.464  27.380  27.106  1.00  0.00     0.002 A 
ATOM     63  C   UNL A   1      48.539  27.540  24.870  1.00  0.00     0.091 A 
ATOM     64  F   UNL A   1      46.333  28.401  24.577  1.00  0.00    -0.205 F 
ATOM     65  C   UNL A   1      49.603  27.223  25.731  1.00  0.00     0.022 A 
BRANCH  63  66
ATOM     66  S   UNL A   1      48.790  27.221  23.120  1.00  0.00     0.127 S 
ATOM     67  O   UNL A   1      48.097  28.356  22.511  1.00  0.00    -0.237 OA
ATOM     68  O   UNL A   1      50.249  27.265  23.007  1.00  0.00    -0.237 OA
ATOM     69  O   UNL A   1      48.199  25.916  22.859  1.00  0.00    -0.744 OA
ENDBRANCH  63  66
ENDBRANCH  45  59
BRANCH  46  70
ATOM     70  C   UNL A   1      38.507  30.824  30.943  1.00  0.00     0.023 A 
ATOM     71  C   UNL A   1      38.337  30.541  32.312  1.00  0.00     0.012 A 
ATOM     72  C   UNL A   1      37.478  31.483  30.244  1.00  0.00     0.148 A 
ATOM     73  C   UNL A   1      37.150  30.877  32.965  1.00  0.00     0.002 A 
ATOM     74  C   UNL A   1      36.322  31.867  30.914  1.00  0.00     0.091 A 
ATOM     75  F   UNL A   1      37.656  31.734  28.939  1.00  0.00    -0.205 F 
ATOM     76  C   UNL A   1      36.148  31.548  32.269  1.00  0.00     0.022 A 
BRANCH  74  77
ATOM     77  S   UNL A   1      35.038  32.852  30.134  1.00  0.00     0.127 S 
ATOM     78  O   UNL A   1      34.545  31.939  29.105  1.00  0.00    -0.237 OA
ATOM     79  O   UNL A   1      34.117  33.081  31.248  1.00  0.00    -0.237 OA
ATOM     80  O   UNL A   1      35.702  34.053  29.646  1.00  0.00    -0.744 OA
ENDBRANCH  74  77
ENDBRANCH  46  70
BRANCH  58  81
ATOM     81  C   UNL A   1      44.512  34.190  29.752  1.00  0.00     0.023 A 
ATOM     82  C   UNL A   1      45.138  34.478  30.981  1.00  0.00     0.012 A 
ATOM     83  C   UNL A   1      44.393  35.206  28.782  1.00  0.00     0.148 A 
ATOM     84  C   UNL A   1      45.607  35.763  31.253  1.00  0.00     0.002 A 
ATOM     85  C   UNL A   1      44.910  36.469  29.040  1.00  0.00     0.091 A 
ATOM     86  F   UNL A   1      43.779  34.916  27.626  1.00  0.00    -0.205 F 
ATOM     87  C   UNL A   1      45.504  36.755  30.280  1.00  0.00     0.022 A 
BRANCH  85  88
ATOM     88  S   UNL A   1      44.912  37.779  27.811  1.00  0.00     0.127 S 
ATOM     89  O   UNL A   1      43.482  37.963  27.568  1.00  0.00    -0.237 OA
ATOM     90  O   UNL A   1      45.554  38.879  28.532  1.00  0.00    -0.237 OA
ATOM     91  O   UNL A   1      45.675  37.270  26.680  1.00  0.00    -0.744 OA
ENDBRANCH  85  88
ENDBRANCH  58  81
ENDBRANCH  32  33
ENDBRANCH  24  27
ENDBRANCH  22  23
ENDBRANCH   1  22
TORSDOF 16
ENDMDL
MODEL 3
REMARK VINA RESULT:     -11.1      5.790      9.054
REMARK SMILES O=C(C[N@@H+]1CCC[C@@H]1c1ccccc1Cl)NCCCCNC(=O)c1ccc(-c2c3nc(c(-c4cccc(S(=O)(=O)[O-])c4F)c4ccc([nH]4)c(-c4cccc(S(=O)(=O)[O-])c4F)c4nc(c(-c5cccc(S(=O)(=O)[O-])c5F)c5ccc2[nH]5)C=C4)C=C3)cc1
REMARK SMILES IDX 19 1 18 2 17 3 16 4 1 5 2 6 3 8 4 9 5 10 8 11 6 13 7 14 9 15
REMARK SMILES IDX 10 16 14 17 11 18 13 19 15 20 12 21 20 22 21 23 22 24 23 26
REMARK SMILES IDX 24 27 25 28 86 29 26 30 85 31 27 32 28 33 29 34 79 35 30 36
REMARK SMILES IDX 84 37 78 38 80 39 31 40 83 41 77 42 76 43 32 45 64 46 44 47
REMARK SMILES IDX 63 48 45 49 48 50 62 51 81 52 46 53 47 54 61 56 82 57 49 58
REMARK SMILES IDX 33 59 34 60 42 61 35 62 37 63 43 64 36 65 38 66 39 67 40 68
REMARK SMILES IDX 41 69 65 70 66 71 74 72 67 73 69 74 75 75 68 76 70 77 71 78
REMARK SMILES IDX 72 79 73 80 50 81 51 82 59 83 52 84 54 85 60 86 53 87 55 88
REMARK SMILES IDX 56 89 57 90 58 91
REMARK H PARENT 16 7 4 12 21 25 80 44 48 55
REMARK Flexibility Score: inf
ROOT
ATOM      1  C   UNL A   1      36.712  20.669  25.014  1.00  0.00     0.023 C 
ENDROOT
BRANCH   1   2
ATOM      2  C   UNL A   1      35.459  21.543  25.068  1.00  0.00     0.023 C 
BRANCH   2   3
ATOM      3  C   UNL A   1      35.112  22.245  23.760  1.00  0.00     0.116 C 
BRANCH   3   4
ATOM      4  N   UNL A   1      33.965  23.117  23.891  1.00  0.00    -0.351 N 
ATOM      5  O   UNL A   1      35.152  24.833  24.844  1.00  0.00    -0.269 OA
ATOM      6  C   UNL A   1      34.086  24.379  24.430  1.00  0.00     0.275 C 
ATOM      7  H   UNL A   1      33.082  22.804  23.589  1.00  0.00     0.163 HD
BRANCH   6   8
ATOM      8  C   UNL A   1      32.784  25.163  24.581  1.00  0.00     0.364 C 
BRANCH   8   9
ATOM      9  N   UNL A   1      32.308  25.454  25.962  1.00  0.00    -0.321 N 
ATOM     10  C   UNL A   1      31.968  24.232  26.726  1.00  0.00     0.263 C 
ATOM     11  C   UNL A   1      30.999  26.239  25.995  1.00  0.00     0.217 C 
ATOM     12  H   UNL A   1      33.091  25.972  26.361  1.00  0.00     0.349 HD
ATOM     13  C   UNL A   1      30.632  23.809  26.175  1.00  0.00     0.068 C 
ATOM     14  C   UNL A   1      29.909  25.131  26.060  1.00  0.00     0.076 C 
BRANCH  11  15
ATOM     15  C   UNL A   1      30.685  27.324  24.950  1.00  0.00     0.028 A 
ATOM     16  C   UNL A   1      29.788  27.104  23.890  1.00  0.00     0.011 A 
ATOM     17  C   UNL A   1      31.281  28.605  24.984  1.00  0.00     0.050 A 
ATOM     18  C   UNL A   1      29.289  28.154  23.111  1.00  0.00     0.001 A 
ATOM     19  C   UNL A   1      30.794  29.660  24.197  1.00  0.00     0.021 A 
ATOM     20  Cl  UNL A   1      32.706  28.968  25.904  1.00  0.00    -0.084 Cl
ATOM     21  C   UNL A   1      29.758  29.446  23.299  1.00  0.00     0.002 A 
ENDBRANCH  11  15
ENDBRANCH   8   9
ENDBRANCH   6   8
ENDBRANCH   3   4
ENDBRANCH   2   3
ENDBRANCH   1   2
BRANCH   1  22
ATOM     22  C   UNL A   1      38.008  21.367  25.413  1.00  0.00     0.116 C 
BRANCH  22  23
ATOM     23  N   UNL A   1      39.005  20.451  25.947  1.00  0.00    -0.352 N 
ATOM     24  C   UNL A   1      40.181  20.730  26.605  1.00  0.00     0.251 C 
ATOM     25  H   UNL A   1      38.811  19.494  25.818  1.00  0.00     0.163 HD
ATOM     26  O   UNL A   1      40.972  19.831  26.853  1.00  0.00    -0.269 OA
BRANCH  24  27
ATOM     27  C   UNL A   1      40.493  22.125  26.987  1.00  0.00     0.039 A 
ATOM     28  C   UNL A   1      41.334  22.352  28.079  1.00  0.00     0.014 A 
ATOM     29  C   UNL A   1      39.972  23.201  26.264  1.00  0.00     0.014 A 
ATOM     30  C   UNL A   1      41.706  23.659  28.403  1.00  0.00     0.010 A 
ATOM     31  C   UNL A   1      40.408  24.494  26.539  1.00  0.00     0.010 A 
ATOM     32  C   UNL A   1      41.276  24.739  27.614  1.00  0.00    -0.014 A 
BRANCH  32  33
ATOM     33  C   UNL A   1      41.738  26.125  27.887  1.00  0.00     0.031 A 
ATOM     34  C   UNL A   1      43.140  26.543  27.537  1.00  0.00     0.074 A 
ATOM     35  C   UNL A   1      40.921  26.985  28.527  1.00  0.00     0.049 A 
ATOM     36  N   UNL A   1      43.736  27.688  27.750  1.00  0.00    -0.248 NA
ATOM     37  C   UNL A   1      43.994  25.536  26.887  1.00  0.00     0.031 C 
ATOM     38  C   UNL A   1      39.566  26.677  28.992  1.00  0.00     0.029 A 
ATOM     39  N   UNL A   1      41.118  28.285  28.924  1.00  0.00    -0.354 N 
ATOM     40  C   UNL A   1      45.038  27.530  27.291  1.00  0.00     0.074 A 
ATOM     41  C   UNL A   1      45.158  26.166  26.825  1.00  0.00     0.031 C 
ATOM     42  C   UNL A   1      39.055  27.756  29.606  1.00  0.00     0.029 A 
ATOM     43  C   UNL A   1      40.054  28.819  29.612  1.00  0.00     0.049 A 
ATOM     44  H   UNL A   1      41.944  28.785  28.734  1.00  0.00     0.167 HD
ATOM     45  C   UNL A   1      46.036  28.444  27.234  1.00  0.00     0.034 A 
ATOM     46  C   UNL A   1      39.903  30.025  30.194  1.00  0.00     0.034 A 
ATOM     47  C   UNL A   1      45.906  29.808  27.670  1.00  0.00     0.049 A 
ATOM     48  C   UNL A   1      41.016  31.032  30.095  1.00  0.00     0.074 A 
ATOM     49  C   UNL A   1      46.832  30.833  27.582  1.00  0.00     0.029 A 
ATOM     50  N   UNL A   1      44.784  30.338  28.290  1.00  0.00    -0.354 N 
ATOM     51  N   UNL A   1      42.188  30.912  29.519  1.00  0.00    -0.248 NA
ATOM     52  C   UNL A   1      40.775  32.352  30.693  1.00  0.00     0.031 C 
ATOM     53  C   UNL A   1      46.283  31.973  28.177  1.00  0.00     0.029 A 
ATOM     54  C   UNL A   1      44.999  31.670  28.600  1.00  0.00     0.049 A 
ATOM     55  H   UNL A   1      43.957  29.840  28.482  1.00  0.00     0.167 HD
ATOM     56  C   UNL A   1      42.807  32.149  29.653  1.00  0.00     0.074 A 
ATOM     57  C   UNL A   1      41.872  33.011  30.346  1.00  0.00     0.031 C 
ATOM     58  C   UNL A   1      44.043  32.533  29.248  1.00  0.00     0.034 A 
BRANCH  45  59
ATOM     59  C   UNL A   1      47.350  28.009  26.636  1.00  0.00     0.023 A 
ATOM     60  C   UNL A   1      48.414  27.640  27.486  1.00  0.00     0.012 A 
ATOM     61  C   UNL A   1      47.518  27.914  25.241  1.00  0.00     0.148 A 
ATOM     62  C   UNL A   1      49.636  27.222  26.958  1.00  0.00     0.002 A 
ATOM     63  C   UNL A   1      48.721  27.449  24.723  1.00  0.00     0.091 A 
ATOM     64  F   UNL A   1      46.503  28.285  24.447  1.00  0.00    -0.205 F 
ATOM     65  C   UNL A   1      49.785  27.118  25.578  1.00  0.00     0.022 A 
BRANCH  63  66
ATOM     66  S   UNL A   1      48.988  27.199  22.964  1.00  0.00     0.127 S 
ATOM     67  O   UNL A   1      50.445  27.083  22.900  1.00  0.00    -0.237 OA
ATOM     68  O   UNL A   1      48.265  25.951  22.718  1.00  0.00    -0.237 OA
ATOM     69  O   UNL A   1      48.426  28.369  22.301  1.00  0.00    -0.744 OA
ENDBRANCH  63  66
ENDBRANCH  45  59
BRANCH  46  70
ATOM     70  C   UNL A   1      38.624  30.363  30.883  1.00  0.00     0.023 A 
ATOM     71  C   UNL A   1      38.422  29.956  32.216  1.00  0.00     0.012 A 
ATOM     72  C   UNL A   1      37.621  31.107  30.232  1.00  0.00     0.148 A 
ATOM     73  C   UNL A   1      37.230  30.253  32.877  1.00  0.00     0.002 A 
ATOM     74  C   UNL A   1      36.461  31.451  30.916  1.00  0.00     0.091 A 
ATOM     75  F   UNL A   1      37.829  31.477  28.961  1.00  0.00    -0.205 F 
ATOM     76  C   UNL A   1      36.255  31.008  32.232  1.00  0.00     0.022 A 
BRANCH  74  77
ATOM     77  S   UNL A   1      35.211  32.531  30.212  1.00  0.00     0.127 S 
ATOM     78  O   UNL A   1      34.706  31.723  29.105  1.00  0.00    -0.237 OA
ATOM     79  O   UNL A   1      34.284  32.690  31.333  1.00  0.00    -0.237 OA
ATOM     80  O   UNL A   1      35.912  33.752  29.835  1.00  0.00    -0.744 OA
ENDBRANCH  74  77
ENDBRANCH  46  70
BRANCH  58  81
ATOM     81  C   UNL A   1      44.452  33.961  29.502  1.00  0.00     0.023 A 
ATOM     82  C   UNL A   1      45.049  34.317  30.728  1.00  0.00     0.012 A 
ATOM     83  C   UNL A   1      44.307  34.936  28.495  1.00  0.00     0.148 A 
ATOM     84  C   UNL A   1      45.463  35.629  30.959  1.00  0.00     0.002 A 
ATOM     85  C   UNL A   1      44.770  36.227  28.713  1.00  0.00     0.091 A 
ATOM     86  F   UNL A   1      43.721  34.580  27.342  1.00  0.00    -0.205 F 
ATOM     87  C   UNL A   1      45.335  36.580  29.949  1.00  0.00     0.022 A 
BRANCH  85  88
ATOM     88  S   UNL A   1      44.738  37.491  27.438  1.00  0.00     0.127 S 
ATOM     89  O   UNL A   1      45.122  38.684  28.190  1.00  0.00    -0.237 OA
ATOM     90  O   UNL A   1      45.751  37.010  26.498  1.00  0.00    -0.237 OA
ATOM     91  O   UNL A   1      43.380  37.499  26.910  1.00  0.00    -0.744 OA
ENDBRANCH  85  88
ENDBRANCH  58  81
ENDBRANCH  32  33
ENDBRANCH  24  27
ENDBRANCH  22  23
ENDBRANCH   1  22
TORSDOF 16
ENDMDL
