MODEL 1
REMARK VINA RESULT:     -11.3      0.000      0.000
REMARK SMILES COCc1cccc(C(=O)N2C[C@@H](O)C[C@@H]2C(=O)NCCCCNC(=O)c2ccc(-c3c4nc(c(-c5cccc(S(=O)(=O)[O-])c5F)c5ccc([nH]5)c(-c5cccc(S(=O)(=O)[O-])c5F)c5nc(c(-c6cccc(S(=O)(=O)[O-])c6F)c6ccc3[nH]6)C=C5)C=C4)cc2)c1
REMARK SMILES IDX 21 1 20 2 19 3 17 4 18 5 16 7 11 8 12 9 13 10 15 11 9 12
REMARK SMILES IDX 10 13 8 14 4 15 5 16 90 17 6 18 7 19 3 20 2 21 1 22 14 23
REMARK SMILES IDX 22 25 23 26 24 27 25 28 26 30 27 31 28 32 89 33 29 34 88 35
REMARK SMILES IDX 30 36 31 37 32 38 82 39 33 40 87 41 81 42 83 43 34 44 86 45
REMARK SMILES IDX 80 46 79 47 35 49 67 50 47 51 66 52 48 53 51 54 65 55 84 56
REMARK SMILES IDX 49 57 50 58 64 60 85 61 52 62 36 63 37 64 45 65 38 66 40 67
REMARK SMILES IDX 46 68 39 69 41 70 42 71 43 72 44 73 68 74 69 75 77 76 70 77
REMARK SMILES IDX 72 78 78 79 71 80 73 81 74 82 75 83 76 84 53 85 54 86 62 87
REMARK SMILES IDX 55 88 57 89 63 90 56 91 58 92 59 93 60 94 61 95
REMARK H PARENT 19 6 14 24 24 29 83 48 51 59
REMARK Flexibility Score: inf
ROOT
ATOM      1  C   UNL A   1      31.430  28.124  27.034  1.00  0.00     0.023 C 
ENDROOT
BRANCH   1   2
ATOM      2  C   UNL A   1      32.145  26.830  26.666  1.00  0.00     0.116 C 
BRANCH   2   3
ATOM      3  N   UNL A   1      31.351  25.632  26.844  1.00  0.00    -0.354 N 
ATOM      4  C   UNL A   1      31.736  24.327  26.716  1.00  0.00     0.242 C 
ATOM      5  O   UNL A   1      31.036  23.480  27.275  1.00  0.00    -0.273 OA
ATOM      6  H   UNL A   1      30.409  25.778  27.091  1.00  0.00     0.163 HD
BRANCH   4   7
ATOM      7  C   UNL A   1      32.996  23.964  25.889  1.00  0.00     0.177 C 
ATOM      8  N   UNL A   1      32.626  23.207  24.688  1.00  0.00    -0.324 N 
ATOM      9  C   UNL A   1      33.277  21.912  24.639  1.00  0.00     0.152 C 
ATOM     10  C   UNL A   1      33.581  21.620  26.099  1.00  0.00     0.136 C 
ATOM     11  C   UNL A   1      33.923  23.004  26.651  1.00  0.00     0.069 C 
BRANCH   8  12
ATOM     12  C   UNL A   1      31.832  23.758  23.703  1.00  0.00     0.254 C 
ATOM     13  O   UNL A   1      31.009  23.092  23.074  1.00  0.00    -0.269 OA
BRANCH  12  14
ATOM     14  C   UNL A   1      32.107  25.179  23.319  1.00  0.00     0.040 A 
ATOM     15  C   UNL A   1      31.269  27.401  22.715  1.00  0.00    -0.022 A 
ATOM     16  C   UNL A   1      32.582  27.881  22.746  1.00  0.00     0.006 A 
ATOM     17  C   UNL A   1      31.048  26.052  23.020  1.00  0.00     0.020 A 
ATOM     18  C   UNL A   1      33.639  27.035  23.096  1.00  0.00     0.001 A 
ATOM     19  C   UNL A   1      33.405  25.686  23.381  1.00  0.00     0.014 A 
BRANCH  15  20
ATOM     20  C   UNL A   1      30.093  28.258  22.311  1.00  0.00     0.195 C 
BRANCH  20  21
ATOM     21  O   UNL A   1      29.361  28.784  23.416  1.00  0.00    -0.380 OA
ATOM     22  C   UNL A   1      29.202  30.196  23.334  1.00  0.00     0.195 C 
ENDBRANCH  20  21
ENDBRANCH  15  20
ENDBRANCH  12  14
ENDBRANCH   8  12
BRANCH  10  23
ATOM     23  O   UNL A   1      34.651  20.709  26.279  1.00  0.00    -0.391 OA
ATOM     24  H   UNL A   1      34.453  19.881  25.815  1.00  0.00     0.211 HD
ENDBRANCH  10  23
ENDBRANCH   4   7
ENDBRANCH   2   3
ENDBRANCH   1   2
BRANCH   1  25
ATOM     25  C   UNL A   1      31.408  29.222  25.970  1.00  0.00     0.023 C 
BRANCH  25  26
ATOM     26  C   UNL A   1      32.670  30.070  25.837  1.00  0.00     0.116 C 
BRANCH  26  27
ATOM     27  N   UNL A   1      32.509  31.427  26.334  1.00  0.00    -0.352 N 
ATOM     28  C   UNL A   1      33.252  32.127  27.256  1.00  0.00     0.251 C 
ATOM     29  H   UNL A   1      31.748  31.923  25.952  1.00  0.00     0.163 HD
ATOM     30  O   UNL A   1      32.869  33.237  27.619  1.00  0.00    -0.269 OA
BRANCH  28  31
ATOM     31  C   UNL A   1      34.485  31.547  27.839  1.00  0.00     0.039 A 
ATOM     32  C   UNL A   1      35.587  32.382  28.046  1.00  0.00     0.014 A 
ATOM     33  C   UNL A   1      34.566  30.195  28.178  1.00  0.00     0.014 A 
ATOM     34  C   UNL A   1      36.735  31.882  28.669  1.00  0.00     0.010 A 
ATOM     35  C   UNL A   1      35.682  29.715  28.864  1.00  0.00     0.010 A 
ATOM     36  C   UNL A   1      36.776  30.555  29.125  1.00  0.00    -0.014 A 
BRANCH  36  37
ATOM     37  C   UNL A   1      37.930  30.036  29.907  1.00  0.00     0.031 A 
ATOM     38  C   UNL A   1      38.197  30.534  31.303  1.00  0.00     0.074 A 
ATOM     39  C   UNL A   1      38.804  29.193  29.321  1.00  0.00     0.049 A 
ATOM     40  N   UNL A   1      39.200  30.261  32.098  1.00  0.00    -0.248 NA
ATOM     41  C   UNL A   1      37.225  31.484  31.868  1.00  0.00     0.031 C 
ATOM     42  C   UNL A   1      38.708  28.696  27.946  1.00  0.00     0.029 A 
ATOM     43  N   UNL A   1      39.965  28.630  29.794  1.00  0.00    -0.354 N 
ATOM     44  C   UNL A   1      39.003  31.031  33.238  1.00  0.00     0.074 A 
ATOM     45  C   UNL A   1      37.798  31.803  33.020  1.00  0.00     0.031 C 
ATOM     46  C   UNL A   1      39.763  27.907  27.688  1.00  0.00     0.029 A 
ATOM     47  C   UNL A   1      40.627  27.863  28.863  1.00  0.00     0.049 A 
ATOM     48  H   UNL A   1      40.292  28.764  30.713  1.00  0.00     0.167 HD
ATOM     49  C   UNL A   1      39.738  31.072  34.375  1.00  0.00     0.034 A 
ATOM     50  C   UNL A   1      41.800  27.203  28.941  1.00  0.00     0.034 A 
ATOM     51  C   UNL A   1      40.905  30.265  34.613  1.00  0.00     0.049 A 
ATOM     52  C   UNL A   1      42.573  27.229  30.232  1.00  0.00     0.074 A 
ATOM     53  C   UNL A   1      41.659  30.163  35.770  1.00  0.00     0.029 A 
ATOM     54  N   UNL A   1      41.491  29.424  33.680  1.00  0.00    -0.354 N 
ATOM     55  N   UNL A   1      42.278  27.832  31.357  1.00  0.00    -0.248 NA
ATOM     56  C   UNL A   1      43.821  26.453  30.274  1.00  0.00     0.031 C 
ATOM     57  C   UNL A   1      42.709  29.270  35.532  1.00  0.00     0.029 A 
ATOM     58  C   UNL A   1      42.601  28.805  34.231  1.00  0.00     0.049 A 
ATOM     59  H   UNL A   1      41.167  29.287  32.761  1.00  0.00     0.167 HD
ATOM     60  C   UNL A   1      43.286  27.486  32.250  1.00  0.00     0.074 A 
ATOM     61  C   UNL A   1      44.187  26.599  31.541  1.00  0.00     0.031 C 
ATOM     62  C   UNL A   1      43.460  27.882  33.535  1.00  0.00     0.034 A 
BRANCH  49  63
ATOM     63  C   UNL A   1      39.265  31.978  35.482  1.00  0.00     0.023 A 
ATOM     64  C   UNL A   1      38.335  31.488  36.423  1.00  0.00     0.012 A 
ATOM     65  C   UNL A   1      39.777  33.281  35.630  1.00  0.00     0.148 A 
ATOM     66  C   UNL A   1      37.898  32.292  37.474  1.00  0.00     0.002 A 
ATOM     67  C   UNL A   1      39.366  34.062  36.705  1.00  0.00     0.091 A 
ATOM     68  F   UNL A   1      40.643  33.737  34.714  1.00  0.00    -0.205 F 
ATOM     69  C   UNL A   1      38.420  33.574  37.620  1.00  0.00     0.022 A 
BRANCH  67  70
ATOM     70  S   UNL A   1      40.037  35.698  37.022  1.00  0.00     0.127 S 
ATOM     71  O   UNL A   1      41.467  35.415  37.131  1.00  0.00    -0.237 OA
ATOM     72  O   UNL A   1      39.651  36.432  35.814  1.00  0.00    -0.237 OA
ATOM     73  O   UNL A   1      39.393  36.164  38.243  1.00  0.00    -0.744 OA
ENDBRANCH  67  70
ENDBRANCH  49  63
BRANCH  50  74
ATOM     74  C   UNL A   1      42.279  26.402  27.780  1.00  0.00     0.023 A 
ATOM     75  C   UNL A   1      43.166  26.991  26.858  1.00  0.00     0.012 A 
ATOM     76  C   UNL A   1      41.895  25.060  27.600  1.00  0.00     0.148 A 
ATOM     77  C   UNL A   1      43.641  26.268  25.764  1.00  0.00     0.002 A 
ATOM     78  C   UNL A   1      42.414  24.327  26.537  1.00  0.00     0.091 A 
ATOM     79  F   UNL A   1      41.037  24.520  28.479  1.00  0.00    -0.205 F 
ATOM     80  C   UNL A   1      43.274  24.934  25.609  1.00  0.00     0.022 A 
BRANCH  78  81
ATOM     81  S   UNL A   1      42.101  22.569  26.339  1.00  0.00     0.127 S 
ATOM     82  O   UNL A   1      42.655  22.314  25.013  1.00  0.00    -0.237 OA
ATOM     83  O   UNL A   1      42.866  21.997  27.448  1.00  0.00    -0.237 OA
ATOM     84  O   UNL A   1      40.658  22.414  26.467  1.00  0.00    -0.744 OA
ENDBRANCH  78  81
ENDBRANCH  50  74
BRANCH  62  85
ATOM     85  C   UNL A   1      44.656  27.344  34.276  1.00  0.00     0.023 A 
ATOM     86  C   UNL A   1      45.869  28.058  34.251  1.00  0.00     0.012 A 
ATOM     87  C   UNL A   1      44.556  26.176  35.059  1.00  0.00     0.148 A 
ATOM     88  C   UNL A   1      46.976  27.603  34.968  1.00  0.00     0.002 A 
ATOM     89  C   UNL A   1      45.650  25.752  35.806  1.00  0.00     0.091 A 
ATOM     90  F   UNL A   1      43.400  25.498  35.054  1.00  0.00    -0.205 F 
ATOM     91  C   UNL A   1      46.862  26.459  35.754  1.00  0.00     0.022 A 
BRANCH  89  92
ATOM     92  S   UNL A   1      45.565  24.343  36.916  1.00  0.00     0.127 S 
ATOM     93  O   UNL A   1      45.217  23.260  35.997  1.00  0.00    -0.237 OA
ATOM     94  O   UNL A   1      46.928  24.278  37.446  1.00  0.00    -0.237 OA
ATOM     95  O   UNL A   1      44.550  24.677  37.907  1.00  0.00    -0.744 OA
ENDBRANCH  89  92
ENDBRANCH  62  85
ENDBRANCH  36  37
ENDBRANCH  28  31
ENDBRANCH  26  27
ENDBRANCH  25  26
ENDBRANCH   1  25
TORSDOF 19
ENDMDL
MODEL 2
REMARK VINA RESULT:     -11.3      2.418      8.021
REMARK SMILES COCc1cccc(C(=O)N2C[C@@H](O)C[C@@H]2C(=O)NCCCCNC(=O)c2ccc(-c3c4nc(c(-c5cccc(S(=O)(=O)[O-])c5F)c5ccc([nH]5)c(-c5cccc(S(=O)(=O)[O-])c5F)c5nc(c(-c6cccc(S(=O)(=O)[O-])c6F)c6ccc3[nH]6)C=C5)C=C4)cc2)c1
REMARK SMILES IDX 21 1 20 2 19 3 17 4 18 5 16 7 11 8 12 9 13 10 15 11 9 12
REMARK SMILES IDX 10 13 8 14 4 15 5 16 90 17 6 18 7 19 3 20 2 21 1 22 14 23
REMARK SMILES IDX 22 25 23 26 24 27 25 28 26 30 27 31 28 32 89 33 29 34 88 35
REMARK SMILES IDX 30 36 31 37 32 38 82 39 33 40 87 41 81 42 83 43 34 44 86 45
REMARK SMILES IDX 80 46 79 47 35 49 67 50 47 51 66 52 48 53 51 54 65 55 84 56
REMARK SMILES IDX 49 57 50 58 64 60 85 61 52 62 36 63 37 64 45 65 38 66 40 67
REMARK SMILES IDX 46 68 39 69 41 70 42 71 43 72 44 73 68 74 69 75 77 76 70 77
REMARK SMILES IDX 72 78 78 79 71 80 73 81 74 82 75 83 76 84 53 85 54 86 62 87
REMARK SMILES IDX 55 88 57 89 63 90 56 91 58 92 59 93 60 94 61 95
REMARK H PARENT 19 6 14 24 24 29 83 48 51 59
REMARK Flexibility Score: inf
ROOT
ATOM      1  C   UNL A   1      32.329  29.850  26.049  1.00  0.00     0.023 C 
ENDROOT
BRANCH   1   2
ATOM      2  C   UNL A   1      32.291  28.535  26.818  1.00  0.00     0.116 C 
BRANCH   2   3
ATOM      3  N   UNL A   1      31.077  27.767  26.637  1.00  0.00    -0.354 N 
ATOM      4  C   UNL A   1      30.901  26.597  25.954  1.00  0.00     0.242 C 
ATOM      5  O   UNL A   1      29.909  25.924  26.242  1.00  0.00    -0.273 OA
ATOM      6  H   UNL A   1      30.271  28.137  27.065  1.00  0.00     0.163 HD
BRANCH   4   7
ATOM      7  C   UNL A   1      31.921  26.170  24.866  1.00  0.00     0.177 C 
ATOM      8  N   UNL A   1      31.472  26.606  23.539  1.00  0.00    -0.324 N 
ATOM      9  C   UNL A   1      31.331  25.492  22.620  1.00  0.00     0.152 C 
ATOM     10  C   UNL A   1      31.115  24.304  23.543  1.00  0.00     0.136 C 
ATOM     11  C   UNL A   1      32.012  24.642  24.735  1.00  0.00     0.069 C 
BRANCH   8  12
ATOM     12  C   UNL A   1      31.321  27.942  23.229  1.00  0.00     0.254 C 
ATOM     13  O   UNL A   1      32.285  28.679  23.017  1.00  0.00    -0.269 OA
BRANCH  12  14
ATOM     14  C   UNL A   1      29.938  28.508  23.300  1.00  0.00     0.040 A 
ATOM     15  C   UNL A   1      28.452  30.457  23.279  1.00  0.00    -0.022 A 
ATOM     16  C   UNL A   1      27.353  29.592  23.277  1.00  0.00     0.006 A 
ATOM     17  C   UNL A   1      29.736  29.898  23.275  1.00  0.00     0.020 A 
ATOM     18  C   UNL A   1      27.540  28.206  23.247  1.00  0.00     0.001 A 
ATOM     19  C   UNL A   1      28.828  27.663  23.260  1.00  0.00     0.014 A 
BRANCH  15  20
ATOM     20  C   UNL A   1      28.311  31.959  23.346  1.00  0.00     0.195 C 
BRANCH  20  21
ATOM     21  O   UNL A   1      28.887  32.638  22.232  1.00  0.00    -0.380 OA
ATOM     22  C   UNL A   1      28.041  32.607  21.088  1.00  0.00     0.195 C 
ENDBRANCH  20  21
ENDBRANCH  15  20
ENDBRANCH  12  14
ENDBRANCH   8  12
BRANCH  10  23
ATOM     23  O   UNL A   1      31.474  23.065  22.957  1.00  0.00    -0.391 OA
ATOM     24  H   UNL A   1      31.730  23.206  22.033  1.00  0.00     0.211 HD
ENDBRANCH  10  23
ENDBRANCH   4   7
ENDBRANCH   2   3
ENDBRANCH   1   2
BRANCH   1  25
ATOM     25  C   UNL A   1      32.013  31.119  26.844  1.00  0.00     0.023 C 
BRANCH  25  26
ATOM     26  C   UNL A   1      33.151  32.121  27.009  1.00  0.00     0.116 C 
BRANCH  26  27
ATOM     27  N   UNL A   1      32.705  33.434  27.449  1.00  0.00    -0.352 N 
ATOM     28  C   UNL A   1      33.157  34.223  28.481  1.00  0.00     0.251 C 
ATOM     29  H   UNL A   1      31.963  33.817  26.928  1.00  0.00     0.163 HD
ATOM     30  O   UNL A   1      32.556  35.261  28.753  1.00  0.00    -0.269 OA
BRANCH  28  31
ATOM     31  C   UNL A   1      34.334  33.823  29.287  1.00  0.00     0.039 A 
ATOM     32  C   UNL A   1      34.140  32.985  30.390  1.00  0.00     0.014 A 
ATOM     33  C   UNL A   1      35.620  34.266  28.971  1.00  0.00     0.014 A 
ATOM     34  C   UNL A   1      35.241  32.525  31.120  1.00  0.00     0.010 A 
ATOM     35  C   UNL A   1      36.722  33.749  29.654  1.00  0.00     0.010 A 
ATOM     36  C   UNL A   1      36.546  32.866  30.730  1.00  0.00    -0.014 A 
BRANCH  36  37
ATOM     37  C   UNL A   1      37.736  32.286  31.407  1.00  0.00     0.031 A 
ATOM     38  C   UNL A   1      38.507  31.159  30.770  1.00  0.00     0.074 A 
ATOM     39  C   UNL A   1      38.064  32.700  32.647  1.00  0.00     0.049 A 
ATOM     40  N   UNL A   1      39.514  30.474  31.250  1.00  0.00    -0.248 NA
ATOM     41  C   UNL A   1      38.072  30.728  29.432  1.00  0.00     0.031 C 
ATOM     42  C   UNL A   1      37.351  33.728  33.411  1.00  0.00     0.029 A 
ATOM     43  N   UNL A   1      39.059  32.287  33.500  1.00  0.00    -0.354 N 
ATOM     44  C   UNL A   1      39.808  29.509  30.295  1.00  0.00     0.074 A 
ATOM     45  C   UNL A   1      38.855  29.680  29.218  1.00  0.00     0.031 C 
ATOM     46  C   UNL A   1      37.929  33.860  34.616  1.00  0.00     0.029 A 
ATOM     47  C   UNL A   1      39.032  32.912  34.725  1.00  0.00     0.049 A 
ATOM     48  H   UNL A   1      39.727  31.606  33.257  1.00  0.00     0.167 HD
ATOM     49  C   UNL A   1      40.797  28.584  30.296  1.00  0.00     0.034 A 
ATOM     50  C   UNL A   1      39.803  32.740  35.817  1.00  0.00     0.034 A 
ATOM     51  C   UNL A   1      41.777  28.449  31.340  1.00  0.00     0.049 A 
ATOM     52  C   UNL A   1      40.924  31.737  35.774  1.00  0.00     0.074 A 
ATOM     53  C   UNL A   1      42.876  27.609  31.385  1.00  0.00     0.029 A 
ATOM     54  N   UNL A   1      41.777  29.169  32.525  1.00  0.00    -0.354 N 
ATOM     55  N   UNL A   1      41.289  30.950  34.792  1.00  0.00    -0.248 NA
ATOM     56  C   UNL A   1      41.762  31.625  36.977  1.00  0.00     0.031 C 
ATOM     57  C   UNL A   1      43.534  27.811  32.604  1.00  0.00     0.029 A 
ATOM     58  C   UNL A   1      42.852  28.787  33.311  1.00  0.00     0.049 A 
ATOM     59  H   UNL A   1      41.111  29.851  32.772  1.00  0.00     0.167 HD
ATOM     60  C   UNL A   1      42.415  30.271  35.245  1.00  0.00     0.074 A 
ATOM     61  C   UNL A   1      42.687  30.759  36.583  1.00  0.00     0.031 C 
ATOM     62  C   UNL A   1      43.146  29.318  34.618  1.00  0.00     0.034 A 
BRANCH  49  63
ATOM     63  C   UNL A   1      40.911  27.680  29.096  1.00  0.00     0.023 A 
ATOM     64  C   UNL A   1      40.092  26.535  29.016  1.00  0.00     0.012 A 
ATOM     65  C   UNL A   1      41.774  27.989  28.027  1.00  0.00     0.148 A 
ATOM     66  C   UNL A   1      40.155  25.693  27.907  1.00  0.00     0.002 A 
ATOM     67  C   UNL A   1      41.801  27.167  26.906  1.00  0.00     0.091 A 
ATOM     68  F   UNL A   1      42.561  29.070  28.131  1.00  0.00    -0.205 F 
ATOM     69  C   UNL A   1      41.001  26.014  26.849  1.00  0.00     0.022 A 
BRANCH  67  70
ATOM     70  S   UNL A   1      42.802  27.536  25.461  1.00  0.00     0.127 S 
ATOM     71  O   UNL A   1      42.568  26.356  24.630  1.00  0.00    -0.237 OA
ATOM     72  O   UNL A   1      42.185  28.766  24.961  1.00  0.00    -0.237 OA
ATOM     73  O   UNL A   1      44.165  27.699  25.951  1.00  0.00    -0.744 OA
ENDBRANCH  67  70
ENDBRANCH  49  63
BRANCH  50  74
ATOM     74  C   UNL A   1      39.585  33.590  37.022  1.00  0.00     0.023 A 
ATOM     75  C   UNL A   1      40.067  34.913  37.026  1.00  0.00     0.012 A 
ATOM     76  C   UNL A   1      38.878  33.114  38.142  1.00  0.00     0.148 A 
ATOM     77  C   UNL A   1      39.872  35.739  38.133  1.00  0.00     0.002 A 
ATOM     78  C   UNL A   1      38.641  33.959  39.221  1.00  0.00     0.091 A 
ATOM     79  F   UNL A   1      38.440  31.846  38.127  1.00  0.00    -0.205 F 
ATOM     80  C   UNL A   1      39.151  35.266  39.225  1.00  0.00     0.022 A 
BRANCH  78  81
ATOM     81  S   UNL A   1      37.608  33.477  40.610  1.00  0.00     0.127 S 
ATOM     82  O   UNL A   1      37.518  34.723  41.364  1.00  0.00    -0.237 OA
ATOM     83  O   UNL A   1      36.370  33.070  39.942  1.00  0.00    -0.237 OA
ATOM     84  O   UNL A   1      38.319  32.386  41.263  1.00  0.00    -0.744 OA
ENDBRANCH  78  81
ENDBRANCH  50  74
BRANCH  62  85
ATOM     85  C   UNL A   1      44.330  28.747  35.354  1.00  0.00     0.023 A 
ATOM     86  C   UNL A   1      45.612  29.285  35.132  1.00  0.00     0.012 A 
ATOM     87  C   UNL A   1      44.161  27.733  36.318  1.00  0.00     0.148 A 
ATOM     88  C   UNL A   1      46.715  28.803  35.837  1.00  0.00     0.002 A 
ATOM     89  C   UNL A   1      45.258  27.289  37.049  1.00  0.00     0.091 A 
ATOM     90  F   UNL A   1      42.936  27.219  36.500  1.00  0.00    -0.205 F 
ATOM     91  C   UNL A   1      46.536  27.815  36.803  1.00  0.00     0.022 A 
BRANCH  89  92
ATOM     92  S   UNL A   1      45.104  26.086  38.375  1.00  0.00     0.127 S 
ATOM     93  O   UNL A   1      44.169  26.756  39.278  1.00  0.00    -0.237 OA
ATOM     94  O   UNL A   1      44.552  24.922  37.679  1.00  0.00    -0.237 OA
ATOM     95  O   UNL A   1      46.451  25.892  38.895  1.00  0.00    -0.744 OA
ENDBRANCH  89  92
ENDBRANCH  62  85
ENDBRANCH  36  37
ENDBRANCH  28  31
ENDBRANCH  26  27
ENDBRANCH  25  26
ENDBRANCH   1  25
TORSDOF 19
ENDMDL
MODEL 3
REMARK VINA RESULT:     -11.2      0.662      7.739
REMARK SMILES COCc1cccc(C(=O)N2C[C@@H](O)C[C@@H]2C(=O)NCCCCNC(=O)c2ccc(-c3c4nc(c(-c5cccc(S(=O)(=O)[O-])c5F)c5ccc([nH]5)c(-c5cccc(S(=O)(=O)[O-])c5F)c5nc(c(-c6cccc(S(=O)(=O)[O-])c6F)c6ccc3[nH]6)C=C5)C=C4)cc2)c1
REMARK SMILES IDX 21 1 20 2 19 3 17 4 18 5 16 7 11 8 12 9 13 10 15 11 9 12
REMARK SMILES IDX 10 13 8 14 4 15 5 16 90 17 6 18 7 19 3 20 2 21 1 22 14 23
REMARK SMILES IDX 22 25 23 26 24 27 25 28 26 30 27 31 28 32 89 33 29 34 88 35
REMARK SMILES IDX 30 36 31 37 32 38 82 39 33 40 87 41 81 42 83 43 34 44 86 45
REMARK SMILES IDX 80 46 79 47 35 49 67 50 47 51 66 52 48 53 51 54 65 55 84 56
REMARK SMILES IDX 49 57 50 58 64 60 85 61 52 62 36 63 37 64 45 65 38 66 40 67
REMARK SMILES IDX 46 68 39 69 41 70 42 71 43 72 44 73 68 74 69 75 77 76 70 77
REMARK SMILES IDX 72 78 78 79 71 80 73 81 74 82 75 83 76 84 53 85 54 86 62 87
REMARK SMILES IDX 55 88 57 89 63 90 56 91 58 92 59 93 60 94 61 95
REMARK H PARENT 19 6 14 24 24 29 83 48 51 59
REMARK Flexibility Score: inf
ROOT
ATOM      1  C   UNL A   1      31.851  28.020  27.314  1.00  0.00     0.023 C 
ENDROOT
BRANCH   1   2
ATOM      2  C   UNL A   1      32.286  26.772  26.555  1.00  0.00     0.116 C 
BRANCH   2   3
ATOM      3  N   UNL A   1      31.505  25.588  26.847  1.00  0.00    -0.354 N 
ATOM      4  C   UNL A   1      31.814  24.280  26.598  1.00  0.00     0.242 C 
ATOM      5  O   UNL A   1      31.213  23.429  27.257  1.00  0.00    -0.273 OA
ATOM      6  H   UNL A   1      30.637  25.747  27.283  1.00  0.00     0.163 HD
BRANCH   4   7
ATOM      7  C   UNL A   1      32.871  23.920  25.524  1.00  0.00     0.177 C 
ATOM      8  N   UNL A   1      32.222  23.409  24.311  1.00  0.00    -0.324 N 
ATOM      9  C   UNL A   1      32.680  22.075  23.970  1.00  0.00     0.152 C 
ATOM     10  C   UNL A   1      33.166  21.524  25.301  1.00  0.00     0.136 C 
ATOM     11  C   UNL A   1      33.770  22.758  25.972  1.00  0.00     0.069 C 
BRANCH   8  12
ATOM     12  C   UNL A   1      31.365  24.191  23.566  1.00  0.00     0.254 C 
ATOM     13  O   UNL A   1      30.290  23.766  23.140  1.00  0.00    -0.269 OA
BRANCH  12  14
ATOM     14  C   UNL A   1      31.853  25.548  23.164  1.00  0.00     0.040 A 
ATOM     15  C   UNL A   1      31.443  27.952  22.922  1.00  0.00    -0.022 A 
ATOM     16  C   UNL A   1      32.784  28.123  22.565  1.00  0.00     0.006 A 
ATOM     17  C   UNL A   1      30.999  26.661  23.234  1.00  0.00     0.020 A 
ATOM     18  C   UNL A   1      33.659  27.031  22.544  1.00  0.00     0.001 A 
ATOM     19  C   UNL A   1      33.196  25.745  22.842  1.00  0.00     0.014 A 
BRANCH  15  20
ATOM     20  C   UNL A   1      30.447  29.087  22.928  1.00  0.00     0.195 C 
BRANCH  20  21
ATOM     21  O   UNL A   1      29.364  28.902  22.017  1.00  0.00    -0.380 OA
ATOM     22  C   UNL A   1      28.099  29.090  22.641  1.00  0.00     0.195 C 
ENDBRANCH  20  21
ENDBRANCH  15  20
ENDBRANCH  12  14
ENDBRANCH   8  12
BRANCH  10  23
ATOM     23  O   UNL A   1      34.121  20.486  25.163  1.00  0.00    -0.391 OA
ATOM     24  H   UNL A   1      34.999  20.820  25.401  1.00  0.00     0.211 HD
ENDBRANCH  10  23
ENDBRANCH   4   7
ENDBRANCH   2   3
ENDBRANCH   1   2
BRANCH   1  25
ATOM     25  C   UNL A   1      31.383  29.208  26.470  1.00  0.00     0.023 C 
BRANCH  25  26
ATOM     26  C   UNL A   1      32.463  30.171  25.989  1.00  0.00     0.116 C 
BRANCH  26  27
ATOM     27  N   UNL A   1      32.237  31.546  26.405  1.00  0.00    -0.352 N 
ATOM     28  C   UNL A   1      32.979  32.354  27.235  1.00  0.00     0.251 C 
ATOM     29  H   UNL A   1      31.425  31.965  26.036  1.00  0.00     0.163 HD
ATOM     30  O   UNL A   1      32.542  33.460  27.547  1.00  0.00    -0.269 OA
BRANCH  28  31
ATOM     31  C   UNL A   1      34.278  31.896  27.782  1.00  0.00     0.039 A 
ATOM     32  C   UNL A   1      35.311  32.827  27.930  1.00  0.00     0.014 A 
ATOM     33  C   UNL A   1      34.487  30.564  28.146  1.00  0.00     0.014 A 
ATOM     34  C   UNL A   1      36.519  32.442  28.519  1.00  0.00     0.010 A 
ATOM     35  C   UNL A   1      35.665  30.198  28.799  1.00  0.00     0.010 A 
ATOM     36  C   UNL A   1      36.691  31.134  29.001  1.00  0.00    -0.014 A 
BRANCH  36  37
ATOM     37  C   UNL A   1      37.913  30.735  29.748  1.00  0.00     0.031 A 
ATOM     38  C   UNL A   1      38.887  29.750  29.156  1.00  0.00     0.074 A 
ATOM     39  C   UNL A   1      38.096  31.177  31.008  1.00  0.00     0.049 A 
ATOM     40  N   UNL A   1      39.956  29.222  29.696  1.00  0.00    -0.248 NA
ATOM     41  C   UNL A   1      38.607  29.276  27.792  1.00  0.00     0.031 C 
ATOM     42  C   UNL A   1      37.186  32.071  31.731  1.00  0.00     0.029 A 
ATOM     43  N   UNL A   1      39.088  30.911  31.921  1.00  0.00    -0.354 N 
ATOM     44  C   UNL A   1      40.455  28.327  28.757  1.00  0.00     0.074 A 
ATOM     45  C   UNL A   1      39.555  28.364  27.623  1.00  0.00     0.031 C 
ATOM     46  C   UNL A   1      37.661  32.275  32.970  1.00  0.00     0.029 A 
ATOM     47  C   UNL A   1      38.890  31.508  33.144  1.00  0.00     0.049 A 
ATOM     48  H   UNL A   1      39.868  30.345  31.717  1.00  0.00     0.167 HD
ATOM     49  C   UNL A   1      41.574  27.566  28.817  1.00  0.00     0.034 A 
ATOM     50  C   UNL A   1      39.610  31.441  34.282  1.00  0.00     0.034 A 
ATOM     51  C   UNL A   1      42.496  27.570  29.919  1.00  0.00     0.049 A 
ATOM     52  C   UNL A   1      40.873  30.624  34.305  1.00  0.00     0.074 A 
ATOM     53  C   UNL A   1      43.708  26.909  30.030  1.00  0.00     0.029 A 
ATOM     54  N   UNL A   1      42.312  28.264  31.105  1.00  0.00    -0.354 N 
ATOM     55  N   UNL A   1      41.416  29.917  33.344  1.00  0.00    -0.248 NA
ATOM     56  C   UNL A   1      41.643  30.626  35.558  1.00  0.00     0.031 C 
ATOM     57  C   UNL A   1      44.250  27.193  31.288  1.00  0.00     0.029 A 
ATOM     58  C   UNL A   1      43.383  28.043  31.956  1.00  0.00     0.049 A 
ATOM     59  H   UNL A   1      41.535  28.832  31.312  1.00  0.00     0.167 HD
ATOM     60  C   UNL A   1      42.603  29.414  33.865  1.00  0.00     0.074 A 
ATOM     61  C   UNL A   1      42.713  29.919  35.218  1.00  0.00     0.031 C 
ATOM     62  C   UNL A   1      43.510  28.594  33.280  1.00  0.00     0.034 A 
BRANCH  49  63
ATOM     63  C   UNL A   1      41.900  26.708  27.622  1.00  0.00     0.023 A 
ATOM     64  C   UNL A   1      42.582  27.281  26.528  1.00  0.00     0.012 A 
ATOM     65  C   UNL A   1      41.593  25.334  27.603  1.00  0.00     0.148 A 
ATOM     66  C   UNL A   1      42.922  26.507  25.419  1.00  0.00     0.002 A 
ATOM     67  C   UNL A   1      41.972  24.561  26.511  1.00  0.00     0.091 A 
ATOM     68  F   UNL A   1      40.926  24.812  28.641  1.00  0.00    -0.205 F 
ATOM     69  C   UNL A   1      42.626  25.147  25.415  1.00  0.00     0.022 A 
BRANCH  67  70
ATOM     70  S   UNL A   1      41.702  22.786  26.444  1.00  0.00     0.127 S 
ATOM     71  O   UNL A   1      42.334  22.344  27.686  1.00  0.00    -0.237 OA
ATOM     72  O   UNL A   1      40.241  22.693  26.437  1.00  0.00    -0.237 OA
ATOM     73  O   UNL A   1      42.342  22.331  25.216  1.00  0.00    -0.744 OA
ENDBRANCH  67  70
ENDBRANCH  49  63
BRANCH  50  74
ATOM     74  C   UNL A   1      39.188  32.230  35.474  1.00  0.00     0.023 A 
ATOM     75  C   UNL A   1      38.317  31.643  36.412  1.00  0.00     0.012 A 
ATOM     76  C   UNL A   1      39.666  33.534  35.703  1.00  0.00     0.148 A 
ATOM     77  C   UNL A   1      37.909  32.350  37.544  1.00  0.00     0.002 A 
ATOM     78  C   UNL A   1      39.298  34.213  36.860  1.00  0.00     0.091 A 
ATOM     79  F   UNL A   1      40.482  34.082  34.791  1.00  0.00    -0.205 F 
ATOM     80  C   UNL A   1      38.406  33.629  37.773  1.00  0.00     0.022 A 
BRANCH  78  81
ATOM     81  S   UNL A   1      39.996  35.808  37.301  1.00  0.00     0.127 S 
ATOM     82  O   UNL A   1      41.408  35.480  37.471  1.00  0.00    -0.237 OA
ATOM     83  O   UNL A   1      39.689  36.612  36.116  1.00  0.00    -0.237 OA
ATOM     84  O   UNL A   1      39.288  36.224  38.504  1.00  0.00    -0.744 OA
ENDBRANCH  78  81
ENDBRANCH  50  74
BRANCH  62  85
ATOM     85  C   UNL A   1      44.720  28.203  34.087  1.00  0.00     0.023 A 
ATOM     86  C   UNL A   1      45.854  29.039  34.091  1.00  0.00     0.012 A 
ATOM     87  C   UNL A   1      44.707  27.050  34.899  1.00  0.00     0.148 A 
ATOM     88  C   UNL A   1      46.968  28.720  34.867  1.00  0.00     0.002 A 
ATOM     89  C   UNL A   1      45.804  26.763  35.704  1.00  0.00     0.091 A 
ATOM     90  F   UNL A   1      43.628  26.256  34.865  1.00  0.00    -0.205 F 
ATOM     91  C   UNL A   1      46.938  27.590  35.682  1.00  0.00     0.022 A 
BRANCH  89  92
ATOM     92  S   UNL A   1      45.815  25.380  36.851  1.00  0.00     0.127 S 
ATOM     93  O   UNL A   1      47.105  25.556  37.517  1.00  0.00    -0.237 OA
ATOM     94  O   UNL A   1      44.651  25.662  37.692  1.00  0.00    -0.237 OA
ATOM     95  O   UNL A   1      45.689  24.182  36.032  1.00  0.00    -0.744 OA
ENDBRANCH  89  92
ENDBRANCH  62  85
ENDBRANCH  36  37
ENDBRANCH  28  31
ENDBRANCH  26  27
ENDBRANCH  25  26
ENDBRANCH   1  25
TORSDOF 19
ENDMDL
