MODEL 1
REMARK VINA RESULT:     -11.8      0.000      0.000
REMARK SMILES CC(=O)Nc1cnc(N(C)CCc2cn[nH]c2)c(C(=O)NCCCCNC(=O)c2ccc(-c3c4nc(c(-c5cccc(S(=O)(=O)[O-])c5F)c5ccc([nH]5)c(-c5cccc(S(=O)(=O)[O-])c5F)c5nc(c(-c6cccc(S(=O)(=O)[O-])c6F)c6ccc3[nH]6)C=C5)C=C4)cc2)c1
REMARK SMILES IDX 23 1 22 2 21 3 19 4 20 5 18 7 5 8 6 9 92 10 7 11 8 12 4 13
REMARK SMILES IDX 1 14 2 15 3 16 9 18 10 19 11 20 12 21 13 22 14 23 17 24
REMARK SMILES IDX 15 25 16 26 24 28 25 29 26 30 27 31 28 33 29 34 30 35 91 36
REMARK SMILES IDX 31 37 90 38 32 39 33 40 34 41 84 42 35 43 89 44 83 45 85 46
REMARK SMILES IDX 36 47 88 48 82 49 81 50 37 52 69 53 49 54 68 55 50 56 53 57
REMARK SMILES IDX 67 58 86 59 51 60 52 61 66 63 87 64 54 65 38 66 39 67 47 68
REMARK SMILES IDX 40 69 42 70 48 71 41 72 43 73 44 74 45 75 46 76 70 77 71 78
REMARK SMILES IDX 79 79 72 80 74 81 80 82 73 83 75 84 76 85 77 86 78 87 55 88
REMARK SMILES IDX 56 89 64 90 57 91 59 92 65 93 58 94 60 95 61 96 62 97 63 98
REMARK H PARENT 21 6 4 17 16 27 26 32 85 51 53 62
REMARK Flexibility Score: inf
ROOT
ATOM      1  C   UNL A   1      31.947  30.585  25.726  1.00  0.00     0.023 C 
ENDROOT
BRANCH   1   2
ATOM      2  C   UNL A   1      32.934  29.454  26.028  1.00  0.00     0.116 C 
BRANCH   2   3
ATOM      3  N   UNL A   1      32.206  28.385  26.681  1.00  0.00    -0.352 N 
ATOM      4  C   UNL A   1      31.586  27.283  26.149  1.00  0.00     0.255 C 
ATOM      5  O   UNL A   1      30.657  26.773  26.771  1.00  0.00    -0.269 OA
ATOM      6  H   UNL A   1      32.147  28.462  27.661  1.00  0.00     0.163 HD
BRANCH   4   7
ATOM      7  C   UNL A   1      32.033  26.679  24.877  1.00  0.00     0.084 A 
ATOM      8  C   UNL A   1      33.685  25.331  23.722  1.00  0.00     0.060 A 
ATOM      9  C   UNL A   1      33.187  25.858  22.551  1.00  0.00     0.139 A 
ATOM     10  C   UNL A   1      33.144  25.811  24.904  1.00  0.00     0.045 A 
ATOM     11  N   UNL A   1      32.114  26.675  22.496  1.00  0.00    -0.236 NA
ATOM     12  C   UNL A   1      31.480  27.069  23.641  1.00  0.00     0.141 A 
BRANCH   8  13
ATOM     13  N   UNL A   1      34.735  24.405  23.684  1.00  0.00    -0.325 N 
ATOM     14  C   UNL A   1      33.311  22.375  23.756  1.00  0.00     0.114 C 
ATOM     15  C   UNL A   1      34.662  23.042  23.810  1.00  0.00     0.221 C 
ATOM     16  O   UNL A   1      35.699  22.381  23.860  1.00  0.00    -0.275 OA
ATOM     17  H   UNL A   1      35.636  24.778  23.551  1.00  0.00     0.169 HD
ENDBRANCH   8  13
BRANCH  12  18
ATOM     18  N   UNL A   1      30.302  27.769  23.442  1.00  0.00    -0.359 N 
ATOM     19  C   UNL A   1      29.040  27.035  23.512  1.00  0.00     0.145 C 
BRANCH  18  20
ATOM     20  C   UNL A   1      30.178  29.224  23.249  1.00  0.00     0.122 C 
BRANCH  20  21
ATOM     21  C   UNL A   1      28.737  29.752  23.334  1.00  0.00     0.060 C 
BRANCH  21  22
ATOM     22  C   UNL A   1      28.431  30.955  22.506  1.00  0.00    -0.008 A 
ATOM     23  C   UNL A   1      28.430  32.313  22.903  1.00  0.00     0.138 A 
ATOM     24  C   UNL A   1      28.135  31.009  21.161  1.00  0.00     0.108 A 
ATOM     25  N   UNL A   1      28.109  33.141  21.903  1.00  0.00    -0.184 NA
ATOM     26  N   UNL A   1      27.946  32.321  20.855  1.00  0.00    -0.285 N 
ATOM     27  H   UNL A   1      27.711  32.637  19.954  1.00  0.00     0.189 HD
ENDBRANCH  21  22
ENDBRANCH  20  21
ENDBRANCH  18  20
ENDBRANCH  12  18
ENDBRANCH   4   7
ENDBRANCH   2   3
ENDBRANCH   1   2
BRANCH   1  28
ATOM     28  C   UNL A   1      31.702  31.473  26.949  1.00  0.00     0.023 C 
BRANCH  28  29
ATOM     29  C   UNL A   1      32.923  32.281  27.373  1.00  0.00     0.116 C 
BRANCH  29  30
ATOM     30  N   UNL A   1      32.607  33.687  27.583  1.00  0.00    -0.352 N 
ATOM     31  C   UNL A   1      33.115  34.544  28.530  1.00  0.00     0.251 C 
ATOM     32  H   UNL A   1      31.944  34.074  26.966  1.00  0.00     0.163 HD
ATOM     33  O   UNL A   1      32.631  35.653  28.693  1.00  0.00    -0.269 OA
BRANCH  31  34
ATOM     34  C   UNL A   1      34.244  34.078  29.358  1.00  0.00     0.039 A 
ATOM     35  C   UNL A   1      33.983  33.273  30.467  1.00  0.00     0.014 A 
ATOM     36  C   UNL A   1      35.555  34.392  28.991  1.00  0.00     0.014 A 
ATOM     37  C   UNL A   1      35.052  32.733  31.182  1.00  0.00     0.010 A 
ATOM     38  C   UNL A   1      36.613  33.789  29.655  1.00  0.00     0.010 A 
ATOM     39  C   UNL A   1      36.374  32.961  30.762  1.00  0.00    -0.014 A 
BRANCH  39  40
ATOM     40  C   UNL A   1      37.522  32.340  31.466  1.00  0.00     0.031 A 
ATOM     41  C   UNL A   1      38.273  31.206  30.822  1.00  0.00     0.074 A 
ATOM     42  C   UNL A   1      37.831  32.737  32.716  1.00  0.00     0.049 A 
ATOM     43  N   UNL A   1      39.266  30.501  31.298  1.00  0.00    -0.248 NA
ATOM     44  C   UNL A   1      37.831  30.790  29.480  1.00  0.00     0.031 C 
ATOM     45  C   UNL A   1      37.122  33.769  33.477  1.00  0.00     0.029 A 
ATOM     46  N   UNL A   1      38.807  32.304  33.577  1.00  0.00    -0.354 N 
ATOM     47  C   UNL A   1      39.543  29.539  30.334  1.00  0.00     0.074 A 
ATOM     48  C   UNL A   1      38.588  29.724  29.264  1.00  0.00     0.031 C 
ATOM     49  C   UNL A   1      37.693  33.893  34.687  1.00  0.00     0.029 A 
ATOM     50  C   UNL A   1      38.785  32.932  34.799  1.00  0.00     0.049 A 
ATOM     51  H   UNL A   1      39.462  31.607  33.341  1.00  0.00     0.167 HD
ATOM     52  C   UNL A   1      40.525  28.608  30.324  1.00  0.00     0.034 A 
ATOM     53  C   UNL A   1      39.555  32.752  35.890  1.00  0.00     0.034 A 
ATOM     54  C   UNL A   1      41.499  28.459  31.370  1.00  0.00     0.049 A 
ATOM     55  C   UNL A   1      40.665  31.737  35.836  1.00  0.00     0.074 A 
ATOM     56  C   UNL A   1      42.588  27.608  31.417  1.00  0.00     0.029 A 
ATOM     57  N   UNL A   1      41.499  29.175  32.559  1.00  0.00    -0.354 N 
ATOM     58  N   UNL A   1      41.015  30.947  34.850  1.00  0.00    -0.248 NA
ATOM     59  C   UNL A   1      41.511  31.613  37.032  1.00  0.00     0.031 C 
ATOM     60  C   UNL A   1      43.233  27.792  32.644  1.00  0.00     0.029 A 
ATOM     61  C   UNL A   1      42.563  28.778  33.349  1.00  0.00     0.049 A 
ATOM     62  H   UNL A   1      40.839  29.863  32.803  1.00  0.00     0.167 HD
ATOM     63  C   UNL A   1      42.142  30.262  35.290  1.00  0.00     0.074 A 
ATOM     64  C   UNL A   1      42.428  30.746  36.625  1.00  0.00     0.031 C 
ATOM     65  C   UNL A   1      42.866  29.309  34.654  1.00  0.00     0.034 A 
BRANCH  52  66
ATOM     66  C   UNL A   1      40.628  27.714  29.116  1.00  0.00     0.023 A 
ATOM     67  C   UNL A   1      39.796  26.579  29.019  1.00  0.00     0.012 A 
ATOM     68  C   UNL A   1      41.503  28.020  28.057  1.00  0.00     0.148 A 
ATOM     69  C   UNL A   1      39.861  25.743  27.906  1.00  0.00     0.002 A 
ATOM     70  C   UNL A   1      41.528  27.209  26.929  1.00  0.00     0.091 A 
ATOM     71  F   UNL A   1      42.303  29.091  28.176  1.00  0.00    -0.205 F 
ATOM     72  C   UNL A   1      40.717  26.064  26.857  1.00  0.00     0.022 A 
BRANCH  70  73
ATOM     73  S   UNL A   1      42.537  27.580  25.489  1.00  0.00     0.127 S 
ATOM     74  O   UNL A   1      42.268  26.423  24.636  1.00  0.00    -0.237 OA
ATOM     75  O   UNL A   1      41.950  28.834  25.018  1.00  0.00    -0.237 OA
ATOM     76  O   UNL A   1      43.905  27.693  25.975  1.00  0.00    -0.744 OA
ENDBRANCH  70  73
ENDBRANCH  52  66
BRANCH  53  77
ATOM     77  C   UNL A   1      39.349  33.598  37.100  1.00  0.00     0.023 A 
ATOM     78  C   UNL A   1      39.825  34.923  37.104  1.00  0.00     0.012 A 
ATOM     79  C   UNL A   1      38.671  33.107  38.232  1.00  0.00     0.148 A 
ATOM     80  C   UNL A   1      39.661  35.735  38.228  1.00  0.00     0.002 A 
ATOM     81  C   UNL A   1      38.463  33.939  39.327  1.00  0.00     0.091 A 
ATOM     82  F   UNL A   1      38.235  31.840  38.212  1.00  0.00    -0.205 F 
ATOM     83  C   UNL A   1      38.972  35.246  39.335  1.00  0.00     0.022 A 
BRANCH  81  84
ATOM     84  S   UNL A   1      37.477  33.438  40.742  1.00  0.00     0.127 S 
ATOM     85  O   UNL A   1      36.263  32.940  40.100  1.00  0.00    -0.237 OA
ATOM     86  O   UNL A   1      38.321  32.408  41.349  1.00  0.00    -0.237 OA
ATOM     87  O   UNL A   1      37.319  34.637  41.554  1.00  0.00    -0.744 OA
ENDBRANCH  81  84
ENDBRANCH  53  77
BRANCH  65  88
ATOM     88  C   UNL A   1      44.065  28.748  35.371  1.00  0.00     0.023 A 
ATOM     89  C   UNL A   1      45.335  29.328  35.179  1.00  0.00     0.012 A 
ATOM     90  C   UNL A   1      43.919  27.694  36.295  1.00  0.00     0.148 A 
ATOM     91  C   UNL A   1      46.446  28.845  35.869  1.00  0.00     0.002 A 
ATOM     92  C   UNL A   1      45.021  27.253  37.018  1.00  0.00     0.091 A 
ATOM     93  F   UNL A   1      42.706  27.144  36.451  1.00  0.00    -0.205 F 
ATOM     94  C   UNL A   1      46.287  27.818  36.797  1.00  0.00     0.022 A 
BRANCH  92  95
ATOM     95  S   UNL A   1      44.893  26.004  38.303  1.00  0.00     0.127 S 
ATOM     96  O   UNL A   1      46.280  25.895  38.751  1.00  0.00    -0.237 OA
ATOM     97  O   UNL A   1      43.989  26.639  39.263  1.00  0.00    -0.237 OA
ATOM     98  O   UNL A   1      44.349  24.817  37.656  1.00  0.00    -0.744 OA
ENDBRANCH  92  95
ENDBRANCH  65  88
ENDBRANCH  39  40
ENDBRANCH  31  34
ENDBRANCH  29  30
ENDBRANCH  28  29
ENDBRANCH   1  28
TORSDOF 19
ENDMDL
MODEL 2
REMARK VINA RESULT:     -11.4      6.019     11.703
REMARK SMILES CC(=O)Nc1cnc(N(C)CCc2cn[nH]c2)c(C(=O)NCCCCNC(=O)c2ccc(-c3c4nc(c(-c5cccc(S(=O)(=O)[O-])c5F)c5ccc([nH]5)c(-c5cccc(S(=O)(=O)[O-])c5F)c5nc(c(-c6cccc(S(=O)(=O)[O-])c6F)c6ccc3[nH]6)C=C5)C=C4)cc2)c1
REMARK SMILES IDX 23 1 22 2 21 3 19 4 20 5 18 7 5 8 6 9 92 10 7 11 8 12 4 13
REMARK SMILES IDX 1 14 2 15 3 16 9 18 10 19 11 20 12 21 13 22 14 23 17 24
REMARK SMILES IDX 15 25 16 26 24 28 25 29 26 30 27 31 28 33 29 34 30 35 91 36
REMARK SMILES IDX 31 37 90 38 32 39 33 40 34 41 84 42 35 43 89 44 83 45 85 46
REMARK SMILES IDX 36 47 88 48 82 49 81 50 37 52 69 53 49 54 68 55 50 56 53 57
REMARK SMILES IDX 67 58 86 59 51 60 52 61 66 63 87 64 54 65 38 66 39 67 47 68
REMARK SMILES IDX 40 69 42 70 48 71 41 72 43 73 44 74 45 75 46 76 70 77 71 78
REMARK SMILES IDX 79 79 72 80 74 81 80 82 73 83 75 84 76 85 77 86 78 87 55 88
REMARK SMILES IDX 56 89 64 90 57 91 59 92 65 93 58 94 60 95 61 96 62 97 63 98
REMARK H PARENT 21 6 4 17 16 27 26 32 85 51 53 62
REMARK Flexibility Score: inf
ROOT
ATOM      1  C   UNL A   1      36.749  20.467  24.757  1.00  0.00     0.023 C 
ENDROOT
BRANCH   1   2
ATOM      2  C   UNL A   1      37.039  21.941  25.050  1.00  0.00     0.116 C 
BRANCH   2   3
ATOM      3  N   UNL A   1      36.285  22.322  26.226  1.00  0.00    -0.352 N 
ATOM      4  C   UNL A   1      34.929  22.437  26.409  1.00  0.00     0.255 C 
ATOM      5  O   UNL A   1      34.515  23.197  27.281  1.00  0.00    -0.269 OA
ATOM      6  H   UNL A   1      36.829  22.532  27.019  1.00  0.00     0.163 HD
BRANCH   4   7
ATOM      7  C   UNL A   1      33.969  21.643  25.615  1.00  0.00     0.084 A 
ATOM      8  C   UNL A   1      32.881  19.504  25.263  1.00  0.00     0.060 A 
ATOM      9  C   UNL A   1      32.554  19.962  24.006  1.00  0.00     0.139 A 
ATOM     10  C   UNL A   1      33.666  20.334  26.047  1.00  0.00     0.045 A 
ATOM     11  N   UNL A   1      32.815  21.215  23.576  1.00  0.00    -0.236 NA
ATOM     12  C   UNL A   1      33.481  22.101  24.375  1.00  0.00     0.141 A 
BRANCH   8  13
ATOM     13  N   UNL A   1      32.479  18.226  25.671  1.00  0.00    -0.325 N 
ATOM     14  C   UNL A   1      34.335  16.994  24.581  1.00  0.00     0.114 C 
ATOM     15  C   UNL A   1      33.017  17.017  25.312  1.00  0.00     0.221 C 
ATOM     16  O   UNL A   1      32.472  15.977  25.681  1.00  0.00    -0.275 OA
ATOM     17  H   UNL A   1      31.715  18.192  26.293  1.00  0.00     0.169 HD
ENDBRANCH   8  13
BRANCH  12  18
ATOM     18  N   UNL A   1      33.542  23.394  23.885  1.00  0.00    -0.359 N 
ATOM     19  C   UNL A   1      34.806  23.862  23.320  1.00  0.00     0.145 C 
BRANCH  18  20
ATOM     20  C   UNL A   1      32.418  24.342  23.792  1.00  0.00     0.122 C 
BRANCH  20  21
ATOM     21  C   UNL A   1      32.160  25.143  25.078  1.00  0.00     0.060 C 
BRANCH  21  22
ATOM     22  C   UNL A   1      30.988  24.710  25.894  1.00  0.00    -0.008 A 
ATOM     23  C   UNL A   1      30.833  23.517  26.639  1.00  0.00     0.138 A 
ATOM     24  C   UNL A   1      29.822  25.403  26.144  1.00  0.00     0.108 A 
ATOM     25  N   UNL A   1      29.650  23.448  27.258  1.00  0.00    -0.184 NA
ATOM     26  N   UNL A   1      29.062  24.612  26.947  1.00  0.00    -0.285 N 
ATOM     27  H   UNL A   1      28.168  24.868  27.268  1.00  0.00     0.189 HD
ENDBRANCH  21  22
ENDBRANCH  20  21
ENDBRANCH  18  20
ENDBRANCH  12  18
ENDBRANCH   4   7
ENDBRANCH   2   3
ENDBRANCH   1   2
BRANCH   1  28
ATOM     28  C   UNL A   1      37.826  19.544  25.334  1.00  0.00     0.023 C 
BRANCH  28  29
ATOM     29  C   UNL A   1      39.160  20.240  25.579  1.00  0.00     0.116 C 
BRANCH  29  30
ATOM     30  N   UNL A   1      40.216  19.299  25.926  1.00  0.00    -0.352 N 
ATOM     31  C   UNL A   1      41.497  19.570  26.344  1.00  0.00     0.251 C 
ATOM     32  H   UNL A   1      39.982  18.345  25.852  1.00  0.00     0.163 HD
ATOM     33  O   UNL A   1      42.325  18.679  26.437  1.00  0.00    -0.269 OA
BRANCH  31  34
ATOM     34  C   UNL A   1      41.848  20.969  26.655  1.00  0.00     0.039 A 
ATOM     35  C   UNL A   1      42.248  21.295  27.951  1.00  0.00     0.014 A 
ATOM     36  C   UNL A   1      41.838  21.933  25.643  1.00  0.00     0.014 A 
ATOM     37  C   UNL A   1      42.694  22.588  28.221  1.00  0.00     0.010 A 
ATOM     38  C   UNL A   1      42.359  23.194  25.896  1.00  0.00     0.010 A 
ATOM     39  C   UNL A   1      42.783  23.538  27.188  1.00  0.00    -0.014 A 
BRANCH  39  40
ATOM     40  C   UNL A   1      43.321  24.898  27.438  1.00  0.00     0.031 A 
ATOM     41  C   UNL A   1      42.408  25.986  27.932  1.00  0.00     0.074 A 
ATOM     42  C   UNL A   1      44.605  25.171  27.137  1.00  0.00     0.049 A 
ATOM     43  N   UNL A   1      42.675  27.246  28.157  1.00  0.00    -0.248 NA
ATOM     44  C   UNL A   1      41.002  25.619  28.174  1.00  0.00     0.031 C 
ATOM     45  C   UNL A   1      45.566  24.220  26.573  1.00  0.00     0.029 A 
ATOM     46  N   UNL A   1      45.319  26.339  27.241  1.00  0.00    -0.354 N 
ATOM     47  C   UNL A   1      41.470  27.827  28.533  1.00  0.00     0.074 A 
ATOM     48  C   UNL A   1      40.461  26.793  28.466  1.00  0.00     0.031 C 
ATOM     49  C   UNL A   1      46.743  24.840  26.390  1.00  0.00     0.029 A 
ATOM     50  C   UNL A   1      46.614  26.236  26.793  1.00  0.00     0.049 A 
ATOM     51  H   UNL A   1      44.939  27.172  27.604  1.00  0.00     0.167 HD
ATOM     52  C   UNL A   1      41.230  29.098  28.931  1.00  0.00     0.034 A 
ATOM     53  C   UNL A   1      47.588  27.165  26.711  1.00  0.00     0.034 A 
ATOM     54  C   UNL A   1      42.245  30.110  29.038  1.00  0.00     0.049 A 
ATOM     55  C   UNL A   1      47.304  28.560  27.198  1.00  0.00     0.074 A 
ATOM     56  C   UNL A   1      42.125  31.402  29.516  1.00  0.00     0.029 A 
ATOM     57  N   UNL A   1      43.569  29.945  28.657  1.00  0.00    -0.354 N 
ATOM     58  N   UNL A   1      46.198  29.050  27.705  1.00  0.00    -0.248 NA
ATOM     59  C   UNL A   1      48.414  29.523  27.137  1.00  0.00     0.031 C 
ATOM     60  C   UNL A   1      43.371  32.027  29.401  1.00  0.00     0.029 A 
ATOM     61  C   UNL A   1      44.274  31.115  28.880  1.00  0.00     0.049 A 
ATOM     62  H   UNL A   1      43.950  29.118  28.284  1.00  0.00     0.167 HD
ATOM     63  C   UNL A   1      46.488  30.362  28.058  1.00  0.00     0.074 A 
ATOM     64  C   UNL A   1      47.881  30.585  27.726  1.00  0.00     0.031 C 
ATOM     65  C   UNL A   1      45.674  31.303  28.595  1.00  0.00     0.034 A 
BRANCH  52  66
ATOM     66  C   UNL A   1      39.822  29.451  29.333  1.00  0.00     0.023 A 
ATOM     67  C   UNL A   1      38.861  29.721  28.337  1.00  0.00     0.012 A 
ATOM     68  C   UNL A   1      39.434  29.463  30.687  1.00  0.00     0.148 A 
ATOM     69  C   UNL A   1      37.548  30.035  28.681  1.00  0.00     0.002 A 
ATOM     70  C   UNL A   1      38.111  29.730  31.021  1.00  0.00     0.091 A 
ATOM     71  F   UNL A   1      40.365  29.225  31.622  1.00  0.00    -0.205 F 
ATOM     72  C   UNL A   1      37.170  30.028  30.021  1.00  0.00     0.022 A 
BRANCH  70  73
ATOM     73  S   UNL A   1      37.506  29.666  32.711  1.00  0.00     0.127 S 
ATOM     74  O   UNL A   1      38.485  30.502  33.406  1.00  0.00    -0.237 OA
ATOM     75  O   UNL A   1      36.177  30.264  32.583  1.00  0.00    -0.237 OA
ATOM     76  O   UNL A   1      37.507  28.260  33.085  1.00  0.00    -0.744 OA
ENDBRANCH  70  73
ENDBRANCH  52  66
BRANCH  53  77
ATOM     77  C   UNL A   1      48.941  26.788  26.212  1.00  0.00     0.023 A 
ATOM     78  C   UNL A   1      49.755  25.945  26.994  1.00  0.00     0.012 A 
ATOM     79  C   UNL A   1      49.416  27.239  24.966  1.00  0.00     0.148 A 
ATOM     80  C   UNL A   1      51.032  25.587  26.560  1.00  0.00     0.002 A 
ATOM     81  C   UNL A   1      50.668  26.835  24.516  1.00  0.00     0.091 A 
ATOM     82  F   UNL A   1      48.630  28.049  24.242  1.00  0.00    -0.205 F 
ATOM     83  C   UNL A   1      51.485  26.024  25.318  1.00  0.00     0.022 A 
BRANCH  81  84
ATOM     84  S   UNL A   1      51.279  27.242  22.876  1.00  0.00     0.127 S 
ATOM     85  O   UNL A   1      50.238  26.679  22.021  1.00  0.00    -0.237 OA
ATOM     86  O   UNL A   1      51.316  28.704  22.923  1.00  0.00    -0.237 OA
ATOM     87  O   UNL A   1      52.589  26.613  22.779  1.00  0.00    -0.744 OA
ENDBRANCH  81  84
ENDBRANCH  53  77
BRANCH  65  88
ATOM     88  C   UNL A   1      46.269  32.653  28.897  1.00  0.00     0.023 A 
ATOM     89  C   UNL A   1      46.895  32.883  30.138  1.00  0.00     0.012 A 
ATOM     90  C   UNL A   1      46.275  33.668  27.921  1.00  0.00     0.148 A 
ATOM     91  C   UNL A   1      47.488  34.114  30.415  1.00  0.00     0.002 A 
ATOM     92  C   UNL A   1      46.912  34.874  28.184  1.00  0.00     0.091 A 
ATOM     93  F   UNL A   1      45.658  33.437  26.753  1.00  0.00    -0.205 F 
ATOM     94  C   UNL A   1      47.508  35.104  29.435  1.00  0.00     0.022 A 
BRANCH  92  95
ATOM     95  S   UNL A   1      47.074  36.169  26.949  1.00  0.00     0.127 S 
ATOM     96  O   UNL A   1      47.792  37.202  27.692  1.00  0.00    -0.237 OA
ATOM     97  O   UNL A   1      47.861  35.507  25.908  1.00  0.00    -0.237 OA
ATOM     98  O   UNL A   1      45.715  36.515  26.551  1.00  0.00    -0.744 OA
ENDBRANCH  92  95
ENDBRANCH  65  88
ENDBRANCH  39  40
ENDBRANCH  31  34
ENDBRANCH  29  30
ENDBRANCH  28  29
ENDBRANCH   1  28
TORSDOF 19
ENDMDL
MODEL 3
REMARK VINA RESULT:     -11.4      6.508     12.056
REMARK SMILES CC(=O)Nc1cnc(N(C)CCc2cn[nH]c2)c(C(=O)NCCCCNC(=O)c2ccc(-c3c4nc(c(-c5cccc(S(=O)(=O)[O-])c5F)c5ccc([nH]5)c(-c5cccc(S(=O)(=O)[O-])c5F)c5nc(c(-c6cccc(S(=O)(=O)[O-])c6F)c6ccc3[nH]6)C=C5)C=C4)cc2)c1
REMARK SMILES IDX 23 1 22 2 21 3 19 4 20 5 18 7 5 8 6 9 92 10 7 11 8 12 4 13
REMARK SMILES IDX 1 14 2 15 3 16 9 18 10 19 11 20 12 21 13 22 14 23 17 24
REMARK SMILES IDX 15 25 16 26 24 28 25 29 26 30 27 31 28 33 29 34 30 35 91 36
REMARK SMILES IDX 31 37 90 38 32 39 33 40 34 41 84 42 35 43 89 44 83 45 85 46
REMARK SMILES IDX 36 47 88 48 82 49 81 50 37 52 69 53 49 54 68 55 50 56 53 57
REMARK SMILES IDX 67 58 86 59 51 60 52 61 66 63 87 64 54 65 38 66 39 67 47 68
REMARK SMILES IDX 40 69 42 70 48 71 41 72 43 73 44 74 45 75 46 76 70 77 71 78
REMARK SMILES IDX 79 79 72 80 74 81 80 82 73 83 75 84 76 85 77 86 78 87 55 88
REMARK SMILES IDX 56 89 64 90 57 91 59 92 65 93 58 94 60 95 61 96 62 97 63 98
REMARK H PARENT 21 6 4 17 16 27 26 32 85 51 53 62
REMARK Flexibility Score: inf
ROOT
ATOM      1  C   UNL A   1      36.517  20.176  24.616  1.00  0.00     0.023 C 
ENDROOT
BRANCH   1   2
ATOM      2  C   UNL A   1      36.226  21.538  25.249  1.00  0.00     0.116 C 
BRANCH   2   3
ATOM      3  N   UNL A   1      35.973  22.485  24.182  1.00  0.00    -0.352 N 
ATOM      4  C   UNL A   1      34.786  22.924  23.652  1.00  0.00     0.255 C 
ATOM      5  O   UNL A   1      34.774  23.335  22.494  1.00  0.00    -0.269 OA
ATOM      6  H   UNL A   1      36.779  22.874  23.772  1.00  0.00     0.163 HD
BRANCH   4   7
ATOM      7  C   UNL A   1      33.542  22.950  24.449  1.00  0.00     0.084 A 
ATOM      8  C   UNL A   1      32.214  24.084  26.131  1.00  0.00     0.060 A 
ATOM      9  C   UNL A   1      31.510  22.908  26.262  1.00  0.00     0.139 A 
ATOM     10  C   UNL A   1      33.294  24.075  25.263  1.00  0.00     0.045 A 
ATOM     11  N   UNL A   1      31.716  21.824  25.484  1.00  0.00    -0.236 NA
ATOM     12  C   UNL A   1      32.695  21.826  24.531  1.00  0.00     0.141 A 
BRANCH   8  13
ATOM     13  N   UNL A   1      31.867  25.200  26.905  1.00  0.00    -0.325 N 
ATOM     14  C   UNL A   1      30.565  26.361  25.141  1.00  0.00     0.114 C 
ATOM     15  C   UNL A   1      31.215  26.336  26.502  1.00  0.00     0.221 C 
ATOM     16  O   UNL A   1      31.083  27.271  27.291  1.00  0.00    -0.275 OA
ATOM     17  H   UNL A   1      32.123  25.162  27.855  1.00  0.00     0.169 HD
ENDBRANCH   8  13
BRANCH  12  18
ATOM     18  N   UNL A   1      32.696  20.723  23.694  1.00  0.00    -0.359 N 
ATOM     19  C   UNL A   1      31.988  20.819  22.420  1.00  0.00     0.145 C 
BRANCH  18  20
ATOM     20  C   UNL A   1      33.425  19.463  23.920  1.00  0.00     0.122 C 
BRANCH  20  21
ATOM     21  C   UNL A   1      32.692  18.463  24.828  1.00  0.00     0.060 C 
BRANCH  21  22
ATOM     22  C   UNL A   1      33.352  17.137  25.008  1.00  0.00    -0.008 A 
ATOM     23  C   UNL A   1      32.750  15.896  25.322  1.00  0.00     0.138 A 
ATOM     24  C   UNL A   1      34.686  16.822  24.855  1.00  0.00     0.108 A 
ATOM     25  N   UNL A   1      33.639  14.901  25.410  1.00  0.00    -0.184 NA
ATOM     26  N   UNL A   1      34.804  15.492  25.110  1.00  0.00    -0.285 N 
ATOM     27  H   UNL A   1      35.662  15.010  25.080  1.00  0.00     0.189 HD
ENDBRANCH  21  22
ENDBRANCH  20  21
ENDBRANCH  18  20
ENDBRANCH  12  18
ENDBRANCH   4   7
ENDBRANCH   2   3
ENDBRANCH   1   2
BRANCH   1  28
ATOM     28  C   UNL A   1      37.580  19.396  25.396  1.00  0.00     0.023 C 
BRANCH  28  29
ATOM     29  C   UNL A   1      38.897  20.146  25.550  1.00  0.00     0.116 C 
BRANCH  29  30
ATOM     30  N   UNL A   1      39.997  19.258  25.905  1.00  0.00    -0.352 N 
ATOM     31  C   UNL A   1      41.258  19.593  26.337  1.00  0.00     0.251 C 
ATOM     32  H   UNL A   1      39.813  18.294  25.825  1.00  0.00     0.163 HD
ATOM     33  O   UNL A   1      42.130  18.745  26.435  1.00  0.00    -0.269 OA
BRANCH  31  34
ATOM     34  C   UNL A   1      41.534  21.007  26.656  1.00  0.00     0.039 A 
ATOM     35  C   UNL A   1      41.917  21.346  27.954  1.00  0.00     0.014 A 
ATOM     36  C   UNL A   1      41.471  21.975  25.650  1.00  0.00     0.014 A 
ATOM     37  C   UNL A   1      42.294  22.660  28.231  1.00  0.00     0.010 A 
ATOM     38  C   UNL A   1      41.923  23.261  25.910  1.00  0.00     0.010 A 
ATOM     39  C   UNL A   1      42.330  23.619  27.204  1.00  0.00    -0.014 A 
BRANCH  39  40
ATOM     40  C   UNL A   1      42.794  25.004  27.462  1.00  0.00     0.031 A 
ATOM     41  C   UNL A   1      41.852  26.011  28.062  1.00  0.00     0.074 A 
ATOM     42  C   UNL A   1      44.030  25.375  27.075  1.00  0.00     0.049 A 
ATOM     43  N   UNL A   1      42.052  27.279  28.312  1.00  0.00    -0.248 NA
ATOM     44  C   UNL A   1      40.497  25.541  28.397  1.00  0.00     0.031 C 
ATOM     45  C   UNL A   1      45.005  24.510  26.406  1.00  0.00     0.029 A 
ATOM     46  N   UNL A   1      44.671  26.585  27.167  1.00  0.00    -0.354 N 
ATOM     47  C   UNL A   1      40.844  27.764  28.799  1.00  0.00     0.074 A 
ATOM     48  C   UNL A   1      39.904  26.665  28.770  1.00  0.00     0.031 C 
ATOM     49  C   UNL A   1      46.121  25.215  26.157  1.00  0.00     0.029 A 
ATOM     50  C   UNL A   1      45.932  26.586  26.619  1.00  0.00     0.049 A 
ATOM     51  H   UNL A   1      44.266  27.378  27.587  1.00  0.00     0.167 HD
ATOM     52  C   UNL A   1      40.552  29.002  29.260  1.00  0.00     0.034 A 
ATOM     53  C   UNL A   1      46.832  27.581  26.498  1.00  0.00     0.034 A 
ATOM     54  C   UNL A   1      41.503  30.078  29.327  1.00  0.00     0.049 A 
ATOM     55  C   UNL A   1      46.495  28.938  27.055  1.00  0.00     0.074 A 
ATOM     56  C   UNL A   1      41.335  31.343  29.858  1.00  0.00     0.029 A 
ATOM     57  N   UNL A   1      42.801  30.016  28.841  1.00  0.00    -0.354 N 
ATOM     58  N   UNL A   1      45.402  29.334  27.661  1.00  0.00    -0.248 NA
ATOM     59  C   UNL A   1      47.530  29.977  26.945  1.00  0.00     0.031 C 
ATOM     60  C   UNL A   1      42.524  32.056  29.673  1.00  0.00     0.029 A 
ATOM     61  C   UNL A   1      43.442  31.224  29.052  1.00  0.00     0.049 A 
ATOM     62  H   UNL A   1      43.206  29.229  28.411  1.00  0.00     0.167 HD
ATOM     63  C   UNL A   1      45.631  30.652  28.038  1.00  0.00     0.074 A 
ATOM     64  C   UNL A   1      46.975  30.980  27.611  1.00  0.00     0.031 C 
ATOM     65  C   UNL A   1      44.800  31.517  28.669  1.00  0.00     0.034 A 
BRANCH  52  66
ATOM     66  C   UNL A   1      39.159  29.244  29.780  1.00  0.00     0.023 A 
ATOM     67  C   UNL A   1      38.846  28.905  31.113  1.00  0.00     0.012 A 
ATOM     68  C   UNL A   1      38.177  29.851  28.974  1.00  0.00     0.148 A 
ATOM     69  C   UNL A   1      37.569  29.131  31.623  1.00  0.00     0.002 A 
ATOM     70  C   UNL A   1      36.920  30.118  29.505  1.00  0.00     0.091 A 
ATOM     71  F   UNL A   1      38.486  30.147  27.703  1.00  0.00    -0.205 F 
ATOM     72  C   UNL A   1      36.611  29.748  30.824  1.00  0.00     0.022 A 
BRANCH  70  73
ATOM     73  S   UNL A   1      35.642  30.981  28.584  1.00  0.00     0.127 S 
ATOM     74  O   UNL A   1      35.166  29.929  27.686  1.00  0.00    -0.237 OA
ATOM     75  O   UNL A   1      34.700  31.352  29.640  1.00  0.00    -0.237 OA
ATOM     76  O   UNL A   1      36.303  32.104  27.935  1.00  0.00    -0.744 OA
ENDBRANCH  70  73
ENDBRANCH  52  66
BRANCH  53  77
ATOM     77  C   UNL A   1      48.164  27.314  25.885  1.00  0.00     0.023 A 
ATOM     78  C   UNL A   1      49.215  26.842  26.695  1.00  0.00     0.012 A 
ATOM     79  C   UNL A   1      48.390  27.505  24.508  1.00  0.00     0.148 A 
ATOM     80  C   UNL A   1      50.477  26.597  26.153  1.00  0.00     0.002 A 
ATOM     81  C   UNL A   1      49.635  27.207  23.965  1.00  0.00     0.091 A 
ATOM     82  F   UNL A   1      47.381  27.965  23.756  1.00  0.00    -0.205 F 
ATOM     83  C   UNL A   1      50.685  26.771  24.787  1.00  0.00     0.022 A 
BRANCH  81  84
ATOM     84  S   UNL A   1      49.956  27.278  22.198  1.00  0.00     0.127 S 
ATOM     85  O   UNL A   1      51.326  26.777  22.123  1.00  0.00    -0.237 OA
ATOM     86  O   UNL A   1      48.937  26.371  21.670  1.00  0.00    -0.237 OA
ATOM     87  O   UNL A   1      49.769  28.672  21.821  1.00  0.00    -0.744 OA
ENDBRANCH  81  84
ENDBRANCH  53  77
BRANCH  65  88
ATOM     88  C   UNL A   1      45.326  32.895  28.975  1.00  0.00     0.023 A 
ATOM     89  C   UNL A   1      46.007  33.135  30.185  1.00  0.00     0.012 A 
ATOM     90  C   UNL A   1      45.212  33.932  28.028  1.00  0.00     0.148 A 
ATOM     91  C   UNL A   1      46.537  34.395  30.461  1.00  0.00     0.002 A 
ATOM     92  C   UNL A   1      45.787  35.169  28.288  1.00  0.00     0.091 A 
ATOM     93  F   UNL A   1      44.544  33.689  26.890  1.00  0.00    -0.205 F 
ATOM     94  C   UNL A   1      46.438  35.407  29.509  1.00  0.00     0.022 A 
BRANCH  92  95
ATOM     95  S   UNL A   1      45.796  36.501  27.082  1.00  0.00     0.127 S 
ATOM     96  O   UNL A   1      44.373  36.818  26.977  1.00  0.00    -0.237 OA
ATOM     97  O   UNL A   1      46.601  37.522  27.753  1.00  0.00    -0.237 OA
ATOM     98  O   UNL A   1      46.403  35.947  25.878  1.00  0.00    -0.744 OA
ENDBRANCH  92  95
ENDBRANCH  65  88
ENDBRANCH  39  40
ENDBRANCH  31  34
ENDBRANCH  29  30
ENDBRANCH  28  29
ENDBRANCH   1  28
TORSDOF 19
ENDMDL
