MODEL 1
REMARK VINA RESULT:     -11.6      0.000      0.000
REMARK SMILES CC[C@@H](C)N1C(=O)/C(=C/Nc2cccc(C(=O)NCCCCNC(=O)c3ccc(-c4c5nc(c(-c6cccc(S(=O)(=O)[O-])c6F)c6ccc([nH]6)c(-c6cccc(S(=O)(=O)[O-])c6F)c6nc(c(-c7cccc(S(=O)(=O)[O-])c7F)c7ccc4[nH]7)C=C6)C=C5)cc3)c2)C(=O)NC1=S
REMARK SMILES IDX 20 1 19 2 18 3 16 4 17 5 15 7 11 8 12 9 89 10 13 11 14 12
REMARK SMILES IDX 10 13 9 15 5 16 6 17 93 18 7 19 8 20 92 21 94 22 90 23 91 25
REMARK SMILES IDX 3 26 4 27 2 28 1 29 21 30 22 31 23 32 24 33 25 35 26 36
REMARK SMILES IDX 27 37 88 38 28 39 87 40 29 41 30 42 31 43 81 44 32 45 86 46
REMARK SMILES IDX 80 47 82 48 33 49 85 50 79 51 78 52 34 54 66 55 46 56 65 57
REMARK SMILES IDX 47 58 50 59 64 60 83 61 48 62 49 63 63 65 84 66 51 67 35 68
REMARK SMILES IDX 36 69 44 70 37 71 39 72 45 73 38 74 40 75 41 76 42 77 43 78
REMARK SMILES IDX 67 79 68 80 76 81 69 82 71 83 77 84 70 85 72 86 73 87 74 88
REMARK SMILES IDX 75 89 52 90 53 91 61 92 54 93 56 94 62 95 55 96 57 97 58 98
REMARK SMILES IDX 59 99 60 100
REMARK H PARENT 18 6 10 14 92 24 23 34 82 53 50 64
REMARK Flexibility Score: inf
ROOT
ATOM      1  C   UNL A   1      38.411  21.319  25.299  1.00  0.00     0.023 C 
ENDROOT
BRANCH   1   2
ATOM      2  C   UNL A   1      36.934  21.445  24.952  1.00  0.00     0.116 C 
BRANCH   2   3
ATOM      3  N   UNL A   1      36.031  21.426  26.093  1.00  0.00    -0.352 N 
ATOM      4  C   UNL A   1      34.683  21.140  26.177  1.00  0.00     0.251 C 
ATOM      5  O   UNL A   1      34.125  21.201  27.270  1.00  0.00    -0.269 OA
ATOM      6  H   UNL A   1      36.454  21.656  26.951  1.00  0.00     0.163 HD
BRANCH   4   7
ATOM      7  C   UNL A   1      33.869  20.829  24.970  1.00  0.00     0.041 A 
ATOM      8  C   UNL A   1      32.302  21.543  23.251  1.00  0.00     0.039 A 
ATOM      9  C   UNL A   1      32.050  20.198  22.956  1.00  0.00     0.026 A 
ATOM     10  C   UNL A   1      33.322  21.829  24.166  1.00  0.00     0.039 A 
ATOM     11  C   UNL A   1      32.722  19.175  23.634  1.00  0.00     0.003 A 
ATOM     12  C   UNL A   1      33.605  19.491  24.666  1.00  0.00     0.014 A 
BRANCH   8  13
ATOM     13  N   UNL A   1      31.512  22.552  22.658  1.00  0.00    -0.361 N 
ATOM     14  H   UNL A   1      31.170  22.380  21.751  1.00  0.00     0.166 HD
BRANCH  13  15
ATOM     15  C   UNL A   1      31.175  23.758  23.240  1.00  0.00     0.102 C 
ATOM     16  N   UNL A   1      31.582  27.382  23.391  1.00  0.00    -0.282 N 
ATOM     17  C   UNL A   1      31.115  26.120  23.783  1.00  0.00     0.267 C 
ATOM     18  C   UNL A   1      32.842  27.553  22.822  1.00  0.00     0.183 C 
ATOM     19  O   UNL A   1      30.193  25.950  24.580  1.00  0.00    -0.268 OA
ATOM     20  C   UNL A   1      31.789  24.952  23.165  1.00  0.00     0.121 C 
ATOM     21  N   UNL A   1      33.474  26.420  22.370  1.00  0.00    -0.298 N 
ATOM     22  S   UNL A   1      33.706  28.972  22.596  1.00  0.00    -0.040 S 
ATOM     23  C   UNL A   1      33.027  25.130  22.401  1.00  0.00     0.264 C 
ATOM     24  H   UNL A   1      34.365  26.556  21.973  1.00  0.00     0.172 HD
ATOM     25  O   UNL A   1      33.627  24.220  21.841  1.00  0.00    -0.269 OA
BRANCH  16  26
ATOM     26  C   UNL A   1      30.633  28.506  23.683  1.00  0.00     0.090 C 
ATOM     27  C   UNL A   1      30.056  29.143  22.412  1.00  0.00     0.031 C 
BRANCH  26  28
ATOM     28  C   UNL A   1      31.177  29.506  24.721  1.00  0.00     0.022 C 
ATOM     29  C   UNL A   1      31.731  28.832  25.971  1.00  0.00     0.006 C 
ENDBRANCH  26  28
ENDBRANCH  16  26
ENDBRANCH  13  15
ENDBRANCH   8  13
ENDBRANCH   4   7
ENDBRANCH   2   3
ENDBRANCH   1   2
BRANCH   1  30
ATOM     30  C   UNL A   1      38.981  19.908  25.331  1.00  0.00     0.023 C 
BRANCH  30  31
ATOM     31  C   UNL A   1      39.877  19.574  26.517  1.00  0.00     0.116 C 
BRANCH  31  32
ATOM     32  N   UNL A   1      41.221  19.154  26.143  1.00  0.00    -0.352 N 
ATOM     33  C   UNL A   1      42.379  19.896  26.066  1.00  0.00     0.251 C 
ATOM     34  H   UNL A   1      41.316  18.202  25.912  1.00  0.00     0.163 HD
ATOM     35  O   UNL A   1      43.406  19.383  25.627  1.00  0.00    -0.269 OA
BRANCH  33  36
ATOM     36  C   UNL A   1      42.366  21.320  26.473  1.00  0.00     0.039 A 
ATOM     37  C   UNL A   1      42.517  21.642  27.823  1.00  0.00     0.014 A 
ATOM     38  C   UNL A   1      42.260  22.335  25.518  1.00  0.00     0.014 A 
ATOM     39  C   UNL A   1      42.657  22.982  28.202  1.00  0.00     0.010 A 
ATOM     40  C   UNL A   1      42.492  23.657  25.886  1.00  0.00     0.010 A 
ATOM     41  C   UNL A   1      42.697  23.997  27.232  1.00  0.00    -0.014 A 
BRANCH  41  42
ATOM     42  C   UNL A   1      42.985  25.410  27.602  1.00  0.00     0.031 A 
ATOM     43  C   UNL A   1      44.388  25.952  27.521  1.00  0.00     0.074 A 
ATOM     44  C   UNL A   1      41.997  26.185  28.097  1.00  0.00     0.049 A 
ATOM     45  N   UNL A   1      44.832  27.142  27.835  1.00  0.00    -0.248 NA
ATOM     46  C   UNL A   1      45.436  25.030  27.053  1.00  0.00     0.031 C 
ATOM     47  C   UNL A   1      40.613  25.755  28.315  1.00  0.00     0.029 A 
ATOM     48  N   UNL A   1      42.008  27.489  28.529  1.00  0.00    -0.354 N 
ATOM     49  C   UNL A   1      46.206  27.103  27.635  1.00  0.00     0.074 A 
ATOM     50  C   UNL A   1      46.532  25.759  27.211  1.00  0.00     0.031 C 
ATOM     51  C   UNL A   1      39.909  26.778  28.826  1.00  0.00     0.029 A 
ATOM     52  C   UNL A   1      40.792  27.925  29.004  1.00  0.00     0.049 A 
ATOM     53  H   UNL A   1      42.811  28.058  28.501  1.00  0.00     0.167 HD
ATOM     54  C   UNL A   1      47.114  28.101  27.762  1.00  0.00     0.034 A 
ATOM     55  C   UNL A   1      40.429  29.112  29.531  1.00  0.00     0.034 A 
ATOM     56  C   UNL A   1      46.784  29.446  28.149  1.00  0.00     0.049 A 
ATOM     57  C   UNL A   1      41.449  30.213  29.626  1.00  0.00     0.074 A 
ATOM     58  C   UNL A   1      47.618  30.549  28.218  1.00  0.00     0.029 A 
ATOM     59  N   UNL A   1      45.527  29.871  28.544  1.00  0.00    -0.354 N 
ATOM     60  N   UNL A   1      42.712  30.203  29.271  1.00  0.00    -0.248 NA
ATOM     61  C   UNL A   1      40.987  31.504  30.158  1.00  0.00     0.031 C 
ATOM     62  C   UNL A   1      46.871  31.634  28.687  1.00  0.00     0.029 A 
ATOM     63  C   UNL A   1      45.562  31.216  28.871  1.00  0.00     0.049 A 
ATOM     64  H   UNL A   1      44.725  29.302  28.586  1.00  0.00     0.167 HD
ATOM     65  C   UNL A   1      43.183  31.490  29.499  1.00  0.00     0.074 A 
ATOM     66  C   UNL A   1      42.065  32.262  30.001  1.00  0.00     0.031 C 
ATOM     67  C   UNL A   1      44.432  31.987  29.321  1.00  0.00     0.034 A 
BRANCH  54  68
ATOM     68  C   UNL A   1      48.551  27.789  27.428  1.00  0.00     0.023 A 
ATOM     69  C   UNL A   1      49.412  27.307  28.435  1.00  0.00     0.012 A 
ATOM     70  C   UNL A   1      49.032  27.910  26.110  1.00  0.00     0.148 A 
ATOM     71  C   UNL A   1      50.736  26.985  28.146  1.00  0.00     0.002 A 
ATOM     72  C   UNL A   1      50.340  27.540  25.818  1.00  0.00     0.091 A 
ATOM     73  F   UNL A   1      48.206  28.387  25.169  1.00  0.00    -0.205 F 
ATOM     74  C   UNL A   1      51.197  27.090  26.837  1.00  0.00     0.022 A 
BRANCH  72  75
ATOM     75  S   UNL A   1      51.005  27.559  24.150  1.00  0.00     0.127 S 
ATOM     76  O   UNL A   1      49.972  26.833  23.412  1.00  0.00    -0.237 OA
ATOM     77  O   UNL A   1      51.066  28.993  23.862  1.00  0.00    -0.237 OA
ATOM     78  O   UNL A   1      52.299  26.897  24.224  1.00  0.00    -0.744 OA
ENDBRANCH  72  75
ENDBRANCH  54  68
BRANCH  55  79
ATOM     79  C   UNL A   1      39.018  29.343  29.957  1.00  0.00     0.023 A 
ATOM     80  C   UNL A   1      38.606  28.940  31.243  1.00  0.00     0.012 A 
ATOM     81  C   UNL A   1      38.089  29.969  29.104  1.00  0.00     0.148 A 
ATOM     82  C   UNL A   1      37.286  29.117  31.656  1.00  0.00     0.002 A 
ATOM     83  C   UNL A   1      36.790  30.196  29.544  1.00  0.00     0.091 A 
ATOM     84  F   UNL A   1      38.497  30.337  27.882  1.00  0.00    -0.205 F 
ATOM     85  C   UNL A   1      36.380  29.753  30.811  1.00  0.00     0.022 A 
BRANCH  83  86
ATOM     86  S   UNL A   1      35.595  31.125  28.577  1.00  0.00     0.127 S 
ATOM     87  O   UNL A   1      35.037  30.087  27.714  1.00  0.00    -0.237 OA
ATOM     88  O   UNL A   1      34.689  31.620  29.613  1.00  0.00    -0.237 OA
ATOM     89  O   UNL A   1      36.359  32.166  27.903  1.00  0.00    -0.744 OA
ENDBRANCH  83  86
ENDBRANCH  55  79
BRANCH  67  90
ATOM     90  C   UNL A   1      44.656  33.446  29.625  1.00  0.00     0.023 A 
ATOM     91  C   UNL A   1      45.065  33.845  30.913  1.00  0.00     0.012 A 
ATOM     92  C   UNL A   1      44.526  34.416  28.610  1.00  0.00     0.148 A 
ATOM     93  C   UNL A   1      45.302  35.190  31.197  1.00  0.00     0.002 A 
ATOM     94  C   UNL A   1      44.816  35.746  28.886  1.00  0.00     0.091 A 
ATOM     95  F   UNL A   1      44.119  34.019  27.396  1.00  0.00    -0.205 F 
ATOM     96  C   UNL A   1      45.190  36.137  30.182  1.00  0.00     0.022 A 
BRANCH  94  97
ATOM     97  S   UNL A   1      44.795  37.018  27.619  1.00  0.00     0.127 S 
ATOM     98  O   UNL A   1      45.805  36.526  26.684  1.00  0.00    -0.237 OA
ATOM     99  O   UNL A   1      43.418  36.940  27.126  1.00  0.00    -0.237 OA
ATOM    100  O   UNL A   1      45.123  38.266  28.294  1.00  0.00    -0.744 OA
ENDBRANCH  94  97
ENDBRANCH  67  90
ENDBRANCH  41  42
ENDBRANCH  33  36
ENDBRANCH  31  32
ENDBRANCH  30  31
ENDBRANCH   1  30
TORSDOF 18
ENDMDL
MODEL 2
REMARK VINA RESULT:     -11.6      6.242      9.977
REMARK SMILES CC[C@@H](C)N1C(=O)/C(=C/Nc2cccc(C(=O)NCCCCNC(=O)c3ccc(-c4c5nc(c(-c6cccc(S(=O)(=O)[O-])c6F)c6ccc([nH]6)c(-c6cccc(S(=O)(=O)[O-])c6F)c6nc(c(-c7cccc(S(=O)(=O)[O-])c7F)c7ccc4[nH]7)C=C6)C=C5)cc3)c2)C(=O)NC1=S
REMARK SMILES IDX 20 1 19 2 18 3 16 4 17 5 15 7 11 8 12 9 89 10 13 11 14 12
REMARK SMILES IDX 10 13 9 15 5 16 6 17 93 18 7 19 8 20 92 21 94 22 90 23 91 25
REMARK SMILES IDX 3 26 4 27 2 28 1 29 21 30 22 31 23 32 24 33 25 35 26 36
REMARK SMILES IDX 27 37 88 38 28 39 87 40 29 41 30 42 31 43 81 44 32 45 86 46
REMARK SMILES IDX 80 47 82 48 33 49 85 50 79 51 78 52 34 54 66 55 46 56 65 57
REMARK SMILES IDX 47 58 50 59 64 60 83 61 48 62 49 63 63 65 84 66 51 67 35 68
REMARK SMILES IDX 36 69 44 70 37 71 39 72 45 73 38 74 40 75 41 76 42 77 43 78
REMARK SMILES IDX 67 79 68 80 76 81 69 82 71 83 77 84 70 85 72 86 73 87 74 88
REMARK SMILES IDX 75 89 52 90 53 91 61 92 54 93 56 94 62 95 55 96 57 97 58 98
REMARK SMILES IDX 59 99 60 100
REMARK H PARENT 18 6 10 14 92 24 23 34 82 53 50 64
REMARK Flexibility Score: inf
ROOT
ATOM      1  C   UNL A   1      33.955  30.295  26.857  1.00  0.00     0.023 C 
ENDROOT
BRANCH   1   2
ATOM      2  C   UNL A   1      32.836  29.921  25.893  1.00  0.00     0.116 C 
BRANCH   2   3
ATOM      3  N   UNL A   1      33.257  29.715  24.515  1.00  0.00    -0.352 N 
ATOM      4  C   UNL A   1      32.597  29.152  23.440  1.00  0.00     0.251 C 
ATOM      5  O   UNL A   1      33.173  29.077  22.357  1.00  0.00    -0.269 OA
ATOM      6  H   UNL A   1      34.167  30.032  24.314  1.00  0.00     0.163 HD
BRANCH   4   7
ATOM      7  C   UNL A   1      31.236  28.566  23.575  1.00  0.00     0.041 A 
ATOM      8  C   UNL A   1      29.801  26.613  23.793  1.00  0.00     0.039 A 
ATOM      9  C   UNL A   1      28.704  27.409  23.443  1.00  0.00     0.026 A 
ATOM     10  C   UNL A   1      31.032  27.249  23.989  1.00  0.00     0.039 A 
ATOM     11  C   UNL A   1      28.860  28.777  23.193  1.00  0.00     0.003 A 
ATOM     12  C   UNL A   1      30.133  29.348  23.224  1.00  0.00     0.014 A 
BRANCH   8  13
ATOM     13  N   UNL A   1      29.646  25.213  23.899  1.00  0.00    -0.361 N 
ATOM     14  H   UNL A   1      28.747  24.875  24.116  1.00  0.00     0.166 HD
BRANCH  13  15
ATOM     15  C   UNL A   1      30.645  24.276  23.725  1.00  0.00     0.102 C 
ATOM     16  N   UNL A   1      32.916  21.816  25.178  1.00  0.00    -0.282 N 
ATOM     17  C   UNL A   1      32.353  22.615  24.173  1.00  0.00     0.267 C 
ATOM     18  C   UNL A   1      33.006  22.252  26.498  1.00  0.00     0.183 C 
ATOM     19  O   UNL A   1      32.552  22.441  22.972  1.00  0.00    -0.268 OA
ATOM     20  C   UNL A   1      31.462  23.708  24.631  1.00  0.00     0.121 C 
ATOM     21  N   UNL A   1      32.246  23.344  26.840  1.00  0.00    -0.298 N 
ATOM     22  S   UNL A   1      33.918  21.615  27.753  1.00  0.00    -0.040 S 
ATOM     23  C   UNL A   1      31.400  24.069  26.050  1.00  0.00     0.264 C 
ATOM     24  H   UNL A   1      32.322  23.643  27.775  1.00  0.00     0.172 HD
ATOM     25  O   UNL A   1      30.671  24.941  26.507  1.00  0.00    -0.269 OA
BRANCH  16  26
ATOM     26  C   UNL A   1      33.443  20.499  24.691  1.00  0.00     0.090 C 
ATOM     27  C   UNL A   1      32.625  19.306  25.202  1.00  0.00     0.031 C 
BRANCH  26  28
ATOM     28  C   UNL A   1      34.968  20.357  24.855  1.00  0.00     0.022 C 
ATOM     29  C   UNL A   1      35.739  21.587  24.390  1.00  0.00     0.006 C 
ENDBRANCH  26  28
ENDBRANCH  16  26
ENDBRANCH  13  15
ENDBRANCH   8  13
ENDBRANCH   4   7
ENDBRANCH   2   3
ENDBRANCH   1   2
BRANCH   1  30
ATOM     30  C   UNL A   1      33.980  31.740  27.336  1.00  0.00     0.023 C 
BRANCH  30  31
ATOM     31  C   UNL A   1      32.671  32.281  27.897  1.00  0.00     0.116 C 
BRANCH  31  32
ATOM     32  N   UNL A   1      32.551  33.732  27.820  1.00  0.00    -0.352 N 
ATOM     33  C   UNL A   1      33.279  34.705  28.469  1.00  0.00     0.251 C 
ATOM     34  H   UNL A   1      31.849  34.065  27.217  1.00  0.00     0.163 HD
ATOM     35  O   UNL A   1      32.961  35.886  28.354  1.00  0.00    -0.269 OA
BRANCH  33  36
ATOM     36  C   UNL A   1      34.416  34.314  29.335  1.00  0.00     0.039 A 
ATOM     37  C   UNL A   1      34.157  33.678  30.550  1.00  0.00     0.014 A 
ATOM     38  C   UNL A   1      35.734  34.526  28.921  1.00  0.00     0.014 A 
ATOM     39  C   UNL A   1      35.221  33.170  31.304  1.00  0.00     0.010 A 
ATOM     40  C   UNL A   1      36.781  33.939  29.625  1.00  0.00     0.010 A 
ATOM     41  C   UNL A   1      36.539  33.251  30.823  1.00  0.00    -0.014 A 
BRANCH  41  42
ATOM     42  C   UNL A   1      37.666  32.594  31.541  1.00  0.00     0.031 A 
ATOM     43  C   UNL A   1      38.396  31.432  30.920  1.00  0.00     0.074 A 
ATOM     44  C   UNL A   1      37.978  32.987  32.793  1.00  0.00     0.049 A 
ATOM     45  N   UNL A   1      39.375  30.716  31.411  1.00  0.00    -0.248 NA
ATOM     46  C   UNL A   1      37.951  30.998  29.585  1.00  0.00     0.031 C 
ATOM     47  C   UNL A   1      37.289  34.038  33.548  1.00  0.00     0.029 A 
ATOM     48  N   UNL A   1      38.939  32.533  33.665  1.00  0.00    -0.354 N 
ATOM     49  C   UNL A   1      39.641  29.733  30.466  1.00  0.00     0.074 A 
ATOM     50  C   UNL A   1      38.693  29.917  29.389  1.00  0.00     0.031 C 
ATOM     51  C   UNL A   1      37.857  34.156  34.759  1.00  0.00     0.029 A 
ATOM     52  C   UNL A   1      38.926  33.171  34.885  1.00  0.00     0.049 A 
ATOM     53  H   UNL A   1      39.577  31.819  33.437  1.00  0.00     0.167 HD
ATOM     54  C   UNL A   1      40.604  28.781  30.476  1.00  0.00     0.034 A 
ATOM     55  C   UNL A   1      39.683  32.981  35.984  1.00  0.00     0.034 A 
ATOM     56  C   UNL A   1      41.570  28.621  31.530  1.00  0.00     0.049 A 
ATOM     57  C   UNL A   1      40.770  31.942  35.953  1.00  0.00     0.074 A 
ATOM     58  C   UNL A   1      42.640  27.746  31.588  1.00  0.00     0.029 A 
ATOM     59  N   UNL A   1      41.576  29.341  32.713  1.00  0.00    -0.354 N 
ATOM     60  N   UNL A   1      41.113  31.134  34.978  1.00  0.00    -0.248 NA
ATOM     61  C   UNL A   1      41.602  31.813  37.158  1.00  0.00     0.031 C 
ATOM     62  C   UNL A   1      43.275  27.914  32.823  1.00  0.00     0.029 A 
ATOM     63  C   UNL A   1      42.623  28.922  33.516  1.00  0.00     0.049 A 
ATOM     64  H   UNL A   1      40.931  30.046  32.950  1.00  0.00     0.167 HD
ATOM     65  C   UNL A   1      42.220  30.430  35.438  1.00  0.00     0.074 A 
ATOM     66  C   UNL A   1      42.506  30.924  36.769  1.00  0.00     0.031 C 
ATOM     67  C   UNL A   1      42.929  29.455  34.818  1.00  0.00     0.034 A 
BRANCH  54  68
ATOM     68  C   UNL A   1      40.698  27.865  29.281  1.00  0.00     0.023 A 
ATOM     69  C   UNL A   1      39.864  26.731  29.205  1.00  0.00     0.012 A 
ATOM     70  C   UNL A   1      41.562  28.159  28.208  1.00  0.00     0.148 A 
ATOM     71  C   UNL A   1      39.912  25.885  28.098  1.00  0.00     0.002 A 
ATOM     72  C   UNL A   1      41.569  27.339  27.086  1.00  0.00     0.091 A 
ATOM     73  F   UNL A   1      42.361  29.231  28.305  1.00  0.00    -0.205 F 
ATOM     74  C   UNL A   1      40.755  26.195  27.034  1.00  0.00     0.022 A 
BRANCH  72  75
ATOM     75  S   UNL A   1      42.556  27.696  25.628  1.00  0.00     0.127 S 
ATOM     76  O   UNL A   1      43.893  27.833  26.205  1.00  0.00    -0.237 OA
ATOM     77  O   UNL A   1      42.361  26.488  24.824  1.00  0.00    -0.237 OA
ATOM     78  O   UNL A   1      41.998  28.910  25.050  1.00  0.00    -0.744 OA
ENDBRANCH  72  75
ENDBRANCH  54  68
BRANCH  55  79
ATOM     79  C   UNL A   1      39.481  33.835  37.190  1.00  0.00     0.023 A 
ATOM     80  C   UNL A   1      39.944  35.166  37.185  1.00  0.00     0.012 A 
ATOM     81  C   UNL A   1      38.824  33.342  38.335  1.00  0.00     0.148 A 
ATOM     82  C   UNL A   1      39.794  35.976  38.311  1.00  0.00     0.002 A 
ATOM     83  C   UNL A   1      38.626  34.173  39.431  1.00  0.00     0.091 A 
ATOM     84  F   UNL A   1      38.400  32.070  38.325  1.00  0.00    -0.205 F 
ATOM     85  C   UNL A   1      39.127  35.483  39.429  1.00  0.00     0.022 A 
BRANCH  83  86
ATOM     86  S   UNL A   1      37.663  33.668  40.860  1.00  0.00     0.127 S 
ATOM     87  O   UNL A   1      38.560  32.708  41.501  1.00  0.00    -0.237 OA
ATOM     88  O   UNL A   1      37.500  34.933  41.576  1.00  0.00    -0.237 OA
ATOM     89  O   UNL A   1      36.425  33.118  40.327  1.00  0.00    -0.744 OA
ENDBRANCH  83  86
ENDBRANCH  55  79
BRANCH  67  90
ATOM     90  C   UNL A   1      44.117  28.881  35.548  1.00  0.00     0.023 A 
ATOM     91  C   UNL A   1      45.403  29.418  35.337  1.00  0.00     0.012 A 
ATOM     92  C   UNL A   1      43.945  27.854  36.498  1.00  0.00     0.148 A 
ATOM     93  C   UNL A   1      46.504  28.913  36.029  1.00  0.00     0.002 A 
ATOM     94  C   UNL A   1      45.036  27.394  37.222  1.00  0.00     0.091 A 
ATOM     95  F   UNL A   1      42.716  27.345  36.673  1.00  0.00    -0.205 F 
ATOM     96  C   UNL A   1      46.319  27.911  36.979  1.00  0.00     0.022 A 
BRANCH  94  97
ATOM     97  S   UNL A   1      44.878  26.177  38.533  1.00  0.00     0.127 S 
ATOM     98  O   UNL A   1      44.048  25.157  37.896  1.00  0.00    -0.237 OA
ATOM     99  O   UNL A   1      46.270  25.779  38.755  1.00  0.00    -0.237 OA
ATOM    100  O   UNL A   1      44.263  26.871  39.656  1.00  0.00    -0.744 OA
ENDBRANCH  94  97
ENDBRANCH  67  90
ENDBRANCH  41  42
ENDBRANCH  33  36
ENDBRANCH  31  32
ENDBRANCH  30  31
ENDBRANCH   1  30
TORSDOF 18
ENDMDL
MODEL 3
REMARK VINA RESULT:     -11.2      2.681      3.471
REMARK SMILES CC[C@@H](C)N1C(=O)/C(=C/Nc2cccc(C(=O)NCCCCNC(=O)c3ccc(-c4c5nc(c(-c6cccc(S(=O)(=O)[O-])c6F)c6ccc([nH]6)c(-c6cccc(S(=O)(=O)[O-])c6F)c6nc(c(-c7cccc(S(=O)(=O)[O-])c7F)c7ccc4[nH]7)C=C6)C=C5)cc3)c2)C(=O)NC1=S
REMARK SMILES IDX 20 1 19 2 18 3 16 4 17 5 15 7 11 8 12 9 89 10 13 11 14 12
REMARK SMILES IDX 10 13 9 15 5 16 6 17 93 18 7 19 8 20 92 21 94 22 90 23 91 25
REMARK SMILES IDX 3 26 4 27 2 28 1 29 21 30 22 31 23 32 24 33 25 35 26 36
REMARK SMILES IDX 27 37 88 38 28 39 87 40 29 41 30 42 31 43 81 44 32 45 86 46
REMARK SMILES IDX 80 47 82 48 33 49 85 50 79 51 78 52 34 54 66 55 46 56 65 57
REMARK SMILES IDX 47 58 50 59 64 60 83 61 48 62 49 63 63 65 84 66 51 67 35 68
REMARK SMILES IDX 36 69 44 70 37 71 39 72 45 73 38 74 40 75 41 76 42 77 43 78
REMARK SMILES IDX 67 79 68 80 76 81 69 82 71 83 77 84 70 85 72 86 73 87 74 88
REMARK SMILES IDX 75 89 52 90 53 91 61 92 54 93 56 94 62 95 55 96 57 97 58 98
REMARK SMILES IDX 59 99 60 100
REMARK H PARENT 18 6 10 14 92 24 23 34 82 53 50 64
REMARK Flexibility Score: inf
ROOT
ATOM      1  C   UNL A   1      35.338  22.279  26.595  1.00  0.00     0.023 C 
ENDROOT
BRANCH   1   2
ATOM      2  C   UNL A   1      35.203  21.070  25.679  1.00  0.00     0.116 C 
BRANCH   2   3
ATOM      3  N   UNL A   1      34.256  20.061  26.130  1.00  0.00    -0.352 N 
ATOM      4  C   UNL A   1      33.203  19.452  25.479  1.00  0.00     0.251 C 
ATOM      5  O   UNL A   1      32.526  18.621  26.081  1.00  0.00    -0.269 OA
ATOM      6  H   UNL A   1      34.390  19.762  27.059  1.00  0.00     0.163 HD
BRANCH   4   7
ATOM      7  C   UNL A   1      32.817  19.823  24.091  1.00  0.00     0.041 A 
ATOM      8  C   UNL A   1      31.920  21.455  22.524  1.00  0.00     0.039 A 
ATOM      9  C   UNL A   1      31.734  20.426  21.594  1.00  0.00     0.026 A 
ATOM     10  C   UNL A   1      32.595  21.148  23.711  1.00  0.00     0.039 A 
ATOM     11  C   UNL A   1      32.114  19.112  21.892  1.00  0.00     0.003 A 
ATOM     12  C   UNL A   1      32.623  18.805  23.153  1.00  0.00     0.014 A 
BRANCH   8  13
ATOM     13  N   UNL A   1      31.400  22.741  22.261  1.00  0.00    -0.361 N 
ATOM     14  H   UNL A   1      31.067  22.914  21.350  1.00  0.00     0.166 HD
BRANCH  13  15
ATOM     15  C   UNL A   1      31.315  23.778  23.168  1.00  0.00     0.102 C 
ATOM     16  N   UNL A   1      32.008  27.260  24.017  1.00  0.00    -0.282 N 
ATOM     17  C   UNL A   1      31.570  25.945  24.226  1.00  0.00     0.267 C 
ATOM     18  C   UNL A   1      33.084  27.550  23.181  1.00  0.00     0.183 C 
ATOM     19  O   UNL A   1      30.879  25.599  25.184  1.00  0.00    -0.268 OA
ATOM     20  C   UNL A   1      31.972  24.951  23.201  1.00  0.00     0.121 C 
ATOM     21  N   UNL A   1      33.493  26.551  22.331  1.00  0.00    -0.298 N 
ATOM     22  S   UNL A   1      33.959  28.975  23.056  1.00  0.00    -0.040 S 
ATOM     23  C   UNL A   1      32.977  25.294  22.191  1.00  0.00     0.264 C 
ATOM     24  H   UNL A   1      34.256  26.769  21.749  1.00  0.00     0.172 HD
ATOM     25  O   UNL A   1      33.342  24.538  21.298  1.00  0.00    -0.269 OA
BRANCH  16  26
ATOM     26  C   UNL A   1      31.252  28.290  24.801  1.00  0.00     0.090 C 
ATOM     27  C   UNL A   1      30.559  29.327  23.908  1.00  0.00     0.031 C 
BRANCH  26  28
ATOM     28  C   UNL A   1      32.065  28.880  25.970  1.00  0.00     0.022 C 
ATOM     29  C   UNL A   1      31.832  30.374  26.169  1.00  0.00     0.006 C 
ENDBRANCH  26  28
ENDBRANCH  16  26
ENDBRANCH  13  15
ENDBRANCH   8  13
ENDBRANCH   4   7
ENDBRANCH   2   3
ENDBRANCH   1   2
BRANCH   1  30
ATOM     30  C   UNL A   1      36.092  23.476  26.030  1.00  0.00     0.023 C 
BRANCH  30  31
ATOM     31  C   UNL A   1      37.233  23.155  25.073  1.00  0.00     0.116 C 
BRANCH  31  32
ATOM     32  N   UNL A   1      38.264  22.298  25.648  1.00  0.00    -0.352 N 
ATOM     33  C   UNL A   1      39.346  22.638  26.430  1.00  0.00     0.251 C 
ATOM     34  H   UNL A   1      38.173  21.339  25.449  1.00  0.00     0.163 HD
ATOM     35  O   UNL A   1      40.171  21.781  26.738  1.00  0.00    -0.269 OA
BRANCH  33  36
ATOM     36  C   UNL A   1      39.528  24.044  26.857  1.00  0.00     0.039 A 
ATOM     37  C   UNL A   1      39.161  24.414  28.153  1.00  0.00     0.014 A 
ATOM     38  C   UNL A   1      40.113  24.981  26.001  1.00  0.00     0.014 A 
ATOM     39  C   UNL A   1      39.466  25.698  28.617  1.00  0.00     0.010 A 
ATOM     40  C   UNL A   1      40.499  26.223  26.495  1.00  0.00     0.010 A 
ATOM     41  C   UNL A   1      40.184  26.597  27.810  1.00  0.00    -0.014 A 
BRANCH  41  42
ATOM     42  C   UNL A   1      40.640  27.913  28.335  1.00  0.00     0.031 A 
ATOM     43  C   UNL A   1      42.107  28.191  28.535  1.00  0.00     0.074 A 
ATOM     44  C   UNL A   1      39.728  28.831  28.717  1.00  0.00     0.049 A 
ATOM     45  N   UNL A   1      42.686  29.262  29.013  1.00  0.00    -0.248 NA
ATOM     46  C   UNL A   1      43.047  27.115  28.177  1.00  0.00     0.031 C 
ATOM     47  C   UNL A   1      38.274  28.654  28.665  1.00  0.00     0.029 A 
ATOM     48  N   UNL A   1      39.887  30.089  29.248  1.00  0.00    -0.354 N 
ATOM     49  C   UNL A   1      44.046  28.980  29.045  1.00  0.00     0.074 A 
ATOM     50  C   UNL A   1      44.205  27.622  28.576  1.00  0.00     0.031 C 
ATOM     51  C   UNL A   1      37.677  29.763  29.130  1.00  0.00     0.029 A 
ATOM     52  C   UNL A   1      38.699  30.718  29.545  1.00  0.00     0.049 A 
ATOM     53  H   UNL A   1      40.768  30.501  29.401  1.00  0.00     0.167 HD
ATOM     54  C   UNL A   1      45.074  29.787  29.402  1.00  0.00     0.034 A 
ATOM     55  C   UNL A   1      38.458  31.924  30.097  1.00  0.00     0.034 A 
ATOM     56  C   UNL A   1      44.918  31.150  29.834  1.00  0.00     0.049 A 
ATOM     57  C   UNL A   1      39.619  32.813  30.449  1.00  0.00     0.074 A 
ATOM     58  C   UNL A   1      45.904  32.075  30.130  1.00  0.00     0.029 A 
ATOM     59  N   UNL A   1      43.703  31.779  30.044  1.00  0.00    -0.354 N 
ATOM     60  N   UNL A   1      40.904  32.588  30.312  1.00  0.00    -0.248 NA
ATOM     61  C   UNL A   1      39.299  34.140  30.997  1.00  0.00     0.031 C 
ATOM     62  C   UNL A   1      45.283  33.255  30.552  1.00  0.00     0.029 A 
ATOM     63  C   UNL A   1      43.911  33.077  30.479  1.00  0.00     0.049 A 
ATOM     64  H   UNL A   1      42.820  31.366  29.906  1.00  0.00     0.167 HD
ATOM     65  C   UNL A   1      41.541  33.754  30.719  1.00  0.00     0.074 A 
ATOM     66  C   UNL A   1      40.501  34.693  31.085  1.00  0.00     0.031 C 
ATOM     67  C   UNL A   1      42.869  34.020  30.793  1.00  0.00     0.034 A 
BRANCH  54  68
ATOM     68  C   UNL A   1      46.472  29.232  29.291  1.00  0.00     0.023 A 
ATOM     69  C   UNL A   1      47.023  28.510  30.369  1.00  0.00     0.012 A 
ATOM     70  C   UNL A   1      47.214  29.369  28.101  1.00  0.00     0.148 A 
ATOM     71  C   UNL A   1      48.302  27.963  30.280  1.00  0.00     0.002 A 
ATOM     72  C   UNL A   1      48.469  28.779  28.001  1.00  0.00     0.091 A 
ATOM     73  F   UNL A   1      46.682  30.074  27.093  1.00  0.00    -0.205 F 
ATOM     74  C   UNL A   1      49.020  28.087  29.094  1.00  0.00     0.022 A 
BRANCH  72  75
ATOM     75  S   UNL A   1      49.439  28.809  26.490  1.00  0.00     0.127 S 
ATOM     76  O   UNL A   1      48.442  28.419  25.493  1.00  0.00    -0.237 OA
ATOM     77  O   UNL A   1      49.854  30.211  26.421  1.00  0.00    -0.237 OA
ATOM     78  O   UNL A   1      50.525  27.861  26.689  1.00  0.00    -0.744 OA
ENDBRANCH  72  75
ENDBRANCH  54  68
BRANCH  55  79
ATOM     79  C   UNL A   1      37.055  32.391  30.297  1.00  0.00     0.023 A 
ATOM     80  C   UNL A   1      36.403  32.128  31.518  1.00  0.00     0.012 A 
ATOM     81  C   UNL A   1      36.368  33.101  29.292  1.00  0.00     0.148 A 
ATOM     82  C   UNL A   1      35.081  32.526  31.720  1.00  0.00     0.002 A 
ATOM     83  C   UNL A   1      35.072  33.547  29.522  1.00  0.00     0.091 A 
ATOM     84  F   UNL A   1      37.002  33.333  28.134  1.00  0.00    -0.205 F 
ATOM     85  C   UNL A   1      34.420  33.243  30.727  1.00  0.00     0.022 A 
BRANCH  83  86
ATOM     86  S   UNL A   1      34.192  34.590  28.355  1.00  0.00     0.127 S 
ATOM     87  O   UNL A   1      32.830  34.072  28.459  1.00  0.00    -0.237 OA
ATOM     88  O   UNL A   1      34.392  35.920  28.931  1.00  0.00    -0.237 OA
ATOM     89  O   UNL A   1      34.850  34.388  27.072  1.00  0.00    -0.744 OA
ENDBRANCH  83  86
ENDBRANCH  55  79
BRANCH  67  90
ATOM     90  C   UNL A   1      43.282  35.397  31.246  1.00  0.00     0.023 A 
ATOM     91  C   UNL A   1      43.651  36.372  30.297  1.00  0.00     0.012 A 
ATOM     92  C   UNL A   1      43.239  35.744  32.612  1.00  0.00     0.148 A 
ATOM     93  C   UNL A   1      44.008  37.657  30.704  1.00  0.00     0.002 A 
ATOM     94  C   UNL A   1      43.543  37.041  33.004  1.00  0.00     0.091 A 
ATOM     95  F   UNL A   1      42.902  34.798  33.501  1.00  0.00    -0.205 F 
ATOM     96  C   UNL A   1      43.943  37.994  32.054  1.00  0.00     0.022 A 
BRANCH  94  97
ATOM     97  S   UNL A   1      43.392  37.592  34.706  1.00  0.00     0.127 S 
ATOM     98  O   UNL A   1      43.897  38.961  34.622  1.00  0.00    -0.237 OA
ATOM     99  O   UNL A   1      41.950  37.487  34.938  1.00  0.00    -0.237 OA
ATOM    100  O   UNL A   1      44.198  36.676  35.501  1.00  0.00    -0.744 OA
ENDBRANCH  94  97
ENDBRANCH  67  90
ENDBRANCH  41  42
ENDBRANCH  33  36
ENDBRANCH  31  32
ENDBRANCH  30  31
ENDBRANCH   1  30
TORSDOF 18
ENDMDL
