MODEL 1
REMARK VINA RESULT:     -12.8      0.000      0.000
REMARK SMILES CC(=O)Nc1cc(NC(C)=O)cc(C(=O)Nc2ccc(Br)cc2C(=O)NCCCCNC(=O)c2ccc(-c3c4nc(c(-c5cccc(S(=O)(=O)[O-])c5F)c5ccc([nH]5)c(-c5cccc(S(=O)(=O)[O-])c5F)c5nc(c(-c6cccc(S(=O)(=O)[O-])c6F)c6ccc3[nH]6)C=C5)C=C4)cc2)c1
REMARK SMILES IDX 28 1 27 2 26 3 24 4 25 5 23 7 17 8 18 9 19 10 22 11 20 12
REMARK SMILES IDX 21 13 16 14 14 15 15 16 13 18 5 19 6 20 97 21 7 22 12 23
REMARK SMILES IDX 4 24 1 25 2 26 3 27 8 29 9 30 10 32 11 33 29 34 30 35 31 36
REMARK SMILES IDX 32 37 33 39 34 40 35 41 96 42 36 43 95 44 37 45 38 46 39 47
REMARK SMILES IDX 89 48 40 49 94 50 88 51 90 52 41 53 93 54 87 55 86 56 42 58
REMARK SMILES IDX 74 59 54 60 73 61 55 62 58 63 72 64 91 65 56 66 57 67 71 69
REMARK SMILES IDX 92 70 59 71 43 72 44 73 52 74 45 75 47 76 53 77 46 78 48 79
REMARK SMILES IDX 49 80 50 81 51 82 75 83 76 84 84 85 77 86 79 87 85 88 78 89
REMARK SMILES IDX 80 90 81 91 82 92 83 93 60 94 61 95 69 96 62 97 64 98 70 99
REMARK SMILES IDX 63 100 65 101 66 102 67 103 68 104
REMARK H PARENT 26 6 16 17 4 28 8 31 31 38 90 57 58 68
REMARK Flexibility Score: inf
ROOT
ATOM      1  C   UNL A   1      38.170  21.501  25.306  1.00  0.00     0.023 C 
ENDROOT
BRANCH   1   2
ATOM      2  C   UNL A   1      37.189  22.054  24.280  1.00  0.00     0.116 C 
BRANCH   2   3
ATOM      3  N   UNL A   1      36.499  23.256  24.703  1.00  0.00    -0.352 N 
ATOM      4  C   UNL A   1      35.163  23.562  24.644  1.00  0.00     0.253 C 
ATOM      5  O   UNL A   1      34.783  24.665  25.030  1.00  0.00    -0.269 OA
ATOM      6  H   UNL A   1      37.074  23.956  25.089  1.00  0.00     0.163 HD
BRANCH   4   7
ATOM      7  C   UNL A   1      34.169  22.632  24.046  1.00  0.00     0.064 A 
ATOM      8  C   UNL A   1      33.375  22.870  22.907  1.00  0.00     0.054 A 
ATOM      9  C   UNL A   1      32.333  21.974  22.613  1.00  0.00     0.028 A 
ATOM     10  C   UNL A   1      32.187  20.782  23.326  1.00  0.00     0.018 A 
ATOM     11  C   UNL A   1      34.036  21.410  24.737  1.00  0.00     0.031 A 
ATOM     12  C   UNL A   1      33.067  20.486  24.360  1.00  0.00     0.018 A 
ATOM     13  Br  UNL A   1      32.947  18.824  25.248  1.00  0.00    -0.051 Br
BRANCH   8  14
ATOM     14  N   UNL A   1      33.553  23.892  21.948  1.00  0.00    -0.321 N 
ATOM     15  C   UNL A   1      32.800  25.016  21.663  1.00  0.00     0.255 C 
ATOM     16  O   UNL A   1      33.002  25.621  20.611  1.00  0.00    -0.269 OA
ATOM     17  H   UNL A   1      34.353  23.786  21.385  1.00  0.00     0.170 HD
BRANCH  15  18
ATOM     18  C   UNL A   1      31.822  25.562  22.634  1.00  0.00     0.044 A 
ATOM     19  C   UNL A   1      30.519  25.299  24.652  1.00  0.00     0.044 A 
ATOM     20  C   UNL A   1      29.834  26.479  24.324  1.00  0.00     0.052 A 
ATOM     21  C   UNL A   1      31.562  24.891  23.834  1.00  0.00     0.040 A 
ATOM     22  C   UNL A   1      30.181  27.244  23.203  1.00  0.00     0.044 A 
ATOM     23  C   UNL A   1      31.167  26.762  22.339  1.00  0.00     0.040 A 
BRANCH  19  24
ATOM     24  N   UNL A   1      30.024  24.550  25.737  1.00  0.00    -0.326 N 
ATOM     25  C   UNL A   1      32.095  23.787  26.912  1.00  0.00     0.114 C 
ATOM     26  C   UNL A   1      30.612  23.752  26.674  1.00  0.00     0.221 C 
ATOM     27  O   UNL A   1      29.899  23.021  27.367  1.00  0.00    -0.275 OA
ATOM     28  H   UNL A   1      29.047  24.615  25.841  1.00  0.00     0.169 HD
ENDBRANCH  19  24
BRANCH  22  29
ATOM     29  N   UNL A   1      29.579  28.480  22.878  1.00  0.00    -0.326 N 
ATOM     30  C   UNL A   1      29.831  29.708  23.462  1.00  0.00     0.221 C 
ATOM     31  H   UNL A   1      28.907  28.465  22.158  1.00  0.00     0.169 HD
ATOM     32  C   UNL A   1      29.021  30.832  22.862  1.00  0.00     0.114 C 
ATOM     33  O   UNL A   1      30.638  29.937  24.358  1.00  0.00    -0.275 OA
ENDBRANCH  22  29
ENDBRANCH  15  18
ENDBRANCH   8  14
ENDBRANCH   4   7
ENDBRANCH   2   3
ENDBRANCH   1   2
BRANCH   1  34
ATOM     34  C   UNL A   1      38.702  20.091  25.034  1.00  0.00     0.023 C 
BRANCH  34  35
ATOM     35  C   UNL A   1      39.379  19.377  26.202  1.00  0.00     0.116 C 
BRANCH  35  36
ATOM     36  N   UNL A   1      40.710  18.871  25.895  1.00  0.00    -0.352 N 
ATOM     37  C   UNL A   1      41.930  19.519  25.916  1.00  0.00     0.251 C 
ATOM     38  H   UNL A   1      40.746  17.923  25.634  1.00  0.00     0.163 HD
ATOM     39  O   UNL A   1      42.941  18.957  25.531  1.00  0.00    -0.269 OA
BRANCH  37  40
ATOM     40  C   UNL A   1      41.987  20.924  26.375  1.00  0.00     0.039 A 
ATOM     41  C   UNL A   1      42.242  21.187  27.723  1.00  0.00     0.014 A 
ATOM     42  C   UNL A   1      41.858  21.971  25.460  1.00  0.00     0.014 A 
ATOM     43  C   UNL A   1      42.494  22.500  28.130  1.00  0.00     0.010 A 
ATOM     44  C   UNL A   1      42.185  23.264  25.853  1.00  0.00     0.010 A 
ATOM     45  C   UNL A   1      42.534  23.539  27.185  1.00  0.00    -0.014 A 
BRANCH  45  46
ATOM     46  C   UNL A   1      43.003  24.905  27.540  1.00  0.00     0.031 A 
ATOM     47  C   UNL A   1      42.052  25.899  28.147  1.00  0.00     0.074 A 
ATOM     48  C   UNL A   1      44.245  25.293  27.183  1.00  0.00     0.049 A 
ATOM     49  N   UNL A   1      42.229  27.172  28.379  1.00  0.00    -0.248 NA
ATOM     50  C   UNL A   1      40.715  25.401  28.510  1.00  0.00     0.031 C 
ATOM     51  C   UNL A   1      45.240  24.448  26.518  1.00  0.00     0.029 A 
ATOM     52  N   UNL A   1      44.872  26.510  27.299  1.00  0.00    -0.354 N 
ATOM     53  C   UNL A   1      41.017  27.641  28.870  1.00  0.00     0.074 A 
ATOM     54  C   UNL A   1      40.103  26.518  28.876  1.00  0.00     0.031 C 
ATOM     55  C   UNL A   1      46.349  25.169  26.288  1.00  0.00     0.029 A 
ATOM     56  C   UNL A   1      46.135  26.535  26.753  1.00  0.00     0.049 A 
ATOM     57  H   UNL A   1      44.456  27.291  27.731  1.00  0.00     0.167 HD
ATOM     58  C   UNL A   1      40.699  28.883  29.304  1.00  0.00     0.034 A 
ATOM     59  C   UNL A   1      47.020  27.545  26.632  1.00  0.00     0.034 A 
ATOM     60  C   UNL A   1      41.624  29.983  29.353  1.00  0.00     0.049 A 
ATOM     61  C   UNL A   1      46.658  28.904  27.168  1.00  0.00     0.074 A 
ATOM     62  C   UNL A   1      41.420  31.257  29.853  1.00  0.00     0.029 A 
ATOM     63  N   UNL A   1      42.931  29.938  28.893  1.00  0.00    -0.354 N 
ATOM     64  N   UNL A   1      45.554  29.289  27.759  1.00  0.00    -0.248 NA
ATOM     65  C   UNL A   1      47.676  29.959  27.051  1.00  0.00     0.031 C 
ATOM     66  C   UNL A   1      42.604  31.984  29.691  1.00  0.00     0.029 A 
ATOM     67  C   UNL A   1      43.547  31.160  29.099  1.00  0.00     0.049 A 
ATOM     68  H   UNL A   1      43.358  29.153  28.479  1.00  0.00     0.167 HD
ATOM     69  C   UNL A   1      45.757  30.616  28.120  1.00  0.00     0.074 A 
ATOM     70  C   UNL A   1      47.097  30.964  27.694  1.00  0.00     0.031 C 
ATOM     71  C   UNL A   1      44.906  31.472  28.735  1.00  0.00     0.034 A 
BRANCH  58  72
ATOM     72  C   UNL A   1      39.305  29.101  29.826  1.00  0.00     0.023 A 
ATOM     73  C   UNL A   1      38.986  28.690  31.137  1.00  0.00     0.012 A 
ATOM     74  C   UNL A   1      38.325  29.746  29.047  1.00  0.00     0.148 A 
ATOM     75  C   UNL A   1      37.706  28.886  31.652  1.00  0.00     0.002 A 
ATOM     76  C   UNL A   1      37.062  29.974  29.583  1.00  0.00     0.091 A 
ATOM     77  F   UNL A   1      38.636  30.106  27.793  1.00  0.00    -0.205 F 
ATOM     78  C   UNL A   1      36.749  29.536  30.880  1.00  0.00     0.022 A 
BRANCH  76  79
ATOM     79  S   UNL A   1      35.786  30.869  28.689  1.00  0.00     0.127 S 
ATOM     80  O   UNL A   1      36.581  31.825  27.920  1.00  0.00    -0.237 OA
ATOM     81  O   UNL A   1      35.164  29.811  27.891  1.00  0.00    -0.237 OA
ATOM     82  O   UNL A   1      34.920  31.444  29.707  1.00  0.00    -0.744 OA
ENDBRANCH  76  79
ENDBRANCH  58  72
BRANCH  59  83
ATOM     83  C   UNL A   1      48.367  27.289  26.048  1.00  0.00     0.023 A 
ATOM     84  C   UNL A   1      49.383  26.773  26.877  1.00  0.00     0.012 A 
ATOM     85  C   UNL A   1      48.642  27.516  24.687  1.00  0.00     0.148 A 
ATOM     86  C   UNL A   1      50.656  26.517  26.369  1.00  0.00     0.002 A 
ATOM     87  C   UNL A   1      49.899  27.209  24.174  1.00  0.00     0.091 A 
ATOM     88  F   UNL A   1      47.668  28.020  23.917  1.00  0.00    -0.205 F 
ATOM     89  C   UNL A   1      50.911  26.724  25.016  1.00  0.00     0.022 A 
BRANCH  87  90
ATOM     90  S   UNL A   1      50.272  27.319  22.421  1.00  0.00     0.127 S 
ATOM     91  O   UNL A   1      50.151  28.755  22.179  1.00  0.00    -0.237 OA
ATOM     92  O   UNL A   1      51.638  26.797  22.365  1.00  0.00    -0.237 OA
ATOM     93  O   UNL A   1      49.285  26.476  21.760  1.00  0.00    -0.744 OA
ENDBRANCH  87  90
ENDBRANCH  59  83
BRANCH  71  94
ATOM     94  C   UNL A   1      45.400  32.863  29.031  1.00  0.00     0.023 A 
ATOM     95  C   UNL A   1      46.072  33.121  30.242  1.00  0.00     0.012 A 
ATOM     96  C   UNL A   1      45.282  33.886  28.071  1.00  0.00     0.148 A 
ATOM     97  C   UNL A   1      46.600  34.385  30.501  1.00  0.00     0.002 A 
ATOM     98  C   UNL A   1      45.847  35.131  28.318  1.00  0.00     0.091 A 
ATOM     99  F   UNL A   1      44.619  33.624  26.935  1.00  0.00    -0.205 F 
ATOM    100  C   UNL A   1      46.498  35.385  29.536  1.00  0.00     0.022 A 
BRANCH  98 101
ATOM    101  S   UNL A   1      45.844  36.447  27.095  1.00  0.00     0.127 S 
ATOM    102  O   UNL A   1      46.392  35.766  25.923  1.00  0.00    -0.237 OA
ATOM    103  O   UNL A   1      44.422  36.780  26.997  1.00  0.00    -0.237 OA
ATOM    104  O   UNL A   1      46.674  37.508  27.648  1.00  0.00    -0.744 OA
ENDBRANCH  98 101
ENDBRANCH  71  94
ENDBRANCH  45  46
ENDBRANCH  37  40
ENDBRANCH  35  36
ENDBRANCH  34  35
ENDBRANCH   1  34
TORSDOF 18
ENDMDL
MODEL 2
REMARK VINA RESULT:     -12.7      0.961      7.262
REMARK SMILES CC(=O)Nc1cc(NC(C)=O)cc(C(=O)Nc2ccc(Br)cc2C(=O)NCCCCNC(=O)c2ccc(-c3c4nc(c(-c5cccc(S(=O)(=O)[O-])c5F)c5ccc([nH]5)c(-c5cccc(S(=O)(=O)[O-])c5F)c5nc(c(-c6cccc(S(=O)(=O)[O-])c6F)c6ccc3[nH]6)C=C5)C=C4)cc2)c1
REMARK SMILES IDX 28 1 27 2 26 3 24 4 25 5 23 7 17 8 18 9 19 10 22 11 20 12
REMARK SMILES IDX 21 13 16 14 14 15 15 16 13 18 5 19 6 20 97 21 7 22 12 23
REMARK SMILES IDX 4 24 1 25 2 26 3 27 8 29 9 30 10 32 11 33 29 34 30 35 31 36
REMARK SMILES IDX 32 37 33 39 34 40 35 41 96 42 36 43 95 44 37 45 38 46 39 47
REMARK SMILES IDX 89 48 40 49 94 50 88 51 90 52 41 53 93 54 87 55 86 56 42 58
REMARK SMILES IDX 74 59 54 60 73 61 55 62 58 63 72 64 91 65 56 66 57 67 71 69
REMARK SMILES IDX 92 70 59 71 43 72 44 73 52 74 45 75 47 76 53 77 46 78 48 79
REMARK SMILES IDX 49 80 50 81 51 82 75 83 76 84 84 85 77 86 79 87 85 88 78 89
REMARK SMILES IDX 80 90 81 91 82 92 83 93 60 94 61 95 69 96 62 97 64 98 70 99
REMARK SMILES IDX 63 100 65 101 66 102 67 103 68 104
REMARK H PARENT 26 6 16 17 4 28 8 31 31 38 90 57 58 68
REMARK Flexibility Score: inf
ROOT
ATOM      1  C   UNL A   1      38.190  21.185  25.276  1.00  0.00     0.023 C 
ENDROOT
BRANCH   1   2
ATOM      2  C   UNL A   1      36.680  21.005  25.374  1.00  0.00     0.116 C 
BRANCH   2   3
ATOM      3  N   UNL A   1      35.996  22.074  26.073  1.00  0.00    -0.352 N 
ATOM      4  C   UNL A   1      34.788  22.663  25.798  1.00  0.00     0.253 C 
ATOM      5  O   UNL A   1      34.399  23.590  26.505  1.00  0.00    -0.269 OA
ATOM      6  H   UNL A   1      36.468  22.431  26.860  1.00  0.00     0.163 HD
BRANCH   4   7
ATOM      7  C   UNL A   1      33.973  22.272  24.618  1.00  0.00     0.064 A 
ATOM      8  C   UNL A   1      33.574  23.110  23.558  1.00  0.00     0.054 A 
ATOM      9  C   UNL A   1      32.623  22.630  22.642  1.00  0.00     0.028 A 
ATOM     10  C   UNL A   1      32.205  21.298  22.670  1.00  0.00     0.018 A 
ATOM     11  C   UNL A   1      33.572  20.920  24.618  1.00  0.00     0.031 A 
ATOM     12  C   UNL A   1      32.715  20.438  23.635  1.00  0.00     0.018 A 
ATOM     13  Br  UNL A   1      32.243  18.609  23.604  1.00  0.00    -0.051 Br
BRANCH   8  14
ATOM     14  N   UNL A   1      34.088  24.390  23.249  1.00  0.00    -0.321 N 
ATOM     15  C   UNL A   1      33.473  25.626  23.176  1.00  0.00     0.255 C 
ATOM     16  O   UNL A   1      34.064  26.556  22.631  1.00  0.00    -0.269 OA
ATOM     17  H   UNL A   1      35.052  24.404  23.052  1.00  0.00     0.170 HD
BRANCH  15  18
ATOM     18  C   UNL A   1      32.162  25.880  23.820  1.00  0.00     0.044 A 
ATOM     19  C   UNL A   1      30.564  25.383  25.563  1.00  0.00     0.044 A 
ATOM     20  C   UNL A   1      29.631  26.187  24.891  1.00  0.00     0.052 A 
ATOM     21  C   UNL A   1      31.851  25.297  25.053  1.00  0.00     0.040 A 
ATOM     22  C   UNL A   1      29.970  26.898  23.732  1.00  0.00     0.044 A 
ATOM     23  C   UNL A   1      31.241  26.717  23.182  1.00  0.00     0.040 A 
BRANCH  19  24
ATOM     24  N   UNL A   1      30.093  24.630  26.656  1.00  0.00    -0.326 N 
ATOM     25  C   UNL A   1      30.613  22.272  26.007  1.00  0.00     0.114 C 
ATOM     26  C   UNL A   1      29.941  23.294  26.880  1.00  0.00     0.221 C 
ATOM     27  O   UNL A   1      29.272  22.923  27.849  1.00  0.00    -0.275 OA
ATOM     28  H   UNL A   1      29.814  25.186  27.419  1.00  0.00     0.169 HD
ENDBRANCH  19  24
BRANCH  22  29
ATOM     29  N   UNL A   1      29.094  27.785  23.069  1.00  0.00    -0.326 N 
ATOM     30  C   UNL A   1      29.116  29.167  23.114  1.00  0.00     0.221 C 
ATOM     31  H   UNL A   1      28.391  27.374  22.514  1.00  0.00     0.169 HD
ATOM     32  C   UNL A   1      28.041  29.809  22.270  1.00  0.00     0.114 C 
ATOM     33  O   UNL A   1      29.917  29.863  23.730  1.00  0.00    -0.275 OA
ENDBRANCH  22  29
ENDBRANCH  15  18
ENDBRANCH   8  14
ENDBRANCH   4   7
ENDBRANCH   2   3
ENDBRANCH   1   2
BRANCH   1  34
ATOM     34  C   UNL A   1      39.011  19.903  25.125  1.00  0.00     0.023 C 
BRANCH  34  35
ATOM     35  C   UNL A   1      39.719  19.389  26.378  1.00  0.00     0.116 C 
BRANCH  35  36
ATOM     36  N   UNL A   1      41.109  19.012  26.160  1.00  0.00    -0.352 N 
ATOM     37  C   UNL A   1      42.250  19.790  26.172  1.00  0.00     0.251 C 
ATOM     38  H   UNL A   1      41.258  18.057  25.977  1.00  0.00     0.163 HD
ATOM     39  O   UNL A   1      43.331  19.316  25.869  1.00  0.00    -0.269 OA
BRANCH  37  40
ATOM     40  C   UNL A   1      42.136  21.224  26.519  1.00  0.00     0.039 A 
ATOM     41  C   UNL A   1      42.345  21.620  27.842  1.00  0.00     0.014 A 
ATOM     42  C   UNL A   1      41.892  22.173  25.524  1.00  0.00     0.014 A 
ATOM     43  C   UNL A   1      42.436  22.982  28.144  1.00  0.00     0.010 A 
ATOM     44  C   UNL A   1      42.060  23.523  25.814  1.00  0.00     0.010 A 
ATOM     45  C   UNL A   1      42.362  23.941  27.120  1.00  0.00    -0.014 A 
BRANCH  45  46
ATOM     46  C   UNL A   1      42.662  25.376  27.366  1.00  0.00     0.031 A 
ATOM     47  C   UNL A   1      44.059  25.901  27.183  1.00  0.00     0.074 A 
ATOM     48  C   UNL A   1      41.708  26.173  27.890  1.00  0.00     0.049 A 
ATOM     49  N   UNL A   1      44.547  27.072  27.494  1.00  0.00    -0.248 NA
ATOM     50  C   UNL A   1      45.045  24.972  26.606  1.00  0.00     0.031 C 
ATOM     51  C   UNL A   1      40.332  25.766  28.188  1.00  0.00     0.029 A 
ATOM     52  N   UNL A   1      41.758  27.484  28.298  1.00  0.00    -0.354 N 
ATOM     53  C   UNL A   1      45.902  27.011  27.195  1.00  0.00     0.074 A 
ATOM     54  C   UNL A   1      46.165  25.675  26.704  1.00  0.00     0.031 C 
ATOM     55  C   UNL A   1      39.671  26.804  28.727  1.00  0.00     0.029 A 
ATOM     56  C   UNL A   1      40.581  27.937  28.849  1.00  0.00     0.049 A 
ATOM     57  H   UNL A   1      42.562  28.046  28.207  1.00  0.00     0.167 HD
ATOM     58  C   UNL A   1      46.838  27.984  27.292  1.00  0.00     0.034 A 
ATOM     59  C   UNL A   1      40.271  29.129  29.399  1.00  0.00     0.034 A 
ATOM     60  C   UNL A   1      46.565  29.328  27.723  1.00  0.00     0.049 A 
ATOM     61  C   UNL A   1      41.318  30.208  29.448  1.00  0.00     0.074 A 
ATOM     62  C   UNL A   1      47.429  30.407  27.777  1.00  0.00     0.029 A 
ATOM     63  N   UNL A   1      45.332  29.780  28.169  1.00  0.00    -0.354 N 
ATOM     64  N   UNL A   1      42.559  30.172  29.028  1.00  0.00    -0.248 NA
ATOM     65  C   UNL A   1      40.914  31.503  30.016  1.00  0.00     0.031 C 
ATOM     66  C   UNL A   1      46.719  31.512  28.259  1.00  0.00     0.029 A 
ATOM     67  C   UNL A   1      45.411  31.122  28.497  1.00  0.00     0.049 A 
ATOM     68  H   UNL A   1      44.521  29.228  28.242  1.00  0.00     0.167 HD
ATOM     69  C   UNL A   1      43.071  31.446  29.243  1.00  0.00     0.074 A 
ATOM     70  C   UNL A   1      42.001  32.236  29.818  1.00  0.00     0.031 C 
ATOM     71  C   UNL A   1      44.319  31.915  29.001  1.00  0.00     0.034 A 
BRANCH  58  72
ATOM     72  C   UNL A   1      48.239  27.646  26.857  1.00  0.00     0.023 A 
ATOM     73  C   UNL A   1      49.169  27.194  27.815  1.00  0.00     0.012 A 
ATOM     74  C   UNL A   1      48.625  27.733  25.506  1.00  0.00     0.148 A 
ATOM     75  C   UNL A   1      50.471  26.866  27.443  1.00  0.00     0.002 A 
ATOM     76  C   UNL A   1      49.914  27.365  25.135  1.00  0.00     0.091 A 
ATOM     77  F   UNL A   1      47.737  28.191  24.612  1.00  0.00    -0.205 F 
ATOM     78  C   UNL A   1      50.840  26.941  26.103  1.00  0.00     0.022 A 
BRANCH  76  79
ATOM     79  S   UNL A   1      50.458  27.360  23.423  1.00  0.00     0.127 S 
ATOM     80  O   UNL A   1      50.501  28.791  23.125  1.00  0.00    -0.237 OA
ATOM     81  O   UNL A   1      51.769  26.715  23.513  1.00  0.00    -0.237 OA
ATOM     82  O   UNL A   1      49.458  26.594  22.693  1.00  0.00    -0.744 OA
ENDBRANCH  76  79
ENDBRANCH  58  72
BRANCH  59  83
ATOM     83  C   UNL A   1      38.882  29.390  29.872  1.00  0.00     0.023 A 
ATOM     84  C   UNL A   1      38.527  29.021  31.185  1.00  0.00     0.012 A 
ATOM     85  C   UNL A   1      37.927  30.025  29.057  1.00  0.00     0.148 A 
ATOM     86  C   UNL A   1      37.239  29.251  31.667  1.00  0.00     0.002 A 
ATOM     87  C   UNL A   1      36.659  30.300  29.561  1.00  0.00     0.091 A 
ATOM     88  F   UNL A   1      38.278  30.358  27.807  1.00  0.00    -0.205 F 
ATOM     89  C   UNL A   1      36.309  29.900  30.859  1.00  0.00     0.022 A 
BRANCH  87  90
ATOM     90  S   UNL A   1      35.445  31.249  28.638  1.00  0.00     0.127 S 
ATOM     91  O   UNL A   1      34.650  30.194  28.016  1.00  0.00    -0.237 OA
ATOM     92  O   UNL A   1      34.764  31.990  29.700  1.00  0.00    -0.237 OA
ATOM     93  O   UNL A   1      36.216  32.086  27.729  1.00  0.00    -0.744 OA
ENDBRANCH  87  90
ENDBRANCH  59  83
BRANCH  71  94
ATOM     94  C   UNL A   1      44.598  33.362  29.311  1.00  0.00     0.023 A 
ATOM     95  C   UNL A   1      45.198  33.709  30.536  1.00  0.00     0.012 A 
ATOM     96  C   UNL A   1      44.351  34.362  28.350  1.00  0.00     0.148 A 
ATOM     97  C   UNL A   1      45.530  35.036  30.809  1.00  0.00     0.002 A 
ATOM     98  C   UNL A   1      44.722  35.674  28.612  1.00  0.00     0.091 A 
ATOM     99  F   UNL A   1      43.758  34.011  27.199  1.00  0.00    -0.205 F 
ATOM    100  C   UNL A   1      45.303  36.015  29.844  1.00  0.00     0.022 A 
BRANCH  98 101
ATOM    101  S   UNL A   1      44.553  36.982  27.392  1.00  0.00     0.127 S 
ATOM    102  O   UNL A   1      44.812  38.176  28.195  1.00  0.00    -0.237 OA
ATOM    103  O   UNL A   1      45.608  36.652  26.432  1.00  0.00    -0.237 OA
ATOM    104  O   UNL A   1      43.200  36.863  26.864  1.00  0.00    -0.744 OA
ENDBRANCH  98 101
ENDBRANCH  71  94
ENDBRANCH  45  46
ENDBRANCH  37  40
ENDBRANCH  35  36
ENDBRANCH  34  35
ENDBRANCH   1  34
TORSDOF 18
ENDMDL
MODEL 3
REMARK VINA RESULT:     -12.7      1.536      2.510
REMARK SMILES CC(=O)Nc1cc(NC(C)=O)cc(C(=O)Nc2ccc(Br)cc2C(=O)NCCCCNC(=O)c2ccc(-c3c4nc(c(-c5cccc(S(=O)(=O)[O-])c5F)c5ccc([nH]5)c(-c5cccc(S(=O)(=O)[O-])c5F)c5nc(c(-c6cccc(S(=O)(=O)[O-])c6F)c6ccc3[nH]6)C=C5)C=C4)cc2)c1
REMARK SMILES IDX 28 1 27 2 26 3 24 4 25 5 23 7 17 8 18 9 19 10 22 11 20 12
REMARK SMILES IDX 21 13 16 14 14 15 15 16 13 18 5 19 6 20 97 21 7 22 12 23
REMARK SMILES IDX 4 24 1 25 2 26 3 27 8 29 9 30 10 32 11 33 29 34 30 35 31 36
REMARK SMILES IDX 32 37 33 39 34 40 35 41 96 42 36 43 95 44 37 45 38 46 39 47
REMARK SMILES IDX 89 48 40 49 94 50 88 51 90 52 41 53 93 54 87 55 86 56 42 58
REMARK SMILES IDX 74 59 54 60 73 61 55 62 58 63 72 64 91 65 56 66 57 67 71 69
REMARK SMILES IDX 92 70 59 71 43 72 44 73 52 74 45 75 47 76 53 77 46 78 48 79
REMARK SMILES IDX 49 80 50 81 51 82 75 83 76 84 84 85 77 86 79 87 85 88 78 89
REMARK SMILES IDX 80 90 81 91 82 92 83 93 60 94 61 95 69 96 62 97 64 98 70 99
REMARK SMILES IDX 63 100 65 101 66 102 67 103 68 104
REMARK H PARENT 26 6 16 17 4 28 8 31 31 38 90 57 58 68
REMARK Flexibility Score: inf
ROOT
ATOM      1  C   UNL A   1      38.250  21.411  25.380  1.00  0.00     0.023 C 
ENDROOT
BRANCH   1   2
ATOM      2  C   UNL A   1      37.104  21.813  24.459  1.00  0.00     0.116 C 
BRANCH   2   3
ATOM      3  N   UNL A   1      36.373  22.986  24.894  1.00  0.00    -0.352 N 
ATOM      4  C   UNL A   1      35.035  23.269  24.786  1.00  0.00     0.253 C 
ATOM      5  O   UNL A   1      34.617  24.350  25.194  1.00  0.00    -0.269 OA
ATOM      6  H   UNL A   1      36.917  23.682  25.330  1.00  0.00     0.163 HD
BRANCH   4   7
ATOM      7  C   UNL A   1      34.087  22.343  24.112  1.00  0.00     0.064 A 
ATOM      8  C   UNL A   1      33.339  22.608  22.948  1.00  0.00     0.054 A 
ATOM      9  C   UNL A   1      32.329  21.705  22.576  1.00  0.00     0.028 A 
ATOM     10  C   UNL A   1      32.176  20.485  23.238  1.00  0.00     0.018 A 
ATOM     11  C   UNL A   1      33.948  21.095  24.752  1.00  0.00     0.031 A 
ATOM     12  C   UNL A   1      33.015  20.168  24.299  1.00  0.00     0.018 A 
ATOM     13  Br  UNL A   1      32.889  18.472  25.121  1.00  0.00    -0.051 Br
BRANCH   8  14
ATOM     14  N   UNL A   1      33.538  23.668  22.035  1.00  0.00    -0.321 N 
ATOM     15  C   UNL A   1      32.928  24.903  21.923  1.00  0.00     0.255 C 
ATOM     16  O   UNL A   1      33.078  25.554  20.891  1.00  0.00    -0.269 OA
ATOM     17  H   UNL A   1      34.235  23.498  21.360  1.00  0.00     0.170 HD
BRANCH  15  18
ATOM     18  C   UNL A   1      32.173  25.500  23.051  1.00  0.00     0.044 A 
ATOM     19  C   UNL A   1      31.694  27.401  24.465  1.00  0.00     0.044 A 
ATOM     20  C   UNL A   1      30.938  26.554  25.290  1.00  0.00     0.052 A 
ATOM     21  C   UNL A   1      32.247  26.874  23.307  1.00  0.00     0.040 A 
ATOM     22  C   UNL A   1      30.731  25.207  24.969  1.00  0.00     0.044 A 
ATOM     23  C   UNL A   1      31.379  24.674  23.852  1.00  0.00     0.040 A 
BRANCH  19  24
ATOM     24  N   UNL A   1      31.930  28.709  24.930  1.00  0.00    -0.326 N 
ATOM     25  C   UNL A   1      34.015  28.479  26.290  1.00  0.00     0.114 C 
ATOM     26  C   UNL A   1      32.809  29.245  25.824  1.00  0.00     0.221 C 
ATOM     27  O   UNL A   1      32.628  30.399  26.221  1.00  0.00    -0.275 OA
ATOM     28  H   UNL A   1      31.332  29.379  24.525  1.00  0.00     0.169 HD
ENDBRANCH  19  24
BRANCH  22  29
ATOM     29  N   UNL A   1      29.909  24.337  25.721  1.00  0.00    -0.326 N 
ATOM     30  C   UNL A   1      30.290  23.551  26.793  1.00  0.00     0.221 C 
ATOM     31  H   UNL A   1      28.963  24.286  25.452  1.00  0.00     0.169 HD
ATOM     32  C   UNL A   1      29.153  22.750  27.380  1.00  0.00     0.114 C 
ATOM     33  O   UNL A   1      31.412  23.486  27.286  1.00  0.00    -0.275 OA
ENDBRANCH  22  29
ENDBRANCH  15  18
ENDBRANCH   8  14
ENDBRANCH   4   7
ENDBRANCH   2   3
ENDBRANCH   1   2
BRANCH   1  34
ATOM     34  C   UNL A   1      38.848  20.023  25.142  1.00  0.00     0.023 C 
BRANCH  34  35
ATOM     35  C   UNL A   1      39.634  19.407  26.297  1.00  0.00     0.116 C 
BRANCH  35  36
ATOM     36  N   UNL A   1      40.929  18.863  25.909  1.00  0.00    -0.352 N 
ATOM     37  C   UNL A   1      42.165  19.475  25.849  1.00  0.00     0.251 C 
ATOM     38  H   UNL A   1      40.921  17.913  25.650  1.00  0.00     0.163 HD
ATOM     39  O   UNL A   1      43.133  18.884  25.403  1.00  0.00    -0.269 OA
BRANCH  37  40
ATOM     40  C   UNL A   1      42.292  20.879  26.298  1.00  0.00     0.039 A 
ATOM     41  C   UNL A   1      42.562  21.139  27.643  1.00  0.00     0.014 A 
ATOM     42  C   UNL A   1      42.212  21.924  25.375  1.00  0.00     0.014 A 
ATOM     43  C   UNL A   1      42.878  22.441  28.041  1.00  0.00     0.010 A 
ATOM     44  C   UNL A   1      42.603  23.203  25.758  1.00  0.00     0.010 A 
ATOM     45  C   UNL A   1      42.967  23.470  27.088  1.00  0.00    -0.014 A 
BRANCH  45  46
ATOM     46  C   UNL A   1      43.503  24.814  27.432  1.00  0.00     0.031 A 
ATOM     47  C   UNL A   1      42.580  25.895  27.923  1.00  0.00     0.074 A 
ATOM     48  C   UNL A   1      44.794  25.101  27.166  1.00  0.00     0.049 A 
ATOM     49  N   UNL A   1      42.828  27.162  28.123  1.00  0.00    -0.248 NA
ATOM     50  C   UNL A   1      41.186  25.505  28.191  1.00  0.00     0.031 C 
ATOM     51  C   UNL A   1      45.776  24.164  26.615  1.00  0.00     0.029 A 
ATOM     52  N   UNL A   1      45.495  26.276  27.290  1.00  0.00    -0.354 N 
ATOM     53  C   UNL A   1      41.618  27.732  28.496  1.00  0.00     0.074 A 
ATOM     54  C   UNL A   1      40.628  26.675  28.466  1.00  0.00     0.031 C 
ATOM     55  C   UNL A   1      46.949  24.797  26.452  1.00  0.00     0.029 A 
ATOM     56  C   UNL A   1      46.796  26.192  26.850  1.00  0.00     0.049 A 
ATOM     57  H   UNL A   1      45.103  27.101  27.658  1.00  0.00     0.167 HD
ATOM     58  C   UNL A   1      41.356  29.009  28.858  1.00  0.00     0.034 A 
ATOM     59  C   UNL A   1      47.758  27.134  26.767  1.00  0.00     0.034 A 
ATOM     60  C   UNL A   1      42.350  30.044  28.945  1.00  0.00     0.049 A 
ATOM     61  C   UNL A   1      47.453  28.535  27.223  1.00  0.00     0.074 A 
ATOM     62  C   UNL A   1      42.198  31.348  29.381  1.00  0.00     0.029 A 
ATOM     63  N   UNL A   1      43.683  29.892  28.596  1.00  0.00    -0.354 N 
ATOM     64  N   UNL A   1      46.335  29.019  27.707  1.00  0.00    -0.248 NA
ATOM     65  C   UNL A   1      48.549  29.512  27.154  1.00  0.00     0.031 C 
ATOM     66  C   UNL A   1      43.441  31.986  29.292  1.00  0.00     0.029 A 
ATOM     67  C   UNL A   1      44.367  31.075  28.809  1.00  0.00     0.049 A 
ATOM     68  H   UNL A   1      44.084  29.063  28.247  1.00  0.00     0.167 HD
ATOM     69  C   UNL A   1      46.603  30.342  28.036  1.00  0.00     0.074 A 
ATOM     70  C   UNL A   1      47.995  30.580  27.710  1.00  0.00     0.031 C 
ATOM     71  C   UNL A   1      45.769  31.279  28.548  1.00  0.00     0.034 A 
BRANCH  58  72
ATOM     72  C   UNL A   1      39.943  29.344  29.255  1.00  0.00     0.023 A 
ATOM     73  C   UNL A   1      38.990  29.617  28.252  1.00  0.00     0.012 A 
ATOM     74  C   UNL A   1      39.545  29.347  30.606  1.00  0.00     0.148 A 
ATOM     75  C   UNL A   1      37.673  29.922  28.588  1.00  0.00     0.002 A 
ATOM     76  C   UNL A   1      38.219  29.612  30.931  1.00  0.00     0.091 A 
ATOM     77  F   UNL A   1      40.470  29.112  31.548  1.00  0.00    -0.205 F 
ATOM     78  C   UNL A   1      37.285  29.909  29.924  1.00  0.00     0.022 A 
BRANCH  76  79
ATOM     79  S   UNL A   1      37.612  29.546  32.620  1.00  0.00     0.127 S 
ATOM     80  O   UNL A   1      38.588  30.383  33.316  1.00  0.00    -0.237 OA
ATOM     81  O   UNL A   1      36.279  30.139  32.496  1.00  0.00    -0.237 OA
ATOM     82  O   UNL A   1      37.614  28.137  32.986  1.00  0.00    -0.744 OA
ENDBRANCH  76  79
ENDBRANCH  58  72
BRANCH  59  83
ATOM     83  C   UNL A   1      49.126  26.762  26.306  1.00  0.00     0.023 A 
ATOM     84  C   UNL A   1      49.921  25.936  27.125  1.00  0.00     0.012 A 
ATOM     85  C   UNL A   1      49.631  27.185  25.063  1.00  0.00     0.148 A 
ATOM     86  C   UNL A   1      51.205  25.563  26.729  1.00  0.00     0.002 A 
ATOM     87  C   UNL A   1      50.892  26.767  24.650  1.00  0.00     0.091 A 
ATOM     88  F   UNL A   1      48.867  27.981  24.303  1.00  0.00    -0.205 F 
ATOM     89  C   UNL A   1      51.687  25.969  25.487  1.00  0.00     0.022 A 
BRANCH  87  90
ATOM     90  S   UNL A   1      51.536  27.132  23.013  1.00  0.00     0.127 S 
ATOM     91  O   UNL A   1      51.751  28.575  23.091  1.00  0.00    -0.237 OA
ATOM     92  O   UNL A   1      52.757  26.327  22.977  1.00  0.00    -0.237 OA
ATOM     93  O   UNL A   1      50.504  26.691  22.083  1.00  0.00    -0.744 OA
ENDBRANCH  87  90
ENDBRANCH  59  83
BRANCH  71  94
ATOM     94  C   UNL A   1      46.337  32.643  28.835  1.00  0.00     0.023 A 
ATOM     95  C   UNL A   1      46.917  32.907  30.090  1.00  0.00     0.012 A 
ATOM     96  C   UNL A   1      46.377  33.629  27.830  1.00  0.00     0.148 A 
ATOM     97  C   UNL A   1      47.512  34.142  30.348  1.00  0.00     0.002 A 
ATOM     98  C   UNL A   1      47.009  34.841  28.080  1.00  0.00     0.091 A 
ATOM     99  F   UNL A   1      45.798  33.364  26.649  1.00  0.00    -0.205 F 
ATOM    100  C   UNL A   1      47.568  35.103  29.341  1.00  0.00     0.022 A 
BRANCH  98 101
ATOM    101  S   UNL A   1      47.209  36.099  26.813  1.00  0.00     0.127 S 
ATOM    102  O   UNL A   1      47.995  37.110  27.517  1.00  0.00    -0.237 OA
ATOM    103  O   UNL A   1      47.939  35.377  25.769  1.00  0.00    -0.237 OA
ATOM    104  O   UNL A   1      45.862  36.504  26.435  1.00  0.00    -0.744 OA
ENDBRANCH  98 101
ENDBRANCH  71  94
ENDBRANCH  45  46
ENDBRANCH  37  40
ENDBRANCH  35  36
ENDBRANCH  34  35
ENDBRANCH   1  34
TORSDOF 18
ENDMDL
