MODEL 1
REMARK VINA RESULT:     -11.3      0.000      0.000
REMARK SMILES O=CN[C@@H](CCS[C@@H]1CCO[C@]2(CCOC2)C1)C(=O)NCCCCNC(=O)c1ccc(-c2c3nc(c(-c4cccc(S(=O)(=O)[O-])c4F)c4ccc([nH]4)c(-c4cccc(S(=O)(=O)[O-])c4F)c4nc(c(-c5cccc(S(=O)(=O)[O-])c5F)c5ccc2[nH]5)C=C4)C=C3)cc1
REMARK SMILES IDX 22 1 21 2 20 3 18 4 19 5 4 7 3 8 1 9 2 10 5 12 6 13 7 14
REMARK SMILES IDX 8 15 9 16 17 17 10 18 12 19 11 20 13 21 16 22 14 23 15 24
REMARK SMILES IDX 23 25 24 26 25 27 26 28 27 30 28 31 29 32 90 33 30 34 89 35
REMARK SMILES IDX 31 36 32 37 33 38 83 39 34 40 88 41 82 42 84 43 35 44 87 45
REMARK SMILES IDX 81 46 80 47 36 49 68 50 48 51 67 52 49 53 52 54 66 55 85 56
REMARK SMILES IDX 50 57 51 58 65 60 86 61 53 62 37 63 38 64 46 65 39 66 41 67
REMARK SMILES IDX 47 68 40 69 42 70 43 71 44 72 45 73 69 74 70 75 78 76 71 77
REMARK SMILES IDX 73 78 79 79 72 80 74 81 75 82 76 83 77 84 54 85 55 86 63 87
REMARK SMILES IDX 56 88 58 89 64 90 57 91 59 92 60 93 61 94 62 95
REMARK H PARENT 20 6 3 11 25 29 84 48 52 59
REMARK Flexibility Score: inf
ROOT
ATOM      1  C   UNL A   1      31.522  30.241  26.360  1.00  0.00     0.023 C 
ENDROOT
BRANCH   1   2
ATOM      2  C   UNL A   1      32.871  29.590  26.082  1.00  0.00     0.116 C 
BRANCH   2   3
ATOM      3  N   UNL A   1      33.326  29.756  24.716  1.00  0.00    -0.354 N 
ATOM      4  C   UNL A   1      33.059  29.006  23.613  1.00  0.00     0.242 C 
ATOM      5  O   UNL A   1      33.844  29.083  22.661  1.00  0.00    -0.273 OA
ATOM      6  H   UNL A   1      33.917  30.528  24.564  1.00  0.00     0.163 HD
BRANCH   4   7
ATOM      7  C   UNL A   1      31.927  27.985  23.554  1.00  0.00     0.171 C 
BRANCH   7   8
ATOM      8  N   UNL A   1      31.160  28.341  22.362  1.00  0.00    -0.347 N 
ATOM      9  O   UNL A   1      29.841  29.930  21.389  1.00  0.00    -0.279 OA
ATOM     10  C   UNL A   1      30.267  29.388  22.397  1.00  0.00     0.337 C 
ATOM     11  H   UNL A   1      31.283  27.829  21.530  1.00  0.00     0.164 HD
ENDBRANCH   7   8
BRANCH   7  12
ATOM     12  C   UNL A   1      32.217  26.489  23.773  1.00  0.00     0.046 C 
BRANCH  12  13
ATOM     13  C   UNL A   1      32.635  25.836  25.107  1.00  0.00     0.072 C 
BRANCH  13  14
ATOM     14  S   UNL A   1      32.685  24.037  25.514  1.00  0.00    -0.158 SA
BRANCH  14  15
ATOM     15  C   UNL A   1      33.109  23.017  24.013  1.00  0.00     0.052 C 
ATOM     16  C   UNL A   1      32.668  21.561  24.262  1.00  0.00     0.043 C 
ATOM     17  C   UNL A   1      34.584  22.930  23.614  1.00  0.00     0.052 C 
ATOM     18  C   UNL A   1      33.607  20.819  25.217  1.00  0.00     0.162 C 
ATOM     19  C   UNL A   1      35.491  22.239  24.631  1.00  0.00     0.095 C 
ATOM     20  O   UNL A   1      34.987  20.919  24.860  1.00  0.00    -0.372 OA
ATOM     21  C   UNL A   1      35.673  23.041  25.912  1.00  0.00     0.066 C 
ATOM     22  C   UNL A   1      36.926  22.127  24.081  1.00  0.00     0.195 C 
ATOM     23  C   UNL A   1      37.139  23.368  26.022  1.00  0.00     0.163 C 
ATOM     24  O   UNL A   1      37.847  22.576  25.086  1.00  0.00    -0.378 OA
ENDBRANCH  14  15
ENDBRANCH  13  14
ENDBRANCH  12  13
ENDBRANCH   7  12
ENDBRANCH   4   7
ENDBRANCH   2   3
ENDBRANCH   1   2
BRANCH   1  25
ATOM     25  C   UNL A   1      31.510  31.772  26.495  1.00  0.00     0.023 C 
BRANCH  25  26
ATOM     26  C   UNL A   1      32.681  32.436  27.228  1.00  0.00     0.116 C 
BRANCH  26  27
ATOM     27  N   UNL A   1      32.423  33.804  27.638  1.00  0.00    -0.352 N 
ATOM     28  C   UNL A   1      33.081  34.594  28.552  1.00  0.00     0.251 C 
ATOM     29  H   UNL A   1      31.658  34.234  27.192  1.00  0.00     0.163 HD
ATOM     30  O   UNL A   1      32.647  35.718  28.794  1.00  0.00    -0.269 OA
BRANCH  28  31
ATOM     31  C   UNL A   1      34.280  34.105  29.276  1.00  0.00     0.039 A 
ATOM     32  C   UNL A   1      34.092  33.331  30.426  1.00  0.00     0.014 A 
ATOM     33  C   UNL A   1      35.575  34.437  28.873  1.00  0.00     0.014 A 
ATOM     34  C   UNL A   1      35.196  32.834  31.132  1.00  0.00     0.010 A 
ATOM     35  C   UNL A   1      36.677  33.905  29.553  1.00  0.00     0.010 A 
ATOM     36  C   UNL A   1      36.502  33.091  30.685  1.00  0.00    -0.014 A 
BRANCH  36  37
ATOM     37  C   UNL A   1      37.690  32.510  31.374  1.00  0.00     0.031 A 
ATOM     38  C   UNL A   1      38.430  31.345  30.770  1.00  0.00     0.074 A 
ATOM     39  C   UNL A   1      38.062  32.974  32.586  1.00  0.00     0.049 A 
ATOM     40  N   UNL A   1      39.399  30.626  31.278  1.00  0.00    -0.248 NA
ATOM     41  C   UNL A   1      38.014  30.923  29.423  1.00  0.00     0.031 C 
ATOM     42  C   UNL A   1      37.424  34.080  33.302  1.00  0.00     0.029 A 
ATOM     43  N   UNL A   1      39.048  32.551  33.446  1.00  0.00    -0.354 N 
ATOM     44  C   UNL A   1      39.688  29.649  30.332  1.00  0.00     0.074 A 
ATOM     45  C   UNL A   1      38.775  29.853  29.227  1.00  0.00     0.031 C 
ATOM     46  C   UNL A   1      38.022  34.238  34.495  1.00  0.00     0.029 A 
ATOM     47  C   UNL A   1      39.060  33.224  34.649  1.00  0.00     0.049 A 
ATOM     48  H   UNL A   1      39.685  31.833  33.224  1.00  0.00     0.167 HD
ATOM     49  C   UNL A   1      40.637  28.682  30.366  1.00  0.00     0.034 A 
ATOM     50  C   UNL A   1      39.805  33.033  35.757  1.00  0.00     0.034 A 
ATOM     51  C   UNL A   1      41.567  28.494  31.448  1.00  0.00     0.049 A 
ATOM     52  C   UNL A   1      40.843  31.940  35.774  1.00  0.00     0.074 A 
ATOM     53  C   UNL A   1      42.591  27.567  31.551  1.00  0.00     0.029 A 
ATOM     54  N   UNL A   1      41.591  29.242  32.614  1.00  0.00    -0.354 N 
ATOM     55  N   UNL A   1      41.169  31.097  34.826  1.00  0.00    -0.248 NA
ATOM     56  C   UNL A   1      41.639  31.795  37.002  1.00  0.00     0.031 C 
ATOM     57  C   UNL A   1      43.220  27.741  32.787  1.00  0.00     0.029 A 
ATOM     58  C   UNL A   1      42.611  28.801  33.439  1.00  0.00     0.049 A 
ATOM     59  H   UNL A   1      40.973  29.980  32.824  1.00  0.00     0.167 HD
ATOM     60  C   UNL A   1      42.241  30.362  35.321  1.00  0.00     0.074 A 
ATOM     61  C   UNL A   1      42.515  30.862  36.651  1.00  0.00     0.031 C 
ATOM     62  C   UNL A   1      42.931  29.358  34.727  1.00  0.00     0.034 A 
BRANCH  49  63
ATOM     63  C   UNL A   1      40.758  27.772  29.170  1.00  0.00     0.023 A 
ATOM     64  C   UNL A   1      39.935  26.631  29.083  1.00  0.00     0.012 A 
ATOM     65  C   UNL A   1      41.622  28.084  28.101  1.00  0.00     0.148 A 
ATOM     66  C   UNL A   1      39.994  25.795  27.967  1.00  0.00     0.002 A 
ATOM     67  C   UNL A   1      41.643  27.271  26.973  1.00  0.00     0.091 A 
ATOM     68  F   UNL A   1      42.405  29.167  28.207  1.00  0.00    -0.205 F 
ATOM     69  C   UNL A   1      40.839  26.120  26.910  1.00  0.00     0.022 A 
BRANCH  67  70
ATOM     70  S   UNL A   1      42.636  27.644  25.523  1.00  0.00     0.127 S 
ATOM     71  O   UNL A   1      43.982  27.684  26.091  1.00  0.00    -0.237 OA
ATOM     72  O   UNL A   1      42.371  26.490  24.664  1.00  0.00    -0.237 OA
ATOM     73  O   UNL A   1      42.139  28.913  25.011  1.00  0.00    -0.744 OA
ENDBRANCH  67  70
ENDBRANCH  49  63
BRANCH  50  74
ATOM     74  C   UNL A   1      39.635  33.924  36.942  1.00  0.00     0.023 A 
ATOM     75  C   UNL A   1      40.141  35.238  36.896  1.00  0.00     0.012 A 
ATOM     76  C   UNL A   1      38.993  33.480  38.114  1.00  0.00     0.148 A 
ATOM     77  C   UNL A   1      40.051  36.078  38.006  1.00  0.00     0.002 A 
ATOM     78  C   UNL A   1      38.856  34.340  39.197  1.00  0.00     0.091 A 
ATOM     79  F   UNL A   1      38.532  32.222  38.148  1.00  0.00    -0.205 F 
ATOM     80  C   UNL A   1      39.401  35.632  39.154  1.00  0.00     0.022 A 
BRANCH  78  81
ATOM     81  S   UNL A   1      37.923  33.896  40.667  1.00  0.00     0.127 S 
ATOM     82  O   UNL A   1      38.888  33.081  41.399  1.00  0.00    -0.237 OA
ATOM     83  O   UNL A   1      37.645  35.204  41.257  1.00  0.00    -0.237 OA
ATOM     84  O   UNL A   1      36.739  33.196  40.180  1.00  0.00    -0.744 OA
ENDBRANCH  78  81
ENDBRANCH  50  74
BRANCH  62  85
ATOM     85  C   UNL A   1      44.110  28.774  35.462  1.00  0.00     0.023 A 
ATOM     86  C   UNL A   1      45.397  29.317  35.286  1.00  0.00     0.012 A 
ATOM     87  C   UNL A   1      43.917  27.745  36.408  1.00  0.00     0.148 A 
ATOM     88  C   UNL A   1      46.478  28.831  36.021  1.00  0.00     0.002 A 
ATOM     89  C   UNL A   1      44.988  27.301  37.173  1.00  0.00     0.091 A 
ATOM     90  F   UNL A   1      42.687  27.229  36.546  1.00  0.00    -0.205 F 
ATOM     91  C   UNL A   1      46.271  27.834  36.973  1.00  0.00     0.022 A 
BRANCH  89  92
ATOM     92  S   UNL A   1      44.799  26.093  38.490  1.00  0.00     0.127 S 
ATOM     93  O   UNL A   1      44.343  24.916  37.751  1.00  0.00    -0.237 OA
ATOM     94  O   UNL A   1      46.160  25.995  39.016  1.00  0.00    -0.237 OA
ATOM     95  O   UNL A   1      43.829  26.658  39.419  1.00  0.00    -0.744 OA
ENDBRANCH  89  92
ENDBRANCH  62  85
ENDBRANCH  36  37
ENDBRANCH  28  31
ENDBRANCH  26  27
ENDBRANCH  25  26
ENDBRANCH   1  25
TORSDOF 19
ENDMDL
MODEL 2
REMARK VINA RESULT:     -11.0      1.429      1.754
REMARK SMILES O=CN[C@@H](CCS[C@@H]1CCO[C@]2(CCOC2)C1)C(=O)NCCCCNC(=O)c1ccc(-c2c3nc(c(-c4cccc(S(=O)(=O)[O-])c4F)c4ccc([nH]4)c(-c4cccc(S(=O)(=O)[O-])c4F)c4nc(c(-c5cccc(S(=O)(=O)[O-])c5F)c5ccc2[nH]5)C=C4)C=C3)cc1
REMARK SMILES IDX 22 1 21 2 20 3 18 4 19 5 4 7 3 8 1 9 2 10 5 12 6 13 7 14
REMARK SMILES IDX 8 15 9 16 17 17 10 18 12 19 11 20 13 21 16 22 14 23 15 24
REMARK SMILES IDX 23 25 24 26 25 27 26 28 27 30 28 31 29 32 90 33 30 34 89 35
REMARK SMILES IDX 31 36 32 37 33 38 83 39 34 40 88 41 82 42 84 43 35 44 87 45
REMARK SMILES IDX 81 46 80 47 36 49 68 50 48 51 67 52 49 53 52 54 66 55 85 56
REMARK SMILES IDX 50 57 51 58 65 60 86 61 53 62 37 63 38 64 46 65 39 66 41 67
REMARK SMILES IDX 47 68 40 69 42 70 43 71 44 72 45 73 69 74 70 75 78 76 71 77
REMARK SMILES IDX 73 78 79 79 72 80 74 81 75 82 76 83 77 84 54 85 55 86 63 87
REMARK SMILES IDX 56 88 58 89 64 90 57 91 59 92 60 93 61 94 62 95
REMARK H PARENT 20 6 3 11 25 29 84 48 52 59
REMARK Flexibility Score: inf
ROOT
ATOM      1  C   UNL A   1      31.563  30.441  26.104  1.00  0.00     0.023 C 
ENDROOT
BRANCH   1   2
ATOM      2  C   UNL A   1      32.970  29.868  25.998  1.00  0.00     0.116 C 
BRANCH   2   3
ATOM      3  N   UNL A   1      33.460  29.778  24.637  1.00  0.00    -0.354 N 
ATOM      4  C   UNL A   1      33.033  28.996  23.609  1.00  0.00     0.242 C 
ATOM      5  O   UNL A   1      33.821  28.787  22.679  1.00  0.00    -0.273 OA
ATOM      6  H   UNL A   1      34.216  30.372  24.425  1.00  0.00     0.163 HD
BRANCH   4   7
ATOM      7  C   UNL A   1      31.695  28.263  23.620  1.00  0.00     0.171 C 
BRANCH   7   8
ATOM      8  N   UNL A   1      31.082  28.578  22.331  1.00  0.00    -0.347 N 
ATOM      9  O   UNL A   1      29.419  29.737  21.282  1.00  0.00    -0.279 OA
ATOM     10  C   UNL A   1      29.841  29.171  22.278  1.00  0.00     0.337 C 
ATOM     11  H   UNL A   1      31.560  28.365  21.497  1.00  0.00     0.164 HD
ENDBRANCH   7   8
BRANCH   7  12
ATOM     12  C   UNL A   1      31.614  26.799  24.089  1.00  0.00     0.046 C 
BRANCH  12  13
ATOM     13  C   UNL A   1      31.243  25.588  23.208  1.00  0.00     0.072 C 
BRANCH  13  14
ATOM     14  S   UNL A   1      32.348  24.219  22.653  1.00  0.00    -0.158 SA
BRANCH  14  15
ATOM     15  C   UNL A   1      32.128  22.702  23.713  1.00  0.00     0.052 C 
ATOM     16  C   UNL A   1      31.789  23.144  25.149  1.00  0.00     0.043 C 
ATOM     17  C   UNL A   1      33.328  21.760  23.853  1.00  0.00     0.052 C 
ATOM     18  C   UNL A   1      33.010  23.678  25.902  1.00  0.00     0.162 C 
ATOM     19  C   UNL A   1      34.545  22.362  24.553  1.00  0.00     0.095 C 
ATOM     20  O   UNL A   1      34.143  22.807  25.852  1.00  0.00    -0.372 OA
ATOM     21  C   UNL A   1      35.231  23.446  23.734  1.00  0.00     0.066 C 
ATOM     22  C   UNL A   1      35.648  21.299  24.720  1.00  0.00     0.195 C 
ATOM     23  C   UNL A   1      36.630  22.965  23.451  1.00  0.00     0.163 C 
ATOM     24  O   UNL A   1      36.898  21.851  24.281  1.00  0.00    -0.378 OA
ENDBRANCH  14  15
ENDBRANCH  13  14
ENDBRANCH  12  13
ENDBRANCH   7  12
ENDBRANCH   4   7
ENDBRANCH   2   3
ENDBRANCH   1   2
BRANCH   1  25
ATOM     25  C   UNL A   1      31.444  31.894  26.591  1.00  0.00     0.023 C 
BRANCH  25  26
ATOM     26  C   UNL A   1      32.653  32.513  27.301  1.00  0.00     0.116 C 
BRANCH  26  27
ATOM     27  N   UNL A   1      32.461  33.894  27.703  1.00  0.00    -0.352 N 
ATOM     28  C   UNL A   1      33.177  34.667  28.587  1.00  0.00     0.251 C 
ATOM     29  H   UNL A   1      31.698  34.348  27.277  1.00  0.00     0.163 HD
ATOM     30  O   UNL A   1      32.793  35.810  28.829  1.00  0.00    -0.269 OA
BRANCH  28  31
ATOM     31  C   UNL A   1      34.378  34.141  29.279  1.00  0.00     0.039 A 
ATOM     32  C   UNL A   1      34.198  33.390  30.446  1.00  0.00     0.014 A 
ATOM     33  C   UNL A   1      35.672  34.415  28.829  1.00  0.00     0.014 A 
ATOM     34  C   UNL A   1      35.304  32.859  31.123  1.00  0.00     0.010 A 
ATOM     35  C   UNL A   1      36.773  33.847  29.480  1.00  0.00     0.010 A 
ATOM     36  C   UNL A   1      36.604  33.057  30.630  1.00  0.00    -0.014 A 
BRANCH  36  37
ATOM     37  C   UNL A   1      37.791  32.438  31.288  1.00  0.00     0.031 A 
ATOM     38  C   UNL A   1      38.485  31.259  30.658  1.00  0.00     0.074 A 
ATOM     39  C   UNL A   1      38.200  32.880  32.496  1.00  0.00     0.049 A 
ATOM     40  N   UNL A   1      39.445  30.509  31.139  1.00  0.00    -0.248 NA
ATOM     41  C   UNL A   1      38.029  30.860  29.317  1.00  0.00     0.031 C 
ATOM     42  C   UNL A   1      37.607  33.997  33.235  1.00  0.00     0.029 A 
ATOM     43  N   UNL A   1      39.193  32.424  33.331  1.00  0.00    -0.354 N 
ATOM     44  C   UNL A   1      39.687  29.533  30.179  1.00  0.00     0.074 A 
ATOM     45  C   UNL A   1      38.756  29.773  29.096  1.00  0.00     0.031 C 
ATOM     46  C   UNL A   1      38.235  34.128  34.415  1.00  0.00     0.029 A 
ATOM     47  C   UNL A   1      39.249  33.085  34.538  1.00  0.00     0.049 A 
ATOM     48  H   UNL A   1      39.805  31.691  33.089  1.00  0.00     0.167 HD
ATOM     49  C   UNL A   1      40.610  28.541  30.185  1.00  0.00     0.034 A 
ATOM     50  C   UNL A   1      40.011  32.865  35.629  1.00  0.00     0.034 A 
ATOM     51  C   UNL A   1      41.558  28.319  31.245  1.00  0.00     0.049 A 
ATOM     52  C   UNL A   1      41.019  31.744  35.614  1.00  0.00     0.074 A 
ATOM     53  C   UNL A   1      42.558  27.363  31.318  1.00  0.00     0.029 A 
ATOM     54  N   UNL A   1      41.627  29.055  32.416  1.00  0.00    -0.354 N 
ATOM     55  N   UNL A   1      41.302  30.901  34.652  1.00  0.00    -0.248 NA
ATOM     56  C   UNL A   1      41.837  31.566  36.824  1.00  0.00     0.031 C 
ATOM     57  C   UNL A   1      43.218  27.510  32.541  1.00  0.00     0.029 A 
ATOM     58  C   UNL A   1      42.651  28.579  33.215  1.00  0.00     0.049 A 
ATOM     59  H   UNL A   1      41.034  29.807  32.645  1.00  0.00     0.167 HD
ATOM     60  C   UNL A   1      42.364  30.133  35.118  1.00  0.00     0.074 A 
ATOM     61  C   UNL A   1      42.680  30.613  36.446  1.00  0.00     0.031 C 
ATOM     62  C   UNL A   1      43.014  29.116  34.501  1.00  0.00     0.034 A 
BRANCH  49  63
ATOM     63  C   UNL A   1      40.681  27.639  28.979  1.00  0.00     0.023 A 
ATOM     64  C   UNL A   1      39.735  26.604  28.833  1.00  0.00     0.012 A 
ATOM     65  C   UNL A   1      41.625  27.861  27.957  1.00  0.00     0.148 A 
ATOM     66  C   UNL A   1      39.749  25.781  27.706  1.00  0.00     0.002 A 
ATOM     67  C   UNL A   1      41.605  27.066  26.816  1.00  0.00     0.091 A 
ATOM     68  F   UNL A   1      42.523  28.843  28.119  1.00  0.00    -0.205 F 
ATOM     69  C   UNL A   1      40.676  26.019  26.695  1.00  0.00     0.022 A 
BRANCH  67  70
ATOM     70  S   UNL A   1      42.702  27.340  25.420  1.00  0.00     0.127 S 
ATOM     71  O   UNL A   1      42.555  26.087  24.680  1.00  0.00    -0.237 OA
ATOM     72  O   UNL A   1      42.094  28.503  24.774  1.00  0.00    -0.237 OA
ATOM     73  O   UNL A   1      44.022  27.577  25.986  1.00  0.00    -0.744 OA
ENDBRANCH  67  70
ENDBRANCH  49  63
BRANCH  50  74
ATOM     74  C   UNL A   1      39.891  33.749  36.825  1.00  0.00     0.023 A 
ATOM     75  C   UNL A   1      38.774  33.615  37.673  1.00  0.00     0.012 A 
ATOM     76  C   UNL A   1      40.861  34.726  37.120  1.00  0.00     0.148 A 
ATOM     77  C   UNL A   1      38.602  34.465  38.766  1.00  0.00     0.002 A 
ATOM     78  C   UNL A   1      40.713  35.532  38.244  1.00  0.00     0.091 A 
ATOM     79  F   UNL A   1      41.910  34.851  36.294  1.00  0.00    -0.205 F 
ATOM     80  C   UNL A   1      39.575  35.417  39.057  1.00  0.00     0.022 A 
BRANCH  78  81
ATOM     81  S   UNL A   1      41.978  36.697  38.766  1.00  0.00     0.127 S 
ATOM     82  O   UNL A   1      43.049  35.803  39.194  1.00  0.00    -0.237 OA
ATOM     83  O   UNL A   1      42.242  37.431  37.530  1.00  0.00    -0.237 OA
ATOM     84  O   UNL A   1      41.359  37.497  39.817  1.00  0.00    -0.744 OA
ENDBRANCH  78  81
ENDBRANCH  50  74
BRANCH  62  85
ATOM     85  C   UNL A   1      44.192  28.493  35.206  1.00  0.00     0.023 A 
ATOM     86  C   UNL A   1      45.494  28.977  34.975  1.00  0.00     0.012 A 
ATOM     87  C   UNL A   1      43.988  27.491  36.176  1.00  0.00     0.148 A 
ATOM     88  C   UNL A   1      46.578  28.457  35.681  1.00  0.00     0.002 A 
ATOM     89  C   UNL A   1      45.066  27.013  36.912  1.00  0.00     0.091 A 
ATOM     90  F   UNL A   1      42.743  27.031  36.366  1.00  0.00    -0.205 F 
ATOM     91  C   UNL A   1      46.363  27.486  36.658  1.00  0.00     0.022 A 
BRANCH  89  92
ATOM     92  S   UNL A   1      44.872  25.838  38.257  1.00  0.00     0.127 S 
ATOM     93  O   UNL A   1      46.228  25.783  38.802  1.00  0.00    -0.237 OA
ATOM     94  O   UNL A   1      43.895  26.510  39.115  1.00  0.00    -0.237 OA
ATOM     95  O   UNL A   1      44.396  24.603  37.648  1.00  0.00    -0.744 OA
ENDBRANCH  89  92
ENDBRANCH  62  85
ENDBRANCH  36  37
ENDBRANCH  28  31
ENDBRANCH  26  27
ENDBRANCH  25  26
ENDBRANCH   1  25
TORSDOF 19
ENDMDL
MODEL 3
REMARK VINA RESULT:     -10.9      1.722      7.849
REMARK SMILES O=CN[C@@H](CCS[C@@H]1CCO[C@]2(CCOC2)C1)C(=O)NCCCCNC(=O)c1ccc(-c2c3nc(c(-c4cccc(S(=O)(=O)[O-])c4F)c4ccc([nH]4)c(-c4cccc(S(=O)(=O)[O-])c4F)c4nc(c(-c5cccc(S(=O)(=O)[O-])c5F)c5ccc2[nH]5)C=C4)C=C3)cc1
REMARK SMILES IDX 22 1 21 2 20 3 18 4 19 5 4 7 3 8 1 9 2 10 5 12 6 13 7 14
REMARK SMILES IDX 8 15 9 16 17 17 10 18 12 19 11 20 13 21 16 22 14 23 15 24
REMARK SMILES IDX 23 25 24 26 25 27 26 28 27 30 28 31 29 32 90 33 30 34 89 35
REMARK SMILES IDX 31 36 32 37 33 38 83 39 34 40 88 41 82 42 84 43 35 44 87 45
REMARK SMILES IDX 81 46 80 47 36 49 68 50 48 51 67 52 49 53 52 54 66 55 85 56
REMARK SMILES IDX 50 57 51 58 65 60 86 61 53 62 37 63 38 64 46 65 39 66 41 67
REMARK SMILES IDX 47 68 40 69 42 70 43 71 44 72 45 73 69 74 70 75 78 76 71 77
REMARK SMILES IDX 73 78 79 79 72 80 74 81 75 82 76 83 77 84 54 85 55 86 63 87
REMARK SMILES IDX 56 88 58 89 64 90 57 91 59 92 60 93 61 94 62 95
REMARK H PARENT 20 6 3 11 25 29 84 48 52 59
REMARK Flexibility Score: inf
ROOT
ATOM      1  C   UNL A   1      31.320  30.474  25.696  1.00  0.00     0.023 C 
ENDROOT
BRANCH   1   2
ATOM      2  C   UNL A   1      32.612  29.666  25.687  1.00  0.00     0.116 C 
BRANCH   2   3
ATOM      3  N   UNL A   1      33.331  29.735  24.430  1.00  0.00    -0.354 N 
ATOM      4  C   UNL A   1      33.670  28.740  23.566  1.00  0.00     0.242 C 
ATOM      5  O   UNL A   1      34.602  28.952  22.781  1.00  0.00    -0.273 OA
ATOM      6  H   UNL A   1      33.616  30.638  24.161  1.00  0.00     0.163 HD
BRANCH   4   7
ATOM      7  C   UNL A   1      33.052  27.346  23.618  1.00  0.00     0.171 C 
BRANCH   7   8
ATOM      8  N   UNL A   1      31.612  27.568  23.501  1.00  0.00    -0.347 N 
ATOM      9  O   UNL A   1      29.902  28.051  22.069  1.00  0.00    -0.279 OA
ATOM     10  C   UNL A   1      31.086  28.127  22.359  1.00  0.00     0.337 C 
ATOM     11  H   UNL A   1      31.016  27.317  24.243  1.00  0.00     0.164 HD
ENDBRANCH   7   8
BRANCH   7  12
ATOM     12  C   UNL A   1      33.649  26.199  22.782  1.00  0.00     0.046 C 
BRANCH  12  13
ATOM     13  C   UNL A   1      32.892  24.945  22.300  1.00  0.00     0.072 C 
BRANCH  13  14
ATOM     14  S   UNL A   1      33.238  23.185  22.730  1.00  0.00    -0.158 SA
BRANCH  14  15
ATOM     15  C   UNL A   1      34.434  23.060  24.154  1.00  0.00     0.052 C 
ATOM     16  C   UNL A   1      34.909  21.599  24.277  1.00  0.00     0.043 C 
ATOM     17  C   UNL A   1      33.916  23.435  25.545  1.00  0.00     0.052 C 
ATOM     18  C   UNL A   1      33.846  20.687  24.895  1.00  0.00     0.162 C 
ATOM     19  C   UNL A   1      32.809  22.533  26.088  1.00  0.00     0.095 C 
ATOM     20  O   UNL A   1      33.297  21.187  26.116  1.00  0.00    -0.372 OA
ATOM     21  C   UNL A   1      31.494  22.678  25.335  1.00  0.00     0.066 C 
ATOM     22  C   UNL A   1      32.436  22.947  27.525  1.00  0.00     0.195 C 
ATOM     23  C   UNL A   1      30.473  23.178  26.323  1.00  0.00     0.163 C 
ATOM     24  O   UNL A   1      31.008  23.046  27.627  1.00  0.00    -0.378 OA
ENDBRANCH  14  15
ENDBRANCH  13  14
ENDBRANCH  12  13
ENDBRANCH   7  12
ENDBRANCH   4   7
ENDBRANCH   2   3
ENDBRANCH   1   2
BRANCH   1  25
ATOM     25  C   UNL A   1      31.311  31.750  26.552  1.00  0.00     0.023 C 
BRANCH  25  26
ATOM     26  C   UNL A   1      32.652  32.440  26.824  1.00  0.00     0.116 C 
BRANCH  26  27
ATOM     27  N   UNL A   1      32.530  33.775  27.381  1.00  0.00    -0.352 N 
ATOM     28  C   UNL A   1      33.251  34.389  28.379  1.00  0.00     0.251 C 
ATOM     29  H   UNL A   1      31.820  34.328  26.981  1.00  0.00     0.163 HD
ATOM     30  O   UNL A   1      32.930  35.519  28.740  1.00  0.00    -0.269 OA
BRANCH  28  31
ATOM     31  C   UNL A   1      34.381  33.703  29.051  1.00  0.00     0.039 A 
ATOM     32  C   UNL A   1      34.091  32.693  29.975  1.00  0.00     0.014 A 
ATOM     33  C   UNL A   1      35.709  34.070  28.826  1.00  0.00     0.014 A 
ATOM     34  C   UNL A   1      35.128  32.007  30.621  1.00  0.00     0.010 A 
ATOM     35  C   UNL A   1      36.745  33.355  29.438  1.00  0.00     0.010 A 
ATOM     36  C   UNL A   1      36.469  32.311  30.337  1.00  0.00    -0.014 A 
BRANCH  36  37
ATOM     37  C   UNL A   1      37.590  31.544  30.953  1.00  0.00     0.031 A 
ATOM     38  C   UNL A   1      37.998  31.801  32.380  1.00  0.00     0.074 A 
ATOM     39  C   UNL A   1      38.301  30.671  30.208  1.00  0.00     0.049 A 
ATOM     40  N   UNL A   1      39.023  31.331  33.046  1.00  0.00    -0.248 NA
ATOM     41  C   UNL A   1      37.150  32.720  33.156  1.00  0.00     0.031 C 
ATOM     42  C   UNL A   1      38.035  30.340  28.807  1.00  0.00     0.029 A 
ATOM     43  N   UNL A   1      39.414  29.925  30.516  1.00  0.00    -0.354 N 
ATOM     44  C   UNL A   1      38.964  31.919  34.305  1.00  0.00     0.074 A 
ATOM     45  C   UNL A   1      37.814  32.798  34.302  1.00  0.00     0.031 C 
ATOM     46  C   UNL A   1      38.965  29.472  28.373  1.00  0.00     0.029 A 
ATOM     47  C   UNL A   1      39.916  29.212  29.449  1.00  0.00     0.049 A 
ATOM     48  H   UNL A   1      39.816  29.903  31.415  1.00  0.00     0.167 HD
ATOM     49  C   UNL A   1      39.778  31.732  35.373  1.00  0.00     0.034 A 
ATOM     50  C   UNL A   1      41.027  28.454  29.340  1.00  0.00     0.034 A 
ATOM     51  C   UNL A   1      40.904  30.835  35.389  1.00  0.00     0.049 A 
ATOM     52  C   UNL A   1      41.922  28.276  30.540  1.00  0.00     0.074 A 
ATOM     53  C   UNL A   1      41.760  30.550  36.441  1.00  0.00     0.029 A 
ATOM     54  N   UNL A   1      41.334  30.080  34.311  1.00  0.00    -0.354 N 
ATOM     55  N   UNL A   1      41.787  28.758  31.750  1.00  0.00    -0.248 NA
ATOM     56  C   UNL A   1      43.107  27.420  30.367  1.00  0.00     0.031 C 
ATOM     57  C   UNL A   1      42.718  29.638  35.991  1.00  0.00     0.029 A 
ATOM     58  C   UNL A   1      42.439  29.328  34.670  1.00  0.00     0.049 A 
ATOM     59  H   UNL A   1      40.914  30.079  33.420  1.00  0.00     0.167 HD
ATOM     60  C   UNL A   1      42.832  28.221  32.494  1.00  0.00     0.074 A 
ATOM     61  C   UNL A   1      43.591  27.371  31.601  1.00  0.00     0.031 C 
ATOM     62  C   UNL A   1      43.140  28.421  33.799  1.00  0.00     0.034 A 
BRANCH  49  63
ATOM     63  C   UNL A   1      39.454  32.476  36.643  1.00  0.00     0.023 A 
ATOM     64  C   UNL A   1      40.111  33.692  36.919  1.00  0.00     0.012 A 
ATOM     65  C   UNL A   1      38.449  32.020  37.519  1.00  0.00     0.148 A 
ATOM     66  C   UNL A   1      39.800  34.425  38.065  1.00  0.00     0.002 A 
ATOM     67  C   UNL A   1      38.112  32.778  38.636  1.00  0.00     0.091 A 
ATOM     68  F   UNL A   1      37.843  30.856  37.246  1.00  0.00    -0.205 F 
ATOM     69  C   UNL A   1      38.795  33.974  38.916  1.00  0.00     0.022 A 
BRANCH  67  70
ATOM     70  S   UNL A   1      36.779  32.327  39.752  1.00  0.00     0.127 S 
ATOM     71  O   UNL A   1      35.618  32.393  38.865  1.00  0.00    -0.237 OA
ATOM     72  O   UNL A   1      37.160  30.973  40.155  1.00  0.00    -0.237 OA
ATOM     73  O   UNL A   1      36.800  33.311  40.824  1.00  0.00    -0.744 OA
ENDBRANCH  67  70
ENDBRANCH  49  63
BRANCH  50  74
ATOM     74  C   UNL A   1      41.345  27.761  28.058  1.00  0.00     0.023 A 
ATOM     75  C   UNL A   1      41.751  28.522  26.944  1.00  0.00     0.012 A 
ATOM     76  C   UNL A   1      41.235  26.363  27.928  1.00  0.00     0.148 A 
ATOM     77  C   UNL A   1      42.000  27.911  25.714  1.00  0.00     0.002 A 
ATOM     78  C   UNL A   1      41.539  25.754  26.715  1.00  0.00     0.091 A 
ATOM     79  F   UNL A   1      40.832  25.655  28.992  1.00  0.00    -0.205 F 
ATOM     80  C   UNL A   1      41.902  26.528  25.602  1.00  0.00     0.022 A 
BRANCH  78  81
ATOM     81  S   UNL A   1      41.565  23.969  26.514  1.00  0.00     0.127 S 
ATOM     82  O   UNL A   1      42.290  23.820  25.257  1.00  0.00    -0.237 OA
ATOM     83  O   UNL A   1      42.297  23.541  27.705  1.00  0.00    -0.237 OA
ATOM     84  O   UNL A   1      40.165  23.560  26.493  1.00  0.00    -0.744 OA
ENDBRANCH  78  81
ENDBRANCH  50  74
BRANCH  62  85
ATOM     85  C   UNL A   1      44.296  27.651  34.384  1.00  0.00     0.023 A 
ATOM     86  C   UNL A   1      45.587  28.213  34.403  1.00  0.00     0.012 A 
ATOM     87  C   UNL A   1      44.074  26.406  35.008  1.00  0.00     0.148 A 
ATOM     88  C   UNL A   1      46.644  27.538  35.011  1.00  0.00     0.002 A 
ATOM     89  C   UNL A   1      45.121  25.763  35.656  1.00  0.00     0.091 A 
ATOM     90  F   UNL A   1      42.842  25.880  34.962  1.00  0.00    -0.205 F 
ATOM     91  C   UNL A   1      46.409  26.321  35.649  1.00  0.00     0.022 A 
BRANCH  89  92
ATOM     92  S   UNL A   1      44.892  24.244  36.589  1.00  0.00     0.127 S 
ATOM     93  O   UNL A   1      46.274  23.838  36.840  1.00  0.00    -0.237 OA
ATOM     94  O   UNL A   1      44.169  24.714  37.771  1.00  0.00    -0.237 OA
ATOM     95  O   UNL A   1      44.129  23.353  35.727  1.00  0.00    -0.744 OA
ENDBRANCH  89  92
ENDBRANCH  62  85
ENDBRANCH  36  37
ENDBRANCH  28  31
ENDBRANCH  26  27
ENDBRANCH  25  26
ENDBRANCH   1  25
TORSDOF 19
ENDMDL
