MODEL 1
REMARK VINA RESULT:     -11.2      0.000      0.000
REMARK SMILES O=C(NCCCCNC(=O)[C@H](C[NH+]1CCCC1)c1ccc(Br)cc1)c1ccc(-c2c3nc(c(-c4cccc(S(=O)(=O)[O-])c4F)c4ccc([nH]4)c(-c4cccc(S(=O)(=O)[O-])c4F)c4nc(c(-c5cccc(S(=O)(=O)[O-])c5F)c5ccc2[nH]5)C=C4)C=C3)cc1
REMARK SMILES IDX 5 1 4 2 3 3 1 4 2 5 25 7 26 8 87 9 27 10 86 11 28 12 29 13
REMARK SMILES IDX 30 14 80 15 31 16 85 17 79 18 81 19 32 20 84 21 78 22 77 23
REMARK SMILES IDX 33 25 65 26 45 27 64 28 46 29 49 30 63 31 82 32 47 33 48 34
REMARK SMILES IDX 62 36 83 37 50 38 34 39 35 40 43 41 36 42 38 43 44 44 37 45
REMARK SMILES IDX 39 46 40 47 41 48 42 49 66 50 67 51 75 52 68 53 70 54 76 55
REMARK SMILES IDX 69 56 71 57 72 58 73 59 74 60 51 61 52 62 60 63 53 64 55 65
REMARK SMILES IDX 61 66 54 67 56 68 57 69 58 70 59 71 6 72 7 73 8 74 9 75
REMARK SMILES IDX 10 77 11 78 18 79 19 80 24 81 20 82 23 83 21 84 22 85 12 86
REMARK SMILES IDX 13 87 14 88 17 89 15 91 16 92
REMARK H PARENT 3 6 81 24 49 35 8 76 13 90
REMARK Flexibility Score: inf
ROOT
ATOM      1  C   UNL A   1      38.952  21.108  25.501  1.00  0.00     0.023 C 
ENDROOT
BRANCH   1   2
ATOM      2  C   UNL A   1      39.323  20.058  26.537  1.00  0.00     0.116 C 
BRANCH   2   3
ATOM      3  N   UNL A   1      40.438  19.216  26.136  1.00  0.00    -0.352 N 
ATOM      4  O   UNL A   1      42.575  18.810  25.526  1.00  0.00    -0.269 OA
ATOM      5  C   UNL A   1      41.754  19.593  25.968  1.00  0.00     0.251 C 
ATOM      6  H   UNL A   1      40.229  18.269  25.964  1.00  0.00     0.163 HD
BRANCH   5   7
ATOM      7  C   UNL A   1      42.125  20.986  26.305  1.00  0.00     0.039 A 
ATOM      8  C   UNL A   1      42.152  21.402  27.637  1.00  0.00     0.014 A 
ATOM      9  C   UNL A   1      42.391  21.887  25.271  1.00  0.00     0.014 A 
ATOM     10  C   UNL A   1      42.325  22.748  27.933  1.00  0.00     0.010 A 
ATOM     11  C   UNL A   1      42.641  23.227  25.577  1.00  0.00     0.010 A 
ATOM     12  C   UNL A   1      42.590  23.670  26.908  1.00  0.00    -0.014 A 
BRANCH  12  13
ATOM     13  C   UNL A   1      42.938  25.067  27.266  1.00  0.00     0.031 A 
ATOM     14  C   UNL A   1      41.946  25.988  27.915  1.00  0.00     0.074 A 
ATOM     15  C   UNL A   1      44.178  25.499  26.966  1.00  0.00     0.049 A 
ATOM     16  N   UNL A   1      42.108  27.231  28.287  1.00  0.00    -0.248 NA
ATOM     17  C   UNL A   1      40.597  25.457  28.176  1.00  0.00     0.031 C 
ATOM     18  C   UNL A   1      45.201  24.702  26.282  1.00  0.00     0.029 A 
ATOM     19  N   UNL A   1      44.788  26.707  27.178  1.00  0.00    -0.354 N 
ATOM     20  C   UNL A   1      40.881  27.648  28.784  1.00  0.00     0.074 A 
ATOM     21  C   UNL A   1      39.978  26.520  28.676  1.00  0.00     0.031 C 
ATOM     22  C   UNL A   1      46.312  25.436  26.140  1.00  0.00     0.029 A 
ATOM     23  C   UNL A   1      46.065  26.770  26.674  1.00  0.00     0.049 A 
ATOM     24  H   UNL A   1      44.355  27.457  27.647  1.00  0.00     0.167 HD
ATOM     25  C   UNL A   1      40.545  28.857  29.294  1.00  0.00     0.034 A 
ATOM     26  C   UNL A   1      46.937  27.794  26.619  1.00  0.00     0.034 A 
ATOM     27  C   UNL A   1      41.468  29.954  29.442  1.00  0.00     0.049 A 
ATOM     28  C   UNL A   1      46.540  29.111  27.218  1.00  0.00     0.074 A 
ATOM     29  C   UNL A   1      41.253  31.179  30.049  1.00  0.00     0.029 A 
ATOM     30  N   UNL A   1      42.768  29.968  28.963  1.00  0.00    -0.354 N 
ATOM     31  N   UNL A   1      45.430  29.430  27.839  1.00  0.00    -0.248 NA
ATOM     32  C   UNL A   1      47.520  30.202  27.129  1.00  0.00     0.031 C 
ATOM     33  C   UNL A   1      42.418  31.944  29.917  1.00  0.00     0.029 A 
ATOM     34  C   UNL A   1      43.360  31.190  29.238  1.00  0.00     0.049 A 
ATOM     35  H   UNL A   1      43.207  29.221  28.497  1.00  0.00     0.167 HD
ATOM     36  C   UNL A   1      45.580  30.755  28.221  1.00  0.00     0.074 A 
ATOM     37  C   UNL A   1      46.904  31.167  27.800  1.00  0.00     0.031 C 
ATOM     38  C   UNL A   1      44.691  31.569  28.841  1.00  0.00     0.034 A 
BRANCH  25  39
ATOM     39  C   UNL A   1      39.137  29.067  29.781  1.00  0.00     0.023 A 
ATOM     40  C   UNL A   1      38.796  28.698  31.097  1.00  0.00     0.012 A 
ATOM     41  C   UNL A   1      38.192  29.742  28.983  1.00  0.00     0.148 A 
ATOM     42  C   UNL A   1      37.532  28.991  31.611  1.00  0.00     0.002 A 
ATOM     43  C   UNL A   1      36.945  30.059  29.512  1.00  0.00     0.091 A 
ATOM     44  F   UNL A   1      38.532  30.069  27.728  1.00  0.00    -0.205 F 
ATOM     45  C   UNL A   1      36.613  29.681  30.824  1.00  0.00     0.022 A 
BRANCH  43  46
ATOM     46  S   UNL A   1      35.714  31.005  28.607  1.00  0.00     0.127 S 
ATOM     47  O   UNL A   1      35.064  29.961  27.816  1.00  0.00    -0.237 OA
ATOM     48  O   UNL A   1      34.892  31.553  29.687  1.00  0.00    -0.237 OA
ATOM     49  O   UNL A   1      36.453  31.997  27.840  1.00  0.00    -0.744 OA
ENDBRANCH  43  46
ENDBRANCH  25  39
BRANCH  26  50
ATOM     50  C   UNL A   1      48.272  27.594  25.991  1.00  0.00     0.023 A 
ATOM     51  C   UNL A   1      49.373  27.248  26.794  1.00  0.00     0.012 A 
ATOM     52  C   UNL A   1      48.442  27.690  24.596  1.00  0.00     0.148 A 
ATOM     53  C   UNL A   1      50.625  27.021  26.222  1.00  0.00     0.002 A 
ATOM     54  C   UNL A   1      49.676  27.402  24.026  1.00  0.00     0.091 A 
ATOM     55  F   UNL A   1      47.389  28.044  23.844  1.00  0.00    -0.205 F 
ATOM     56  C   UNL A   1      50.774  27.084  24.839  1.00  0.00     0.022 A 
BRANCH  54  57
ATOM     57  S   UNL A   1      49.881  27.308  22.245  1.00  0.00     0.127 S 
ATOM     58  O   UNL A   1      49.648  28.692  21.840  1.00  0.00    -0.237 OA
ATOM     59  O   UNL A   1      51.266  26.852  22.110  1.00  0.00    -0.237 OA
ATOM     60  O   UNL A   1      48.893  26.331  21.806  1.00  0.00    -0.744 OA
ENDBRANCH  54  57
ENDBRANCH  26  50
BRANCH  38  61
ATOM     61  C   UNL A   1      45.119  32.990  29.089  1.00  0.00     0.023 A 
ATOM     62  C   UNL A   1      45.724  33.320  30.318  1.00  0.00     0.012 A 
ATOM     63  C   UNL A   1      44.973  33.978  28.099  1.00  0.00     0.148 A 
ATOM     64  C   UNL A   1      46.153  34.622  30.568  1.00  0.00     0.002 A 
ATOM     65  C   UNL A   1      45.441  35.265  28.340  1.00  0.00     0.091 A 
ATOM     66  F   UNL A   1      44.375  33.647  26.946  1.00  0.00    -0.205 F 
ATOM     67  C   UNL A   1      46.021  35.591  29.576  1.00  0.00     0.022 A 
BRANCH  65  68
ATOM     68  S   UNL A   1      45.390  36.553  27.088  1.00  0.00     0.127 S 
ATOM     69  O   UNL A   1      46.047  35.898  25.959  1.00  0.00    -0.237 OA
ATOM     70  O   UNL A   1      43.952  36.766  26.917  1.00  0.00    -0.237 OA
ATOM     71  O   UNL A   1      46.102  37.689  27.658  1.00  0.00    -0.744 OA
ENDBRANCH  65  68
ENDBRANCH  38  61
ENDBRANCH  12  13
ENDBRANCH   5   7
ENDBRANCH   2   3
ENDBRANCH   1   2
BRANCH   1  72
ATOM     72  C   UNL A   1      38.845  22.530  26.048  1.00  0.00     0.023 C 
BRANCH  72  73
ATOM     73  C   UNL A   1      37.533  23.240  25.713  1.00  0.00     0.116 C 
BRANCH  73  74
ATOM     74  N   UNL A   1      37.283  23.233  24.284  1.00  0.00    -0.355 N 
ATOM     75  C   UNL A   1      36.089  23.153  23.618  1.00  0.00     0.233 C 
ATOM     76  H   UNL A   1      38.083  23.292  23.712  1.00  0.00     0.163 HD
ATOM     77  O   UNL A   1      36.126  22.983  22.397  1.00  0.00    -0.274 OA
BRANCH  75  78
ATOM     78  C   UNL A   1      34.771  23.312  24.387  1.00  0.00     0.163 C 
BRANCH  78  79
ATOM     79  C   UNL A   1      34.330  24.785  24.434  1.00  0.00    -0.030 A 
ATOM     80  C   UNL A   1      33.929  25.494  23.289  1.00  0.00     0.006 A 
ATOM     81  C   UNL A   1      34.303  25.449  25.673  1.00  0.00     0.006 A 
ATOM     82  C   UNL A   1      33.430  26.794  23.389  1.00  0.00     0.016 A 
ATOM     83  C   UNL A   1      33.825  26.758  25.771  1.00  0.00     0.016 A 
ATOM     84  C   UNL A   1      33.370  27.417  24.632  1.00  0.00     0.017 A 
ATOM     85  Br  UNL A   1      32.662  29.163  24.771  1.00  0.00    -0.051 Br
ENDBRANCH  78  79
BRANCH  78  86
ATOM     86  C   UNL A   1      33.654  22.396  23.810  1.00  0.00     0.280 C 
BRANCH  86  87
ATOM     87  N   UNL A   1      32.980  21.425  24.703  1.00  0.00    -0.334 N 
ATOM     88  C   UNL A   1      33.964  20.843  25.643  1.00  0.00     0.262 C 
ATOM     89  C   UNL A   1      32.398  20.258  24.020  1.00  0.00     0.262 C 
ATOM     90  H   UNL A   1      32.239  21.968  25.145  1.00  0.00     0.348 HD
ATOM     91  C   UNL A   1      34.567  19.667  24.892  1.00  0.00     0.067 C 
ATOM     92  C   UNL A   1      33.395  19.111  24.111  1.00  0.00     0.067 C 
ENDBRANCH  86  87
ENDBRANCH  78  86
ENDBRANCH  75  78
ENDBRANCH  73  74
ENDBRANCH  72  73
ENDBRANCH   1  72
TORSDOF 17
ENDMDL
MODEL 2
REMARK VINA RESULT:     -11.1      6.056     11.330
REMARK SMILES O=C(NCCCCNC(=O)[C@H](C[NH+]1CCCC1)c1ccc(Br)cc1)c1ccc(-c2c3nc(c(-c4cccc(S(=O)(=O)[O-])c4F)c4ccc([nH]4)c(-c4cccc(S(=O)(=O)[O-])c4F)c4nc(c(-c5cccc(S(=O)(=O)[O-])c5F)c5ccc2[nH]5)C=C4)C=C3)cc1
REMARK SMILES IDX 5 1 4 2 3 3 1 4 2 5 25 7 26 8 87 9 27 10 86 11 28 12 29 13
REMARK SMILES IDX 30 14 80 15 31 16 85 17 79 18 81 19 32 20 84 21 78 22 77 23
REMARK SMILES IDX 33 25 65 26 45 27 64 28 46 29 49 30 63 31 82 32 47 33 48 34
REMARK SMILES IDX 62 36 83 37 50 38 34 39 35 40 43 41 36 42 38 43 44 44 37 45
REMARK SMILES IDX 39 46 40 47 41 48 42 49 66 50 67 51 75 52 68 53 70 54 76 55
REMARK SMILES IDX 69 56 71 57 72 58 73 59 74 60 51 61 52 62 60 63 53 64 55 65
REMARK SMILES IDX 61 66 54 67 56 68 57 69 58 70 59 71 6 72 7 73 8 74 9 75
REMARK SMILES IDX 10 77 11 78 18 79 19 80 24 81 20 82 23 83 21 84 22 85 12 86
REMARK SMILES IDX 13 87 14 88 17 89 15 91 16 92
REMARK H PARENT 3 6 81 24 49 35 8 76 13 90
REMARK Flexibility Score: inf
ROOT
ATOM      1  C   UNL A   1      31.404  32.113  26.512  1.00  0.00     0.023 C 
ENDROOT
BRANCH   1   2
ATOM      2  C   UNL A   1      32.625  32.633  27.256  1.00  0.00     0.116 C 
BRANCH   2   3
ATOM      3  N   UNL A   1      32.533  34.039  27.613  1.00  0.00    -0.352 N 
ATOM      4  O   UNL A   1      33.075  35.885  28.795  1.00  0.00    -0.269 OA
ATOM      5  C   UNL A   1      33.325  34.730  28.506  1.00  0.00     0.251 C 
ATOM      6  H   UNL A   1      31.822  34.555  27.169  1.00  0.00     0.163 HD
BRANCH   5   7
ATOM      7  C   UNL A   1      34.461  34.011  29.127  1.00  0.00     0.039 A 
ATOM      8  C   UNL A   1      35.769  34.448  28.911  1.00  0.00     0.014 A 
ATOM      9  C   UNL A   1      34.208  32.863  29.880  1.00  0.00     0.014 A 
ATOM     10  C   UNL A   1      36.834  33.669  29.346  1.00  0.00     0.010 A 
ATOM     11  C   UNL A   1      35.281  32.123  30.384  1.00  0.00     0.010 A 
ATOM     12  C   UNL A   1      36.600  32.510  30.103  1.00  0.00    -0.014 A 
BRANCH  12  13
ATOM     13  C   UNL A   1      37.754  31.792  30.698  1.00  0.00     0.031 A 
ATOM     14  C   UNL A   1      38.491  30.720  29.947  1.00  0.00     0.074 A 
ATOM     15  C   UNL A   1      38.111  32.115  31.955  1.00  0.00     0.049 A 
ATOM     16  N   UNL A   1      39.517  30.010  30.337  1.00  0.00    -0.248 NA
ATOM     17  C   UNL A   1      38.019  30.393  28.592  1.00  0.00     0.031 C 
ATOM     18  C   UNL A   1      37.424  33.102  32.794  1.00  0.00     0.029 A 
ATOM     19  N   UNL A   1      39.121  31.648  32.755  1.00  0.00    -0.354 N 
ATOM     20  C   UNL A   1      39.790  29.126  29.302  1.00  0.00     0.074 A 
ATOM     21  C   UNL A   1      38.823  29.392  28.256  1.00  0.00     0.031 C 
ATOM     22  C   UNL A   1      38.036  33.174  33.983  1.00  0.00     0.029 A 
ATOM     23  C   UNL A   1      39.123  32.204  34.012  1.00  0.00     0.049 A 
ATOM     24  H   UNL A   1      39.780  30.979  32.458  1.00  0.00     0.167 HD
ATOM     25  C   UNL A   1      40.765  28.187  29.230  1.00  0.00     0.034 A 
ATOM     26  C   UNL A   1      39.896  31.945  35.084  1.00  0.00     0.034 A 
ATOM     27  C   UNL A   1      41.750  27.968  30.258  1.00  0.00     0.049 A 
ATOM     28  C   UNL A   1      40.982  30.919  34.957  1.00  0.00     0.074 A 
ATOM     29  C   UNL A   1      42.844  27.120  30.229  1.00  0.00     0.029 A 
ATOM     30  N   UNL A   1      41.752  28.582  31.499  1.00  0.00    -0.354 N 
ATOM     31  N   UNL A   1      41.330  30.215  33.907  1.00  0.00    -0.248 NA
ATOM     32  C   UNL A   1      41.796  30.665  36.153  1.00  0.00     0.031 C 
ATOM     33  C   UNL A   1      43.495  27.205  31.465  1.00  0.00     0.029 A 
ATOM     34  C   UNL A   1      42.813  28.113  32.257  1.00  0.00     0.049 A 
ATOM     35  H   UNL A   1      41.098  29.253  31.800  1.00  0.00     0.167 HD
ATOM     36  C   UNL A   1      42.407  29.440  34.313  1.00  0.00     0.074 A 
ATOM     37  C   UNL A   1      42.681  29.791  35.691  1.00  0.00     0.031 C 
ATOM     38  C   UNL A   1      43.092  28.500  33.616  1.00  0.00     0.034 A 
BRANCH  25  39
ATOM     39  C   UNL A   1      40.862  27.346  27.986  1.00  0.00     0.023 A 
ATOM     40  C   UNL A   1      41.515  27.861  26.849  1.00  0.00     0.012 A 
ATOM     41  C   UNL A   1      40.422  26.006  27.986  1.00  0.00     0.148 A 
ATOM     42  C   UNL A   1      41.724  27.059  25.727  1.00  0.00     0.002 A 
ATOM     43  C   UNL A   1      40.662  25.203  26.876  1.00  0.00     0.091 A 
ATOM     44  F   UNL A   1      39.789  25.542  29.072  1.00  0.00    -0.205 F 
ATOM     45  C   UNL A   1      41.309  25.729  25.745  1.00  0.00     0.022 A 
BRANCH  43  46
ATOM     46  S   UNL A   1      40.229  23.460  26.822  1.00  0.00     0.127 S 
ATOM     47  O   UNL A   1      38.814  23.520  26.460  1.00  0.00    -0.237 OA
ATOM     48  O   UNL A   1      41.109  22.957  25.767  1.00  0.00    -0.237 OA
ATOM     49  O   UNL A   1      40.510  22.935  28.151  1.00  0.00    -0.744 OA
ENDBRANCH  43  46
ENDBRANCH  25  39
BRANCH  26  50
ATOM     50  C   UNL A   1      39.672  32.692  36.352  1.00  0.00     0.023 A 
ATOM     51  C   UNL A   1      40.353  33.902  36.574  1.00  0.00     0.012 A 
ATOM     52  C   UNL A   1      38.748  32.237  37.311  1.00  0.00     0.148 A 
ATOM     53  C   UNL A   1      40.132  34.637  37.740  1.00  0.00     0.002 A 
ATOM     54  C   UNL A   1      38.486  33.003  38.440  1.00  0.00     0.091 A 
ATOM     55  F   UNL A   1      38.124  31.069  37.097  1.00  0.00    -0.205 F 
ATOM     56  C   UNL A   1      39.189  34.195  38.665  1.00  0.00     0.022 A 
BRANCH  54  57
ATOM     57  S   UNL A   1      37.168  32.566  39.579  1.00  0.00     0.127 S 
ATOM     58  O   UNL A   1      37.257  33.634  40.570  1.00  0.00    -0.237 OA
ATOM     59  O   UNL A   1      35.981  32.616  38.724  1.00  0.00    -0.237 OA
ATOM     60  O   UNL A   1      37.505  31.225  40.042  1.00  0.00    -0.744 OA
ENDBRANCH  54  57
ENDBRANCH  26  50
BRANCH  38  61
ATOM     61  C   UNL A   1      44.195  27.778  34.339  1.00  0.00     0.023 A 
ATOM     62  C   UNL A   1      45.500  28.309  34.307  1.00  0.00     0.012 A 
ATOM     63  C   UNL A   1      43.937  26.613  35.086  1.00  0.00     0.148 A 
ATOM     64  C   UNL A   1      46.538  27.677  34.988  1.00  0.00     0.002 A 
ATOM     65  C   UNL A   1      44.969  26.012  35.796  1.00  0.00     0.091 A 
ATOM     66  F   UNL A   1      42.693  26.114  35.084  1.00  0.00    -0.205 F 
ATOM     67  C   UNL A   1      46.271  26.535  35.739  1.00  0.00     0.022 A 
BRANCH  65  68
ATOM     68  S   UNL A   1      44.698  24.588  36.858  1.00  0.00     0.127 S 
ATOM     69  O   UNL A   1      43.581  25.040  37.684  1.00  0.00    -0.237 OA
ATOM     70  O   UNL A   1      44.360  23.539  35.895  1.00  0.00    -0.237 OA
ATOM     71  O   UNL A   1      45.955  24.373  37.563  1.00  0.00    -0.744 OA
ENDBRANCH  65  68
ENDBRANCH  38  61
ENDBRANCH  12  13
ENDBRANCH   5   7
ENDBRANCH   2   3
ENDBRANCH   1   2
BRANCH   1  72
ATOM     72  C   UNL A   1      31.560  30.704  25.943  1.00  0.00     0.023 C 
BRANCH  72  73
ATOM     73  C   UNL A   1      32.568  29.829  26.686  1.00  0.00     0.116 C 
BRANCH  73  74
ATOM     74  N   UNL A   1      31.915  28.703  27.327  1.00  0.00    -0.355 N 
ATOM     75  C   UNL A   1      31.652  27.458  26.823  1.00  0.00     0.233 C 
ATOM     76  H   UNL A   1      31.617  28.856  28.254  1.00  0.00     0.163 HD
ATOM     77  O   UNL A   1      30.925  26.715  27.487  1.00  0.00    -0.274 OA
BRANCH  75  78
ATOM     78  C   UNL A   1      32.286  27.018  25.497  1.00  0.00     0.163 C 
BRANCH  78  79
ATOM     79  C   UNL A   1      33.043  25.689  25.658  1.00  0.00    -0.030 A 
ATOM     80  C   UNL A   1      32.411  24.500  26.064  1.00  0.00     0.006 A 
ATOM     81  C   UNL A   1      34.417  25.648  25.367  1.00  0.00     0.006 A 
ATOM     82  C   UNL A   1      33.109  23.291  26.090  1.00  0.00     0.016 A 
ATOM     83  C   UNL A   1      35.121  24.442  25.414  1.00  0.00     0.016 A 
ATOM     84  C   UNL A   1      34.459  23.266  25.754  1.00  0.00     0.017 A 
ATOM     85  Br  UNL A   1      35.394  21.624  25.756  1.00  0.00    -0.051 Br
ENDBRANCH  78  79
BRANCH  78  86
ATOM     86  C   UNL A   1      31.235  26.946  24.354  1.00  0.00     0.280 C 
BRANCH  86  87
ATOM     87  N   UNL A   1      31.493  27.667  23.085  1.00  0.00    -0.334 N 
ATOM     88  C   UNL A   1      31.289  26.753  21.940  1.00  0.00     0.262 C 
ATOM     89  C   UNL A   1      32.873  28.151  22.919  1.00  0.00     0.262 C 
ATOM     90  H   UNL A   1      30.853  28.460  23.117  1.00  0.00     0.348 HD
ATOM     91  C   UNL A   1      32.625  26.051  21.761  1.00  0.00     0.067 C 
ATOM     92  C   UNL A   1      33.635  27.132  22.083  1.00  0.00     0.067 C 
ENDBRANCH  86  87
ENDBRANCH  78  86
ENDBRANCH  75  78
ENDBRANCH  73  74
ENDBRANCH  72  73
ENDBRANCH   1  72
TORSDOF 17
ENDMDL
MODEL 3
REMARK VINA RESULT:     -11.1      1.322      1.875
REMARK SMILES O=C(NCCCCNC(=O)[C@H](C[NH+]1CCCC1)c1ccc(Br)cc1)c1ccc(-c2c3nc(c(-c4cccc(S(=O)(=O)[O-])c4F)c4ccc([nH]4)c(-c4cccc(S(=O)(=O)[O-])c4F)c4nc(c(-c5cccc(S(=O)(=O)[O-])c5F)c5ccc2[nH]5)C=C4)C=C3)cc1
REMARK SMILES IDX 5 1 4 2 3 3 1 4 2 5 25 7 26 8 87 9 27 10 86 11 28 12 29 13
REMARK SMILES IDX 30 14 80 15 31 16 85 17 79 18 81 19 32 20 84 21 78 22 77 23
REMARK SMILES IDX 33 25 65 26 45 27 64 28 46 29 49 30 63 31 82 32 47 33 48 34
REMARK SMILES IDX 62 36 83 37 50 38 34 39 35 40 43 41 36 42 38 43 44 44 37 45
REMARK SMILES IDX 39 46 40 47 41 48 42 49 66 50 67 51 75 52 68 53 70 54 76 55
REMARK SMILES IDX 69 56 71 57 72 58 73 59 74 60 51 61 52 62 60 63 53 64 55 65
REMARK SMILES IDX 61 66 54 67 56 68 57 69 58 70 59 71 6 72 7 73 8 74 9 75
REMARK SMILES IDX 10 77 11 78 18 79 19 80 24 81 20 82 23 83 21 84 22 85 12 86
REMARK SMILES IDX 13 87 14 88 17 89 15 91 16 92
REMARK H PARENT 3 6 81 24 49 35 8 76 13 90
REMARK Flexibility Score: inf
ROOT
ATOM      1  C   UNL A   1      38.094  20.160  24.825  1.00  0.00     0.023 C 
ENDROOT
BRANCH   1   2
ATOM      2  C   UNL A   1      38.918  20.063  26.100  1.00  0.00     0.116 C 
BRANCH   2   3
ATOM      3  N   UNL A   1      40.053  19.162  25.991  1.00  0.00    -0.352 N 
ATOM      4  O   UNL A   1      42.250  18.648  25.882  1.00  0.00    -0.269 OA
ATOM      5  C   UNL A   1      41.390  19.482  26.099  1.00  0.00     0.251 C 
ATOM      6  H   UNL A   1      39.843  18.216  25.818  1.00  0.00     0.163 HD
BRANCH   5   7
ATOM      7  C   UNL A   1      41.744  20.877  26.448  1.00  0.00     0.039 A 
ATOM      8  C   UNL A   1      41.587  21.895  25.507  1.00  0.00     0.014 A 
ATOM      9  C   UNL A   1      42.287  21.146  27.706  1.00  0.00     0.014 A 
ATOM     10  C   UNL A   1      42.085  23.164  25.777  1.00  0.00     0.010 A 
ATOM     11  C   UNL A   1      42.717  22.441  28.004  1.00  0.00     0.010 A 
ATOM     12  C   UNL A   1      42.638  23.454  27.035  1.00  0.00    -0.014 A 
BRANCH  12  13
ATOM     13  C   UNL A   1      43.006  24.854  27.356  1.00  0.00     0.031 A 
ATOM     14  C   UNL A   1      42.039  25.795  28.015  1.00  0.00     0.074 A 
ATOM     15  C   UNL A   1      44.240  25.270  27.013  1.00  0.00     0.049 A 
ATOM     16  N   UNL A   1      42.221  27.044  28.358  1.00  0.00    -0.248 NA
ATOM     17  C   UNL A   1      40.695  25.281  28.324  1.00  0.00     0.031 C 
ATOM     18  C   UNL A   1      45.238  24.451  26.317  1.00  0.00     0.029 A 
ATOM     19  N   UNL A   1      44.865  26.477  27.185  1.00  0.00    -0.354 N 
ATOM     20  C   UNL A   1      41.011  27.480  28.881  1.00  0.00     0.074 A 
ATOM     21  C   UNL A   1      40.098  26.358  28.820  1.00  0.00     0.031 C 
ATOM     22  C   UNL A   1      46.349  25.174  26.130  1.00  0.00     0.029 A 
ATOM     23  C   UNL A   1      46.128  26.520  26.644  1.00  0.00     0.049 A 
ATOM     24  H   UNL A   1      44.451  27.239  27.651  1.00  0.00     0.167 HD
ATOM     25  C   UNL A   1      40.700  28.702  29.376  1.00  0.00     0.034 A 
ATOM     26  C   UNL A   1      47.006  27.536  26.545  1.00  0.00     0.034 A 
ATOM     27  C   UNL A   1      41.635  29.794  29.477  1.00  0.00     0.049 A 
ATOM     28  C   UNL A   1      46.636  28.867  27.130  1.00  0.00     0.074 A 
ATOM     29  C   UNL A   1      41.446  31.032  30.066  1.00  0.00     0.029 A 
ATOM     30  N   UNL A   1      42.921  29.788  28.962  1.00  0.00    -0.354 N 
ATOM     31  N   UNL A   1      45.547  29.207  27.775  1.00  0.00    -0.248 NA
ATOM     32  C   UNL A   1      47.621  29.947  26.992  1.00  0.00     0.031 C 
ATOM     33  C   UNL A   1      42.613  31.785  29.887  1.00  0.00     0.029 A 
ATOM     34  C   UNL A   1      43.530  31.010  29.196  1.00  0.00     0.049 A 
ATOM     35  H   UNL A   1      43.341  29.028  28.498  1.00  0.00     0.167 HD
ATOM     36  C   UNL A   1      45.717  30.538  28.127  1.00  0.00     0.074 A 
ATOM     37  C   UNL A   1      47.031  30.930  27.661  1.00  0.00     0.031 C 
ATOM     38  C   UNL A   1      44.852  31.371  28.756  1.00  0.00     0.034 A 
BRANCH  25  39
ATOM     39  C   UNL A   1      39.307  28.933  29.898  1.00  0.00     0.023 A 
ATOM     40  C   UNL A   1      38.980  28.524  31.206  1.00  0.00     0.012 A 
ATOM     41  C   UNL A   1      38.368  29.665  29.144  1.00  0.00     0.148 A 
ATOM     42  C   UNL A   1      37.735  28.833  31.754  1.00  0.00     0.002 A 
ATOM     43  C   UNL A   1      37.140  29.996  29.709  1.00  0.00     0.091 A 
ATOM     44  F   UNL A   1      38.694  30.029  27.897  1.00  0.00    -0.205 F 
ATOM     45  C   UNL A   1      36.822  29.578  31.012  1.00  0.00     0.022 A 
BRANCH  43  46
ATOM     46  S   UNL A   1      35.921  31.010  28.865  1.00  0.00     0.127 S 
ATOM     47  O   UNL A   1      35.261  30.024  28.009  1.00  0.00    -0.237 OA
ATOM     48  O   UNL A   1      35.103  31.498  29.976  1.00  0.00    -0.237 OA
ATOM     49  O   UNL A   1      36.672  32.041  28.161  1.00  0.00    -0.744 OA
ENDBRANCH  43  46
ENDBRANCH  25  39
BRANCH  26  50
ATOM     50  C   UNL A   1      48.321  27.312  25.884  1.00  0.00     0.023 A 
ATOM     51  C   UNL A   1      49.408  26.841  26.641  1.00  0.00     0.012 A 
ATOM     52  C   UNL A   1      48.483  27.512  24.499  1.00  0.00     0.148 A 
ATOM     53  C   UNL A   1      50.639  26.591  26.035  1.00  0.00     0.002 A 
ATOM     54  C   UNL A   1      49.693  27.203  23.891  1.00  0.00     0.091 A 
ATOM     55  F   UNL A   1      47.445  27.985  23.794  1.00  0.00    -0.205 F 
ATOM     56  C   UNL A   1      50.778  26.758  24.660  1.00  0.00     0.022 A 
BRANCH  54  57
ATOM     57  S   UNL A   1      49.876  27.244  22.105  1.00  0.00     0.127 S 
ATOM     58  O   UNL A   1      49.665  28.658  21.811  1.00  0.00    -0.237 OA
ATOM     59  O   UNL A   1      51.250  26.774  21.918  1.00  0.00    -0.237 OA
ATOM     60  O   UNL A   1      48.864  26.322  21.605  1.00  0.00    -0.744 OA
ENDBRANCH  54  57
ENDBRANCH  26  50
BRANCH  38  61
ATOM     61  C   UNL A   1      45.298  32.792  28.964  1.00  0.00     0.023 A 
ATOM     62  C   UNL A   1      45.969  33.134  30.155  1.00  0.00     0.012 A 
ATOM     63  C   UNL A   1      45.101  33.771  27.972  1.00  0.00     0.148 A 
ATOM     64  C   UNL A   1      46.416  34.437  30.366  1.00  0.00     0.002 A 
ATOM     65  C   UNL A   1      45.587  35.057  28.172  1.00  0.00     0.091 A 
ATOM     66  F   UNL A   1      44.441  33.428  26.856  1.00  0.00    -0.205 F 
ATOM     67  C   UNL A   1      46.234  35.395  29.372  1.00  0.00     0.022 A 
BRANCH  65  68
ATOM     68  S   UNL A   1      45.472  36.332  26.911  1.00  0.00     0.127 S 
ATOM     69  O   UNL A   1      44.027  36.529  26.817  1.00  0.00    -0.237 OA
ATOM     70  O   UNL A   1      46.201  37.444  27.522  1.00  0.00    -0.237 OA
ATOM     71  O   UNL A   1      46.109  35.776  25.725  1.00  0.00    -0.744 OA
ENDBRANCH  65  68
ENDBRANCH  38  61
ENDBRANCH  12  13
ENDBRANCH   5   7
ENDBRANCH   2   3
ENDBRANCH   1   2
BRANCH   1  72
ATOM     72  C   UNL A   1      37.383  21.498  24.629  1.00  0.00     0.023 C 
BRANCH  72  73
ATOM     73  C   UNL A   1      35.858  21.414  24.657  1.00  0.00     0.116 C 
BRANCH  73  74
ATOM     74  N   UNL A   1      35.363  21.294  26.015  1.00  0.00    -0.355 N 
ATOM     75  C   UNL A   1      34.073  21.156  26.454  1.00  0.00     0.233 C 
ATOM     76  H   UNL A   1      36.050  21.316  26.721  1.00  0.00     0.163 HD
ATOM     77  O   UNL A   1      33.869  21.252  27.667  1.00  0.00    -0.274 OA
BRANCH  75  78
ATOM     78  C   UNL A   1      32.951  20.855  25.452  1.00  0.00     0.163 C 
BRANCH  78  79
ATOM     79  C   UNL A   1      32.661  22.074  24.561  1.00  0.00    -0.030 A 
ATOM     80  C   UNL A   1      32.360  23.344  25.085  1.00  0.00     0.006 A 
ATOM     81  C   UNL A   1      32.720  21.927  23.165  1.00  0.00     0.006 A 
ATOM     82  C   UNL A   1      32.213  24.449  24.246  1.00  0.00     0.016 A 
ATOM     83  C   UNL A   1      32.552  23.029  22.323  1.00  0.00     0.016 A 
ATOM     84  C   UNL A   1      32.320  24.289  22.868  1.00  0.00     0.017 A 
ATOM     85  Br  UNL A   1      32.156  25.792  21.735  1.00  0.00    -0.051 Br
ENDBRANCH  78  79
BRANCH  78  86
ATOM     86  C   UNL A   1      33.260  19.586  24.608  1.00  0.00     0.280 C 
BRANCH  86  87
ATOM     87  N   UNL A   1      33.836  18.395  25.274  1.00  0.00    -0.334 N 
ATOM     88  C   UNL A   1      34.888  17.803  24.418  1.00  0.00     0.262 C 
ATOM     89  C   UNL A   1      32.889  17.291  25.496  1.00  0.00     0.262 C 
ATOM     90  H   UNL A   1      34.167  18.749  26.171  1.00  0.00     0.348 HD
ATOM     91  C   UNL A   1      34.143  16.865  23.482  1.00  0.00     0.067 C 
ATOM     92  C   UNL A   1      33.048  16.293  24.358  1.00  0.00     0.067 C 
ENDBRANCH  86  87
ENDBRANCH  78  86
ENDBRANCH  75  78
ENDBRANCH  73  74
ENDBRANCH  72  73
ENDBRANCH   1  72
TORSDOF 17
ENDMDL
