MODEL 1
REMARK VINA RESULT:     -12.7      0.000      0.000
REMARK SMILES COc1ccc2c(CC(=O)NCCCCNC(=O)c3ccc(-c4c5nc(c(-c6cccc(S(=O)(=O)[O-])c6F)c6ccc([nH]6)c(-c6cccc(S(=O)(=O)[O-])c6F)c6nc(c(-c7cccc(S(=O)(=O)[O-])c7F)c7ccc4[nH]7)C=C6)C=C5)cc3)c(C(=O)c3cc(C)ccn3)[nH]c2c1
REMARK SMILES IDX 13 1 12 2 11 3 9 4 10 5 8 7 7 8 3 9 4 10 94 11 5 12 93 13
REMARK SMILES IDX 6 14 92 15 82 16 2 18 1 19 83 20 84 21 85 22 86 23 91 24
REMARK SMILES IDX 87 25 90 26 88 27 89 28 14 29 15 30 16 31 17 32 18 34 19 35
REMARK SMILES IDX 20 36 81 37 21 38 80 39 22 40 23 41 24 42 74 43 25 44 79 45
REMARK SMILES IDX 73 46 75 47 26 48 78 49 72 50 71 51 27 53 59 54 39 55 58 56
REMARK SMILES IDX 40 57 43 58 57 59 76 60 41 61 42 62 56 64 77 65 44 66 28 67
REMARK SMILES IDX 29 68 37 69 30 70 32 71 38 72 31 73 33 74 34 75 35 76 36 77
REMARK SMILES IDX 60 78 61 79 69 80 62 81 64 82 70 83 63 84 65 85 66 86 67 87
REMARK SMILES IDX 68 88 45 89 46 90 54 91 47 92 49 93 55 94 48 95 50 96 51 97
REMARK SMILES IDX 52 98 53 99
REMARK H PARENT 11 6 92 17 16 33 75 52 43 63
REMARK Flexibility Score: inf
ROOT
ATOM      1  C   UNL A   1      35.510  24.011  24.416  1.00  0.00     0.023 C 
ENDROOT
BRANCH   1   2
ATOM      2  C   UNL A   1      34.238  24.698  24.907  1.00  0.00     0.116 C 
BRANCH   2   3
ATOM      3  N   UNL A   1      34.426  26.109  25.167  1.00  0.00    -0.356 N 
ATOM      4  C   UNL A   1      33.679  26.962  25.931  1.00  0.00     0.224 C 
ATOM      5  O   UNL A   1      34.163  28.071  26.171  1.00  0.00    -0.275 OA
ATOM      6  H   UNL A   1      35.207  26.515  24.728  1.00  0.00     0.163 HD
BRANCH   4   7
ATOM      7  C   UNL A   1      32.373  26.514  26.579  1.00  0.00     0.138 C 
BRANCH   7   8
ATOM      8  C   UNL A   1      31.214  26.338  25.634  1.00  0.00    -0.002 A 
ATOM      9  C   UNL A   1      29.266  28.833  22.848  1.00  0.00     0.120 A 
ATOM     10  C   UNL A   1      30.377  29.392  23.472  1.00  0.00     0.047 A 
ATOM     11  C   UNL A   1      28.833  27.545  23.181  1.00  0.00     0.073 A 
ATOM     12  C   UNL A   1      31.111  28.656  24.412  1.00  0.00     0.014 A 
ATOM     13  C   UNL A   1      29.590  26.818  24.109  1.00  0.00     0.050 A 
ATOM     14  C   UNL A   1      30.718  27.340  24.732  1.00  0.00     0.004 A 
ATOM     15  N   UNL A   1      29.413  25.547  24.597  1.00  0.00    -0.351 N 
ATOM     16  C   UNL A   1      30.458  25.184  25.423  1.00  0.00     0.093 A 
ATOM     17  H   UNL A   1      28.643  24.970  24.386  1.00  0.00     0.167 HD
BRANCH   9  18
ATOM     18  O   UNL A   1      28.500  29.491  21.922  1.00  0.00    -0.497 OA
ATOM     19  C   UNL A   1      27.976  30.734  22.380  1.00  0.00     0.278 C 
ENDBRANCH   9  18
BRANCH  16  20
ATOM     20  C   UNL A   1      30.680  23.846  25.963  1.00  0.00     0.227 C 
ATOM     21  O   UNL A   1      30.433  23.542  27.130  1.00  0.00    -0.285 OA
BRANCH  20  22
ATOM     22  C   UNL A   1      31.333  22.820  25.110  1.00  0.00     0.113 A 
ATOM     23  C   UNL A   1      31.820  21.653  25.693  1.00  0.00     0.036 A 
ATOM     24  N   UNL A   1      31.393  23.085  23.785  1.00  0.00    -0.253 NA
ATOM     25  C   UNL A   1      32.408  20.694  24.865  1.00  0.00    -0.047 A 
ATOM     26  C   UNL A   1      31.937  22.132  23.001  1.00  0.00     0.112 A 
ATOM     27  C   UNL A   1      32.953  19.415  25.423  1.00  0.00     0.044 C 
ATOM     28  C   UNL A   1      32.453  20.939  23.489  1.00  0.00     0.023 A 
ENDBRANCH  20  22
ENDBRANCH  16  20
ENDBRANCH   7   8
ENDBRANCH   4   7
ENDBRANCH   2   3
ENDBRANCH   1   2
BRANCH   1  29
ATOM     29  C   UNL A   1      35.602  22.515  24.727  1.00  0.00     0.023 C 
BRANCH  29  30
ATOM     30  C   UNL A   1      36.305  22.151  26.031  1.00  0.00     0.116 C 
BRANCH  30  31
ATOM     31  N   UNL A   1      37.406  21.214  25.855  1.00  0.00    -0.352 N 
ATOM     32  C   UNL A   1      38.752  21.421  26.044  1.00  0.00     0.251 C 
ATOM     33  H   UNL A   1      37.152  20.308  25.562  1.00  0.00     0.163 HD
ATOM     34  O   UNL A   1      39.558  20.537  25.757  1.00  0.00    -0.269 OA
BRANCH  32  35
ATOM     35  C   UNL A   1      39.233  22.723  26.554  1.00  0.00     0.039 A 
ATOM     36  C   UNL A   1      40.272  22.738  27.488  1.00  0.00     0.014 A 
ATOM     37  C   UNL A   1      38.685  23.923  26.093  1.00  0.00     0.014 A 
ATOM     38  C   UNL A   1      40.815  23.957  27.903  1.00  0.00     0.010 A 
ATOM     39  C   UNL A   1      39.267  25.134  26.461  1.00  0.00     0.010 A 
ATOM     40  C   UNL A   1      40.343  25.164  27.361  1.00  0.00    -0.014 A 
BRANCH  40  41
ATOM     41  C   UNL A   1      40.987  26.462  27.685  1.00  0.00     0.031 A 
ATOM     42  C   UNL A   1      42.427  26.708  27.328  1.00  0.00     0.074 A 
ATOM     43  C   UNL A   1      40.304  27.379  28.399  1.00  0.00     0.049 A 
ATOM     44  N   UNL A   1      43.177  27.744  27.600  1.00  0.00    -0.248 NA
ATOM     45  C   UNL A   1      43.122  25.640  26.592  1.00  0.00     0.031 C 
ATOM     46  C   UNL A   1      38.928  27.224  28.878  1.00  0.00     0.029 A 
ATOM     47  N   UNL A   1      40.685  28.607  28.878  1.00  0.00    -0.354 N 
ATOM     48  C   UNL A   1      44.439  27.440  27.103  1.00  0.00     0.074 A 
ATOM     49  C   UNL A   1      44.360  26.112  26.534  1.00  0.00     0.031 C 
ATOM     50  C   UNL A   1      38.583  28.313  29.585  1.00  0.00     0.029 A 
ATOM     51  C   UNL A   1      39.716  29.230  29.633  1.00  0.00     0.049 A 
ATOM     52  H   UNL A   1      41.566  29.006  28.699  1.00  0.00     0.167 HD
ATOM     53  C   UNL A   1      45.554  28.209  27.095  1.00  0.00     0.034 A 
ATOM     54  C   UNL A   1      39.741  30.402  30.296  1.00  0.00     0.034 A 
ATOM     55  C   UNL A   1      45.617  29.549  27.615  1.00  0.00     0.049 A 
ATOM     56  C   UNL A   1      40.979  31.255  30.231  1.00  0.00     0.074 A 
ATOM     57  C   UNL A   1      46.670  30.444  27.561  1.00  0.00     0.029 A 
ATOM     58  N   UNL A   1      44.587  30.184  28.290  1.00  0.00    -0.354 N 
ATOM     59  N   UNL A   1      42.107  31.024  29.605  1.00  0.00    -0.248 NA
ATOM     60  C   UNL A   1      40.937  32.544  30.937  1.00  0.00     0.031 C 
ATOM     61  C   UNL A   1      46.281  31.619  28.215  1.00  0.00     0.029 A 
ATOM     62  C   UNL A   1      44.981  31.457  28.666  1.00  0.00     0.049 A 
ATOM     63  H   UNL A   1      43.704  29.789  28.475  1.00  0.00     0.167 HD
ATOM     64  C   UNL A   1      42.898  32.148  29.815  1.00  0.00     0.074 A 
ATOM     65  C   UNL A   1      42.109  33.071  30.607  1.00  0.00     0.031 C 
ATOM     66  C   UNL A   1      44.168  32.387  29.407  1.00  0.00     0.034 A 
BRANCH  53  67
ATOM     67  C   UNL A   1      46.785  27.644  26.437  1.00  0.00     0.023 A 
ATOM     68  C   UNL A   1      47.650  26.820  27.186  1.00  0.00     0.012 A 
ATOM     69  C   UNL A   1      47.057  27.874  25.075  1.00  0.00     0.148 A 
ATOM     70  C   UNL A   1      48.782  26.258  26.599  1.00  0.00     0.002 A 
ATOM     71  C   UNL A   1      48.168  27.279  24.485  1.00  0.00     0.091 A 
ATOM     72  F   UNL A   1      46.237  28.680  24.383  1.00  0.00    -0.205 F 
ATOM     73  C   UNL A   1      49.035  26.478  25.248  1.00  0.00     0.022 A 
BRANCH  71  74
ATOM     74  S   UNL A   1      48.538  27.443  22.735  1.00  0.00     0.127 S 
ATOM     75  O   UNL A   1      48.562  26.047  22.306  1.00  0.00    -0.237 OA
ATOM     76  O   UNL A   1      47.392  28.212  22.246  1.00  0.00    -0.237 OA
ATOM     77  O   UNL A   1      49.812  28.146  22.661  1.00  0.00    -0.744 OA
ENDBRANCH  71  74
ENDBRANCH  53  67
BRANCH  54  78
ATOM     78  C   UNL A   1      38.524  30.874  31.015  1.00  0.00     0.023 A 
ATOM     79  C   UNL A   1      38.457  30.734  32.415  1.00  0.00     0.012 A 
ATOM     80  C   UNL A   1      37.455  31.490  30.335  1.00  0.00     0.148 A 
ATOM     81  C   UNL A   1      37.338  31.174  33.122  1.00  0.00     0.002 A 
ATOM     82  C   UNL A   1      36.367  31.974  31.052  1.00  0.00     0.091 A 
ATOM     83  F   UNL A   1      37.529  31.600  29.001  1.00  0.00    -0.205 F 
ATOM     84  C   UNL A   1      36.298  31.803  32.444  1.00  0.00     0.022 A 
BRANCH  82  85
ATOM     85  S   UNL A   1      35.048  32.915  30.274  1.00  0.00     0.127 S 
ATOM     86  O   UNL A   1      34.194  33.233  31.416  1.00  0.00    -0.237 OA
ATOM     87  O   UNL A   1      35.774  34.054  29.712  1.00  0.00    -0.237 OA
ATOM     88  O   UNL A   1      34.472  32.023  29.276  1.00  0.00    -0.744 OA
ENDBRANCH  82  85
ENDBRANCH  54  78
BRANCH  66  89
ATOM     89  C   UNL A   1      44.789  33.704  29.792  1.00  0.00     0.023 A 
ATOM     90  C   UNL A   1      45.569  33.788  30.962  1.00  0.00     0.012 A 
ATOM     91  C   UNL A   1      44.663  34.835  28.962  1.00  0.00     0.148 A 
ATOM     92  C   UNL A   1      46.193  34.982  31.315  1.00  0.00     0.002 A 
ATOM     93  C   UNL A   1      45.324  36.012  29.296  1.00  0.00     0.091 A 
ATOM     94  F   UNL A   1      43.900  34.743  27.864  1.00  0.00    -0.205 F 
ATOM     95  C   UNL A   1      46.081  36.090  30.477  1.00  0.00     0.022 A 
BRANCH  93  96
ATOM     96  S   UNL A   1      45.307  37.458  28.230  1.00  0.00     0.127 S 
ATOM     97  O   UNL A   1      45.654  36.878  26.935  1.00  0.00    -0.237 OA
ATOM     98  O   UNL A   1      43.921  37.914  28.342  1.00  0.00    -0.237 OA
ATOM     99  O   UNL A   1      46.288  38.377  28.792  1.00  0.00    -0.744 OA
ENDBRANCH  93  96
ENDBRANCH  66  89
ENDBRANCH  40  41
ENDBRANCH  32  35
ENDBRANCH  30  31
ENDBRANCH  29  30
ENDBRANCH   1  29
TORSDOF 18
ENDMDL
MODEL 2
REMARK VINA RESULT:     -12.6      5.034      7.803
REMARK SMILES COc1ccc2c(CC(=O)NCCCCNC(=O)c3ccc(-c4c5nc(c(-c6cccc(S(=O)(=O)[O-])c6F)c6ccc([nH]6)c(-c6cccc(S(=O)(=O)[O-])c6F)c6nc(c(-c7cccc(S(=O)(=O)[O-])c7F)c7ccc4[nH]7)C=C6)C=C5)cc3)c(C(=O)c3cc(C)ccn3)[nH]c2c1
REMARK SMILES IDX 13 1 12 2 11 3 9 4 10 5 8 7 7 8 3 9 4 10 94 11 5 12 93 13
REMARK SMILES IDX 6 14 92 15 82 16 2 18 1 19 83 20 84 21 85 22 86 23 91 24
REMARK SMILES IDX 87 25 90 26 88 27 89 28 14 29 15 30 16 31 17 32 18 34 19 35
REMARK SMILES IDX 20 36 81 37 21 38 80 39 22 40 23 41 24 42 74 43 25 44 79 45
REMARK SMILES IDX 73 46 75 47 26 48 78 49 72 50 71 51 27 53 59 54 39 55 58 56
REMARK SMILES IDX 40 57 43 58 57 59 76 60 41 61 42 62 56 64 77 65 44 66 28 67
REMARK SMILES IDX 29 68 37 69 30 70 32 71 38 72 31 73 33 74 34 75 35 76 36 77
REMARK SMILES IDX 60 78 61 79 69 80 62 81 64 82 70 83 63 84 65 85 66 86 67 87
REMARK SMILES IDX 68 88 45 89 46 90 54 91 47 92 49 93 55 94 48 95 50 96 51 97
REMARK SMILES IDX 52 98 53 99
REMARK H PARENT 11 6 92 17 16 33 75 52 43 63
REMARK Flexibility Score: inf
ROOT
ATOM      1  C   UNL A   1      33.843  27.803  25.178  1.00  0.00     0.023 C 
ENDROOT
BRANCH   1   2
ATOM      2  C   UNL A   1      33.326  26.371  25.291  1.00  0.00     0.116 C 
BRANCH   2   3
ATOM      3  N   UNL A   1      34.273  25.481  25.931  1.00  0.00    -0.356 N 
ATOM      4  C   UNL A   1      35.110  24.555  25.375  1.00  0.00     0.224 C 
ATOM      5  O   UNL A   1      35.977  24.071  26.107  1.00  0.00    -0.275 OA
ATOM      6  H   UNL A   1      34.319  25.554  26.911  1.00  0.00     0.163 HD
BRANCH   4   7
ATOM      7  C   UNL A   1      35.071  24.239  23.883  1.00  0.00     0.138 C 
BRANCH   7   8
ATOM      8  C   UNL A   1      33.923  23.372  23.440  1.00  0.00    -0.002 A 
ATOM      9  C   UNL A   1      32.692  19.431  24.298  1.00  0.00     0.120 A 
ATOM     10  C   UNL A   1      33.804  19.875  25.008  1.00  0.00     0.047 A 
ATOM     11  C   UNL A   1      32.081  20.251  23.343  1.00  0.00     0.073 A 
ATOM     12  C   UNL A   1      34.301  21.170  24.814  1.00  0.00     0.014 A 
ATOM     13  C   UNL A   1      32.581  21.549  23.177  1.00  0.00     0.050 A 
ATOM     14  C   UNL A   1      33.674  22.030  23.888  1.00  0.00     0.004 A 
ATOM     15  N   UNL A   1      32.169  22.558  22.342  1.00  0.00    -0.351 N 
ATOM     16  C   UNL A   1      32.882  23.717  22.576  1.00  0.00     0.093 A 
ATOM     17  H   UNL A   1      31.459  22.467  21.665  1.00  0.00     0.167 HD
BRANCH   9  18
ATOM     18  O   UNL A   1      32.151  18.179  24.434  1.00  0.00    -0.497 OA
ATOM     19  C   UNL A   1      32.874  17.327  25.317  1.00  0.00     0.278 C 
ENDBRANCH   9  18
BRANCH  16  20
ATOM     20  C   UNL A   1      32.582  25.022  21.997  1.00  0.00     0.227 C 
ATOM     21  O   UNL A   1      33.277  25.548  21.128  1.00  0.00    -0.285 OA
BRANCH  20  22
ATOM     22  C   UNL A   1      31.452  25.815  22.544  1.00  0.00     0.113 A 
ATOM     23  C   UNL A   1      31.319  27.155  22.192  1.00  0.00     0.036 A 
ATOM     24  N   UNL A   1      30.589  25.159  23.355  1.00  0.00    -0.253 NA
ATOM     25  C   UNL A   1      30.234  27.871  22.701  1.00  0.00    -0.047 A 
ATOM     26  C   UNL A   1      29.533  25.861  23.810  1.00  0.00     0.112 A 
ATOM     27  C   UNL A   1      30.029  29.316  22.363  1.00  0.00     0.044 C 
ATOM     28  C   UNL A   1      29.318  27.200  23.517  1.00  0.00     0.023 A 
ENDBRANCH  20  22
ENDBRANCH  16  20
ENDBRANCH   7   8
ENDBRANCH   4   7
ENDBRANCH   2   3
ENDBRANCH   1   2
BRANCH   1  29
ATOM     29  C   UNL A   1      32.765  28.889  25.233  1.00  0.00     0.023 C 
BRANCH  29  30
ATOM     30  C   UNL A   1      32.396  29.386  26.628  1.00  0.00     0.116 C 
BRANCH  30  31
ATOM     31  N   UNL A   1      32.182  30.826  26.692  1.00  0.00    -0.352 N 
ATOM     32  C   UNL A   1      33.004  31.796  27.215  1.00  0.00     0.251 C 
ATOM     33  H   UNL A   1      31.334  31.148  26.309  1.00  0.00     0.163 HD
ATOM     34  O   UNL A   1      32.622  32.964  27.269  1.00  0.00    -0.269 OA
BRANCH  32  35
ATOM     35  C   UNL A   1      34.333  31.426  27.749  1.00  0.00     0.039 A 
ATOM     36  C   UNL A   1      35.199  32.443  28.162  1.00  0.00     0.014 A 
ATOM     37  C   UNL A   1      34.713  30.087  27.870  1.00  0.00     0.014 A 
ATOM     38  C   UNL A   1      36.414  32.116  28.769  1.00  0.00     0.010 A 
ATOM     39  C   UNL A   1      35.896  29.762  28.529  1.00  0.00     0.010 A 
ATOM     40  C   UNL A   1      36.754  30.771  28.993  1.00  0.00    -0.014 A 
BRANCH  40  41
ATOM     41  C   UNL A   1      37.976  30.398  29.751  1.00  0.00     0.031 A 
ATOM     42  C   UNL A   1      38.951  29.403  29.183  1.00  0.00     0.074 A 
ATOM     43  C   UNL A   1      38.149  30.872  31.000  1.00  0.00     0.049 A 
ATOM     44  N   UNL A   1      40.025  28.899  29.731  1.00  0.00    -0.248 NA
ATOM     45  C   UNL A   1      38.668  28.891  27.832  1.00  0.00     0.031 C 
ATOM     46  C   UNL A   1      37.231  31.778  31.696  1.00  0.00     0.029 A 
ATOM     47  N   UNL A   1      39.138  30.632  31.922  1.00  0.00    -0.354 N 
ATOM     48  C   UNL A   1      40.527  27.984  28.813  1.00  0.00     0.074 A 
ATOM     49  C   UNL A   1      39.625  27.986  27.681  1.00  0.00     0.031 C 
ATOM     50  C   UNL A   1      37.697  32.012  32.933  1.00  0.00     0.029 A 
ATOM     51  C   UNL A   1      38.929  31.257  33.130  1.00  0.00     0.049 A 
ATOM     52  H   UNL A   1      39.922  30.067  31.736  1.00  0.00     0.167 HD
ATOM     53  C   UNL A   1      41.651  27.234  28.892  1.00  0.00     0.034 A 
ATOM     54  C   UNL A   1      39.645  31.219  34.271  1.00  0.00     0.034 A 
ATOM     55  C   UNL A   1      42.573  27.272  29.995  1.00  0.00     0.049 A 
ATOM     56  C   UNL A   1      40.914  30.411  34.314  1.00  0.00     0.074 A 
ATOM     57  C   UNL A   1      43.790  26.626  30.122  1.00  0.00     0.029 A 
ATOM     58  N   UNL A   1      42.378  27.989  31.165  1.00  0.00    -0.354 N 
ATOM     59  N   UNL A   1      41.464  29.689  33.368  1.00  0.00    -0.248 NA
ATOM     60  C   UNL A   1      41.679  30.440  35.569  1.00  0.00     0.031 C 
ATOM     61  C   UNL A   1      44.327  26.944  31.375  1.00  0.00     0.029 A 
ATOM     62  C   UNL A   1      43.447  27.797  32.023  1.00  0.00     0.049 A 
ATOM     63  H   UNL A   1      41.594  28.553  31.357  1.00  0.00     0.167 HD
ATOM     64  C   UNL A   1      42.651  29.201  33.902  1.00  0.00     0.074 A 
ATOM     65  C   UNL A   1      42.752  29.731  35.247  1.00  0.00     0.031 C 
ATOM     66  C   UNL A   1      43.564  28.373  33.338  1.00  0.00     0.034 A 
BRANCH  53  67
ATOM     67  C   UNL A   1      41.987  26.355  27.716  1.00  0.00     0.023 A 
ATOM     68  C   UNL A   1      42.687  26.904  26.623  1.00  0.00     0.012 A 
ATOM     69  C   UNL A   1      41.668  24.983  27.714  1.00  0.00     0.148 A 
ATOM     70  C   UNL A   1      43.039  26.111  25.532  1.00  0.00     0.002 A 
ATOM     71  C   UNL A   1      42.056  24.189  26.639  1.00  0.00     0.091 A 
ATOM     72  F   UNL A   1      40.981  24.482  28.750  1.00  0.00    -0.205 F 
ATOM     73  C   UNL A   1      42.734  24.753  25.545  1.00  0.00     0.022 A 
BRANCH  71  74
ATOM     74  S   UNL A   1      41.772  22.416  26.596  1.00  0.00     0.127 S 
ATOM     75  O   UNL A   1      42.373  21.990  27.857  1.00  0.00    -0.237 OA
ATOM     76  O   UNL A   1      40.310  22.336  26.559  1.00  0.00    -0.237 OA
ATOM     77  O   UNL A   1      42.432  21.935  25.390  1.00  0.00    -0.744 OA
ENDBRANCH  71  74
ENDBRANCH  53  67
BRANCH  54  78
ATOM     78  C   UNL A   1      39.216  32.034  35.444  1.00  0.00     0.023 A 
ATOM     79  C   UNL A   1      38.305  31.483  36.365  1.00  0.00     0.012 A 
ATOM     80  C   UNL A   1      39.729  33.326  35.673  1.00  0.00     0.148 A 
ATOM     81  C   UNL A   1      37.890  32.213  37.479  1.00  0.00     0.002 A 
ATOM     82  C   UNL A   1      39.352  34.027  36.813  1.00  0.00     0.091 A 
ATOM     83  F   UNL A   1      40.583  33.840  34.777  1.00  0.00    -0.205 F 
ATOM     84  C   UNL A   1      38.421  33.479  37.710  1.00  0.00     0.022 A 
BRANCH  82  85
ATOM     85  S   UNL A   1      40.088  35.605  37.256  1.00  0.00     0.127 S 
ATOM     86  O   UNL A   1      39.645  36.461  36.159  1.00  0.00    -0.237 OA
ATOM     87  O   UNL A   1      39.460  35.884  38.548  1.00  0.00    -0.237 OA
ATOM     88  O   UNL A   1      41.522  35.357  37.332  1.00  0.00    -0.744 OA
ENDBRANCH  82  85
ENDBRANCH  54  78
BRANCH  66  89
ATOM     89  C   UNL A   1      44.767  27.995  34.162  1.00  0.00     0.023 A 
ATOM     90  C   UNL A   1      45.908  28.820  34.142  1.00  0.00     0.012 A 
ATOM     91  C   UNL A   1      44.741  26.869  35.009  1.00  0.00     0.148 A 
ATOM     92  C   UNL A   1      47.016  28.518  34.931  1.00  0.00     0.002 A 
ATOM     93  C   UNL A   1      45.832  26.598  35.827  1.00  0.00     0.091 A 
ATOM     94  F   UNL A   1      43.654  26.084  34.999  1.00  0.00    -0.205 F 
ATOM     95  C   UNL A   1      46.974  27.416  35.782  1.00  0.00     0.022 A 
BRANCH  93  96
ATOM     96  S   UNL A   1      45.828  25.252  37.016  1.00  0.00     0.127 S 
ATOM     97  O   UNL A   1      47.143  25.396  37.635  1.00  0.00    -0.237 OA
ATOM     98  O   UNL A   1      44.703  25.603  37.884  1.00  0.00    -0.237 OA
ATOM     99  O   UNL A   1      45.628  24.036  36.239  1.00  0.00    -0.744 OA
ENDBRANCH  93  96
ENDBRANCH  66  89
ENDBRANCH  40  41
ENDBRANCH  32  35
ENDBRANCH  30  31
ENDBRANCH  29  30
ENDBRANCH   1  29
TORSDOF 18
ENDMDL
MODEL 3
REMARK VINA RESULT:     -12.4      1.330      7.510
REMARK SMILES COc1ccc2c(CC(=O)NCCCCNC(=O)c3ccc(-c4c5nc(c(-c6cccc(S(=O)(=O)[O-])c6F)c6ccc([nH]6)c(-c6cccc(S(=O)(=O)[O-])c6F)c6nc(c(-c7cccc(S(=O)(=O)[O-])c7F)c7ccc4[nH]7)C=C6)C=C5)cc3)c(C(=O)c3cc(C)ccn3)[nH]c2c1
REMARK SMILES IDX 13 1 12 2 11 3 9 4 10 5 8 7 7 8 3 9 4 10 94 11 5 12 93 13
REMARK SMILES IDX 6 14 92 15 82 16 2 18 1 19 83 20 84 21 85 22 86 23 91 24
REMARK SMILES IDX 87 25 90 26 88 27 89 28 14 29 15 30 16 31 17 32 18 34 19 35
REMARK SMILES IDX 20 36 81 37 21 38 80 39 22 40 23 41 24 42 74 43 25 44 79 45
REMARK SMILES IDX 73 46 75 47 26 48 78 49 72 50 71 51 27 53 59 54 39 55 58 56
REMARK SMILES IDX 40 57 43 58 57 59 76 60 41 61 42 62 56 64 77 65 44 66 28 67
REMARK SMILES IDX 29 68 37 69 30 70 32 71 38 72 31 73 33 74 34 75 35 76 36 77
REMARK SMILES IDX 60 78 61 79 69 80 62 81 64 82 70 83 63 84 65 85 66 86 67 87
REMARK SMILES IDX 68 88 45 89 46 90 54 91 47 92 49 93 55 94 48 95 50 96 51 97
REMARK SMILES IDX 52 98 53 99
REMARK H PARENT 11 6 92 17 16 33 75 52 43 63
REMARK Flexibility Score: inf
ROOT
ATOM      1  C   UNL A   1      35.386  23.684  23.651  1.00  0.00     0.023 C 
ENDROOT
BRANCH   1   2
ATOM      2  C   UNL A   1      33.861  23.604  23.643  1.00  0.00     0.116 C 
BRANCH   2   3
ATOM      3  N   UNL A   1      33.267  24.335  22.544  1.00  0.00    -0.356 N 
ATOM      4  C   UNL A   1      32.031  24.910  22.447  1.00  0.00     0.224 C 
ATOM      5  O   UNL A   1      31.835  25.663  21.490  1.00  0.00    -0.275 OA
ATOM      6  H   UNL A   1      33.838  24.432  21.748  1.00  0.00     0.163 HD
BRANCH   4   7
ATOM      7  C   UNL A   1      30.987  24.745  23.547  1.00  0.00     0.138 C 
BRANCH   7   8
ATOM      8  C   UNL A   1      31.238  25.550  24.795  1.00  0.00    -0.002 A 
ATOM      9  C   UNL A   1      32.091  29.605  25.575  1.00  0.00     0.120 A 
ATOM     10  C   UNL A   1      31.848  29.295  24.241  1.00  0.00     0.047 A 
ATOM     11  C   UNL A   1      32.085  28.605  26.554  1.00  0.00     0.073 A 
ATOM     12  C   UNL A   1      31.545  27.981  23.860  1.00  0.00     0.014 A 
ATOM     13  C   UNL A   1      31.763  27.301  26.156  1.00  0.00     0.050 A 
ATOM     14  C   UNL A   1      31.492  26.964  24.835  1.00  0.00     0.004 A 
ATOM     15  N   UNL A   1      31.663  26.148  26.894  1.00  0.00    -0.351 N 
ATOM     16  C   UNL A   1      31.217  25.099  26.116  1.00  0.00     0.093 A 
ATOM     17  H   UNL A   1      31.880  26.078  27.853  1.00  0.00     0.167 HD
BRANCH   9  18
ATOM     18  O   UNL A   1      32.393  30.865  26.022  1.00  0.00    -0.497 OA
ATOM     19  C   UNL A   1      31.403  31.432  26.876  1.00  0.00     0.278 C 
ENDBRANCH   9  18
BRANCH  16  20
ATOM     20  C   UNL A   1      30.829  23.783  26.616  1.00  0.00     0.227 C 
ATOM     21  O   UNL A   1      29.776  23.576  27.217  1.00  0.00    -0.285 OA
BRANCH  20  22
ATOM     22  C   UNL A   1      31.787  22.653  26.498  1.00  0.00     0.113 A 
ATOM     23  C   UNL A   1      31.668  21.762  25.435  1.00  0.00     0.036 A 
ATOM     24  N   UNL A   1      32.750  22.576  27.445  1.00  0.00    -0.253 NA
ATOM     25  C   UNL A   1      32.595  20.722  25.335  1.00  0.00    -0.047 A 
ATOM     26  C   UNL A   1      33.652  21.583  27.310  1.00  0.00     0.112 A 
ATOM     27  C   UNL A   1      32.528  19.727  24.217  1.00  0.00     0.044 C 
ATOM     28  C   UNL A   1      33.614  20.645  26.289  1.00  0.00     0.023 A 
ENDBRANCH  20  22
ENDBRANCH  16  20
ENDBRANCH   7   8
ENDBRANCH   4   7
ENDBRANCH   2   3
ENDBRANCH   1   2
BRANCH   1  29
ATOM     29  C   UNL A   1      36.105  22.351  23.874  1.00  0.00     0.023 C 
BRANCH  29  30
ATOM     30  C   UNL A   1      36.624  22.105  25.288  1.00  0.00     0.116 C 
BRANCH  30  31
ATOM     31  N   UNL A   1      37.579  21.009  25.372  1.00  0.00    -0.352 N 
ATOM     32  C   UNL A   1      38.871  21.027  25.843  1.00  0.00     0.251 C 
ATOM     33  H   UNL A   1      37.257  20.136  25.049  1.00  0.00     0.163 HD
ATOM     34  O   UNL A   1      39.573  20.021  25.755  1.00  0.00    -0.269 OA
BRANCH  32  35
ATOM     35  C   UNL A   1      39.428  22.270  26.419  1.00  0.00     0.039 A 
ATOM     36  C   UNL A   1      40.496  22.177  27.315  1.00  0.00     0.014 A 
ATOM     37  C   UNL A   1      38.921  23.521  26.057  1.00  0.00     0.014 A 
ATOM     38  C   UNL A   1      41.109  23.340  27.788  1.00  0.00     0.010 A 
ATOM     39  C   UNL A   1      39.570  24.678  26.482  1.00  0.00     0.010 A 
ATOM     40  C   UNL A   1      40.675  24.600  27.344  1.00  0.00    -0.014 A 
BRANCH  40  41
ATOM     41  C   UNL A   1      41.389  25.845  27.727  1.00  0.00     0.031 A 
ATOM     42  C   UNL A   1      40.673  26.934  28.478  1.00  0.00     0.074 A 
ATOM     43  C   UNL A   1      42.652  26.040  27.301  1.00  0.00     0.049 A 
ATOM     44  N   UNL A   1      41.108  28.116  28.827  1.00  0.00    -0.248 NA
ATOM     45  C   UNL A   1      39.278  26.668  28.867  1.00  0.00     0.031 C 
ATOM     46  C   UNL A   1      43.428  25.095  26.493  1.00  0.00     0.029 A 
ATOM     47  N   UNL A   1      43.496  27.112  27.456  1.00  0.00    -0.354 N 
ATOM     48  C   UNL A   1      40.035  28.750  29.442  1.00  0.00     0.074 A 
ATOM     49  C   UNL A   1      38.919  27.829  29.397  1.00  0.00     0.031 C 
ATOM     50  C   UNL A   1      44.629  25.630  26.220  1.00  0.00     0.029 A 
ATOM     51  C   UNL A   1      44.702  26.963  26.810  1.00  0.00     0.049 A 
ATOM     52  H   UNL A   1      43.261  27.910  27.981  1.00  0.00     0.167 HD
ATOM     53  C   UNL A   1      39.990  29.975  30.017  1.00  0.00     0.034 A 
ATOM     54  C   UNL A   1      45.745  27.808  26.697  1.00  0.00     0.034 A 
ATOM     55  C   UNL A   1      41.114  30.868  30.107  1.00  0.00     0.049 A 
ATOM     56  C   UNL A   1      45.684  29.144  27.385  1.00  0.00     0.074 A 
ATOM     57  C   UNL A   1      41.196  32.085  30.759  1.00  0.00     0.029 A 
ATOM     58  N   UNL A   1      42.350  30.645  29.521  1.00  0.00    -0.354 N 
ATOM     59  N   UNL A   1      44.720  29.654  28.112  1.00  0.00    -0.248 NA
ATOM     60  C   UNL A   1      46.867  30.009  27.266  1.00  0.00     0.031 C 
ATOM     61  C   UNL A   1      42.480  32.605  30.558  1.00  0.00     0.029 A 
ATOM     62  C   UNL A   1      43.200  31.704  29.789  1.00  0.00     0.049 A 
ATOM     63  H   UNL A   1      42.590  29.849  28.993  1.00  0.00     0.167 HD
ATOM     64  C   UNL A   1      45.189  30.884  28.560  1.00  0.00     0.074 A 
ATOM     65  C   UNL A   1      46.534  31.031  28.043  1.00  0.00     0.031 C 
ATOM     66  C   UNL A   1      44.555  31.815  29.314  1.00  0.00     0.034 A 
BRANCH  53  67
ATOM     67  C   UNL A   1      38.696  30.396  30.662  1.00  0.00     0.023 A 
ATOM     68  C   UNL A   1      38.484  30.117  32.028  1.00  0.00     0.012 A 
ATOM     69  C   UNL A   1      37.721  31.114  29.944  1.00  0.00     0.148 A 
ATOM     70  C   UNL A   1      37.310  30.519  32.662  1.00  0.00     0.002 A 
ATOM     71  C   UNL A   1      36.568  31.545  30.593  1.00  0.00     0.091 A 
ATOM     72  F   UNL A   1      37.927  31.349  28.640  1.00  0.00    -0.205 F 
ATOM     73  C   UNL A   1      36.358  31.241  31.949  1.00  0.00     0.022 A 
BRANCH  71  74
ATOM     74  S   UNL A   1      35.316  32.544  29.778  1.00  0.00     0.127 S 
ATOM     75  O   UNL A   1      34.392  32.811  30.877  1.00  0.00    -0.237 OA
ATOM     76  O   UNL A   1      36.087  33.706  29.334  1.00  0.00    -0.237 OA
ATOM     77  O   UNL A   1      34.789  31.720  28.699  1.00  0.00    -0.744 OA
ENDBRANCH  71  74
ENDBRANCH  53  67
BRANCH  54  78
ATOM     78  C   UNL A   1      46.970  27.380  25.963  1.00  0.00     0.023 A 
ATOM     79  C   UNL A   1      47.926  26.589  26.628  1.00  0.00     0.012 A 
ATOM     80  C   UNL A   1      47.178  27.716  24.611  1.00  0.00     0.148 A 
ATOM     81  C   UNL A   1      49.079  26.161  25.970  1.00  0.00     0.002 A 
ATOM     82  C   UNL A   1      48.303  27.242  23.945  1.00  0.00     0.091 A 
ATOM     83  F   UNL A   1      46.265  28.483  23.998  1.00  0.00    -0.205 F 
ATOM     84  C   UNL A   1      49.263  26.477  24.627  1.00  0.00     0.022 A 
BRANCH  82  85
ATOM     85  S   UNL A   1      48.551  27.490  22.183  1.00  0.00     0.127 S 
ATOM     86  O   UNL A   1      49.800  28.246  22.160  1.00  0.00    -0.237 OA
ATOM     87  O   UNL A   1      48.653  26.115  21.691  1.00  0.00    -0.237 OA
ATOM     88  O   UNL A   1      47.366  28.201  21.721  1.00  0.00    -0.744 OA
ENDBRANCH  82  85
ENDBRANCH  54  78
BRANCH  66  89
ATOM     89  C   UNL A   1      45.310  33.076  29.645  1.00  0.00     0.023 A 
ATOM     90  C   UNL A   1      46.125  33.115  30.794  1.00  0.00     0.012 A 
ATOM     91  C   UNL A   1      45.272  34.191  28.785  1.00  0.00     0.148 A 
ATOM     92  C   UNL A   1      46.870  34.254  31.096  1.00  0.00     0.002 A 
ATOM     93  C   UNL A   1      46.052  35.307  29.068  1.00  0.00     0.091 A 
ATOM     94  F   UNL A   1      44.475  34.143  27.708  1.00  0.00    -0.205 F 
ATOM     95  C   UNL A   1      46.843  35.343  30.228  1.00  0.00     0.022 A 
BRANCH  93  96
ATOM     96  S   UNL A   1      46.146  36.717  27.960  1.00  0.00     0.127 S 
ATOM     97  O   UNL A   1      46.593  36.092  26.718  1.00  0.00    -0.237 OA
ATOM     98  O   UNL A   1      44.762  37.193  27.940  1.00  0.00    -0.237 OA
ATOM     99  O   UNL A   1      47.089  37.643  28.574  1.00  0.00    -0.744 OA
ENDBRANCH  93  96
ENDBRANCH  66  89
ENDBRANCH  40  41
ENDBRANCH  32  35
ENDBRANCH  30  31
ENDBRANCH  29  30
ENDBRANCH   1  29
TORSDOF 18
ENDMDL
