MODEL 1
REMARK VINA RESULT:     -11.4      0.000      0.000
REMARK SMILES O=C(NCCCCNC(=O)[C@H]1CC[C@@H](CNc2ccccc2[N+](=O)[O-])O1)c1ccc(-c2c3nc(c(-c4cccc(S(=O)(=O)[O-])c4F)c4ccc([nH]4)c(-c4cccc(S(=O)(=O)[O-])c4F)c4nc(c(-c5cccc(S(=O)(=O)[O-])c5F)c5ccc2[nH]5)C=C4)C=C3)cc1
REMARK SMILES IDX 6 1 5 2 4 3 3 4 1 5 2 6 27 8 28 9 89 10 29 11 88 12 30 13
REMARK SMILES IDX 31 14 32 15 82 16 33 17 87 18 81 19 83 20 34 21 86 22 80 23
REMARK SMILES IDX 79 24 35 26 67 27 47 28 66 29 48 30 51 31 65 32 84 33 49 34
REMARK SMILES IDX 50 35 64 37 85 38 52 39 36 40 37 41 45 42 38 43 40 44 46 45
REMARK SMILES IDX 39 46 41 47 42 48 43 49 44 50 68 51 69 52 77 53 70 54 72 55
REMARK SMILES IDX 78 56 71 57 73 58 74 59 75 60 76 61 53 62 54 63 62 64 55 65
REMARK SMILES IDX 57 66 63 67 56 68 58 69 59 70 60 71 61 72 7 73 8 74 9 75
REMARK SMILES IDX 10 77 11 78 12 79 26 80 13 81 14 82 15 83 16 84 17 86 18 87
REMARK SMILES IDX 22 88 19 89 21 90 20 91 23 92 24 93 25 94
REMARK H PARENT 3 7 83 25 51 36 8 76 16 85
REMARK Flexibility Score: inf
ROOT
ATOM      1  C   UNL A   1      31.170  30.686  25.528  1.00  0.00     0.023 C 
ENDROOT
BRANCH   1   2
ATOM      2  C   UNL A   1      31.110  32.058  26.188  1.00  0.00     0.023 C 
BRANCH   2   3
ATOM      3  C   UNL A   1      32.381  32.491  26.912  1.00  0.00     0.116 C 
BRANCH   3   4
ATOM      4  N   UNL A   1      32.360  33.850  27.437  1.00  0.00    -0.352 N 
ATOM      5  O   UNL A   1      33.200  35.611  28.608  1.00  0.00    -0.269 OA
ATOM      6  C   UNL A   1      33.313  34.447  28.235  1.00  0.00     0.251 C 
ATOM      7  H   UNL A   1      31.580  34.402  27.195  1.00  0.00     0.163 HD
BRANCH   6   8
ATOM      8  C   UNL A   1      34.461  33.628  28.675  1.00  0.00     0.039 A 
ATOM      9  C   UNL A   1      34.243  32.437  29.370  1.00  0.00     0.014 A 
ATOM     10  C   UNL A   1      35.755  34.123  28.494  1.00  0.00     0.014 A 
ATOM     11  C   UNL A   1      35.308  31.826  30.022  1.00  0.00     0.010 A 
ATOM     12  C   UNL A   1      36.832  33.458  29.083  1.00  0.00     0.010 A 
ATOM     13  C   UNL A   1      36.613  32.331  29.889  1.00  0.00    -0.014 A 
BRANCH  13  14
ATOM     14  C   UNL A   1      37.738  31.625  30.554  1.00  0.00     0.031 A 
ATOM     15  C   UNL A   1      38.547  30.578  29.838  1.00  0.00     0.074 A 
ATOM     16  C   UNL A   1      38.025  31.947  31.831  1.00  0.00     0.049 A 
ATOM     17  N   UNL A   1      39.571  29.891  30.279  1.00  0.00    -0.248 NA
ATOM     18  C   UNL A   1      38.160  30.248  28.457  1.00  0.00     0.031 C 
ATOM     19  C   UNL A   1      37.276  32.911  32.641  1.00  0.00     0.029 A 
ATOM     20  N   UNL A   1      39.013  31.504  32.672  1.00  0.00    -0.354 N 
ATOM     21  C   UNL A   1      39.922  29.020  29.254  1.00  0.00     0.074 A 
ATOM     22  C   UNL A   1      39.004  29.265  28.163  1.00  0.00     0.031 C 
ATOM     23  C   UNL A   1      37.845  33.007  33.850  1.00  0.00     0.029 A 
ATOM     24  C   UNL A   1      38.966  32.076  33.921  1.00  0.00     0.049 A 
ATOM     25  H   UNL A   1      39.690  30.840  32.406  1.00  0.00     0.167 HD
ATOM     26  C   UNL A   1      40.929  28.114  29.222  1.00  0.00     0.034 A 
ATOM     27  C   UNL A   1      39.731  31.870  35.010  1.00  0.00     0.034 A 
ATOM     28  C   UNL A   1      41.874  27.914  30.291  1.00  0.00     0.049 A 
ATOM     29  C   UNL A   1      40.867  30.893  34.924  1.00  0.00     0.074 A 
ATOM     30  C   UNL A   1      42.975  27.075  30.318  1.00  0.00     0.029 A 
ATOM     31  N   UNL A   1      41.829  28.554  31.519  1.00  0.00    -0.354 N 
ATOM     32  N   UNL A   1      41.265  30.183  33.897  1.00  0.00    -0.248 NA
ATOM     33  C   UNL A   1      41.674  30.707  36.137  1.00  0.00     0.031 C 
ATOM     34  C   UNL A   1      43.591  27.202  31.569  1.00  0.00     0.029 A 
ATOM     35  C   UNL A   1      42.877  28.125  32.316  1.00  0.00     0.049 A 
ATOM     36  H   UNL A   1      41.152  29.217  31.786  1.00  0.00     0.167 HD
ATOM     37  C   UNL A   1      42.378  29.477  34.332  1.00  0.00     0.074 A 
ATOM     38  C   UNL A   1      42.611  29.871  35.708  1.00  0.00     0.031 C 
ATOM     39  C   UNL A   1      43.123  28.564  33.665  1.00  0.00     0.034 A 
BRANCH  26  40
ATOM     40  C   UNL A   1      41.111  27.293  27.971  1.00  0.00     0.023 A 
ATOM     41  C   UNL A   1      41.708  27.883  26.839  1.00  0.00     0.012 A 
ATOM     42  C   UNL A   1      40.799  25.918  27.952  1.00  0.00     0.148 A 
ATOM     43  C   UNL A   1      41.979  27.122  25.702  1.00  0.00     0.002 A 
ATOM     44  C   UNL A   1      41.102  25.159  26.826  1.00  0.00     0.091 A 
ATOM     45  F   UNL A   1      40.215  25.381  29.032  1.00  0.00    -0.205 F 
ATOM     46  C   UNL A   1      41.687  25.760  25.699  1.00  0.00     0.022 A 
BRANCH  44  47
ATOM     47  S   UNL A   1      40.830  23.384  26.751  1.00  0.00     0.127 S 
ATOM     48  O   UNL A   1      41.241  22.966  28.090  1.00  0.00    -0.237 OA
ATOM     49  O   UNL A   1      39.391  23.300  26.500  1.00  0.00    -0.237 OA
ATOM     50  O   UNL A   1      41.664  22.898  25.660  1.00  0.00    -0.744 OA
ENDBRANCH  44  47
ENDBRANCH  26  40
BRANCH  27  51
ATOM     51  C   UNL A   1      39.467  32.651  36.248  1.00  0.00     0.023 A 
ATOM     52  C   UNL A   1      40.035  33.930  36.395  1.00  0.00     0.012 A 
ATOM     53  C   UNL A   1      38.601  32.165  37.248  1.00  0.00     0.148 A 
ATOM     54  C   UNL A   1      39.760  34.704  37.523  1.00  0.00     0.002 A 
ATOM     55  C   UNL A   1      38.282  32.966  38.337  1.00  0.00     0.091 A 
ATOM     56  F   UNL A   1      38.086  30.935  37.104  1.00  0.00    -0.205 F 
ATOM     57  C   UNL A   1      38.871  34.229  38.486  1.00  0.00     0.022 A 
BRANCH  55  58
ATOM     58  S   UNL A   1      37.019  32.475  39.516  1.00  0.00     0.127 S 
ATOM     59  O   UNL A   1      35.832  32.388  38.671  1.00  0.00    -0.237 OA
ATOM     60  O   UNL A   1      37.525  31.190  40.003  1.00  0.00    -0.237 OA
ATOM     61  O   UNL A   1      37.019  33.528  40.525  1.00  0.00    -0.744 OA
ENDBRANCH  55  58
ENDBRANCH  27  51
BRANCH  39  62
ATOM     62  C   UNL A   1      44.265  27.930  34.410  1.00  0.00     0.023 A 
ATOM     63  C   UNL A   1      45.513  28.583  34.444  1.00  0.00     0.012 A 
ATOM     64  C   UNL A   1      44.093  26.726  35.118  1.00  0.00     0.148 A 
ATOM     65  C   UNL A   1      46.582  28.033  35.149  1.00  0.00     0.002 A 
ATOM     66  C   UNL A   1      45.151  26.204  35.854  1.00  0.00     0.091 A 
ATOM     67  F   UNL A   1      42.904  26.108  35.054  1.00  0.00    -0.205 F 
ATOM     68  C   UNL A   1      46.398  26.850  35.863  1.00  0.00     0.022 A 
BRANCH  66  69
ATOM     69  S   UNL A   1      44.972  24.729  36.863  1.00  0.00     0.127 S 
ATOM     70  O   UNL A   1      46.329  24.549  37.374  1.00  0.00    -0.237 OA
ATOM     71  O   UNL A   1      43.993  25.149  37.867  1.00  0.00    -0.237 OA
ATOM     72  O   UNL A   1      44.494  23.690  35.960  1.00  0.00    -0.744 OA
ENDBRANCH  66  69
ENDBRANCH  39  62
ENDBRANCH  13  14
ENDBRANCH   6   8
ENDBRANCH   3   4
ENDBRANCH   2   3
ENDBRANCH   1   2
BRANCH   1  73
ATOM     73  C   UNL A   1      32.451  29.910  25.806  1.00  0.00     0.116 C 
BRANCH  73  74
ATOM     74  N   UNL A   1      33.263  29.708  24.629  1.00  0.00    -0.354 N 
ATOM     75  C   UNL A   1      33.165  28.743  23.668  1.00  0.00     0.249 C 
ATOM     76  H   UNL A   1      33.991  30.358  24.500  1.00  0.00     0.163 HD
ATOM     77  O   UNL A   1      33.921  28.828  22.694  1.00  0.00    -0.272 OA
BRANCH  75  78
ATOM     78  C   UNL A   1      32.210  27.524  23.804  1.00  0.00     0.207 C 
ATOM     79  C   UNL A   1      31.116  27.531  22.746  1.00  0.00     0.045 C 
ATOM     80  O   UNL A   1      32.791  26.222  23.817  1.00  0.00    -0.363 OA
ATOM     81  C   UNL A   1      31.424  26.334  21.878  1.00  0.00     0.037 C 
ATOM     82  C   UNL A   1      32.131  25.382  22.831  1.00  0.00     0.138 C 
BRANCH  82  83
ATOM     83  C   UNL A   1      33.166  24.452  22.134  1.00  0.00     0.145 C 
BRANCH  83  84
ATOM     84  N   UNL A   1      34.047  23.870  23.142  1.00  0.00    -0.377 N 
ATOM     85  H   UNL A   1      34.759  24.473  23.456  1.00  0.00     0.160 HD
BRANCH  84  86
ATOM     86  C   UNL A   1      34.055  22.624  23.732  1.00  0.00     0.113 A 
ATOM     87  C   UNL A   1      32.844  21.903  23.655  1.00  0.00     0.033 A 
ATOM     88  C   UNL A   1      35.113  21.943  24.354  1.00  0.00     0.292 A 
ATOM     89  C   UNL A   1      32.701  20.603  24.157  1.00  0.00     0.003 A 
ATOM     90  C   UNL A   1      34.994  20.632  24.855  1.00  0.00     0.088 A 
ATOM     91  C   UNL A   1      33.781  19.963  24.751  1.00  0.00     0.007 A 
BRANCH  88  92
ATOM     92  N   UNL A   1      36.387  22.581  24.580  1.00  0.00     0.064 N 
ATOM     93  O   UNL A   1      36.372  23.742  25.014  1.00  0.00    -0.258 OA
ATOM     94  O   UNL A   1      37.406  21.915  24.333  1.00  0.00    -0.258 OA
ENDBRANCH  88  92
ENDBRANCH  84  86
ENDBRANCH  83  84
ENDBRANCH  82  83
ENDBRANCH  75  78
ENDBRANCH  73  74
ENDBRANCH   1  73
TORSDOF 18
ENDMDL
MODEL 2
REMARK VINA RESULT:     -11.1      1.596      7.732
REMARK SMILES O=C(NCCCCNC(=O)[C@H]1CC[C@@H](CNc2ccccc2[N+](=O)[O-])O1)c1ccc(-c2c3nc(c(-c4cccc(S(=O)(=O)[O-])c4F)c4ccc([nH]4)c(-c4cccc(S(=O)(=O)[O-])c4F)c4nc(c(-c5cccc(S(=O)(=O)[O-])c5F)c5ccc2[nH]5)C=C4)C=C3)cc1
REMARK SMILES IDX 6 1 5 2 4 3 3 4 1 5 2 6 27 8 28 9 89 10 29 11 88 12 30 13
REMARK SMILES IDX 31 14 32 15 82 16 33 17 87 18 81 19 83 20 34 21 86 22 80 23
REMARK SMILES IDX 79 24 35 26 67 27 47 28 66 29 48 30 51 31 65 32 84 33 49 34
REMARK SMILES IDX 50 35 64 37 85 38 52 39 36 40 37 41 45 42 38 43 40 44 46 45
REMARK SMILES IDX 39 46 41 47 42 48 43 49 44 50 68 51 69 52 77 53 70 54 72 55
REMARK SMILES IDX 78 56 71 57 73 58 74 59 75 60 76 61 53 62 54 63 62 64 55 65
REMARK SMILES IDX 57 66 63 67 56 68 58 69 59 70 60 71 61 72 7 73 8 74 9 75
REMARK SMILES IDX 10 77 11 78 12 79 26 80 13 81 14 82 15 83 16 84 17 86 18 87
REMARK SMILES IDX 22 88 19 89 21 90 20 91 23 92 24 93 25 94
REMARK H PARENT 3 7 83 25 51 36 8 76 16 85
REMARK Flexibility Score: inf
ROOT
ATOM      1  C   UNL A   1      31.935  27.699  26.326  1.00  0.00     0.023 C 
ENDROOT
BRANCH   1   2
ATOM      2  C   UNL A   1      31.644  29.132  26.753  1.00  0.00     0.023 C 
BRANCH   2   3
ATOM      3  C   UNL A   1      32.665  30.169  26.296  1.00  0.00     0.116 C 
BRANCH   3   4
ATOM      4  N   UNL A   1      32.386  31.536  26.716  1.00  0.00    -0.352 N 
ATOM      5  O   UNL A   1      32.886  33.518  27.715  1.00  0.00    -0.269 OA
ATOM      6  C   UNL A   1      33.220  32.373  27.428  1.00  0.00     0.251 C 
ATOM      7  H   UNL A   1      31.507  31.903  26.463  1.00  0.00     0.163 HD
BRANCH   6   8
ATOM      8  C   UNL A   1      34.518  31.834  27.884  1.00  0.00     0.039 A 
ATOM      9  C   UNL A   1      34.625  30.493  28.256  1.00  0.00     0.014 A 
ATOM     10  C   UNL A   1      35.593  32.711  28.052  1.00  0.00     0.014 A 
ATOM     11  C   UNL A   1      35.755  30.067  28.945  1.00  0.00     0.010 A 
ATOM     12  C   UNL A   1      36.759  32.255  28.671  1.00  0.00     0.010 A 
ATOM     13  C   UNL A   1      36.832  30.943  29.163  1.00  0.00    -0.014 A 
BRANCH  13  14
ATOM     14  C   UNL A   1      38.048  30.444  29.855  1.00  0.00     0.031 A 
ATOM     15  C   UNL A   1      38.390  30.871  31.258  1.00  0.00     0.074 A 
ATOM     16  C   UNL A   1      38.850  29.586  29.195  1.00  0.00     0.049 A 
ATOM     17  N   UNL A   1      39.403  30.505  32.001  1.00  0.00    -0.248 NA
ATOM     18  C   UNL A   1      37.491  31.837  31.911  1.00  0.00     0.031 C 
ATOM     19  C   UNL A   1      38.645  29.141  27.814  1.00  0.00     0.029 A 
ATOM     20  N   UNL A   1      39.993  28.937  29.586  1.00  0.00    -0.354 N 
ATOM     21  C   UNL A   1      39.292  31.223  33.186  1.00  0.00     0.074 A 
ATOM     22  C   UNL A   1      38.109  32.048  33.067  1.00  0.00     0.031 C 
ATOM     23  C   UNL A   1      39.611  28.275  27.482  1.00  0.00     0.029 A 
ATOM     24  C   UNL A   1      40.532  28.140  28.605  1.00  0.00     0.049 A 
ATOM     25  H   UNL A   1      40.388  29.034  30.482  1.00  0.00     0.167 HD
ATOM     26  C   UNL A   1      40.094  31.183  34.278  1.00  0.00     0.034 A 
ATOM     27  C   UNL A   1      41.651  27.391  28.600  1.00  0.00     0.034 A 
ATOM     28  C   UNL A   1      41.239  30.319  34.411  1.00  0.00     0.049 A 
ATOM     29  C   UNL A   1      42.490  27.332  29.842  1.00  0.00     0.074 A 
ATOM     30  C   UNL A   1      42.065  30.151  35.509  1.00  0.00     0.029 A 
ATOM     31  N   UNL A   1      41.721  29.483  33.417  1.00  0.00    -0.354 N 
ATOM     32  N   UNL A   1      42.288  27.913  30.999  1.00  0.00    -0.248 NA
ATOM     33  C   UNL A   1      43.698  26.498  29.788  1.00  0.00     0.031 C 
ATOM     34  C   UNL A   1      43.054  29.218  35.174  1.00  0.00     0.029 A 
ATOM     35  C   UNL A   1      42.837  28.801  33.871  1.00  0.00     0.049 A 
ATOM     36  H   UNL A   1      41.327  29.386  32.519  1.00  0.00     0.167 HD
ATOM     37  C   UNL A   1      43.332  27.504  31.817  1.00  0.00     0.074 A 
ATOM     38  C   UNL A   1      44.147  26.598  31.032  1.00  0.00     0.031 C 
ATOM     39  C   UNL A   1      43.608  27.866  33.093  1.00  0.00     0.034 A 
BRANCH  26  40
ATOM     40  C   UNL A   1      39.744  32.059  35.453  1.00  0.00     0.023 A 
ATOM     41  C   UNL A   1      40.252  33.372  35.510  1.00  0.00     0.012 A 
ATOM     42  C   UNL A   1      38.829  31.627  36.435  1.00  0.00     0.148 A 
ATOM     43  C   UNL A   1      39.866  34.238  36.532  1.00  0.00     0.002 A 
ATOM     44  C   UNL A   1      38.424  32.507  37.433  1.00  0.00     0.091 A 
ATOM     45  F   UNL A   1      38.372  30.369  36.372  1.00  0.00    -0.205 F 
ATOM     46  C   UNL A   1      38.945  33.812  37.486  1.00  0.00     0.022 A 
BRANCH  44  47
ATOM     47  S   UNL A   1      37.189  32.076  38.665  1.00  0.00     0.127 S 
ATOM     48  O   UNL A   1      37.826  32.541  39.896  1.00  0.00    -0.237 OA
ATOM     49  O   UNL A   1      36.036  32.869  38.239  1.00  0.00    -0.237 OA
ATOM     50  O   UNL A   1      37.005  30.636  38.559  1.00  0.00    -0.744 OA
ENDBRANCH  44  47
ENDBRANCH  26  40
BRANCH  27  51
ATOM     51  C   UNL A   1      41.996  26.599  27.389  1.00  0.00     0.023 A 
ATOM     52  C   UNL A   1      42.648  27.228  26.312  1.00  0.00     0.012 A 
ATOM     53  C   UNL A   1      41.749  25.213  27.326  1.00  0.00     0.148 A 
ATOM     54  C   UNL A   1      43.030  26.496  25.187  1.00  0.00     0.002 A 
ATOM     55  C   UNL A   1      42.189  24.479  26.232  1.00  0.00     0.091 A 
ATOM     56  F   UNL A   1      41.107  24.632  28.350  1.00  0.00    -0.205 F 
ATOM     57  C   UNL A   1      42.815  25.119  25.153  1.00  0.00     0.022 A 
BRANCH  55  58
ATOM     58  S   UNL A   1      42.088  22.686  26.212  1.00  0.00     0.127 S 
ATOM     59  O   UNL A   1      42.715  22.361  24.934  1.00  0.00    -0.237 OA
ATOM     60  O   UNL A   1      42.866  22.313  27.394  1.00  0.00    -0.237 OA
ATOM     61  O   UNL A   1      40.664  22.390  26.327  1.00  0.00    -0.744 OA
ENDBRANCH  55  58
ENDBRANCH  27  51
BRANCH  39  62
ATOM     62  C   UNL A   1      44.840  27.278  33.724  1.00  0.00     0.023 A 
ATOM     63  C   UNL A   1      46.061  27.976  33.634  1.00  0.00     0.012 A 
ATOM     64  C   UNL A   1      44.782  26.073  34.449  1.00  0.00     0.148 A 
ATOM     65  C   UNL A   1      47.213  27.468  34.232  1.00  0.00     0.002 A 
ATOM     66  C   UNL A   1      45.925  25.593  35.078  1.00  0.00     0.091 A 
ATOM     67  F   UNL A   1      43.616  25.412  34.503  1.00  0.00    -0.205 F 
ATOM     68  C   UNL A   1      47.143  26.284  34.963  1.00  0.00     0.022 A 
BRANCH  66  69
ATOM     69  S   UNL A   1      45.900  24.119  36.103  1.00  0.00     0.127 S 
ATOM     70  O   UNL A   1      44.899  24.469  37.108  1.00  0.00    -0.237 OA
ATOM     71  O   UNL A   1      45.479  23.083  35.159  1.00  0.00    -0.237 OA
ATOM     72  O   UNL A   1      47.263  23.961  36.597  1.00  0.00    -0.744 OA
ENDBRANCH  66  69
ENDBRANCH  39  62
ENDBRANCH  13  14
ENDBRANCH   6   8
ENDBRANCH   3   4
ENDBRANCH   2   3
ENDBRANCH   1   2
BRANCH   1  73
ATOM     73  C   UNL A   1      30.976  27.148  25.278  1.00  0.00     0.116 C 
BRANCH  73  74
ATOM     74  N   UNL A   1      30.654  28.102  24.242  1.00  0.00    -0.354 N 
ATOM     75  C   UNL A   1      30.907  28.037  22.902  1.00  0.00     0.249 C 
ATOM     76  H   UNL A   1      30.185  28.913  24.544  1.00  0.00     0.163 HD
ATOM     77  O   UNL A   1      30.449  28.939  22.191  1.00  0.00    -0.272 OA
BRANCH  75  78
ATOM     78  C   UNL A   1      31.803  26.935  22.273  1.00  0.00     0.207 C 
ATOM     79  C   UNL A   1      33.279  27.156  22.570  1.00  0.00     0.045 C 
ATOM     80  O   UNL A   1      31.500  25.576  22.579  1.00  0.00    -0.363 OA
ATOM     81  C   UNL A   1      33.660  26.004  23.468  1.00  0.00     0.037 C 
ATOM     82  C   UNL A   1      32.698  24.901  23.051  1.00  0.00     0.138 C 
BRANCH  82  83
ATOM     83  C   UNL A   1      32.343  23.912  24.199  1.00  0.00     0.145 C 
BRANCH  83  84
ATOM     84  N   UNL A   1      33.512  23.726  25.053  1.00  0.00    -0.377 N 
ATOM     85  H   UNL A   1      33.502  24.265  25.877  1.00  0.00     0.160 HD
BRANCH  84  86
ATOM     86  C   UNL A   1      34.626  22.927  24.909  1.00  0.00     0.113 A 
ATOM     87  C   UNL A   1      35.853  23.608  24.773  1.00  0.00     0.033 A 
ATOM     88  C   UNL A   1      34.722  21.527  24.933  1.00  0.00     0.292 A 
ATOM     89  C   UNL A   1      37.083  22.945  24.671  1.00  0.00     0.003 A 
ATOM     90  C   UNL A   1      35.950  20.840  24.843  1.00  0.00     0.088 A 
ATOM     91  C   UNL A   1      37.132  21.558  24.714  1.00  0.00     0.007 A 
BRANCH  88  92
ATOM     92  N   UNL A   1      33.547  20.692  24.984  1.00  0.00     0.064 N 
ATOM     93  O   UNL A   1      33.318  20.098  26.047  1.00  0.00    -0.258 OA
ATOM     94  O   UNL A   1      32.844  20.641  23.962  1.00  0.00    -0.258 OA
ENDBRANCH  88  92
ENDBRANCH  84  86
ENDBRANCH  83  84
ENDBRANCH  82  83
ENDBRANCH  75  78
ENDBRANCH  73  74
ENDBRANCH   1  73
TORSDOF 18
ENDMDL
MODEL 3
REMARK VINA RESULT:     -11.1      1.313      1.690
REMARK SMILES O=C(NCCCCNC(=O)[C@H]1CC[C@@H](CNc2ccccc2[N+](=O)[O-])O1)c1ccc(-c2c3nc(c(-c4cccc(S(=O)(=O)[O-])c4F)c4ccc([nH]4)c(-c4cccc(S(=O)(=O)[O-])c4F)c4nc(c(-c5cccc(S(=O)(=O)[O-])c5F)c5ccc2[nH]5)C=C4)C=C3)cc1
REMARK SMILES IDX 6 1 5 2 4 3 3 4 1 5 2 6 27 8 28 9 89 10 29 11 88 12 30 13
REMARK SMILES IDX 31 14 32 15 82 16 33 17 87 18 81 19 83 20 34 21 86 22 80 23
REMARK SMILES IDX 79 24 35 26 67 27 47 28 66 29 48 30 51 31 65 32 84 33 49 34
REMARK SMILES IDX 50 35 64 37 85 38 52 39 36 40 37 41 45 42 38 43 40 44 46 45
REMARK SMILES IDX 39 46 41 47 42 48 43 49 44 50 68 51 69 52 77 53 70 54 72 55
REMARK SMILES IDX 78 56 71 57 73 58 74 59 75 60 76 61 53 62 54 63 62 64 55 65
REMARK SMILES IDX 57 66 63 67 56 68 58 69 59 70 60 71 61 72 7 73 8 74 9 75
REMARK SMILES IDX 10 77 11 78 12 79 26 80 13 81 14 82 15 83 16 84 17 86 18 87
REMARK SMILES IDX 22 88 19 89 21 90 20 91 23 92 24 93 25 94
REMARK H PARENT 3 7 83 25 51 36 8 76 16 85
REMARK Flexibility Score: inf
ROOT
ATOM      1  C   UNL A   1      31.498  30.602  26.562  1.00  0.00     0.023 C 
ENDROOT
BRANCH   1   2
ATOM      2  C   UNL A   1      31.372  32.119  26.631  1.00  0.00     0.023 C 
BRANCH   2   3
ATOM      3  C   UNL A   1      32.671  32.871  26.899  1.00  0.00     0.116 C 
BRANCH   3   4
ATOM      4  N   UNL A   1      32.523  34.107  27.657  1.00  0.00    -0.352 N 
ATOM      5  O   UNL A   1      33.146  35.646  29.213  1.00  0.00    -0.269 OA
ATOM      6  C   UNL A   1      33.359  34.577  28.649  1.00  0.00     0.251 C 
ATOM      7  H   UNL A   1      31.742  34.666  27.439  1.00  0.00     0.163 HD
BRANCH   6   8
ATOM      8  C   UNL A   1      34.502  33.733  29.051  1.00  0.00     0.039 A 
ATOM      9  C   UNL A   1      34.286  32.582  29.811  1.00  0.00     0.014 A 
ATOM     10  C   UNL A   1      35.799  34.168  28.767  1.00  0.00     0.014 A 
ATOM     11  C   UNL A   1      35.367  31.957  30.422  1.00  0.00     0.010 A 
ATOM     12  C   UNL A   1      36.887  33.486  29.316  1.00  0.00     0.010 A 
ATOM     13  C   UNL A   1      36.679  32.404  30.184  1.00  0.00    -0.014 A 
BRANCH  13  14
ATOM     14  C   UNL A   1      37.818  31.683  30.808  1.00  0.00     0.031 A 
ATOM     15  C   UNL A   1      38.612  30.654  30.050  1.00  0.00     0.074 A 
ATOM     16  C   UNL A   1      38.131  31.973  32.086  1.00  0.00     0.049 A 
ATOM     17  N   UNL A   1      39.645  29.957  30.452  1.00  0.00    -0.248 NA
ATOM     18  C   UNL A   1      38.196  30.358  28.669  1.00  0.00     0.031 C 
ATOM     19  C   UNL A   1      37.399  32.917  32.935  1.00  0.00     0.029 A 
ATOM     20  N   UNL A   1      39.137  31.510  32.895  1.00  0.00    -0.354 N 
ATOM     21  C   UNL A   1      39.975  29.112  29.399  1.00  0.00     0.074 A 
ATOM     22  C   UNL A   1      39.034  29.383  28.333  1.00  0.00     0.031 C 
ATOM     23  C   UNL A   1      37.993  32.983  34.134  1.00  0.00     0.029 A 
ATOM     24  C   UNL A   1      39.116  32.052  34.159  1.00  0.00     0.049 A 
ATOM     25  H   UNL A   1      39.808  30.854  32.599  1.00  0.00     0.167 HD
ATOM     26  C   UNL A   1      40.982  28.208  29.323  1.00  0.00     0.034 A 
ATOM     27  C   UNL A   1      39.903  31.819  35.225  1.00  0.00     0.034 A 
ATOM     28  C   UNL A   1      41.948  27.983  30.367  1.00  0.00     0.049 A 
ATOM     29  C   UNL A   1      41.037  30.846  35.092  1.00  0.00     0.074 A 
ATOM     30  C   UNL A   1      43.050  27.145  30.350  1.00  0.00     0.029 A 
ATOM     31  N   UNL A   1      41.928  28.592  31.611  1.00  0.00    -0.354 N 
ATOM     32  N   UNL A   1      41.414  30.162  34.039  1.00  0.00    -0.248 NA
ATOM     33  C   UNL A   1      41.869  30.630  36.283  1.00  0.00     0.031 C 
ATOM     34  C   UNL A   1      43.692  27.241  31.591  1.00  0.00     0.029 A 
ATOM     35  C   UNL A   1      42.993  28.145  32.375  1.00  0.00     0.049 A 
ATOM     36  H   UNL A   1      41.257  29.248  31.908  1.00  0.00     0.167 HD
ATOM     37  C   UNL A   1      42.536  29.446  34.434  1.00  0.00     0.074 A 
ATOM     38  C   UNL A   1      42.797  29.806  35.814  1.00  0.00     0.031 C 
ATOM     39  C   UNL A   1      43.267  28.550  33.729  1.00  0.00     0.034 A 
BRANCH  26  40
ATOM     40  C   UNL A   1      41.137  27.418  28.049  1.00  0.00     0.023 A 
ATOM     41  C   UNL A   1      41.708  28.037  26.919  1.00  0.00     0.012 A 
ATOM     42  C   UNL A   1      40.827  26.044  28.003  1.00  0.00     0.148 A 
ATOM     43  C   UNL A   1      41.956  27.305  25.758  1.00  0.00     0.002 A 
ATOM     44  C   UNL A   1      41.106  25.313  26.853  1.00  0.00     0.091 A 
ATOM     45  F   UNL A   1      40.268  25.479  29.082  1.00  0.00    -0.205 F 
ATOM     46  C   UNL A   1      41.666  25.943  25.728  1.00  0.00     0.022 A 
BRANCH  44  47
ATOM     47  S   UNL A   1      40.837  23.540  26.740  1.00  0.00     0.127 S 
ATOM     48  O   UNL A   1      41.741  23.173  25.651  1.00  0.00    -0.237 OA
ATOM     49  O   UNL A   1      41.256  23.077  28.062  1.00  0.00    -0.237 OA
ATOM     50  O   UNL A   1      39.418  23.368  26.460  1.00  0.00    -0.744 OA
ENDBRANCH  44  47
ENDBRANCH  26  40
BRANCH  27  51
ATOM     51  C   UNL A   1      39.665  32.570  36.488  1.00  0.00     0.023 A 
ATOM     52  C   UNL A   1      40.337  33.786  36.709  1.00  0.00     0.012 A 
ATOM     53  C   UNL A   1      38.725  32.122  37.437  1.00  0.00     0.148 A 
ATOM     54  C   UNL A   1      40.091  34.534  37.861  1.00  0.00     0.002 A 
ATOM     55  C   UNL A   1      38.439  32.903  38.550  1.00  0.00     0.091 A 
ATOM     56  F   UNL A   1      38.110  30.950  37.224  1.00  0.00    -0.205 F 
ATOM     57  C   UNL A   1      39.131  34.102  38.773  1.00  0.00     0.022 A 
BRANCH  55  58
ATOM     58  S   UNL A   1      37.097  32.478  39.666  1.00  0.00     0.127 S 
ATOM     59  O   UNL A   1      35.938  32.531  38.781  1.00  0.00    -0.237 OA
ATOM     60  O   UNL A   1      37.472  31.135  40.112  1.00  0.00    -0.237 OA
ATOM     61  O   UNL A   1      37.153  33.485  40.719  1.00  0.00    -0.744 OA
ENDBRANCH  55  58
ENDBRANCH  27  51
BRANCH  39  62
ATOM     62  C   UNL A   1      44.425  27.899  34.434  1.00  0.00     0.023 A 
ATOM     63  C   UNL A   1      45.678  28.544  34.444  1.00  0.00     0.012 A 
ATOM     64  C   UNL A   1      44.264  26.686  35.130  1.00  0.00     0.148 A 
ATOM     65  C   UNL A   1      46.761  27.977  35.113  1.00  0.00     0.002 A 
ATOM     66  C   UNL A   1      45.338  26.147  35.830  1.00  0.00     0.091 A 
ATOM     67  F   UNL A   1      43.070  26.076  35.089  1.00  0.00    -0.205 F 
ATOM     68  C   UNL A   1      46.589  26.786  35.814  1.00  0.00     0.022 A 
BRANCH  66  69
ATOM     69  S   UNL A   1      45.177  24.660  36.823  1.00  0.00     0.127 S 
ATOM     70  O   UNL A   1      44.598  23.721  35.866  1.00  0.00    -0.237 OA
ATOM     71  O   UNL A   1      46.564  24.376  37.194  1.00  0.00    -0.237 OA
ATOM     72  O   UNL A   1      44.321  25.027  37.945  1.00  0.00    -0.744 OA
ENDBRANCH  66  69
ENDBRANCH  39  62
ENDBRANCH  13  14
ENDBRANCH   6   8
ENDBRANCH   3   4
ENDBRANCH   2   3
ENDBRANCH   1   2
BRANCH   1  73
ATOM     73  C   UNL A   1      31.332  30.020  25.163  1.00  0.00     0.116 C 
BRANCH  73  74
ATOM     74  N   UNL A   1      32.400  29.124  24.787  1.00  0.00    -0.354 N 
ATOM     75  C   UNL A   1      32.441  27.760  24.840  1.00  0.00     0.249 C 
ATOM     76  H   UNL A   1      33.213  29.557  24.441  1.00  0.00     0.163 HD
ATOM     77  O   UNL A   1      33.438  27.201  24.370  1.00  0.00    -0.272 OA
BRANCH  75  78
ATOM     78  C   UNL A   1      31.335  26.918  25.534  1.00  0.00     0.207 C 
ATOM     79  C   UNL A   1      30.514  26.114  24.537  1.00  0.00     0.045 C 
ATOM     80  O   UNL A   1      31.730  26.034  26.581  1.00  0.00    -0.363 OA
ATOM     81  C   UNL A   1      30.855  24.674  24.842  1.00  0.00     0.037 C 
ATOM     82  C   UNL A   1      31.206  24.703  26.322  1.00  0.00     0.138 C 
BRANCH  82  83
ATOM     83  C   UNL A   1      32.246  23.623  26.740  1.00  0.00     0.145 C 
BRANCH  83  84
ATOM     84  N   UNL A   1      33.186  23.409  25.645  1.00  0.00    -0.377 N 
ATOM     85  H   UNL A   1      33.165  24.107  24.950  1.00  0.00     0.160 HD
BRANCH  84  86
ATOM     86  C   UNL A   1      34.099  22.402  25.412  1.00  0.00     0.113 A 
ATOM     87  C   UNL A   1      35.446  22.726  25.677  1.00  0.00     0.033 A 
ATOM     88  C   UNL A   1      33.874  21.079  25.001  1.00  0.00     0.292 A 
ATOM     89  C   UNL A   1      36.489  21.800  25.544  1.00  0.00     0.003 A 
ATOM     90  C   UNL A   1      34.907  20.130  24.872  1.00  0.00     0.088 A 
ATOM     91  C   UNL A   1      36.219  20.497  25.149  1.00  0.00     0.007 A 
BRANCH  88  92
ATOM     92  N   UNL A   1      32.561  20.624  24.615  1.00  0.00     0.064 N 
ATOM     93  O   UNL A   1      32.157  19.566  25.118  1.00  0.00    -0.258 OA
ATOM     94  O   UNL A   1      31.928  21.333  23.816  1.00  0.00    -0.258 OA
ENDBRANCH  88  92
ENDBRANCH  84  86
ENDBRANCH  83  84
ENDBRANCH  82  83
ENDBRANCH  75  78
ENDBRANCH  73  74
ENDBRANCH   1  73
TORSDOF 18
ENDMDL
