MODEL 1
REMARK VINA RESULT:     -12.3      0.000      0.000
REMARK SMILES C[NH+]1CCC([NH+]2CCC(Oc3ccc4ccccc4c3)(C(=O)NCCCCNC(=O)c3ccc(-c4c5nc(c(-c6cccc(S(=O)(=O)[O-])c6F)c6ccc([nH]6)c(-c6cccc(S(=O)(=O)[O-])c6F)c6nc(c(-c7cccc(S(=O)(=O)[O-])c7F)c7ccc4[nH]7)C=C6)C=C5)cc3)CC2)CC1
REMARK SMILES IDX 26 1 25 2 24 3 23 4 21 5 22 6 9 8 6 9 7 10 95 11 8 13 94 14
REMARK SMILES IDX 5 15 1 16 2 17 3 18 97 19 4 21 96 22 10 23 11 24 12 25 20 26
REMARK SMILES IDX 13 27 19 28 14 29 18 30 15 31 17 32 16 33 27 34 28 35 29 36
REMARK SMILES IDX 30 38 31 39 32 40 93 41 33 42 92 43 34 44 35 45 36 46 86 47
REMARK SMILES IDX 37 48 91 49 85 50 87 51 38 52 90 53 84 54 83 55 39 57 71 58
REMARK SMILES IDX 51 59 70 60 52 61 55 62 69 63 88 64 53 65 54 66 68 68 89 69
REMARK SMILES IDX 56 70 40 71 41 72 49 73 42 74 44 75 50 76 43 77 45 78 46 79
REMARK SMILES IDX 47 80 48 81 72 82 73 83 81 84 74 85 76 86 82 87 75 88 77 89
REMARK SMILES IDX 78 90 79 91 80 92 57 93 58 94 66 95 59 96 61 97 67 98 60 99
REMARK SMILES IDX 62 100 63 101 64 102 65 103
REMARK H PARENT 23 7 6 12 2 20 28 37 87 56 55 67
REMARK Flexibility Score: inf
ROOT
ATOM      1  C   UNL A   1      39.247  21.397  25.803  1.00  0.00     0.023 C 
ENDROOT
BRANCH   1   2
ATOM      2  C   UNL A   1      39.147  22.747  26.512  1.00  0.00     0.023 C 
BRANCH   2   3
ATOM      3  C   UNL A   1      38.013  23.643  26.014  1.00  0.00     0.116 C 
BRANCH   3   4
ATOM      4  N   UNL A   1      37.665  23.343  24.638  1.00  0.00    -0.353 N 
ATOM      5  C   UNL A   1      36.444  23.294  24.027  1.00  0.00     0.264 C 
ATOM      6  O   UNL A   1      36.453  23.081  22.809  1.00  0.00    -0.270 OA
ATOM      7  H   UNL A   1      38.431  23.142  24.052  1.00  0.00     0.163 HD
BRANCH   5   8
ATOM      8  C   UNL A   1      35.122  23.499  24.828  1.00  0.00     0.197 C 
ATOM      9  N   UNL A   1      33.879  20.827  24.898  1.00  0.00    -0.332 N 
ATOM     10  C   UNL A   1      35.097  21.123  25.657  1.00  0.00     0.267 C 
ATOM     11  C   UNL A   1      33.817  21.627  23.660  1.00  0.00     0.267 C 
ATOM     12  H   UNL A   1      33.091  21.108  25.482  1.00  0.00     0.348 HD
ATOM     13  C   UNL A   1      35.069  22.588  26.057  1.00  0.00     0.120 C 
ATOM     14  C   UNL A   1      33.919  23.142  23.928  1.00  0.00     0.120 C 
BRANCH   9  15
ATOM     15  C   UNL A   1      33.676  19.376  24.656  1.00  0.00     0.195 C 
ATOM     16  C   UNL A   1      33.528  15.130  25.400  1.00  0.00     0.332 C 
ATOM     17  N   UNL A   1      33.731  16.573  25.491  1.00  0.00    -0.337 N 
ATOM     18  C   UNL A   1      32.452  17.289  25.437  1.00  0.00     0.268 C 
ATOM     19  C   UNL A   1      34.638  17.042  24.438  1.00  0.00     0.268 C 
ATOM     20  H   UNL A   1      34.162  16.771  26.393  1.00  0.00     0.347 HD
ATOM     21  C   UNL A   1      32.670  18.783  25.666  1.00  0.00     0.126 C 
ATOM     22  C   UNL A   1      34.959  18.526  24.625  1.00  0.00     0.126 C 
ENDBRANCH   9  15
BRANCH   8  23
ATOM     23  O   UNL A   1      35.194  24.920  25.109  1.00  0.00    -0.477 OA
BRANCH  23  24
ATOM     24  C   UNL A   1      34.061  25.673  25.055  1.00  0.00     0.121 A 
ATOM     25  C   UNL A   1      33.174  25.772  26.121  1.00  0.00     0.047 A 
ATOM     26  C   UNL A   1      33.898  26.493  23.940  1.00  0.00     0.055 A 
ATOM     27  C   UNL A   1      32.046  26.586  26.022  1.00  0.00     0.012 A 
ATOM     28  C   UNL A   1      32.793  27.355  23.843  1.00  0.00    -0.015 A 
ATOM     29  C   UNL A   1      31.839  27.378  24.886  1.00  0.00    -0.018 A 
ATOM     30  C   UNL A   1      32.618  28.205  22.739  1.00  0.00     0.009 A 
ATOM     31  C   UNL A   1      30.716  28.212  24.779  1.00  0.00     0.009 A 
ATOM     32  C   UNL A   1      31.507  29.045  22.657  1.00  0.00     0.001 A 
ATOM     33  C   UNL A   1      30.551  29.040  23.670  1.00  0.00     0.001 A 
ENDBRANCH  23  24
ENDBRANCH   8  23
ENDBRANCH   5   8
ENDBRANCH   3   4
ENDBRANCH   2   3
ENDBRANCH   1   2
BRANCH   1  34
ATOM     34  C   UNL A   1      39.783  20.261  26.664  1.00  0.00     0.116 C 
BRANCH  34  35
ATOM     35  N   UNL A   1      40.970  19.638  26.100  1.00  0.00    -0.352 N 
ATOM     36  C   UNL A   1      42.201  20.197  25.863  1.00  0.00     0.251 C 
ATOM     37  H   UNL A   1      40.879  18.688  25.855  1.00  0.00     0.163 HD
ATOM     38  O   UNL A   1      43.053  19.563  25.245  1.00  0.00    -0.269 OA
BRANCH  36  39
ATOM     39  C   UNL A   1      42.484  21.568  26.335  1.00  0.00     0.039 A 
ATOM     40  C   UNL A   1      42.602  22.594  25.396  1.00  0.00     0.014 A 
ATOM     41  C   UNL A   1      42.628  21.842  27.698  1.00  0.00     0.014 A 
ATOM     42  C   UNL A   1      42.829  23.902  25.829  1.00  0.00     0.010 A 
ATOM     43  C   UNL A   1      42.761  23.155  28.131  1.00  0.00     0.010 A 
ATOM     44  C   UNL A   1      42.893  24.197  27.202  1.00  0.00    -0.014 A 
BRANCH  44  45
ATOM     45  C   UNL A   1      43.139  25.581  27.678  1.00  0.00     0.031 A 
ATOM     46  C   UNL A   1      44.542  26.132  27.702  1.00  0.00     0.074 A 
ATOM     47  C   UNL A   1      42.115  26.324  28.140  1.00  0.00     0.049 A 
ATOM     48  N   UNL A   1      44.959  27.309  28.091  1.00  0.00    -0.248 NA
ATOM     49  C   UNL A   1      45.622  25.234  27.258  1.00  0.00     0.031 C 
ATOM     50  C   UNL A   1      40.724  25.876  28.248  1.00  0.00     0.029 A 
ATOM     51  N   UNL A   1      42.088  27.608  28.623  1.00  0.00    -0.354 N 
ATOM     52  C   UNL A   1      46.344  27.279  27.974  1.00  0.00     0.074 A 
ATOM     53  C   UNL A   1      46.701  25.953  27.522  1.00  0.00     0.031 C 
ATOM     54  C   UNL A   1      39.979  26.874  28.751  1.00  0.00     0.029 A 
ATOM     55  C   UNL A   1      40.840  28.020  29.026  1.00  0.00     0.049 A 
ATOM     56  H   UNL A   1      42.888  28.179  28.677  1.00  0.00     0.167 HD
ATOM     57  C   UNL A   1      47.238  28.273  28.188  1.00  0.00     0.034 A 
ATOM     58  C   UNL A   1      40.435  29.190  29.557  1.00  0.00     0.034 A 
ATOM     59  C   UNL A   1      46.877  29.603  28.598  1.00  0.00     0.049 A 
ATOM     60  C   UNL A   1      41.441  30.295  29.738  1.00  0.00     0.074 A 
ATOM     61  C   UNL A   1      47.696  30.705  28.761  1.00  0.00     0.029 A 
ATOM     62  N   UNL A   1      45.590  30.009  28.916  1.00  0.00    -0.354 N 
ATOM     63  N   UNL A   1      42.725  30.298  29.472  1.00  0.00    -0.248 NA
ATOM     64  C   UNL A   1      40.932  31.575  30.252  1.00  0.00     0.031 C 
ATOM     65  C   UNL A   1      46.907  31.772  29.209  1.00  0.00     0.029 A 
ATOM     66  C   UNL A   1      45.592  31.344  29.283  1.00  0.00     0.049 A 
ATOM     67  H   UNL A   1      44.793  29.433  28.885  1.00  0.00     0.167 HD
ATOM     68  C   UNL A   1      43.170  31.587  29.746  1.00  0.00     0.074 A 
ATOM     69  C   UNL A   1      42.010  32.343  30.175  1.00  0.00     0.031 C 
ATOM     70  C   UNL A   1      44.424  32.096  29.663  1.00  0.00     0.034 A 
BRANCH  57  71
ATOM     71  C   UNL A   1      48.694  27.969  27.939  1.00  0.00     0.023 A 
ATOM     72  C   UNL A   1      49.510  27.534  29.004  1.00  0.00     0.012 A 
ATOM     73  C   UNL A   1      49.243  28.067  26.645  1.00  0.00     0.148 A 
ATOM     74  C   UNL A   1      50.858  27.245  28.797  1.00  0.00     0.002 A 
ATOM     75  C   UNL A   1      50.575  27.727  26.437  1.00  0.00     0.091 A 
ATOM     76  F   UNL A   1      48.460  28.500  25.649  1.00  0.00    -0.205 F 
ATOM     77  C   UNL A   1      51.387  27.330  27.512  1.00  0.00     0.022 A 
BRANCH  75  78
ATOM     78  S   UNL A   1      51.331  27.721  24.808  1.00  0.00     0.127 S 
ATOM     79  O   UNL A   1      52.676  27.232  25.109  1.00  0.00    -0.237 OA
ATOM     80  O   UNL A   1      50.485  26.774  24.081  1.00  0.00    -0.237 OA
ATOM     81  O   UNL A   1      51.262  29.094  24.326  1.00  0.00    -0.744 OA
ENDBRANCH  75  78
ENDBRANCH  57  71
BRANCH  58  82
ATOM     82  C   UNL A   1      38.998  29.404  29.890  1.00  0.00     0.023 A 
ATOM     83  C   UNL A   1      38.530  29.094  31.182  1.00  0.00     0.012 A 
ATOM     84  C   UNL A   1      38.098  29.922  28.939  1.00  0.00     0.148 A 
ATOM     85  C   UNL A   1      37.184  29.255  31.509  1.00  0.00     0.002 A 
ATOM     86  C   UNL A   1      36.769  30.134  29.289  1.00  0.00     0.091 A 
ATOM     87  F   UNL A   1      38.561  30.204  27.714  1.00  0.00    -0.205 F 
ATOM     88  C   UNL A   1      36.305  29.782  30.566  1.00  0.00     0.022 A 
BRANCH  86  89
ATOM     89  S   UNL A   1      35.595  30.926  28.184  1.00  0.00     0.127 S 
ATOM     90  O   UNL A   1      36.358  32.080  27.716  1.00  0.00    -0.237 OA
ATOM     91  O   UNL A   1      35.376  29.883  27.182  1.00  0.00    -0.237 OA
ATOM     92  O   UNL A   1      34.428  31.229  29.001  1.00  0.00    -0.744 OA
ENDBRANCH  86  89
ENDBRANCH  58  82
BRANCH  70  93
ATOM     93  C   UNL A   1      44.604  33.555  29.997  1.00  0.00     0.023 A 
ATOM     94  C   UNL A   1      44.959  33.944  31.304  1.00  0.00     0.012 A 
ATOM     95  C   UNL A   1      44.462  34.540  28.999  1.00  0.00     0.148 A 
ATOM     96  C   UNL A   1      45.119  35.292  31.624  1.00  0.00     0.002 A 
ATOM     97  C   UNL A   1      44.678  35.876  29.312  1.00  0.00     0.091 A 
ATOM     98  F   UNL A   1      44.106  34.155  27.764  1.00  0.00    -0.205 F 
ATOM     99  C   UNL A   1      44.989  36.256  30.627  1.00  0.00     0.022 A 
BRANCH  97 100
ATOM    100  S   UNL A   1      44.633  37.171  28.068  1.00  0.00     0.127 S 
ATOM    101  O   UNL A   1      45.618  36.691  27.101  1.00  0.00    -0.237 OA
ATOM    102  O   UNL A   1      43.245  37.109  27.606  1.00  0.00    -0.237 OA
ATOM    103  O   UNL A   1      44.982  38.404  28.762  1.00  0.00    -0.744 OA
ENDBRANCH  97 100
ENDBRANCH  70  93
ENDBRANCH  44  45
ENDBRANCH  36  39
ENDBRANCH  34  35
ENDBRANCH   1  34
TORSDOF 17
ENDMDL
MODEL 2
REMARK VINA RESULT:     -12.1      2.311      5.259
REMARK SMILES C[NH+]1CCC([NH+]2CCC(Oc3ccc4ccccc4c3)(C(=O)NCCCCNC(=O)c3ccc(-c4c5nc(c(-c6cccc(S(=O)(=O)[O-])c6F)c6ccc([nH]6)c(-c6cccc(S(=O)(=O)[O-])c6F)c6nc(c(-c7cccc(S(=O)(=O)[O-])c7F)c7ccc4[nH]7)C=C6)C=C5)cc3)CC2)CC1
REMARK SMILES IDX 26 1 25 2 24 3 23 4 21 5 22 6 9 8 6 9 7 10 95 11 8 13 94 14
REMARK SMILES IDX 5 15 1 16 2 17 3 18 97 19 4 21 96 22 10 23 11 24 12 25 20 26
REMARK SMILES IDX 13 27 19 28 14 29 18 30 15 31 17 32 16 33 27 34 28 35 29 36
REMARK SMILES IDX 30 38 31 39 32 40 93 41 33 42 92 43 34 44 35 45 36 46 86 47
REMARK SMILES IDX 37 48 91 49 85 50 87 51 38 52 90 53 84 54 83 55 39 57 71 58
REMARK SMILES IDX 51 59 70 60 52 61 55 62 69 63 88 64 53 65 54 66 68 68 89 69
REMARK SMILES IDX 56 70 40 71 41 72 49 73 42 74 44 75 50 76 43 77 45 78 46 79
REMARK SMILES IDX 47 80 48 81 72 82 73 83 81 84 74 85 76 86 82 87 75 88 77 89
REMARK SMILES IDX 78 90 79 91 80 92 57 93 58 94 66 95 59 96 61 97 67 98 60 99
REMARK SMILES IDX 62 100 63 101 64 102 65 103
REMARK H PARENT 23 7 6 12 2 20 28 37 87 56 55 67
REMARK Flexibility Score: inf
ROOT
ATOM      1  C   UNL A   1      35.814  22.094  24.302  1.00  0.00     0.023 C 
ENDROOT
BRANCH   1   2
ATOM      2  C   UNL A   1      35.889  23.486  23.677  1.00  0.00     0.023 C 
BRANCH   2   3
ATOM      3  C   UNL A   1      34.534  24.160  23.463  1.00  0.00     0.116 C 
BRANCH   3   4
ATOM      4  N   UNL A   1      34.223  25.078  24.542  1.00  0.00    -0.353 N 
ATOM      5  C   UNL A   1      33.093  25.197  25.301  1.00  0.00     0.264 C 
ATOM      6  O   UNL A   1      33.135  26.032  26.212  1.00  0.00    -0.270 OA
ATOM      7  H   UNL A   1      34.939  25.717  24.761  1.00  0.00     0.163 HD
BRANCH   5   8
ATOM      8  C   UNL A   1      31.830  24.325  25.027  1.00  0.00     0.197 C 
ATOM      9  N   UNL A   1      29.945  26.151  23.687  1.00  0.00    -0.332 N 
ATOM     10  C   UNL A   1      31.161  25.682  23.017  1.00  0.00     0.267 C 
ATOM     11  C   UNL A   1      30.148  26.255  25.144  1.00  0.00     0.267 C 
ATOM     12  H   UNL A   1      29.227  25.443  23.528  1.00  0.00     0.348 HD
ATOM     13  C   UNL A   1      31.488  24.292  23.535  1.00  0.00     0.120 C 
ATOM     14  C   UNL A   1      30.620  24.929  25.772  1.00  0.00     0.120 C 
BRANCH   9  15
ATOM     15  C   UNL A   1      29.390  27.394  23.093  1.00  0.00     0.195 C 
ATOM     16  C   UNL A   1      27.946  31.449  22.806  1.00  0.00     0.332 C 
ATOM     17  N   UNL A   1      28.441  30.156  23.270  1.00  0.00    -0.337 N 
ATOM     18  C   UNL A   1      29.779  29.881  22.738  1.00  0.00     0.268 C 
ATOM     19  C   UNL A   1      27.507  29.080  22.918  1.00  0.00     0.268 C 
ATOM     20  H   UNL A   1      28.510  30.195  24.286  1.00  0.00     0.347 HD
ATOM     21  C   UNL A   1      30.335  28.591  23.336  1.00  0.00     0.126 C 
ATOM     22  C   UNL A   1      27.958  27.753  23.530  1.00  0.00     0.126 C 
ENDBRANCH   9  15
BRANCH   8  23
ATOM     23  O   UNL A   1      32.249  23.058  25.597  1.00  0.00    -0.477 OA
BRANCH  23  24
ATOM     24  C   UNL A   1      32.240  21.938  24.823  1.00  0.00     0.121 A 
ATOM     25  C   UNL A   1      32.060  21.979  23.445  1.00  0.00     0.047 A 
ATOM     26  C   UNL A   1      32.592  20.739  25.440  1.00  0.00     0.055 A 
ATOM     27  C   UNL A   1      32.094  20.802  22.698  1.00  0.00     0.012 A 
ATOM     28  C   UNL A   1      32.679  19.551  24.696  1.00  0.00    -0.015 A 
ATOM     29  C   UNL A   1      32.396  19.580  23.311  1.00  0.00    -0.018 A 
ATOM     30  C   UNL A   1      33.051  18.336  25.291  1.00  0.00     0.009 A 
ATOM     31  C   UNL A   1      32.447  18.391  22.569  1.00  0.00     0.009 A 
ATOM     32  C   UNL A   1      33.120  17.164  24.536  1.00  0.00     0.001 A 
ATOM     33  C   UNL A   1      32.807  17.190  23.179  1.00  0.00     0.001 A 
ENDBRANCH  23  24
ENDBRANCH   8  23
ENDBRANCH   5   8
ENDBRANCH   3   4
ENDBRANCH   2   3
ENDBRANCH   1   2
BRANCH   1  34
ATOM     34  C   UNL A   1      36.475  21.969  25.668  1.00  0.00     0.116 C 
BRANCH  34  35
ATOM     35  N   UNL A   1      37.450  20.892  25.727  1.00  0.00    -0.352 N 
ATOM     36  C   UNL A   1      38.796  20.967  25.987  1.00  0.00     0.251 C 
ATOM     37  H   UNL A   1      37.099  19.988  25.556  1.00  0.00     0.163 HD
ATOM     38  O   UNL A   1      39.502  19.970  25.854  1.00  0.00    -0.269 OA
BRANCH  36  39
ATOM     39  C   UNL A   1      39.389  22.254  26.405  1.00  0.00     0.039 A 
ATOM     40  C   UNL A   1      40.410  22.249  27.357  1.00  0.00     0.014 A 
ATOM     41  C   UNL A   1      38.944  23.460  25.857  1.00  0.00     0.014 A 
ATOM     42  C   UNL A   1      41.008  23.453  27.732  1.00  0.00     0.010 A 
ATOM     43  C   UNL A   1      39.603  24.645  26.163  1.00  0.00     0.010 A 
ATOM     44  C   UNL A   1      40.622  24.660  27.125  1.00  0.00    -0.014 A 
BRANCH  44  45
ATOM     45  C   UNL A   1      41.245  25.949  27.517  1.00  0.00     0.031 A 
ATOM     46  C   UNL A   1      42.676  26.240  27.143  1.00  0.00     0.074 A 
ATOM     47  C   UNL A   1      40.548  26.834  28.256  1.00  0.00     0.049 A 
ATOM     48  N   UNL A   1      43.397  27.300  27.404  1.00  0.00    -0.248 NA
ATOM     49  C   UNL A   1      43.402  25.192  26.406  1.00  0.00     0.031 C 
ATOM     50  C   UNL A   1      39.185  26.634  28.753  1.00  0.00     0.029 A 
ATOM     51  N   UNL A   1      40.896  28.072  28.733  1.00  0.00    -0.354 N 
ATOM     52  C   UNL A   1      44.663  27.032  26.896  1.00  0.00     0.074 A 
ATOM     53  C   UNL A   1      44.626  25.692  26.355  1.00  0.00     0.031 C 
ATOM     54  C   UNL A   1      38.808  27.718  29.453  1.00  0.00     0.029 A 
ATOM     55  C   UNL A   1      39.910  28.675  29.476  1.00  0.00     0.049 A 
ATOM     56  H   UNL A   1      41.771  28.489  28.559  1.00  0.00     0.167 HD
ATOM     57  C   UNL A   1      45.750  27.837  26.852  1.00  0.00     0.034 A 
ATOM     58  C   UNL A   1      39.895  29.866  30.106  1.00  0.00     0.034 A 
ATOM     59  C   UNL A   1      45.772  29.185  27.354  1.00  0.00     0.049 A 
ATOM     60  C   UNL A   1      41.099  30.763  29.999  1.00  0.00     0.074 A 
ATOM     61  C   UNL A   1      46.795  30.113  27.282  1.00  0.00     0.029 A 
ATOM     62  N   UNL A   1      44.724  29.793  28.027  1.00  0.00    -0.354 N 
ATOM     63  N   UNL A   1      42.235  30.553  29.377  1.00  0.00    -0.248 NA
ATOM     64  C   UNL A   1      41.002  32.081  30.642  1.00  0.00     0.031 C 
ATOM     65  C   UNL A   1      46.376  31.275  27.941  1.00  0.00     0.029 A 
ATOM     66  C   UNL A   1      45.077  31.083  28.385  1.00  0.00     0.049 A 
ATOM     67  H   UNL A   1      43.857  29.371  28.222  1.00  0.00     0.167 HD
ATOM     68  C   UNL A   1      42.970  31.725  29.520  1.00  0.00     0.074 A 
ATOM     69  C   UNL A   1      42.139  32.648  30.265  1.00  0.00     0.031 C 
ATOM     70  C   UNL A   1      44.223  32.008  29.085  1.00  0.00     0.034 A 
BRANCH  57  71
ATOM     71  C   UNL A   1      46.995  27.295  26.196  1.00  0.00     0.023 A 
ATOM     72  C   UNL A   1      47.228  27.540  24.827  1.00  0.00     0.012 A 
ATOM     73  C   UNL A   1      47.956  26.585  26.942  1.00  0.00     0.148 A 
ATOM     74  C   UNL A   1      48.373  27.051  24.200  1.00  0.00     0.002 A 
ATOM     75  C   UNL A   1      49.120  26.144  26.322  1.00  0.00     0.091 A 
ATOM     76  F   UNL A   1      47.710  26.343  28.237  1.00  0.00    -0.205 F 
ATOM     77  C   UNL A   1      49.324  26.363  24.949  1.00  0.00     0.022 A 
BRANCH  75  78
ATOM     78  S   UNL A   1      50.445  25.324  27.215  1.00  0.00     0.127 S 
ATOM     79  O   UNL A   1      50.834  26.355  28.176  1.00  0.00    -0.237 OA
ATOM     80  O   UNL A   1      49.754  24.174  27.799  1.00  0.00    -0.237 OA
ATOM     81  O   UNL A   1      51.454  24.988  26.220  1.00  0.00    -0.744 OA
ENDBRANCH  75  78
ENDBRANCH  57  71
BRANCH  58  82
ATOM     82  C   UNL A   1      38.674  30.312  30.836  1.00  0.00     0.023 A 
ATOM     83  C   UNL A   1      38.535  30.013  32.206  1.00  0.00     0.012 A 
ATOM     84  C   UNL A   1      37.658  31.037  30.184  1.00  0.00     0.148 A 
ATOM     85  C   UNL A   1      37.388  30.392  32.904  1.00  0.00     0.002 A 
ATOM     86  C   UNL A   1      36.544  31.460  30.899  1.00  0.00     0.091 A 
ATOM     87  F   UNL A   1      37.806  31.305  28.879  1.00  0.00    -0.205 F 
ATOM     88  C   UNL A   1      36.396  31.122  32.253  1.00  0.00     0.022 A 
BRANCH  86  89
ATOM     89  S   UNL A   1      35.279  32.513  30.179  1.00  0.00     0.127 S 
ATOM     90  O   UNL A   1      34.817  31.700  29.057  1.00  0.00    -0.237 OA
ATOM     91  O   UNL A   1      34.328  32.638  31.284  1.00  0.00    -0.237 OA
ATOM     92  O   UNL A   1      35.954  33.754  29.824  1.00  0.00    -0.744 OA
ENDBRANCH  86  89
ENDBRANCH  58  82
BRANCH  70  93
ATOM     93  C   UNL A   1      44.759  33.390  29.361  1.00  0.00     0.023 A 
ATOM     94  C   UNL A   1      45.428  33.663  30.571  1.00  0.00     0.012 A 
ATOM     95  C   UNL A   1      44.633  34.411  28.397  1.00  0.00     0.148 A 
ATOM     96  C   UNL A   1      45.917  34.941  30.838  1.00  0.00     0.002 A 
ATOM     97  C   UNL A   1      45.174  35.666  28.647  1.00  0.00     0.091 A 
ATOM     98  F   UNL A   1      43.978  34.140  27.258  1.00  0.00    -0.205 F 
ATOM     99  C   UNL A   1      45.800  35.938  29.873  1.00  0.00     0.022 A 
BRANCH  97 100
ATOM    100  S   UNL A   1      45.158  36.977  27.419  1.00  0.00     0.127 S 
ATOM    101  O   UNL A   1      45.901  36.365  26.319  1.00  0.00    -0.237 OA
ATOM    102  O   UNL A   1      43.727  37.149  27.167  1.00  0.00    -0.237 OA
ATOM    103  O   UNL A   1      45.800  38.123  28.050  1.00  0.00    -0.744 OA
ENDBRANCH  97 100
ENDBRANCH  70  93
ENDBRANCH  44  45
ENDBRANCH  36  39
ENDBRANCH  34  35
ENDBRANCH   1  34
TORSDOF 17
ENDMDL
MODEL 3
REMARK VINA RESULT:     -12.0      1.866      7.420
REMARK SMILES C[NH+]1CCC([NH+]2CCC(Oc3ccc4ccccc4c3)(C(=O)NCCCCNC(=O)c3ccc(-c4c5nc(c(-c6cccc(S(=O)(=O)[O-])c6F)c6ccc([nH]6)c(-c6cccc(S(=O)(=O)[O-])c6F)c6nc(c(-c7cccc(S(=O)(=O)[O-])c7F)c7ccc4[nH]7)C=C6)C=C5)cc3)CC2)CC1
REMARK SMILES IDX 26 1 25 2 24 3 23 4 21 5 22 6 9 8 6 9 7 10 95 11 8 13 94 14
REMARK SMILES IDX 5 15 1 16 2 17 3 18 97 19 4 21 96 22 10 23 11 24 12 25 20 26
REMARK SMILES IDX 13 27 19 28 14 29 18 30 15 31 17 32 16 33 27 34 28 35 29 36
REMARK SMILES IDX 30 38 31 39 32 40 93 41 33 42 92 43 34 44 35 45 36 46 86 47
REMARK SMILES IDX 37 48 91 49 85 50 87 51 38 52 90 53 84 54 83 55 39 57 71 58
REMARK SMILES IDX 51 59 70 60 52 61 55 62 69 63 88 64 53 65 54 66 68 68 89 69
REMARK SMILES IDX 56 70 40 71 41 72 49 73 42 74 44 75 50 76 43 77 45 78 46 79
REMARK SMILES IDX 47 80 48 81 72 82 73 83 81 84 74 85 76 86 82 87 75 88 77 89
REMARK SMILES IDX 78 90 79 91 80 92 57 93 58 94 66 95 59 96 61 97 67 98 60 99
REMARK SMILES IDX 62 100 63 101 64 102 65 103
REMARK H PARENT 23 7 6 12 2 20 28 37 87 56 55 67
REMARK Flexibility Score: inf
ROOT
ATOM      1  C   UNL A   1      39.312  21.107  26.522  1.00  0.00     0.023 C 
ENDROOT
BRANCH   1   2
ATOM      2  C   UNL A   1      39.376  22.584  26.140  1.00  0.00     0.023 C 
BRANCH   2   3
ATOM      3  C   UNL A   1      38.015  23.235  25.888  1.00  0.00     0.116 C 
BRANCH   3   4
ATOM      4  N   UNL A   1      37.599  23.076  24.507  1.00  0.00    -0.353 N 
ATOM      5  C   UNL A   1      36.355  23.141  23.947  1.00  0.00     0.264 C 
ATOM      6  O   UNL A   1      36.306  23.037  22.716  1.00  0.00    -0.270 OA
ATOM      7  H   UNL A   1      38.330  22.891  23.874  1.00  0.00     0.163 HD
BRANCH   5   8
ATOM      8  C   UNL A   1      35.077  23.337  24.819  1.00  0.00     0.197 C 
ATOM      9  N   UNL A   1      33.817  20.673  24.894  1.00  0.00    -0.332 N 
ATOM     10  C   UNL A   1      35.075  20.944  25.596  1.00  0.00     0.267 C 
ATOM     11  C   UNL A   1      33.699  21.500  23.678  1.00  0.00     0.267 C 
ATOM     12  H   UNL A   1      33.063  20.945  25.524  1.00  0.00     0.348 HD
ATOM     13  C   UNL A   1      35.079  22.399  26.029  1.00  0.00     0.120 C 
ATOM     14  C   UNL A   1      33.827  23.008  23.974  1.00  0.00     0.120 C 
BRANCH   9  15
ATOM     15  C   UNL A   1      33.591  19.229  24.631  1.00  0.00     0.195 C 
ATOM     16  C   UNL A   1      33.399  14.973  25.304  1.00  0.00     0.332 C 
ATOM     17  N   UNL A   1      33.622  16.411  25.417  1.00  0.00    -0.337 N 
ATOM     18  C   UNL A   1      32.353  17.145  25.398  1.00  0.00     0.268 C 
ATOM     19  C   UNL A   1      34.517  16.887  24.356  1.00  0.00     0.268 C 
ATOM     20  H   UNL A   1      34.072  16.588  26.314  1.00  0.00     0.347 HD
ATOM     21  C   UNL A   1      32.595  18.632  25.648  1.00  0.00     0.126 C 
ATOM     22  C   UNL A   1      34.862  18.363  24.563  1.00  0.00     0.126 C 
ENDBRANCH   9  15
BRANCH   8  23
ATOM     23  O   UNL A   1      35.174  24.750  25.127  1.00  0.00    -0.477 OA
BRANCH  23  24
ATOM     24  C   UNL A   1      34.058  25.528  25.076  1.00  0.00     0.121 A 
ATOM     25  C   UNL A   1      33.157  25.619  26.132  1.00  0.00     0.047 A 
ATOM     26  C   UNL A   1      33.927  26.377  23.979  1.00  0.00     0.055 A 
ATOM     27  C   UNL A   1      32.048  26.457  26.037  1.00  0.00     0.012 A 
ATOM     28  C   UNL A   1      32.840  27.263  23.888  1.00  0.00    -0.015 A 
ATOM     29  C   UNL A   1      31.873  27.280  24.918  1.00  0.00    -0.018 A 
ATOM     30  C   UNL A   1      32.698  28.142  22.803  1.00  0.00     0.009 A 
ATOM     31  C   UNL A   1      30.768  28.139  24.816  1.00  0.00     0.009 A 
ATOM     32  C   UNL A   1      31.605  29.007  22.726  1.00  0.00     0.001 A 
ATOM     33  C   UNL A   1      30.635  28.996  23.725  1.00  0.00     0.001 A 
ENDBRANCH  23  24
ENDBRANCH   8  23
ENDBRANCH   5   8
ENDBRANCH   3   4
ENDBRANCH   2   3
ENDBRANCH   1   2
BRANCH   1  34
ATOM     34  C   UNL A   1      39.708  20.142  25.413  1.00  0.00     0.116 C 
BRANCH  34  35
ATOM     35  N   UNL A   1      40.650  19.126  25.858  1.00  0.00    -0.352 N 
ATOM     36  C   UNL A   1      41.935  19.289  26.310  1.00  0.00     0.251 C 
ATOM     37  H   UNL A   1      40.321  18.198  25.830  1.00  0.00     0.163 HD
ATOM     38  O   UNL A   1      42.643  18.304  26.510  1.00  0.00    -0.269 OA
BRANCH  36  39
ATOM     39  C   UNL A   1      42.466  20.649  26.533  1.00  0.00     0.039 A 
ATOM     40  C   UNL A   1      42.868  21.406  25.431  1.00  0.00     0.014 A 
ATOM     41  C   UNL A   1      42.561  21.180  27.822  1.00  0.00     0.014 A 
ATOM     42  C   UNL A   1      43.334  22.708  25.621  1.00  0.00     0.010 A 
ATOM     43  C   UNL A   1      42.936  22.506  28.000  1.00  0.00     0.010 A 
ATOM     44  C   UNL A   1      43.354  23.276  26.907  1.00  0.00    -0.014 A 
BRANCH  44  45
ATOM     45  C   UNL A   1      43.851  24.658  27.126  1.00  0.00     0.031 A 
ATOM     46  C   UNL A   1      42.921  25.718  27.655  1.00  0.00     0.074 A 
ATOM     47  C   UNL A   1      45.119  24.974  26.797  1.00  0.00     0.049 A 
ATOM     48  N   UNL A   1      43.164  26.980  27.902  1.00  0.00    -0.248 NA
ATOM     49  C   UNL A   1      41.527  25.319  27.914  1.00  0.00     0.031 C 
ATOM     50  C   UNL A   1      46.093  24.059  26.199  1.00  0.00     0.029 A 
ATOM     51  N   UNL A   1      45.802  26.160  26.906  1.00  0.00    -0.354 N 
ATOM     52  C   UNL A   1      41.953  27.528  28.308  1.00  0.00     0.074 A 
ATOM     53  C   UNL A   1      40.966  26.475  28.230  1.00  0.00     0.031 C 
ATOM     54  C   UNL A   1      47.250  24.713  26.006  1.00  0.00     0.029 A 
ATOM     55  C   UNL A   1      47.094  26.098  26.441  1.00  0.00     0.049 A 
ATOM     56  H   UNL A   1      45.402  26.978  27.281  1.00  0.00     0.167 HD
ATOM     57  C   UNL A   1      41.690  28.784  28.741  1.00  0.00     0.034 A 
ATOM     58  C   UNL A   1      48.045  27.049  26.374  1.00  0.00     0.034 A 
ATOM     59  C   UNL A   1      42.682  29.818  28.857  1.00  0.00     0.049 A 
ATOM     60  C   UNL A   1      47.740  28.423  26.907  1.00  0.00     0.074 A 
ATOM     61  C   UNL A   1      42.537  31.097  29.363  1.00  0.00     0.029 A 
ATOM     62  N   UNL A   1      44.003  29.693  28.455  1.00  0.00    -0.354 N 
ATOM     63  N   UNL A   1      46.629  28.879  27.435  1.00  0.00    -0.248 NA
ATOM     64  C   UNL A   1      48.836  29.402  26.878  1.00  0.00     0.031 C 
ATOM     65  C   UNL A   1      43.765  31.757  29.238  1.00  0.00     0.029 A 
ATOM     66  C   UNL A   1      44.684  30.874  28.693  1.00  0.00     0.049 A 
ATOM     67  H   UNL A   1      44.398  28.883  28.058  1.00  0.00     0.167 HD
ATOM     68  C   UNL A   1      46.904  30.182  27.837  1.00  0.00     0.074 A 
ATOM     69  C   UNL A   1      48.294  30.432  27.513  1.00  0.00     0.031 C 
ATOM     70  C   UNL A   1      46.079  31.094  28.410  1.00  0.00     0.034 A 
BRANCH  57  71
ATOM     71  C   UNL A   1      40.276  29.094  29.164  1.00  0.00     0.023 A 
ATOM     72  C   UNL A   1      39.321  29.463  28.194  1.00  0.00     0.012 A 
ATOM     73  C   UNL A   1      39.880  28.976  30.510  1.00  0.00     0.148 A 
ATOM     74  C   UNL A   1      38.008  29.753  28.561  1.00  0.00     0.002 A 
ATOM     75  C   UNL A   1      38.556  29.216  30.861  1.00  0.00     0.091 A 
ATOM     76  F   UNL A   1      40.804  28.644  31.422  1.00  0.00    -0.205 F 
ATOM     77  C   UNL A   1      37.623  29.618  29.892  1.00  0.00     0.022 A 
BRANCH  75  78
ATOM     78  S   UNL A   1      37.939  28.989  32.533  1.00  0.00     0.127 S 
ATOM     79  O   UNL A   1      38.109  27.548  32.716  1.00  0.00    -0.237 OA
ATOM     80  O   UNL A   1      38.859  29.816  33.314  1.00  0.00    -0.237 OA
ATOM     81  O   UNL A   1      36.560  29.456  32.520  1.00  0.00    -0.744 OA
ENDBRANCH  75  78
ENDBRANCH  57  71
BRANCH  58  82
ATOM     82  C   UNL A   1      49.398  26.719  25.844  1.00  0.00     0.023 A 
ATOM     83  C   UNL A   1      50.305  26.003  26.650  1.00  0.00     0.012 A 
ATOM     84  C   UNL A   1      49.787  27.102  24.546  1.00  0.00     0.148 A 
ATOM     85  C   UNL A   1      51.589  25.710  26.190  1.00  0.00     0.002 A 
ATOM     86  C   UNL A   1      51.048  26.756  24.072  1.00  0.00     0.091 A 
ATOM     87  F   UNL A   1      48.913  27.788  23.797  1.00  0.00    -0.205 F 
ATOM     88  C   UNL A   1      51.957  26.079  24.898  1.00  0.00     0.022 A 
BRANCH  86  89
ATOM     89  S   UNL A   1      51.563  27.076  22.381  1.00  0.00     0.127 S 
ATOM     90  O   UNL A   1      52.717  26.190  22.248  1.00  0.00    -0.237 OA
ATOM     91  O   UNL A   1      50.380  26.667  21.624  1.00  0.00    -0.237 OA
ATOM     92  O   UNL A   1      51.853  28.503  22.321  1.00  0.00    -0.744 OA
ENDBRANCH  86  89
ENDBRANCH  58  82
BRANCH  70  93
ATOM     93  C   UNL A   1      46.668  32.434  28.769  1.00  0.00     0.023 A 
ATOM     94  C   UNL A   1      47.222  32.645  30.048  1.00  0.00     0.012 A 
ATOM     95  C   UNL A   1      46.709  33.475  27.820  1.00  0.00     0.148 A 
ATOM     96  C   UNL A   1      47.760  33.885  30.392  1.00  0.00     0.002 A 
ATOM     97  C   UNL A   1      47.298  34.689  28.152  1.00  0.00     0.091 A 
ATOM     98  F   UNL A   1      46.161  33.264  26.614  1.00  0.00    -0.205 F 
ATOM     99  C   UNL A   1      47.808  34.902  29.442  1.00  0.00     0.022 A 
BRANCH  97 100
ATOM    100  S   UNL A   1      47.493  36.017  26.958  1.00  0.00     0.127 S 
ATOM    101  O   UNL A   1      48.094  35.314  25.826  1.00  0.00    -0.237 OA
ATOM    102  O   UNL A   1      46.111  36.447  26.743  1.00  0.00    -0.237 OA
ATOM    103  O   UNL A   1      48.340  37.012  27.602  1.00  0.00    -0.744 OA
ENDBRANCH  97 100
ENDBRANCH  70  93
ENDBRANCH  44  45
ENDBRANCH  36  39
ENDBRANCH  34  35
ENDBRANCH   1  34
TORSDOF 17
ENDMDL
