MODEL 1
REMARK VINA RESULT:     -13.2      0.000      0.000
REMARK SMILES Cc1ccc2c(c1)OCCN2c1sc(C(=O)NCCCCNC(=O)c2ccc(-c3c4nc(c(-c5cccc(S(=O)(=O)[O-])c5F)c5ccc([nH]5)c(-c5cccc(S(=O)(=O)[O-])c5F)c5nc(c(-c6cccc(S(=O)(=O)[O-])c6F)c6ccc3[nH]6)C=C5)C=C4)cc2)cc1C
REMARK SMILES IDX 20 1 19 2 18 3 17 4 15 5 16 6 14 8 12 9 13 10 89 11 88 12
REMARK SMILES IDX 90 13 11 14 1 15 2 16 3 17 7 18 4 19 6 20 5 21 8 22 9 23
REMARK SMILES IDX 10 24 21 25 22 26 23 27 24 29 25 30 26 31 87 32 27 33 86 34
REMARK SMILES IDX 28 35 29 36 30 37 80 38 31 39 85 40 79 41 81 42 32 43 84 44
REMARK SMILES IDX 78 45 77 46 33 48 65 49 45 50 64 51 46 52 49 53 63 54 82 55
REMARK SMILES IDX 47 56 48 57 62 59 83 60 50 61 34 62 35 63 43 64 36 65 38 66
REMARK SMILES IDX 44 67 37 68 39 69 40 70 41 71 42 72 66 73 67 74 75 75 68 76
REMARK SMILES IDX 70 77 76 78 69 79 71 80 72 81 73 82 74 83 51 84 52 85 60 86
REMARK SMILES IDX 53 87 55 88 61 89 54 90 56 91 57 92 58 93 59 94
REMARK H PARENT 17 7 22 28 81 47 49 58
REMARK Flexibility Score: inf
ROOT
ATOM      1  C   UNL A   1      31.386  29.800  25.271  1.00  0.00     0.023 C 
ENDROOT
BRANCH   1   2
ATOM      2  C   UNL A   1      31.383  28.285  25.039  1.00  0.00     0.023 C 
BRANCH   2   3
ATOM      3  C   UNL A   1      31.773  27.465  26.268  1.00  0.00     0.116 C 
BRANCH   3   4
ATOM      4  N   UNL A   1      30.812  26.408  26.520  1.00  0.00    -0.351 N 
ATOM      5  C   UNL A   1      30.844  25.051  26.307  1.00  0.00     0.261 C 
ATOM      6  O   UNL A   1      29.850  24.439  26.711  1.00  0.00    -0.268 OA
ATOM      7  H   UNL A   1      29.972  26.726  26.922  1.00  0.00     0.163 HD
BRANCH   5   8
ATOM      8  C   UNL A   1      31.977  24.345  25.727  1.00  0.00     0.094 A 
ATOM      9  C   UNL A   1      33.851  22.815  25.152  1.00  0.00     0.099 A 
ATOM     10  S   UNL A   1      33.136  23.437  26.584  1.00  0.00    -0.112 S 
ATOM     11  C   UNL A   1      33.416  23.527  24.043  1.00  0.00    -0.015 A 
ATOM     12  C   UNL A   1      32.336  24.403  24.391  1.00  0.00     0.031 A 
ATOM     13  C   UNL A   1      33.916  23.379  22.646  1.00  0.00     0.047 C 
BRANCH   9  14
ATOM     14  N   UNL A   1      34.756  21.796  25.167  1.00  0.00    -0.327 N 
ATOM     15  C   UNL A   1      33.753  16.269  23.868  1.00  0.00     0.044 C 
ATOM     16  C   UNL A   1      34.009  17.701  24.231  1.00  0.00    -0.047 A 
ATOM     17  C   UNL A   1      32.964  18.626  24.239  1.00  0.00     0.006 A 
ATOM     18  C   UNL A   1      35.306  18.150  24.498  1.00  0.00     0.052 A 
ATOM     19  C   UNL A   1      33.207  19.974  24.536  1.00  0.00     0.030 A 
ATOM     20  C   UNL A   1      35.545  19.497  24.793  1.00  0.00     0.143 A 
ATOM     21  C   UNL A   1      34.494  20.439  24.847  1.00  0.00     0.085 A 
ATOM     22  O   UNL A   1      36.867  19.819  25.018  1.00  0.00    -0.490 OA
ATOM     23  C   UNL A   1      37.105  21.226  24.907  1.00  0.00     0.251 C 
ATOM     24  C   UNL A   1      36.092  22.028  25.715  1.00  0.00     0.165 C 
ENDBRANCH   9  14
ENDBRANCH   5   8
ENDBRANCH   3   4
ENDBRANCH   2   3
ENDBRANCH   1   2
BRANCH   1  25
ATOM     25  C   UNL A   1      32.283  30.283  26.406  1.00  0.00     0.116 C 
BRANCH  25  26
ATOM     26  N   UNL A   1      32.094  31.687  26.744  1.00  0.00    -0.352 N 
ATOM     27  C   UNL A   1      32.980  32.524  27.382  1.00  0.00     0.251 C 
ATOM     28  H   UNL A   1      31.231  32.084  26.485  1.00  0.00     0.163 HD
ATOM     29  O   UNL A   1      32.665  33.673  27.670  1.00  0.00    -0.269 OA
BRANCH  27  30
ATOM     30  C   UNL A   1      34.299  31.981  27.762  1.00  0.00     0.039 A 
ATOM     31  C   UNL A   1      34.437  30.620  28.050  1.00  0.00     0.014 A 
ATOM     32  C   UNL A   1      35.363  32.865  27.954  1.00  0.00     0.014 A 
ATOM     33  C   UNL A   1      35.589  30.172  28.686  1.00  0.00     0.010 A 
ATOM     34  C   UNL A   1      36.541  32.399  28.540  1.00  0.00     0.010 A 
ATOM     35  C   UNL A   1      36.638  31.063  28.965  1.00  0.00    -0.014 A 
BRANCH  35  36
ATOM     36  C   UNL A   1      37.810  30.602  29.748  1.00  0.00     0.031 A 
ATOM     37  C   UNL A   1      38.803  29.645  29.144  1.00  0.00     0.074 A 
ATOM     38  C   UNL A   1      37.994  31.058  31.001  1.00  0.00     0.049 A 
ATOM     39  N   UNL A   1      39.861  29.104  29.691  1.00  0.00    -0.248 NA
ATOM     40  C   UNL A   1      38.580  29.240  27.745  1.00  0.00     0.031 C 
ATOM     41  C   UNL A   1      37.099  31.982  31.698  1.00  0.00     0.029 A 
ATOM     42  N   UNL A   1      38.990  30.804  31.907  1.00  0.00    -0.354 N 
ATOM     43  C   UNL A   1      40.396  28.255  28.730  1.00  0.00     0.074 A 
ATOM     44  C   UNL A   1      39.555  28.360  27.557  1.00  0.00     0.031 C 
ATOM     45  C   UNL A   1      37.595  32.231  32.919  1.00  0.00     0.029 A 
ATOM     46  C   UNL A   1      38.816  31.450  33.106  1.00  0.00     0.049 A 
ATOM     47  H   UNL A   1      39.755  30.215  31.718  1.00  0.00     0.167 HD
ATOM     48  C   UNL A   1      41.497  27.472  28.811  1.00  0.00     0.034 A 
ATOM     49  C   UNL A   1      39.542  31.407  34.239  1.00  0.00     0.034 A 
ATOM     50  C   UNL A   1      42.377  27.423  29.946  1.00  0.00     0.049 A 
ATOM     51  C   UNL A   1      40.768  30.545  34.297  1.00  0.00     0.074 A 
ATOM     52  C   UNL A   1      43.563  26.722  30.084  1.00  0.00     0.029 A 
ATOM     53  N   UNL A   1      42.172  28.102  31.136  1.00  0.00    -0.354 N 
ATOM     54  N   UNL A   1      41.305  29.817  33.350  1.00  0.00    -0.248 NA
ATOM     55  C   UNL A   1      41.491  30.502  35.576  1.00  0.00     0.031 C 
ATOM     56  C   UNL A   1      44.074  26.977  31.361  1.00  0.00     0.029 A 
ATOM     57  C   UNL A   1      43.202  27.830  32.019  1.00  0.00     0.049 A 
ATOM     58  H   UNL A   1      41.405  28.691  31.326  1.00  0.00     0.167 HD
ATOM     59  C   UNL A   1      42.425  29.221  33.917  1.00  0.00     0.074 A 
ATOM     60  C   UNL A   1      42.508  29.702  35.282  1.00  0.00     0.031 C 
ATOM     61  C   UNL A   1      43.287  28.335  33.364  1.00  0.00     0.034 A 
BRANCH  48  62
ATOM     62  C   UNL A   1      41.849  26.633  27.615  1.00  0.00     0.023 A 
ATOM     63  C   UNL A   1      42.545  27.221  26.542  1.00  0.00     0.012 A 
ATOM     64  C   UNL A   1      41.557  25.256  27.586  1.00  0.00     0.148 A 
ATOM     65  C   UNL A   1      42.942  26.450  25.450  1.00  0.00     0.002 A 
ATOM     66  C   UNL A   1      41.975  24.489  26.505  1.00  0.00     0.091 A 
ATOM     67  F   UNL A   1      40.871  24.726  28.609  1.00  0.00    -0.205 F 
ATOM     68  C   UNL A   1      42.665  25.085  25.436  1.00  0.00     0.022 A 
BRANCH  66  69
ATOM     69  S   UNL A   1      41.705  22.715  26.412  1.00  0.00     0.127 S 
ATOM     70  O   UNL A   1      42.372  22.383  25.153  1.00  0.00    -0.237 OA
ATOM     71  O   UNL A   1      42.392  22.235  27.611  1.00  0.00    -0.237 OA
ATOM     72  O   UNL A   1      40.262  22.528  26.422  1.00  0.00    -0.744 OA
ENDBRANCH  66  69
ENDBRANCH  48  62
BRANCH  49  73
ATOM     73  C   UNL A   1      39.121  32.243  35.392  1.00  0.00     0.023 A 
ATOM     74  C   UNL A   1      38.312  31.676  36.393  1.00  0.00     0.012 A 
ATOM     75  C   UNL A   1      39.607  33.556  35.554  1.00  0.00     0.148 A 
ATOM     76  C   UNL A   1      37.996  32.400  37.541  1.00  0.00     0.002 A 
ATOM     77  C   UNL A   1      39.326  34.255  36.719  1.00  0.00     0.091 A 
ATOM     78  F   UNL A   1      40.372  34.070  34.582  1.00  0.00    -0.205 F 
ATOM     79  C   UNL A   1      38.513  33.683  37.711  1.00  0.00     0.022 A 
BRANCH  77  80
ATOM     80  S   UNL A   1      40.045  35.860  37.085  1.00  0.00     0.127 S 
ATOM     81  O   UNL A   1      41.466  35.535  37.188  1.00  0.00    -0.237 OA
ATOM     82  O   UNL A   1      39.673  36.628  35.898  1.00  0.00    -0.237 OA
ATOM     83  O   UNL A   1      39.417  36.305  38.321  1.00  0.00    -0.744 OA
ENDBRANCH  77  80
ENDBRANCH  49  73
BRANCH  61  84
ATOM     84  C   UNL A   1      44.384  27.795  34.238  1.00  0.00     0.023 A 
ATOM     85  C   UNL A   1      45.571  28.541  34.375  1.00  0.00     0.012 A 
ATOM     86  C   UNL A   1      44.214  26.615  34.984  1.00  0.00     0.148 A 
ATOM     87  C   UNL A   1      46.579  28.113  35.236  1.00  0.00     0.002 A 
ATOM     88  C   UNL A   1      45.213  26.208  35.863  1.00  0.00     0.091 A 
ATOM     89  F   UNL A   1      43.085  25.910  34.821  1.00  0.00    -0.205 F 
ATOM     90  C   UNL A   1      46.397  26.954  35.986  1.00  0.00     0.022 A 
BRANCH  88  91
ATOM     91  S   UNL A   1      45.026  24.767  36.918  1.00  0.00     0.127 S 
ATOM     92  O   UNL A   1      43.843  25.120  37.699  1.00  0.00    -0.237 OA
ATOM     93  O   UNL A   1      44.819  23.690  35.950  1.00  0.00    -0.237 OA
ATOM     94  O   UNL A   1      46.270  24.665  37.670  1.00  0.00    -0.744 OA
ENDBRANCH  88  91
ENDBRANCH  61  84
ENDBRANCH  35  36
ENDBRANCH  27  30
ENDBRANCH  25  26
ENDBRANCH   1  25
TORSDOF 15
ENDMDL
MODEL 2
REMARK VINA RESULT:     -13.1      1.751      2.153
REMARK SMILES Cc1ccc2c(c1)OCCN2c1sc(C(=O)NCCCCNC(=O)c2ccc(-c3c4nc(c(-c5cccc(S(=O)(=O)[O-])c5F)c5ccc([nH]5)c(-c5cccc(S(=O)(=O)[O-])c5F)c5nc(c(-c6cccc(S(=O)(=O)[O-])c6F)c6ccc3[nH]6)C=C5)C=C4)cc2)cc1C
REMARK SMILES IDX 20 1 19 2 18 3 17 4 15 5 16 6 14 8 12 9 13 10 89 11 88 12
REMARK SMILES IDX 90 13 11 14 1 15 2 16 3 17 7 18 4 19 6 20 5 21 8 22 9 23
REMARK SMILES IDX 10 24 21 25 22 26 23 27 24 29 25 30 26 31 87 32 27 33 86 34
REMARK SMILES IDX 28 35 29 36 30 37 80 38 31 39 85 40 79 41 81 42 32 43 84 44
REMARK SMILES IDX 78 45 77 46 33 48 65 49 45 50 64 51 46 52 49 53 63 54 82 55
REMARK SMILES IDX 47 56 48 57 62 59 83 60 50 61 34 62 35 63 43 64 36 65 38 66
REMARK SMILES IDX 44 67 37 68 39 69 40 70 41 71 42 72 66 73 67 74 75 75 68 76
REMARK SMILES IDX 70 77 76 78 69 79 71 80 72 81 73 82 74 83 51 84 52 85 60 86
REMARK SMILES IDX 53 87 55 88 61 89 54 90 56 91 57 92 58 93 59 94
REMARK H PARENT 17 7 22 28 81 47 49 58
REMARK Flexibility Score: inf
ROOT
ATOM      1  C   UNL A   1      32.503  29.690  25.129  1.00  0.00     0.023 C 
ENDROOT
BRANCH   1   2
ATOM      2  C   UNL A   1      33.633  28.719  24.770  1.00  0.00     0.023 C 
BRANCH   2   3
ATOM      3  C   UNL A   1      33.826  28.513  23.268  1.00  0.00     0.116 C 
BRANCH   3   4
ATOM      4  N   UNL A   1      32.558  28.285  22.602  1.00  0.00    -0.351 N 
ATOM      5  C   UNL A   1      31.692  27.218  22.590  1.00  0.00     0.261 C 
ATOM      6  O   UNL A   1      30.652  27.401  21.948  1.00  0.00    -0.268 OA
ATOM      7  H   UNL A   1      32.259  29.043  22.050  1.00  0.00     0.163 HD
BRANCH   5   8
ATOM      8  C   UNL A   1      31.911  25.983  23.330  1.00  0.00     0.094 A 
ATOM      9  C   UNL A   1      32.787  23.934  24.431  1.00  0.00     0.099 A 
ATOM     10  S   UNL A   1      33.088  24.803  22.981  1.00  0.00    -0.112 S 
ATOM     11  C   UNL A   1      31.603  24.359  25.016  1.00  0.00    -0.015 A 
ATOM     12  C   UNL A   1      31.111  25.542  24.371  1.00  0.00     0.031 A 
ATOM     13  C   UNL A   1      30.935  23.753  26.204  1.00  0.00     0.047 C 
BRANCH   9  14
ATOM     14  N   UNL A   1      33.605  22.936  24.871  1.00  0.00    -0.327 N 
ATOM     15  C   UNL A   1      33.276  17.346  23.496  1.00  0.00     0.044 C 
ATOM     16  C   UNL A   1      33.346  18.795  23.875  1.00  0.00    -0.047 A 
ATOM     17  C   UNL A   1      32.393  19.697  23.401  1.00  0.00     0.006 A 
ATOM     18  C   UNL A   1      34.405  19.281  24.648  1.00  0.00     0.052 A 
ATOM     19  C   UNL A   1      32.479  21.059  23.717  1.00  0.00     0.030 A 
ATOM     20  C   UNL A   1      34.489  20.643  24.962  1.00  0.00     0.143 A 
ATOM     21  C   UNL A   1      33.510  21.563  24.526  1.00  0.00     0.085 A 
ATOM     22  O   UNL A   1      35.588  21.001  25.713  1.00  0.00    -0.490 OA
ATOM     23  C   UNL A   1      35.844  22.409  25.656  1.00  0.00     0.251 C 
ATOM     24  C   UNL A   1      34.580  23.215  25.924  1.00  0.00     0.165 C 
ENDBRANCH   9  14
ENDBRANCH   5   8
ENDBRANCH   3   4
ENDBRANCH   2   3
ENDBRANCH   1   2
BRANCH   1  25
ATOM     25  C   UNL A   1      32.381  30.028  26.611  1.00  0.00     0.116 C 
BRANCH  25  26
ATOM     26  N   UNL A   1      32.217  31.450  26.875  1.00  0.00    -0.352 N 
ATOM     27  C   UNL A   1      33.129  32.309  27.443  1.00  0.00     0.251 C 
ATOM     28  H   UNL A   1      31.352  31.844  26.615  1.00  0.00     0.163 HD
ATOM     29  O   UNL A   1      32.836  33.477  27.673  1.00  0.00    -0.269 OA
BRANCH  27  30
ATOM     30  C   UNL A   1      34.451  31.770  27.819  1.00  0.00     0.039 A 
ATOM     31  C   UNL A   1      34.593  30.412  28.114  1.00  0.00     0.014 A 
ATOM     32  C   UNL A   1      35.515  32.657  28.001  1.00  0.00     0.014 A 
ATOM     33  C   UNL A   1      35.748  29.969  28.747  1.00  0.00     0.010 A 
ATOM     34  C   UNL A   1      36.696  32.196  28.583  1.00  0.00     0.010 A 
ATOM     35  C   UNL A   1      36.797  30.863  29.015  1.00  0.00    -0.014 A 
BRANCH  35  36
ATOM     36  C   UNL A   1      37.974  30.409  29.795  1.00  0.00     0.031 A 
ATOM     37  C   UNL A   1      38.981  29.473  29.181  1.00  0.00     0.074 A 
ATOM     38  C   UNL A   1      38.149  30.851  31.054  1.00  0.00     0.049 A 
ATOM     39  N   UNL A   1      40.045  28.939  29.723  1.00  0.00    -0.248 NA
ATOM     40  C   UNL A   1      38.767  29.082  27.777  1.00  0.00     0.031 C 
ATOM     41  C   UNL A   1      37.241  31.754  31.761  1.00  0.00     0.029 A 
ATOM     42  N   UNL A   1      39.147  30.599  31.959  1.00  0.00    -0.354 N 
ATOM     43  C   UNL A   1      40.594  28.110  28.754  1.00  0.00     0.074 A 
ATOM     44  C   UNL A   1      39.754  28.218  27.580  1.00  0.00     0.031 C 
ATOM     45  C   UNL A   1      37.730  31.994  32.986  1.00  0.00     0.029 A 
ATOM     46  C   UNL A   1      38.961  31.228  33.166  1.00  0.00     0.049 A 
ATOM     47  H   UNL A   1      39.920  30.023  31.764  1.00  0.00     0.167 HD
ATOM     48  C   UNL A   1      41.705  27.341  28.827  1.00  0.00     0.034 A 
ATOM     49  C   UNL A   1      39.686  31.181  34.299  1.00  0.00     0.034 A 
ATOM     50  C   UNL A   1      42.584  27.290  29.963  1.00  0.00     0.049 A 
ATOM     51  C   UNL A   1      40.924  30.334  34.350  1.00  0.00     0.074 A 
ATOM     52  C   UNL A   1      43.778  26.603  30.095  1.00  0.00     0.029 A 
ATOM     53  N   UNL A   1      42.367  27.951  31.161  1.00  0.00    -0.354 N 
ATOM     54  N   UNL A   1      41.473  29.626  33.395  1.00  0.00    -0.248 NA
ATOM     55  C   UNL A   1      41.644  30.286  35.629  1.00  0.00     0.031 C 
ATOM     56  C   UNL A   1      44.283  26.849  31.377  1.00  0.00     0.029 A 
ATOM     57  C   UNL A   1      43.399  27.682  32.043  1.00  0.00     0.049 A 
ATOM     58  H   UNL A   1      41.592  28.527  31.357  1.00  0.00     0.167 HD
ATOM     59  C   UNL A   1      42.599  29.039  33.956  1.00  0.00     0.074 A 
ATOM     60  C   UNL A   1      42.673  29.504  35.327  1.00  0.00     0.031 C 
ATOM     61  C   UNL A   1      43.475  28.171  33.395  1.00  0.00     0.034 A 
BRANCH  48  62
ATOM     62  C   UNL A   1      42.071  26.522  27.622  1.00  0.00     0.023 A 
ATOM     63  C   UNL A   1      42.756  27.134  26.555  1.00  0.00     0.012 A 
ATOM     64  C   UNL A   1      41.803  25.140  27.578  1.00  0.00     0.148 A 
ATOM     65  C   UNL A   1      43.165  26.383  25.454  1.00  0.00     0.002 A 
ATOM     66  C   UNL A   1      42.235  24.393  26.487  1.00  0.00     0.091 A 
ATOM     67  F   UNL A   1      41.128  24.587  28.594  1.00  0.00    -0.205 F 
ATOM     68  C   UNL A   1      42.913  25.013  25.424  1.00  0.00     0.022 A 
BRANCH  66  69
ATOM     69  S   UNL A   1      41.996  22.616  26.374  1.00  0.00     0.127 S 
ATOM     70  O   UNL A   1      42.661  22.153  27.592  1.00  0.00    -0.237 OA
ATOM     71  O   UNL A   1      40.538  22.498  26.393  1.00  0.00    -0.237 OA
ATOM     72  O   UNL A   1      42.623  22.206  25.126  1.00  0.00    -0.744 OA
ENDBRANCH  66  69
ENDBRANCH  48  62
BRANCH  49  73
ATOM     73  C   UNL A   1      39.251  31.997  35.462  1.00  0.00     0.023 A 
ATOM     74  C   UNL A   1      39.424  33.392  35.426  1.00  0.00     0.012 A 
ATOM     75  C   UNL A   1      38.571  31.409  36.548  1.00  0.00     0.148 A 
ATOM     76  C   UNL A   1      38.923  34.193  36.451  1.00  0.00     0.002 A 
ATOM     77  C   UNL A   1      38.035  32.216  37.542  1.00  0.00     0.091 A 
ATOM     78  F   UNL A   1      38.424  30.077  36.555  1.00  0.00    -0.205 F 
ATOM     79  C   UNL A   1      38.217  33.608  37.501  1.00  0.00     0.022 A 
BRANCH  77  80
ATOM     80  S   UNL A   1      37.007  31.571  38.866  1.00  0.00     0.127 S 
ATOM     81  O   UNL A   1      37.891  31.704  40.022  1.00  0.00    -0.237 OA
ATOM     82  O   UNL A   1      35.878  32.500  38.843  1.00  0.00    -0.237 OA
ATOM     83  O   UNL A   1      36.679  30.204  38.486  1.00  0.00    -0.744 OA
ENDBRANCH  77  80
ENDBRANCH  49  73
BRANCH  61  84
ATOM     84  C   UNL A   1      44.576  27.635  34.264  1.00  0.00     0.023 A 
ATOM     85  C   UNL A   1      45.772  28.372  34.373  1.00  0.00     0.012 A 
ATOM     86  C   UNL A   1      44.405  26.470  35.032  1.00  0.00     0.148 A 
ATOM     87  C   UNL A   1      46.787  27.949  35.229  1.00  0.00     0.002 A 
ATOM     88  C   UNL A   1      45.411  26.068  35.905  1.00  0.00     0.091 A 
ATOM     89  F   UNL A   1      43.268  25.773  34.895  1.00  0.00    -0.205 F 
ATOM     90  C   UNL A   1      46.603  26.805  36.002  1.00  0.00     0.022 A 
BRANCH  88  91
ATOM     91  S   UNL A   1      45.223  24.647  36.987  1.00  0.00     0.127 S 
ATOM     92  O   UNL A   1      46.522  24.605  37.654  1.00  0.00    -0.237 OA
ATOM     93  O   UNL A   1      44.109  25.048  37.847  1.00  0.00    -0.237 OA
ATOM     94  O   UNL A   1      44.927  23.521  36.110  1.00  0.00    -0.744 OA
ENDBRANCH  88  91
ENDBRANCH  61  84
ENDBRANCH  35  36
ENDBRANCH  27  30
ENDBRANCH  25  26
ENDBRANCH   1  25
TORSDOF 15
ENDMDL
MODEL 3
REMARK VINA RESULT:     -13.1      5.013     10.358
REMARK SMILES Cc1ccc2c(c1)OCCN2c1sc(C(=O)NCCCCNC(=O)c2ccc(-c3c4nc(c(-c5cccc(S(=O)(=O)[O-])c5F)c5ccc([nH]5)c(-c5cccc(S(=O)(=O)[O-])c5F)c5nc(c(-c6cccc(S(=O)(=O)[O-])c6F)c6ccc3[nH]6)C=C5)C=C4)cc2)cc1C
REMARK SMILES IDX 20 1 19 2 18 3 17 4 15 5 16 6 14 8 12 9 13 10 89 11 88 12
REMARK SMILES IDX 90 13 11 14 1 15 2 16 3 17 7 18 4 19 6 20 5 21 8 22 9 23
REMARK SMILES IDX 10 24 21 25 22 26 23 27 24 29 25 30 26 31 87 32 27 33 86 34
REMARK SMILES IDX 28 35 29 36 30 37 80 38 31 39 85 40 79 41 81 42 32 43 84 44
REMARK SMILES IDX 78 45 77 46 33 48 65 49 45 50 64 51 46 52 49 53 63 54 82 55
REMARK SMILES IDX 47 56 48 57 62 59 83 60 50 61 34 62 35 63 43 64 36 65 38 66
REMARK SMILES IDX 44 67 37 68 39 69 40 70 41 71 42 72 66 73 67 74 75 75 68 76
REMARK SMILES IDX 70 77 76 78 69 79 71 80 72 81 73 82 74 83 51 84 52 85 60 86
REMARK SMILES IDX 53 87 55 88 61 89 54 90 56 91 57 92 58 93 59 94
REMARK H PARENT 17 7 22 28 81 47 49 58
REMARK Flexibility Score: inf
ROOT
ATOM      1  C   UNL A   1      35.887  21.358  25.532  1.00  0.00     0.023 C 
ENDROOT
BRANCH   1   2
ATOM      2  C   UNL A   1      35.051  22.223  26.481  1.00  0.00     0.023 C 
BRANCH   2   3
ATOM      3  C   UNL A   1      34.046  21.435  27.321  1.00  0.00     0.116 C 
BRANCH   3   4
ATOM      4  N   UNL A   1      33.320  20.477  26.509  1.00  0.00    -0.351 N 
ATOM      5  C   UNL A   1      32.520  20.613  25.401  1.00  0.00     0.261 C 
ATOM      6  O   UNL A   1      32.110  19.551  24.922  1.00  0.00    -0.268 OA
ATOM      7  H   UNL A   1      33.421  19.546  26.812  1.00  0.00     0.163 HD
BRANCH   5   8
ATOM      8  C   UNL A   1      32.222  21.889  24.764  1.00  0.00     0.094 A 
ATOM      9  C   UNL A   1      31.618  24.227  24.172  1.00  0.00     0.099 A 
ATOM     10  S   UNL A   1      31.127  23.061  25.334  1.00  0.00    -0.112 S 
ATOM     11  C   UNL A   1      32.377  23.629  23.176  1.00  0.00    -0.015 A 
ATOM     12  C   UNL A   1      32.718  22.283  23.532  1.00  0.00     0.031 A 
ATOM     13  C   UNL A   1      32.864  24.280  21.925  1.00  0.00     0.047 C 
BRANCH   9  14
ATOM     14  N   UNL A   1      31.239  25.534  24.240  1.00  0.00    -0.327 N 
ATOM     15  C   UNL A   1      34.155  29.847  26.718  1.00  0.00     0.044 C 
ATOM     16  C   UNL A   1      33.384  28.722  26.096  1.00  0.00    -0.047 A 
ATOM     17  C   UNL A   1      33.864  27.413  26.164  1.00  0.00     0.006 A 
ATOM     18  C   UNL A   1      32.212  28.971  25.377  1.00  0.00     0.052 A 
ATOM     19  C   UNL A   1      33.168  26.365  25.548  1.00  0.00     0.030 A 
ATOM     20  C   UNL A   1      31.519  27.921  24.761  1.00  0.00     0.143 A 
ATOM     21  C   UNL A   1      31.967  26.585  24.856  1.00  0.00     0.085 A 
ATOM     22  O   UNL A   1      30.389  28.297  24.066  1.00  0.00    -0.490 OA
ATOM     23  C   UNL A   1      29.965  27.289  23.142  1.00  0.00     0.251 C 
ATOM     24  C   UNL A   1      29.897  25.919  23.805  1.00  0.00     0.165 C 
ENDBRANCH   9  14
ENDBRANCH   5   8
ENDBRANCH   3   4
ENDBRANCH   2   3
ENDBRANCH   1   2
BRANCH   1  25
ATOM     25  C   UNL A   1      37.322  21.829  25.317  1.00  0.00     0.116 C 
BRANCH  25  26
ATOM     26  N   UNL A   1      38.316  20.785  25.523  1.00  0.00    -0.352 N 
ATOM     27  C   UNL A   1      39.510  20.885  26.200  1.00  0.00     0.251 C 
ATOM     28  H   UNL A   1      38.110  19.904  25.134  1.00  0.00     0.163 HD
ATOM     29  O   UNL A   1      40.292  19.942  26.240  1.00  0.00    -0.269 OA
BRANCH  27  30
ATOM     30  C   UNL A   1      39.847  22.178  26.828  1.00  0.00     0.039 A 
ATOM     31  C   UNL A   1      39.209  23.347  26.405  1.00  0.00     0.014 A 
ATOM     32  C   UNL A   1      40.898  22.228  27.746  1.00  0.00     0.014 A 
ATOM     33  C   UNL A   1      39.730  24.581  26.776  1.00  0.00     0.010 A 
ATOM     34  C   UNL A   1      41.381  23.469  28.163  1.00  0.00     0.010 A 
ATOM     35  C   UNL A   1      40.840  24.652  27.634  1.00  0.00    -0.014 A 
BRANCH  35  36
ATOM     36  C   UNL A   1      41.462  25.966  27.930  1.00  0.00     0.031 A 
ATOM     37  C   UNL A   1      40.704  27.011  28.704  1.00  0.00     0.074 A 
ATOM     38  C   UNL A   1      42.717  26.216  27.516  1.00  0.00     0.049 A 
ATOM     39  N   UNL A   1      41.070  28.227  29.019  1.00  0.00    -0.248 NA
ATOM     40  C   UNL A   1      39.360  26.647  29.187  1.00  0.00     0.031 C 
ATOM     41  C   UNL A   1      43.551  25.288  26.752  1.00  0.00     0.029 A 
ATOM     42  N   UNL A   1      43.508  27.324  27.677  1.00  0.00    -0.354 N 
ATOM     43  C   UNL A   1      39.988  28.792  29.683  1.00  0.00     0.074 A 
ATOM     44  C   UNL A   1      38.952  27.783  29.740  1.00  0.00     0.031 C 
ATOM     45  C   UNL A   1      44.743  25.858  26.524  1.00  0.00     0.029 A 
ATOM     46  C   UNL A   1      44.741  27.207  27.085  1.00  0.00     0.049 A 
ATOM     47  H   UNL A   1      43.219  28.127  28.168  1.00  0.00     0.167 HD
ATOM     48  C   UNL A   1      39.874  30.032  30.212  1.00  0.00     0.034 A 
ATOM     49  C   UNL A   1      45.753  28.089  26.985  1.00  0.00     0.034 A 
ATOM     50  C   UNL A   1      40.926  31.010  30.225  1.00  0.00     0.049 A 
ATOM     51  C   UNL A   1      45.608  29.452  27.596  1.00  0.00     0.074 A 
ATOM     52  C   UNL A   1      40.927  32.263  30.814  1.00  0.00     0.029 A 
ATOM     53  N   UNL A   1      42.164  30.847  29.626  1.00  0.00    -0.354 N 
ATOM     54  N   UNL A   1      44.611  29.936  28.294  1.00  0.00    -0.248 NA
ATOM     55  C   UNL A   1      46.727  30.386  27.411  1.00  0.00     0.031 C 
ATOM     56  C   UNL A   1      42.169  32.859  30.568  1.00  0.00     0.029 A 
ATOM     57  C   UNL A   1      42.936  31.980  29.821  1.00  0.00     0.049 A 
ATOM     58  H   UNL A   1      42.453  30.045  29.134  1.00  0.00     0.167 HD
ATOM     59  C   UNL A   1      44.975  31.234  28.626  1.00  0.00     0.074 A 
ATOM     60  C   UNL A   1      46.301  31.449  28.082  1.00  0.00     0.031 C 
ATOM     61  C   UNL A   1      44.263  32.171  29.297  1.00  0.00     0.034 A 
BRANCH  48  62
ATOM     62  C   UNL A   1      38.573  30.394  30.873  1.00  0.00     0.023 A 
ATOM     63  C   UNL A   1      38.318  29.947  32.183  1.00  0.00     0.012 A 
ATOM     64  C   UNL A   1      37.642  31.231  30.228  1.00  0.00     0.148 A 
ATOM     65  C   UNL A   1      37.149  30.323  32.843  1.00  0.00     0.002 A 
ATOM     66  C   UNL A   1      36.489  31.620  30.901  1.00  0.00     0.091 A 
ATOM     67  F   UNL A   1      37.897  31.622  28.972  1.00  0.00    -0.205 F 
ATOM     68  C   UNL A   1      36.241  31.165  32.207  1.00  0.00     0.022 A 
BRANCH  66  69
ATOM     69  S   UNL A   1      35.279  32.737  30.184  1.00  0.00     0.127 S 
ATOM     70  O   UNL A   1      34.759  31.935  29.077  1.00  0.00    -0.237 OA
ATOM     71  O   UNL A   1      34.341  32.929  31.291  1.00  0.00    -0.237 OA
ATOM     72  O   UNL A   1      36.014  33.932  29.798  1.00  0.00    -0.744 OA
ENDBRANCH  66  69
ENDBRANCH  48  62
BRANCH  49  73
ATOM     73  C   UNL A   1      47.001  27.672  26.295  1.00  0.00     0.023 A 
ATOM     74  C   UNL A   1      47.952  26.908  26.995  1.00  0.00     0.012 A 
ATOM     75  C   UNL A   1      47.195  27.936  24.925  1.00  0.00     0.148 A 
ATOM     76  C   UNL A   1      49.076  26.407  26.341  1.00  0.00     0.002 A 
ATOM     77  C   UNL A   1      48.293  27.397  24.269  1.00  0.00     0.091 A 
ATOM     78  F   UNL A   1      46.274  28.669  24.285  1.00  0.00    -0.205 F 
ATOM     79  C   UNL A   1      49.241  26.640  24.977  1.00  0.00     0.022 A 
BRANCH  77  80
ATOM     80  S   UNL A   1      48.528  27.534  22.493  1.00  0.00     0.127 S 
ATOM     81  O   UNL A   1      49.828  28.196  22.414  1.00  0.00    -0.237 OA
ATOM     82  O   UNL A   1      48.526  26.130  22.086  1.00  0.00    -0.237 OA
ATOM     83  O   UNL A   1      47.401  28.314  22.002  1.00  0.00    -0.744 OA
ENDBRANCH  77  80
ENDBRANCH  49  73
BRANCH  61  84
ATOM     84  C   UNL A   1      44.881  33.531  29.458  1.00  0.00     0.023 A 
ATOM     85  C   UNL A   1      45.665  33.788  30.600  1.00  0.00     0.012 A 
ATOM     86  C   UNL A   1      44.766  34.513  28.457  1.00  0.00     0.148 A 
ATOM     87  C   UNL A   1      46.318  35.010  30.748  1.00  0.00     0.002 A 
ATOM     88  C   UNL A   1      45.444  35.719  28.599  1.00  0.00     0.091 A 
ATOM     89  F   UNL A   1      43.998  34.254  27.390  1.00  0.00    -0.205 F 
ATOM     90  C   UNL A   1      46.217  35.970  29.744  1.00  0.00     0.022 A 
BRANCH  88  91
ATOM     91  S   UNL A   1      45.423  36.980  27.319  1.00  0.00     0.127 S 
ATOM     92  O   UNL A   1      46.194  38.053  27.944  1.00  0.00    -0.237 OA
ATOM     93  O   UNL A   1      46.098  36.313  26.205  1.00  0.00    -0.237 OA
ATOM     94  O   UNL A   1      44.016  37.273  27.078  1.00  0.00    -0.744 OA
ENDBRANCH  88  91
ENDBRANCH  61  84
ENDBRANCH  35  36
ENDBRANCH  27  30
ENDBRANCH  25  26
ENDBRANCH   1  25
TORSDOF 15
ENDMDL
