MODEL 1
REMARK VINA RESULT:     -12.5      0.000      0.000
REMARK SMILES Cc1cccc(-c2noc(C[N@@H+](C)Cc3ncccc3C(=O)NCCCCNC(=O)c3ccc(-c4c5nc(c(-c6cccc(S(=O)(=O)[O-])c6F)c6ccc([nH]6)c(-c6cccc(S(=O)(=O)[O-])c6F)c6nc(c(-c7cccc(S(=O)(=O)[O-])c7F)c7ccc4[nH]7)C=C6)C=C5)cc3)n2)c1
REMARK SMILES IDX 24 1 23 2 21 3 22 4 20 6 15 7 16 8 17 9 19 10 18 11 14 12
REMARK SMILES IDX 12 13 13 14 11 16 10 17 7 18 8 19 94 20 9 21 6 22 1 23 2 24
REMARK SMILES IDX 3 25 95 26 4 27 5 28 25 29 26 30 27 31 28 32 29 33 30 35
REMARK SMILES IDX 31 36 32 37 93 38 33 39 92 40 34 41 35 42 36 43 86 44 37 45
REMARK SMILES IDX 91 46 85 47 87 48 38 49 90 50 84 51 83 52 39 54 71 55 51 56
REMARK SMILES IDX 70 57 52 58 55 59 69 60 88 61 53 62 54 63 68 65 89 66 56 67
REMARK SMILES IDX 40 68 41 69 49 70 42 71 44 72 50 73 43 74 45 75 46 76 47 77
REMARK SMILES IDX 48 78 72 79 73 80 81 81 74 82 76 83 82 84 75 85 77 86 78 87
REMARK SMILES IDX 79 88 80 89 57 90 58 91 66 92 59 93 61 94 67 95 60 96 62 97
REMARK SMILES IDX 63 98 64 99 65 100
REMARK H PARENT 23 5 12 15 28 34 87 53 55 64
REMARK Flexibility Score: inf
ROOT
ATOM      1  C   UNL A   1      35.144  23.612  26.371  1.00  0.00     0.116 C 
ENDROOT
BRANCH   1   2
ATOM      2  N   UNL A   1      33.714  23.764  26.581  1.00  0.00    -0.352 N 
ATOM      3  C   UNL A   1      32.762  24.711  26.292  1.00  0.00     0.253 C 
ATOM      4  O   UNL A   1      31.622  24.383  26.618  1.00  0.00    -0.269 OA
ATOM      5  H   UNL A   1      33.328  22.991  27.051  1.00  0.00     0.163 HD
BRANCH   3   6
ATOM      6  C   UNL A   1      33.012  26.019  25.593  1.00  0.00     0.067 A 
ATOM      7  C   UNL A   1      32.686  26.232  24.234  1.00  0.00     0.107 A 
ATOM      8  N   UNL A   1      33.088  27.364  23.561  1.00  0.00    -0.254 NA
ATOM      9  C   UNL A   1      33.736  28.332  24.227  1.00  0.00     0.111 A 
ATOM     10  C   UNL A   1      33.608  27.106  26.249  1.00  0.00     0.017 A 
ATOM     11  C   UNL A   1      33.985  28.264  25.573  1.00  0.00     0.021 A 
BRANCH   7  12
ATOM     12  C   UNL A   1      31.856  25.288  23.365  1.00  0.00     0.320 C 
BRANCH  12  13
ATOM     13  N   UNL A   1      32.454  23.957  23.033  1.00  0.00    -0.325 N 
ATOM     14  C   UNL A   1      33.107  23.932  21.730  1.00  0.00     0.333 C 
ATOM     15  H   UNL A   1      33.183  23.816  23.732  1.00  0.00     0.348 HD
BRANCH  13  16
ATOM     16  C   UNL A   1      31.498  22.842  23.177  1.00  0.00     0.364 C 
BRANCH  16  17
ATOM     17  C   UNL A   1      32.010  21.694  23.983  1.00  0.00     0.282 A 
ATOM     18  C   UNL A   1      32.733  19.895  24.777  1.00  0.00     0.202 A 
ATOM     19  N   UNL A   1      32.312  20.570  25.860  1.00  0.00    -0.057 NA
ATOM     20  N   UNL A   1      32.616  20.591  23.594  1.00  0.00    -0.186 NA
ATOM     21  O   UNL A   1      31.829  21.764  25.333  1.00  0.00    -0.333 OA
BRANCH  18  22
ATOM     22  C   UNL A   1      33.291  18.556  24.846  1.00  0.00     0.023 A 
ATOM     23  C   UNL A   1      32.191  15.021  25.769  1.00  0.00     0.044 C 
ATOM     24  C   UNL A   1      33.032  16.182  25.329  1.00  0.00    -0.050 A 
ATOM     25  C   UNL A   1      34.358  15.970  24.930  1.00  0.00     0.003 A 
ATOM     26  C   UNL A   1      32.510  17.484  25.300  1.00  0.00     0.015 A 
ATOM     27  C   UNL A   1      35.146  17.035  24.493  1.00  0.00     0.001 A 
ATOM     28  C   UNL A   1      34.612  18.323  24.443  1.00  0.00     0.012 A 
ENDBRANCH  18  22
ENDBRANCH  16  17
ENDBRANCH  13  16
ENDBRANCH  12  13
ENDBRANCH   7  12
ENDBRANCH   3   6
ENDBRANCH   1   2
BRANCH   1  29
ATOM     29  C   UNL A   1      35.595  22.149  26.522  1.00  0.00     0.023 C 
BRANCH  29  30
ATOM     30  C   UNL A   1      36.487  21.624  25.389  1.00  0.00     0.023 C 
BRANCH  30  31
ATOM     31  C   UNL A   1      37.834  22.324  25.287  1.00  0.00     0.116 C 
BRANCH  31  32
ATOM     32  N   UNL A   1      38.799  21.938  26.306  1.00  0.00    -0.352 N 
ATOM     33  C   UNL A   1      39.749  22.700  26.967  1.00  0.00     0.251 C 
ATOM     34  H   UNL A   1      38.773  20.989  26.566  1.00  0.00     0.163 HD
ATOM     35  O   UNL A   1      40.606  22.116  27.627  1.00  0.00    -0.269 OA
BRANCH  33  36
ATOM     36  C   UNL A   1      39.648  24.184  26.992  1.00  0.00     0.039 A 
ATOM     37  C   UNL A   1      40.760  24.928  26.573  1.00  0.00     0.014 A 
ATOM     38  C   UNL A   1      38.593  24.824  27.632  1.00  0.00     0.014 A 
ATOM     39  C   UNL A   1      40.945  26.224  27.052  1.00  0.00     0.010 A 
ATOM     40  C   UNL A   1      38.818  26.060  28.197  1.00  0.00     0.010 A 
ATOM     41  C   UNL A   1      40.029  26.722  27.971  1.00  0.00    -0.014 A 
BRANCH  41  42
ATOM     42  C   UNL A   1      40.259  27.864  28.842  1.00  0.00     0.031 A 
ATOM     43  C   UNL A   1      39.415  29.064  28.743  1.00  0.00     0.074 A 
ATOM     44  C   UNL A   1      41.065  27.686  29.913  1.00  0.00     0.049 A 
ATOM     45  N   UNL A   1      39.660  30.172  29.353  1.00  0.00    -0.248 NA
ATOM     46  C   UNL A   1      38.228  29.111  27.904  1.00  0.00     0.031 C 
ATOM     47  C   UNL A   1      41.071  28.452  31.153  1.00  0.00     0.029 A 
ATOM     48  N   UNL A   1      42.211  26.889  29.998  1.00  0.00    -0.354 N 
ATOM     49  C   UNL A   1      38.530  30.954  29.254  1.00  0.00     0.074 A 
ATOM     50  C   UNL A   1      37.728  30.302  28.246  1.00  0.00     0.031 C 
ATOM     51  C   UNL A   1      42.273  28.319  31.734  1.00  0.00     0.029 A 
ATOM     52  C   UNL A   1      43.119  27.615  30.789  1.00  0.00     0.049 A 
ATOM     53  H   UNL A   1      42.352  26.004  29.591  1.00  0.00     0.167 HD
ATOM     54  C   UNL A   1      38.355  31.963  30.155  1.00  0.00     0.034 A 
ATOM     55  C   UNL A   1      44.332  28.051  30.338  1.00  0.00     0.034 A 
ATOM     56  C   UNL A   1      39.561  32.137  30.986  1.00  0.00     0.049 A 
ATOM     57  C   UNL A   1      44.518  29.555  30.460  1.00  0.00     0.074 A 
ATOM     58  C   UNL A   1      39.887  31.785  32.286  1.00  0.00     0.029 A 
ATOM     59  N   UNL A   1      40.746  32.542  30.385  1.00  0.00    -0.354 N 
ATOM     60  N   UNL A   1      43.589  30.392  30.829  1.00  0.00    -0.248 NA
ATOM     61  C   UNL A   1      45.769  30.235  30.148  1.00  0.00     0.031 C 
ATOM     62  C   UNL A   1      41.294  31.932  32.444  1.00  0.00     0.029 A 
ATOM     63  C   UNL A   1      41.820  32.398  31.250  1.00  0.00     0.049 A 
ATOM     64  H   UNL A   1      40.815  32.886  29.465  1.00  0.00     0.167 HD
ATOM     65  C   UNL A   1      44.026  31.688  30.682  1.00  0.00     0.074 A 
ATOM     66  C   UNL A   1      45.429  31.523  30.332  1.00  0.00     0.031 C 
ATOM     67  C   UNL A   1      43.168  32.755  30.806  1.00  0.00     0.034 A 
BRANCH  54  68
ATOM     68  C   UNL A   1      37.027  32.635  30.504  1.00  0.00     0.023 A 
ATOM     69  C   UNL A   1      36.525  32.432  31.812  1.00  0.00     0.012 A 
ATOM     70  C   UNL A   1      36.186  33.383  29.645  1.00  0.00     0.148 A 
ATOM     71  C   UNL A   1      35.248  32.849  32.210  1.00  0.00     0.002 A 
ATOM     72  C   UNL A   1      34.896  33.769  30.025  1.00  0.00     0.091 A 
ATOM     73  F   UNL A   1      36.631  33.792  28.460  1.00  0.00    -0.205 F 
ATOM     74  C   UNL A   1      34.420  33.495  31.307  1.00  0.00     0.022 A 
BRANCH  72  75
ATOM     75  S   UNL A   1      33.754  34.583  28.888  1.00  0.00     0.127 S 
ATOM     76  O   UNL A   1      33.472  33.518  27.924  1.00  0.00    -0.237 OA
ATOM     77  O   UNL A   1      32.633  34.926  29.761  1.00  0.00    -0.237 OA
ATOM     78  O   UNL A   1      34.474  35.720  28.325  1.00  0.00    -0.744 OA
ENDBRANCH  72  75
ENDBRANCH  54  68
BRANCH  55  79
ATOM     79  C   UNL A   1      44.920  27.181  29.278  1.00  0.00     0.023 A 
ATOM     80  C   UNL A   1      45.264  25.861  29.662  1.00  0.00     0.012 A 
ATOM     81  C   UNL A   1      44.751  27.466  27.911  1.00  0.00     0.148 A 
ATOM     82  C   UNL A   1      45.291  24.825  28.729  1.00  0.00     0.002 A 
ATOM     83  C   UNL A   1      44.788  26.425  26.983  1.00  0.00     0.091 A 
ATOM     84  F   UNL A   1      44.473  28.724  27.548  1.00  0.00    -0.205 F 
ATOM     85  C   UNL A   1      45.014  25.102  27.395  1.00  0.00     0.022 A 
BRANCH  83  86
ATOM     86  S   UNL A   1      44.408  26.699  25.246  1.00  0.00     0.127 S 
ATOM     87  O   UNL A   1      43.811  25.421  24.875  1.00  0.00    -0.237 OA
ATOM     88  O   UNL A   1      43.474  27.823  25.302  1.00  0.00    -0.237 OA
ATOM     89  O   UNL A   1      45.689  27.021  24.635  1.00  0.00    -0.744 OA
ENDBRANCH  83  86
ENDBRANCH  55  79
BRANCH  67  90
ATOM     90  C   UNL A   1      43.460  34.229  30.494  1.00  0.00     0.023 A 
ATOM     91  C   UNL A   1      43.755  35.186  31.481  1.00  0.00     0.012 A 
ATOM     92  C   UNL A   1      43.538  34.695  29.148  1.00  0.00     0.148 A 
ATOM     93  C   UNL A   1      44.103  36.510  31.173  1.00  0.00     0.002 A 
ATOM     94  C   UNL A   1      43.978  35.983  28.841  1.00  0.00     0.091 A 
ATOM     95  F   UNL A   1      43.146  33.907  28.137  1.00  0.00    -0.205 F 
ATOM     96  C   UNL A   1      44.244  36.902  29.852  1.00  0.00     0.022 A 
BRANCH  94  97
ATOM     97  S   UNL A   1      44.341  36.465  27.145  1.00  0.00     0.127 S 
ATOM     98  O   UNL A   1      43.005  36.546  26.560  1.00  0.00    -0.237 OA
ATOM     99  O   UNL A   1      45.005  37.759  27.323  1.00  0.00    -0.237 OA
ATOM    100  O   UNL A   1      45.210  35.417  26.631  1.00  0.00    -0.744 OA
ENDBRANCH  94  97
ENDBRANCH  67  90
ENDBRANCH  41  42
ENDBRANCH  33  36
ENDBRANCH  31  32
ENDBRANCH  30  31
ENDBRANCH  29  30
ENDBRANCH   1  29
TORSDOF 19
ENDMDL
MODEL 2
REMARK VINA RESULT:     -12.1      1.659      2.196
REMARK SMILES Cc1cccc(-c2noc(C[N@@H+](C)Cc3ncccc3C(=O)NCCCCNC(=O)c3ccc(-c4c5nc(c(-c6cccc(S(=O)(=O)[O-])c6F)c6ccc([nH]6)c(-c6cccc(S(=O)(=O)[O-])c6F)c6nc(c(-c7cccc(S(=O)(=O)[O-])c7F)c7ccc4[nH]7)C=C6)C=C5)cc3)n2)c1
REMARK SMILES IDX 24 1 23 2 21 3 22 4 20 6 15 7 16 8 17 9 19 10 18 11 14 12
REMARK SMILES IDX 12 13 13 14 11 16 10 17 7 18 8 19 94 20 9 21 6 22 1 23 2 24
REMARK SMILES IDX 3 25 95 26 4 27 5 28 25 29 26 30 27 31 28 32 29 33 30 35
REMARK SMILES IDX 31 36 32 37 93 38 33 39 92 40 34 41 35 42 36 43 86 44 37 45
REMARK SMILES IDX 91 46 85 47 87 48 38 49 90 50 84 51 83 52 39 54 71 55 51 56
REMARK SMILES IDX 70 57 52 58 55 59 69 60 88 61 53 62 54 63 68 65 89 66 56 67
REMARK SMILES IDX 40 68 41 69 49 70 42 71 44 72 50 73 43 74 45 75 46 76 47 77
REMARK SMILES IDX 48 78 72 79 73 80 81 81 74 82 76 83 82 84 75 85 77 86 78 87
REMARK SMILES IDX 79 88 80 89 57 90 58 91 66 92 59 93 61 94 67 95 60 96 62 97
REMARK SMILES IDX 63 98 64 99 65 100
REMARK H PARENT 23 5 12 15 28 34 87 53 55 64
REMARK Flexibility Score: inf
ROOT
ATOM      1  C   UNL A   1      34.901  24.999  25.262  1.00  0.00     0.116 C 
ENDROOT
BRANCH   1   2
ATOM      2  N   UNL A   1      33.590  24.940  25.885  1.00  0.00    -0.352 N 
ATOM      3  C   UNL A   1      32.663  25.848  26.336  1.00  0.00     0.253 C 
ATOM      4  O   UNL A   1      31.628  25.331  26.754  1.00  0.00    -0.269 OA
ATOM      5  H   UNL A   1      33.288  24.013  26.018  1.00  0.00     0.163 HD
BRANCH   3   6
ATOM      6  C   UNL A   1      32.809  27.344  26.297  1.00  0.00     0.067 A 
ATOM      7  C   UNL A   1      31.966  28.173  25.524  1.00  0.00     0.107 A 
ATOM      8  N   UNL A   1      32.228  29.514  25.352  1.00  0.00    -0.254 NA
ATOM      9  C   UNL A   1      33.262  30.072  26.000  1.00  0.00     0.111 A 
ATOM     10  C   UNL A   1      33.815  28.006  27.016  1.00  0.00     0.017 A 
ATOM     11  C   UNL A   1      34.057  29.370  26.867  1.00  0.00     0.021 A 
BRANCH   7  12
ATOM     12  C   UNL A   1      30.687  27.723  24.818  1.00  0.00     0.320 C 
BRANCH  12  13
ATOM     13  N   UNL A   1      30.835  27.058  23.486  1.00  0.00    -0.325 N 
ATOM     14  C   UNL A   1      30.530  27.943  22.368  1.00  0.00     0.333 C 
ATOM     15  H   UNL A   1      31.826  26.827  23.418  1.00  0.00     0.348 HD
BRANCH  13  16
ATOM     16  C   UNL A   1      30.088  25.789  23.387  1.00  0.00     0.364 C 
BRANCH  16  17
ATOM     17  C   UNL A   1      30.952  24.574  23.292  1.00  0.00     0.282 A 
ATOM     18  C   UNL A   1      31.976  22.756  23.474  1.00  0.00     0.202 A 
ATOM     19  N   UNL A   1      32.743  23.464  22.630  1.00  0.00    -0.057 NA
ATOM     20  N   UNL A   1      30.817  23.394  23.861  1.00  0.00    -0.186 NA
ATOM     21  O   UNL A   1      32.066  24.674  22.511  1.00  0.00    -0.333 OA
BRANCH  18  22
ATOM     22  C   UNL A   1      32.319  21.417  23.923  1.00  0.00     0.023 A 
ATOM     23  C   UNL A   1      32.540  17.877  22.517  1.00  0.00     0.044 C 
ATOM     24  C   UNL A   1      32.594  19.041  23.460  1.00  0.00    -0.050 A 
ATOM     25  C   UNL A   1      33.029  18.849  24.778  1.00  0.00     0.003 A 
ATOM     26  C   UNL A   1      32.224  20.328  23.044  1.00  0.00     0.015 A 
ATOM     27  C   UNL A   1      33.111  19.925  25.662  1.00  0.00     0.001 A 
ATOM     28  C   UNL A   1      32.765  21.207  25.233  1.00  0.00     0.012 A 
ENDBRANCH  18  22
ENDBRANCH  16  17
ENDBRANCH  13  16
ENDBRANCH  12  13
ENDBRANCH   7  12
ENDBRANCH   3   6
ENDBRANCH   1   2
BRANCH   1  29
ATOM     29  C   UNL A   1      35.461  23.597  24.966  1.00  0.00     0.023 C 
BRANCH  29  30
ATOM     30  C   UNL A   1      36.598  23.143  25.891  1.00  0.00     0.023 C 
BRANCH  30  31
ATOM     31  C   UNL A   1      37.857  22.706  25.158  1.00  0.00     0.116 C 
BRANCH  31  32
ATOM     32  N   UNL A   1      38.985  22.392  26.021  1.00  0.00    -0.352 N 
ATOM     33  C   UNL A   1      39.898  23.234  26.635  1.00  0.00     0.251 C 
ATOM     34  H   UNL A   1      39.122  21.433  26.194  1.00  0.00     0.163 HD
ATOM     35  O   UNL A   1      40.903  22.735  27.138  1.00  0.00    -0.269 OA
BRANCH  33  36
ATOM     36  C   UNL A   1      39.599  24.681  26.807  1.00  0.00     0.039 A 
ATOM     37  C   UNL A   1      40.462  25.609  26.207  1.00  0.00     0.014 A 
ATOM     38  C   UNL A   1      38.649  25.118  27.723  1.00  0.00     0.014 A 
ATOM     39  C   UNL A   1      40.573  26.894  26.737  1.00  0.00     0.010 A 
ATOM     40  C   UNL A   1      38.827  26.345  28.322  1.00  0.00     0.010 A 
ATOM     41  C   UNL A   1      39.844  27.198  27.880  1.00  0.00    -0.014 A 
BRANCH  41  42
ATOM     42  C   UNL A   1      40.114  28.318  28.767  1.00  0.00     0.031 A 
ATOM     43  C   UNL A   1      39.250  29.509  28.754  1.00  0.00     0.074 A 
ATOM     44  C   UNL A   1      40.986  28.123  29.781  1.00  0.00     0.049 A 
ATOM     45  N   UNL A   1      39.518  30.603  29.379  1.00  0.00    -0.248 NA
ATOM     46  C   UNL A   1      38.013  29.562  27.992  1.00  0.00     0.031 C 
ATOM     47  C   UNL A   1      41.060  28.854  31.039  1.00  0.00     0.029 A 
ATOM     48  N   UNL A   1      42.145  27.340  29.772  1.00  0.00    -0.354 N 
ATOM     49  C   UNL A   1      38.375  31.372  29.371  1.00  0.00     0.074 A 
ATOM     50  C   UNL A   1      37.520  30.736  28.397  1.00  0.00     0.031 C 
ATOM     51  C   UNL A   1      42.298  28.723  31.541  1.00  0.00     0.029 A 
ATOM     52  C   UNL A   1      43.092  28.057  30.525  1.00  0.00     0.049 A 
ATOM     53  H   UNL A   1      42.272  26.469  29.332  1.00  0.00     0.167 HD
ATOM     54  C   UNL A   1      38.244  32.353  30.309  1.00  0.00     0.034 A 
ATOM     55  C   UNL A   1      44.268  28.523  30.013  1.00  0.00     0.034 A 
ATOM     56  C   UNL A   1      39.496  32.522  31.069  1.00  0.00     0.049 A 
ATOM     57  C   UNL A   1      44.444  30.025  30.166  1.00  0.00     0.074 A 
ATOM     58  C   UNL A   1      39.908  32.138  32.337  1.00  0.00     0.029 A 
ATOM     59  N   UNL A   1      40.637  32.960  30.408  1.00  0.00    -0.354 N 
ATOM     60  N   UNL A   1      43.528  30.838  30.614  1.00  0.00    -0.248 NA
ATOM     61  C   UNL A   1      45.664  30.730  29.796  1.00  0.00     0.031 C 
ATOM     62  C   UNL A   1      41.320  32.301  32.411  1.00  0.00     0.029 A 
ATOM     63  C   UNL A   1      41.764  32.807  31.201  1.00  0.00     0.049 A 
ATOM     64  H   UNL A   1      40.645  33.329  29.495  1.00  0.00     0.167 HD
ATOM     65  C   UNL A   1      43.940  32.144  30.477  1.00  0.00     0.074 A 
ATOM     66  C   UNL A   1      45.320  32.008  30.037  1.00  0.00     0.031 C 
ATOM     67  C   UNL A   1      43.078  33.194  30.684  1.00  0.00     0.034 A 
BRANCH  54  68
ATOM     68  C   UNL A   1      36.932  32.997  30.759  1.00  0.00     0.023 A 
ATOM     69  C   UNL A   1      36.538  32.789  32.102  1.00  0.00     0.012 A 
ATOM     70  C   UNL A   1      36.009  33.720  29.966  1.00  0.00     0.148 A 
ATOM     71  C   UNL A   1      35.287  33.179  32.597  1.00  0.00     0.002 A 
ATOM     72  C   UNL A   1      34.744  34.079  30.443  1.00  0.00     0.091 A 
ATOM     73  F   UNL A   1      36.351  34.133  28.748  1.00  0.00    -0.205 F 
ATOM     74  C   UNL A   1      34.376  33.801  31.760  1.00  0.00     0.022 A 
BRANCH  72  75
ATOM     75  S   UNL A   1      33.499  34.861  29.396  1.00  0.00     0.127 S 
ATOM     76  O   UNL A   1      33.226  33.813  28.411  1.00  0.00    -0.237 OA
ATOM     77  O   UNL A   1      32.409  35.109  30.337  1.00  0.00    -0.237 OA
ATOM     78  O   UNL A   1      34.122  36.056  28.837  1.00  0.00    -0.744 OA
ENDBRANCH  72  75
ENDBRANCH  54  68
BRANCH  55  79
ATOM     79  C   UNL A   1      44.801  27.690  28.894  1.00  0.00     0.023 A 
ATOM     80  C   UNL A   1      44.195  27.872  27.627  1.00  0.00     0.012 A 
ATOM     81  C   UNL A   1      46.074  27.096  28.958  1.00  0.00     0.148 A 
ATOM     82  C   UNL A   1      44.899  27.610  26.451  1.00  0.00     0.002 A 
ATOM     83  C   UNL A   1      46.767  26.830  27.778  1.00  0.00     0.091 A 
ATOM     84  F   UNL A   1      46.622  26.882  30.161  1.00  0.00    -0.205 F 
ATOM     85  C   UNL A   1      46.199  27.126  26.528  1.00  0.00     0.022 A 
BRANCH  83  86
ATOM     86  S   UNL A   1      48.464  26.233  27.797  1.00  0.00     0.127 S 
ATOM     87  O   UNL A   1      48.343  25.041  28.629  1.00  0.00    -0.237 OA
ATOM     88  O   UNL A   1      48.722  25.974  26.381  1.00  0.00    -0.237 OA
ATOM     89  O   UNL A   1      49.237  27.336  28.348  1.00  0.00    -0.744 OA
ENDBRANCH  83  86
ENDBRANCH  55  79
BRANCH  67  90
ATOM     90  C   UNL A   1      43.332  34.680  30.397  1.00  0.00     0.023 A 
ATOM     91  C   UNL A   1      43.665  35.616  31.391  1.00  0.00     0.012 A 
ATOM     92  C   UNL A   1      43.331  35.183  29.061  1.00  0.00     0.148 A 
ATOM     93  C   UNL A   1      43.977  36.953  31.101  1.00  0.00     0.002 A 
ATOM     94  C   UNL A   1      43.736  36.484  28.765  1.00  0.00     0.091 A 
ATOM     95  F   UNL A   1      42.897  34.415  28.052  1.00  0.00    -0.205 F 
ATOM     96  C   UNL A   1      44.042  37.381  29.785  1.00  0.00     0.022 A 
BRANCH  94  97
ATOM     97  S   UNL A   1      44.002  37.016  27.066  1.00  0.00     0.127 S 
ATOM     98  O   UNL A   1      44.893  35.975  26.560  1.00  0.00    -0.237 OA
ATOM     99  O   UNL A   1      42.646  36.979  26.511  1.00  0.00    -0.237 OA
ATOM    100  O   UNL A   1      44.564  38.354  27.172  1.00  0.00    -0.744 OA
ENDBRANCH  94  97
ENDBRANCH  67  90
ENDBRANCH  41  42
ENDBRANCH  33  36
ENDBRANCH  31  32
ENDBRANCH  30  31
ENDBRANCH  29  30
ENDBRANCH   1  29
TORSDOF 19
ENDMDL
MODEL 3
REMARK VINA RESULT:     -11.8      4.139      9.171
REMARK SMILES Cc1cccc(-c2noc(C[N@@H+](C)Cc3ncccc3C(=O)NCCCCNC(=O)c3ccc(-c4c5nc(c(-c6cccc(S(=O)(=O)[O-])c6F)c6ccc([nH]6)c(-c6cccc(S(=O)(=O)[O-])c6F)c6nc(c(-c7cccc(S(=O)(=O)[O-])c7F)c7ccc4[nH]7)C=C6)C=C5)cc3)n2)c1
REMARK SMILES IDX 24 1 23 2 21 3 22 4 20 6 15 7 16 8 17 9 19 10 18 11 14 12
REMARK SMILES IDX 12 13 13 14 11 16 10 17 7 18 8 19 94 20 9 21 6 22 1 23 2 24
REMARK SMILES IDX 3 25 95 26 4 27 5 28 25 29 26 30 27 31 28 32 29 33 30 35
REMARK SMILES IDX 31 36 32 37 93 38 33 39 92 40 34 41 35 42 36 43 86 44 37 45
REMARK SMILES IDX 91 46 85 47 87 48 38 49 90 50 84 51 83 52 39 54 71 55 51 56
REMARK SMILES IDX 70 57 52 58 55 59 69 60 88 61 53 62 54 63 68 65 89 66 56 67
REMARK SMILES IDX 40 68 41 69 49 70 42 71 44 72 50 73 43 74 45 75 46 76 47 77
REMARK SMILES IDX 48 78 72 79 73 80 81 81 74 82 76 83 82 84 75 85 77 86 78 87
REMARK SMILES IDX 79 88 80 89 57 90 58 91 66 92 59 93 61 94 67 95 60 96 62 97
REMARK SMILES IDX 63 98 64 99 65 100
REMARK H PARENT 23 5 12 15 28 34 87 53 55 64
REMARK Flexibility Score: inf
ROOT
ATOM      1  C   UNL A   1      34.005  27.343  25.561  1.00  0.00     0.116 C 
ENDROOT
BRANCH   1   2
ATOM      2  N   UNL A   1      32.798  26.570  25.799  1.00  0.00    -0.352 N 
ATOM      3  C   UNL A   1      31.514  26.556  25.311  1.00  0.00     0.253 C 
ATOM      4  O   UNL A   1      30.817  25.655  25.778  1.00  0.00    -0.269 OA
ATOM      5  H   UNL A   1      32.934  25.878  26.486  1.00  0.00     0.163 HD
BRANCH   3   6
ATOM      6  C   UNL A   1      30.964  27.484  24.264  1.00  0.00     0.067 A 
ATOM      7  C   UNL A   1      30.857  27.121  22.903  1.00  0.00     0.107 A 
ATOM      8  N   UNL A   1      30.529  28.040  21.931  1.00  0.00    -0.254 NA
ATOM      9  C   UNL A   1      30.221  29.296  22.288  1.00  0.00     0.111 A 
ATOM     10  C   UNL A   1      30.542  28.785  24.578  1.00  0.00     0.017 A 
ATOM     11  C   UNL A   1      30.179  29.703  23.596  1.00  0.00     0.021 A 
BRANCH   7  12
ATOM     12  C   UNL A   1      31.058  25.712  22.344  1.00  0.00     0.320 C 
BRANCH  12  13
ATOM     13  N   UNL A   1      32.432  25.350  21.877  1.00  0.00    -0.325 N 
ATOM     14  C   UNL A   1      32.670  25.689  20.480  1.00  0.00     0.333 C 
ATOM     15  H   UNL A   1      33.060  25.930  22.433  1.00  0.00     0.348 HD
BRANCH  13  16
ATOM     16  C   UNL A   1      32.785  23.944  22.157  1.00  0.00     0.364 C 
BRANCH  16  17
ATOM     17  C   UNL A   1      33.700  23.761  23.323  1.00  0.00     0.282 A 
ATOM     18  C   UNL A   1      35.236  23.378  24.695  1.00  0.00     0.202 A 
ATOM     19  N   UNL A   1      34.144  23.487  25.469  1.00  0.00    -0.057 NA
ATOM     20  N   UNL A   1      35.007  23.603  23.355  1.00  0.00    -0.186 NA
ATOM     21  O   UNL A   1      33.122  23.738  24.558  1.00  0.00    -0.333 OA
BRANCH  18  22
ATOM     22  C   UNL A   1      36.554  23.076  25.225  1.00  0.00     0.023 A 
ATOM     23  C   UNL A   1      39.136  24.616  27.575  1.00  0.00     0.044 C 
ATOM     24  C   UNL A   1      38.455  23.676  26.626  1.00  0.00    -0.050 A 
ATOM     25  C   UNL A   1      39.073  22.467  26.281  1.00  0.00     0.003 A 
ATOM     26  C   UNL A   1      37.201  23.982  26.079  1.00  0.00     0.015 A 
ATOM     27  C   UNL A   1      38.443  21.569  25.419  1.00  0.00     0.001 A 
ATOM     28  C   UNL A   1      37.184  21.868  24.900  1.00  0.00     0.012 A 
ENDBRANCH  18  22
ENDBRANCH  16  17
ENDBRANCH  13  16
ENDBRANCH  12  13
ENDBRANCH   7  12
ENDBRANCH   3   6
ENDBRANCH   1   2
BRANCH   1  29
ATOM     29  C   UNL A   1      33.799  28.837  25.864  1.00  0.00     0.023 C 
BRANCH  29  30
ATOM     30  C   UNL A   1      34.806  29.445  26.850  1.00  0.00     0.023 C 
BRANCH  30  31
ATOM     31  C   UNL A   1      34.164  30.184  28.014  1.00  0.00     0.116 C 
BRANCH  31  32
ATOM     32  N   UNL A   1      33.743  31.544  27.712  1.00  0.00    -0.352 N 
ATOM     33  C   UNL A   1      34.141  32.745  28.277  1.00  0.00     0.251 C 
ATOM     34  H   UNL A   1      33.071  31.623  26.997  1.00  0.00     0.163 HD
ATOM     35  O   UNL A   1      33.487  33.754  28.018  1.00  0.00    -0.269 OA
BRANCH  33  36
ATOM     36  C   UNL A   1      35.405  32.836  29.055  1.00  0.00     0.039 A 
ATOM     37  C   UNL A   1      36.545  33.331  28.407  1.00  0.00     0.014 A 
ATOM     38  C   UNL A   1      35.529  32.233  30.302  1.00  0.00     0.014 A 
ATOM     39  C   UNL A   1      37.812  32.959  28.856  1.00  0.00     0.010 A 
ATOM     40  C   UNL A   1      36.767  31.772  30.690  1.00  0.00     0.010 A 
ATOM     41  C   UNL A   1      37.897  32.068  29.919  1.00  0.00    -0.014 A 
BRANCH  41  42
ATOM     42  C   UNL A   1      39.078  31.294  30.266  1.00  0.00     0.031 A 
ATOM     43  C   UNL A   1      39.308  29.969  29.671  1.00  0.00     0.074 A 
ATOM     44  C   UNL A   1      40.080  31.931  30.913  1.00  0.00     0.049 A 
ATOM     45  N   UNL A   1      40.231  29.156  30.052  1.00  0.00    -0.248 NA
ATOM     46  C   UNL A   1      38.473  29.442  28.603  1.00  0.00     0.031 C 
ATOM     47  C   UNL A   1      41.491  31.569  30.935  1.00  0.00     0.029 A 
ATOM     48  N   UNL A   1      39.970  32.937  31.879  1.00  0.00    -0.354 N 
ATOM     49  C   UNL A   1      40.324  28.163  29.100  1.00  0.00     0.074 A 
ATOM     50  C   UNL A   1      39.134  28.322  28.298  1.00  0.00     0.031 C 
ATOM     51  C   UNL A   1      42.056  32.106  32.028  1.00  0.00     0.029 A 
ATOM     52  C   UNL A   1      40.979  32.669  32.821  1.00  0.00     0.049 A 
ATOM     53  H   UNL A   1      39.323  33.678  31.896  1.00  0.00     0.167 HD
ATOM     54  C   UNL A   1      41.477  27.440  29.024  1.00  0.00     0.034 A 
ATOM     55  C   UNL A   1      40.731  32.380  34.132  1.00  0.00     0.034 A 
ATOM     56  C   UNL A   1      42.372  27.761  30.151  1.00  0.00     0.049 A 
ATOM     57  C   UNL A   1      41.306  31.045  34.578  1.00  0.00     0.074 A 
ATOM     58  C   UNL A   1      43.520  28.529  30.275  1.00  0.00     0.029 A 
ATOM     59  N   UNL A   1      41.970  27.453  31.445  1.00  0.00    -0.354 N 
ATOM     60  N   UNL A   1      41.868  30.176  33.785  1.00  0.00    -0.248 NA
ATOM     61  C   UNL A   1      41.264  30.577  35.957  1.00  0.00     0.031 C 
ATOM     62  C   UNL A   1      43.773  28.724  31.662  1.00  0.00     0.029 A 
ATOM     63  C   UNL A   1      42.797  28.055  32.382  1.00  0.00     0.049 A 
ATOM     64  H   UNL A   1      41.199  26.883  31.669  1.00  0.00     0.167 HD
ATOM     65  C   UNL A   1      42.135  29.010  34.466  1.00  0.00     0.074 A 
ATOM     66  C   UNL A   1      41.811  29.353  35.842  1.00  0.00     0.031 C 
ATOM     67  C   UNL A   1      42.537  27.871  33.810  1.00  0.00     0.034 A 
BRANCH  54  68
ATOM     68  C   UNL A   1      41.956  26.637  27.813  1.00  0.00     0.023 A 
ATOM     69  C   UNL A   1      41.816  27.243  26.542  1.00  0.00     0.012 A 
ATOM     70  C   UNL A   1      42.457  25.314  27.799  1.00  0.00     0.148 A 
ATOM     71  C   UNL A   1      42.058  26.560  25.343  1.00  0.00     0.002 A 
ATOM     72  C   UNL A   1      42.664  24.614  26.605  1.00  0.00     0.091 A 
ATOM     73  F   UNL A   1      42.802  24.715  28.935  1.00  0.00    -0.205 F 
ATOM     74  C   UNL A   1      42.457  25.234  25.373  1.00  0.00     0.022 A 
BRANCH  72  75
ATOM     75  S   UNL A   1      43.151  22.876  26.573  1.00  0.00     0.127 S 
ATOM     76  O   UNL A   1      42.912  22.518  25.174  1.00  0.00    -0.237 OA
ATOM     77  O   UNL A   1      44.561  22.938  26.952  1.00  0.00    -0.237 OA
ATOM     78  O   UNL A   1      42.282  22.187  27.520  1.00  0.00    -0.744 OA
ENDBRANCH  72  75
ENDBRANCH  54  68
BRANCH  55  79
ATOM     79  C   UNL A   1      39.484  33.014  34.654  1.00  0.00     0.023 A 
ATOM     80  C   UNL A   1      38.402  33.121  33.747  1.00  0.00     0.012 A 
ATOM     81  C   UNL A   1      39.224  33.102  36.033  1.00  0.00     0.148 A 
ATOM     82  C   UNL A   1      37.084  33.164  34.203  1.00  0.00     0.002 A 
ATOM     83  C   UNL A   1      37.904  33.153  36.481  1.00  0.00     0.091 A 
ATOM     84  F   UNL A   1      40.256  33.048  36.885  1.00  0.00    -0.205 F 
ATOM     85  C   UNL A   1      36.835  33.140  35.570  1.00  0.00     0.022 A 
BRANCH  83  86
ATOM     86  S   UNL A   1      37.501  33.093  38.233  1.00  0.00     0.127 S 
ATOM     87  O   UNL A   1      38.123  31.834  38.630  1.00  0.00    -0.237 OA
ATOM     88  O   UNL A   1      38.157  34.294  38.748  1.00  0.00    -0.237 OA
ATOM     89  O   UNL A   1      36.048  33.143  38.280  1.00  0.00    -0.744 OA
ENDBRANCH  83  86
ENDBRANCH  55  79
BRANCH  67  90
ATOM     90  C   UNL A   1      42.693  26.462  34.398  1.00  0.00     0.023 A 
ATOM     91  C   UNL A   1      41.736  25.860  35.233  1.00  0.00     0.012 A 
ATOM     92  C   UNL A   1      43.803  25.637  34.047  1.00  0.00     0.148 A 
ATOM     93  C   UNL A   1      41.856  24.541  35.694  1.00  0.00     0.002 A 
ATOM     94  C   UNL A   1      43.871  24.297  34.426  1.00  0.00     0.091 A 
ATOM     95  F   UNL A   1      44.839  26.152  33.369  1.00  0.00    -0.205 F 
ATOM     96  C   UNL A   1      42.907  23.747  35.266  1.00  0.00     0.022 A 
BRANCH  94  97
ATOM     97  S   UNL A   1      45.123  23.197  33.745  1.00  0.00     0.127 S 
ATOM     98  O   UNL A   1      44.772  21.920  34.363  1.00  0.00    -0.237 OA
ATOM     99  O   UNL A   1      44.855  23.270  32.306  1.00  0.00    -0.237 OA
ATOM    100  O   UNL A   1      46.396  23.779  34.143  1.00  0.00    -0.744 OA
ENDBRANCH  94  97
ENDBRANCH  67  90
ENDBRANCH  41  42
ENDBRANCH  33  36
ENDBRANCH  31  32
ENDBRANCH  30  31
ENDBRANCH  29  30
ENDBRANCH   1  29
TORSDOF 19
ENDMDL
