MODEL 1
REMARK VINA RESULT:     -10.8      0.000      0.000
REMARK SMILES COCCN(CC(C)C)C(=O)N1CC[C@@H](C(=O)NCCCCNC(=O)c2ccc(-c3c4nc(c(-c5cccc(S(=O)(=O)[O-])c5F)c5ccc([nH]5)c(-c5cccc(S(=O)(=O)[O-])c5F)c5nc(c(-c6cccc(S(=O)(=O)[O-])c6F)c6ccc3[nH]6)C=C5)C=C4)cc2)[C@H]1C
REMARK SMILES IDX 19 1 18 2 16 3 17 4 15 6 12 7 13 8 89 9 14 10 90 11 10 12
REMARK SMILES IDX 11 13 5 14 4 15 3 16 2 17 1 18 6 19 7 20 8 21 9 22 20 23
REMARK SMILES IDX 21 24 22 25 23 26 24 27 25 29 26 30 27 31 88 32 28 33 87 34
REMARK SMILES IDX 29 35 30 36 31 37 81 38 32 39 86 40 80 41 82 42 33 43 85 44
REMARK SMILES IDX 79 45 78 46 34 48 66 49 46 50 65 51 47 52 50 53 64 54 83 55
REMARK SMILES IDX 48 56 49 57 63 59 84 60 51 61 35 62 36 63 44 64 37 65 39 66
REMARK SMILES IDX 45 67 38 68 40 69 41 70 42 71 43 72 67 73 68 74 76 75 69 76
REMARK SMILES IDX 71 77 77 78 70 79 72 80 73 81 74 82 75 83 52 84 53 85 61 86
REMARK SMILES IDX 54 87 56 88 62 89 55 90 57 91 58 92 59 93 60 94
REMARK H PARENT 18 5 23 28 82 47 50 58
REMARK Flexibility Score: inf
ROOT
ATOM      1  C   UNL A   1      33.796  20.210  25.743  1.00  0.00     0.116 C 
ENDROOT
BRANCH   1   2
ATOM      2  N   UNL A   1      33.726  21.060  26.940  1.00  0.00    -0.356 N 
ATOM      3  C   UNL A   1      32.996  22.127  27.372  1.00  0.00     0.225 C 
ATOM      4  O   UNL A   1      33.253  22.494  28.529  1.00  0.00    -0.275 OA
ATOM      5  H   UNL A   1      34.387  20.782  27.615  1.00  0.00     0.163 HD
BRANCH   3   6
ATOM      6  C   UNL A   1      31.947  22.948  26.589  1.00  0.00     0.102 C 
ATOM      7  N   UNL A   1      31.487  24.774  25.079  1.00  0.00    -0.321 N 
ATOM      8  C   UNL A   1      30.707  23.600  24.695  1.00  0.00     0.122 C 
ATOM      9  C   UNL A   1      32.236  24.445  26.303  1.00  0.00     0.096 C 
ATOM     10  C   UNL A   1      31.470  22.407  25.250  1.00  0.00     0.037 C 
ATOM     11  C   UNL A   1      33.700  24.601  26.117  1.00  0.00     0.032 C 
BRANCH   7  12
ATOM     12  C   UNL A   1      30.922  26.013  24.818  1.00  0.00     0.320 C 
ATOM     13  O   UNL A   1      29.936  26.372  25.467  1.00  0.00    -0.248 OA
BRANCH  12  14
ATOM     14  N   UNL A   1      31.354  26.740  23.712  1.00  0.00    -0.322 N 
BRANCH  14  15
ATOM     15  C   UNL A   1      32.794  27.048  23.652  1.00  0.00     0.149 C 
BRANCH  15  16
ATOM     16  C   UNL A   1      33.311  27.209  22.201  1.00  0.00     0.181 C 
BRANCH  16  17
ATOM     17  O   UNL A   1      33.775  25.989  21.621  1.00  0.00    -0.383 OA
ATOM     18  C   UNL A   1      32.914  24.879  21.835  1.00  0.00     0.194 C 
ENDBRANCH  16  17
ENDBRANCH  15  16
ENDBRANCH  14  15
BRANCH  14  19
ATOM     19  C   UNL A   1      30.546  27.457  22.720  1.00  0.00     0.124 C 
BRANCH  19  20
ATOM     20  C   UNL A   1      30.058  28.883  23.134  1.00  0.00     0.002 C 
ATOM     21  C   UNL A   1      30.777  29.561  24.315  1.00  0.00     0.009 C 
ATOM     22  C   UNL A   1      30.040  29.820  21.906  1.00  0.00     0.009 C 
ENDBRANCH  19  20
ENDBRANCH  14  19
ENDBRANCH  12  14
ENDBRANCH   7  12
ENDBRANCH   3   6
ENDBRANCH   1   2
BRANCH   1  23
ATOM     23  C   UNL A   1      35.130  20.309  24.966  1.00  0.00     0.023 C 
BRANCH  23  24
ATOM     24  C   UNL A   1      35.676  21.663  24.577  1.00  0.00     0.023 C 
BRANCH  24  25
ATOM     25  C   UNL A   1      36.964  22.058  25.252  1.00  0.00     0.116 C 
BRANCH  25  26
ATOM     26  N   UNL A   1      37.982  21.016  25.326  1.00  0.00    -0.352 N 
ATOM     27  C   UNL A   1      39.204  21.090  25.968  1.00  0.00     0.251 C 
ATOM     28  H   UNL A   1      37.777  20.168  24.869  1.00  0.00     0.163 HD
ATOM     29  O   UNL A   1      39.991  20.148  25.939  1.00  0.00    -0.269 OA
BRANCH  27  30
ATOM     30  C   UNL A   1      39.563  22.362  26.634  1.00  0.00     0.039 A 
ATOM     31  C   UNL A   1      40.599  22.377  27.569  1.00  0.00     0.014 A 
ATOM     32  C   UNL A   1      38.994  23.555  26.189  1.00  0.00     0.014 A 
ATOM     33  C   UNL A   1      41.134  23.603  27.975  1.00  0.00     0.010 A 
ATOM     34  C   UNL A   1      39.627  24.753  26.474  1.00  0.00     0.010 A 
ATOM     35  C   UNL A   1      40.690  24.798  27.386  1.00  0.00    -0.014 A 
BRANCH  35  36
ATOM     36  C   UNL A   1      41.291  26.117  27.719  1.00  0.00     0.031 A 
ATOM     37  C   UNL A   1      42.706  26.414  27.290  1.00  0.00     0.074 A 
ATOM     38  C   UNL A   1      40.620  26.997  28.490  1.00  0.00     0.049 A 
ATOM     39  N   UNL A   1      43.450  27.455  27.560  1.00  0.00    -0.248 NA
ATOM     40  C   UNL A   1      43.399  25.379  26.501  1.00  0.00     0.031 C 
ATOM     41  C   UNL A   1      39.289  26.786  29.068  1.00  0.00     0.029 A 
ATOM     42  N   UNL A   1      40.977  28.244  28.941  1.00  0.00    -0.354 N 
ATOM     43  C   UNL A   1      44.701  27.172  27.027  1.00  0.00     0.074 A 
ATOM     44  C   UNL A   1      44.639  25.838  26.476  1.00  0.00     0.031 C 
ATOM     45  C   UNL A   1      38.936  27.873  29.773  1.00  0.00     0.029 A 
ATOM     46  C   UNL A   1      40.018  28.850  29.720  1.00  0.00     0.049 A 
ATOM     47  H   UNL A   1      41.841  28.665  28.727  1.00  0.00     0.167 HD
ATOM     48  C   UNL A   1      45.794  27.966  26.951  1.00  0.00     0.034 A 
ATOM     49  C   UNL A   1      40.011  30.061  30.312  1.00  0.00     0.034 A 
ATOM     50  C   UNL A   1      45.821  29.326  27.409  1.00  0.00     0.049 A 
ATOM     51  C   UNL A   1      41.196  30.970  30.119  1.00  0.00     0.074 A 
ATOM     52  C   UNL A   1      46.833  30.258  27.277  1.00  0.00     0.029 A 
ATOM     53  N   UNL A   1      44.778  29.951  28.074  1.00  0.00    -0.354 N 
ATOM     54  N   UNL A   1      42.310  30.745  29.463  1.00  0.00    -0.248 NA
ATOM     55  C   UNL A   1      41.108  32.313  30.709  1.00  0.00     0.031 C 
ATOM     56  C   UNL A   1      46.401  31.451  27.867  1.00  0.00     0.029 A 
ATOM     57  C   UNL A   1      45.118  31.262  28.355  1.00  0.00     0.049 A 
ATOM     58  H   UNL A   1      43.924  29.525  28.312  1.00  0.00     0.167 HD
ATOM     59  C   UNL A   1      43.036  31.929  29.528  1.00  0.00     0.074 A 
ATOM     60  C   UNL A   1      42.227  32.874  30.269  1.00  0.00     0.031 C 
ATOM     61  C   UNL A   1      44.269  32.205  29.036  1.00  0.00     0.034 A 
BRANCH  48  62
ATOM     62  C   UNL A   1      47.014  27.407  26.266  1.00  0.00     0.023 A 
ATOM     63  C   UNL A   1      47.167  27.577  24.875  1.00  0.00     0.012 A 
ATOM     64  C   UNL A   1      48.018  26.742  26.995  1.00  0.00     0.148 A 
ATOM     65  C   UNL A   1      48.276  27.057  24.211  1.00  0.00     0.002 A 
ATOM     66  C   UNL A   1      49.145  26.268  26.334  1.00  0.00     0.091 A 
ATOM     67  F   UNL A   1      47.844  26.567  28.312  1.00  0.00    -0.205 F 
ATOM     68  C   UNL A   1      49.269  26.412  24.941  1.00  0.00     0.022 A 
BRANCH  66  69
ATOM     69  S   UNL A   1      50.517  25.493  27.195  1.00  0.00     0.127 S 
ATOM     70  O   UNL A   1      50.849  26.507  28.194  1.00  0.00    -0.237 OA
ATOM     71  O   UNL A   1      49.896  24.283  27.737  1.00  0.00    -0.237 OA
ATOM     72  O   UNL A   1      51.537  25.250  26.186  1.00  0.00    -0.744 OA
ENDBRANCH  66  69
ENDBRANCH  48  62
BRANCH  49  73
ATOM     73  C   UNL A   1      38.803  30.525  31.052  1.00  0.00     0.023 A 
ATOM     74  C   UNL A   1      38.742  30.344  32.449  1.00  0.00     0.012 A 
ATOM     75  C   UNL A   1      37.732  31.164  30.399  1.00  0.00     0.148 A 
ATOM     76  C   UNL A   1      37.626  30.759  33.175  1.00  0.00     0.002 A 
ATOM     77  C   UNL A   1      36.644  31.623  31.136  1.00  0.00     0.091 A 
ATOM     78  F   UNL A   1      37.800  31.318  29.069  1.00  0.00    -0.205 F 
ATOM     79  C   UNL A   1      36.581  31.406  32.521  1.00  0.00     0.022 A 
BRANCH  77  80
ATOM     80  S   UNL A   1      35.317  32.582  30.396  1.00  0.00     0.127 S 
ATOM     81  O   UNL A   1      34.927  31.736  29.272  1.00  0.00    -0.237 OA
ATOM     82  O   UNL A   1      34.343  32.647  31.487  1.00  0.00    -0.237 OA
ATOM     83  O   UNL A   1      35.912  33.867  30.052  1.00  0.00    -0.744 OA
ENDBRANCH  77  80
ENDBRANCH  49  73
BRANCH  61  84
ATOM     84  C   UNL A   1      44.811  33.592  29.243  1.00  0.00     0.023 A 
ATOM     85  C   UNL A   1      44.623  34.570  28.247  1.00  0.00     0.012 A 
ATOM     86  C   UNL A   1      45.427  33.949  30.458  1.00  0.00     0.148 A 
ATOM     87  C   UNL A   1      45.067  35.877  28.446  1.00  0.00     0.002 A 
ATOM     88  C   UNL A   1      45.823  35.263  30.669  1.00  0.00     0.091 A 
ATOM     89  F   UNL A   1      45.614  32.998  31.385  1.00  0.00    -0.205 F 
ATOM     90  C   UNL A   1      45.654  36.226  29.660  1.00  0.00     0.022 A 
BRANCH  88  91
ATOM     91  S   UNL A   1      46.497  35.819  32.239  1.00  0.00     0.127 S 
ATOM     92  O   UNL A   1      45.471  35.373  33.179  1.00  0.00    -0.237 OA
ATOM     93  O   UNL A   1      47.758  35.081  32.317  1.00  0.00    -0.237 OA
ATOM     94  O   UNL A   1      46.653  37.262  32.114  1.00  0.00    -0.744 OA
ENDBRANCH  88  91
ENDBRANCH  61  84
ENDBRANCH  35  36
ENDBRANCH  27  30
ENDBRANCH  25  26
ENDBRANCH  24  25
ENDBRANCH  23  24
ENDBRANCH   1  23
TORSDOF 21
ENDMDL
MODEL 2
REMARK VINA RESULT:     -10.8      1.940      7.855
REMARK SMILES COCCN(CC(C)C)C(=O)N1CC[C@@H](C(=O)NCCCCNC(=O)c2ccc(-c3c4nc(c(-c5cccc(S(=O)(=O)[O-])c5F)c5ccc([nH]5)c(-c5cccc(S(=O)(=O)[O-])c5F)c5nc(c(-c6cccc(S(=O)(=O)[O-])c6F)c6ccc3[nH]6)C=C5)C=C4)cc2)[C@H]1C
REMARK SMILES IDX 19 1 18 2 16 3 17 4 15 6 12 7 13 8 89 9 14 10 90 11 10 12
REMARK SMILES IDX 11 13 5 14 4 15 3 16 2 17 1 18 6 19 7 20 8 21 9 22 20 23
REMARK SMILES IDX 21 24 22 25 23 26 24 27 25 29 26 30 27 31 88 32 28 33 87 34
REMARK SMILES IDX 29 35 30 36 31 37 81 38 32 39 86 40 80 41 82 42 33 43 85 44
REMARK SMILES IDX 79 45 78 46 34 48 66 49 46 50 65 51 47 52 50 53 64 54 83 55
REMARK SMILES IDX 48 56 49 57 63 59 84 60 51 61 35 62 36 63 44 64 37 65 39 66
REMARK SMILES IDX 45 67 38 68 40 69 41 70 42 71 43 72 67 73 68 74 76 75 69 76
REMARK SMILES IDX 71 77 77 78 70 79 72 80 73 81 74 82 75 83 52 84 53 85 61 86
REMARK SMILES IDX 54 87 56 88 62 89 55 90 57 91 58 92 59 93 60 94
REMARK H PARENT 18 5 23 28 82 47 50 58
REMARK Flexibility Score: inf
ROOT
ATOM      1  C   UNL A   1      33.602  20.221  25.785  1.00  0.00     0.116 C 
ENDROOT
BRANCH   1   2
ATOM      2  N   UNL A   1      33.391  21.184  26.875  1.00  0.00    -0.356 N 
ATOM      3  C   UNL A   1      32.816  22.409  27.035  1.00  0.00     0.225 C 
ATOM      4  O   UNL A   1      32.820  22.834  28.201  1.00  0.00    -0.275 OA
ATOM      5  H   UNL A   1      33.769  20.853  27.723  1.00  0.00     0.163 HD
BRANCH   3   6
ATOM      6  C   UNL A   1      32.219  23.333  25.951  1.00  0.00     0.102 C 
ATOM      7  N   UNL A   1      32.603  24.946  24.196  1.00  0.00    -0.321 N 
ATOM      8  C   UNL A   1      31.610  23.966  23.765  1.00  0.00     0.122 C 
ATOM      9  C   UNL A   1      32.974  24.639  25.588  1.00  0.00     0.096 C 
ATOM     10  C   UNL A   1      31.876  22.723  24.601  1.00  0.00     0.037 C 
ATOM     11  C   UNL A   1      34.429  24.381  25.730  1.00  0.00     0.032 C 
BRANCH   7  12
ATOM     12  C   UNL A   1      32.479  26.229  23.686  1.00  0.00     0.320 C 
ATOM     13  O   UNL A   1      33.464  26.769  23.173  1.00  0.00    -0.248 OA
BRANCH  12  14
ATOM     14  N   UNL A   1      31.314  26.951  23.931  1.00  0.00    -0.322 N 
BRANCH  14  15
ATOM     15  C   UNL A   1      30.574  27.421  22.746  1.00  0.00     0.149 C 
BRANCH  15  16
ATOM     16  C   UNL A   1      30.826  28.919  22.440  1.00  0.00     0.181 C 
BRANCH  16  17
ATOM     17  O   UNL A   1      29.664  29.736  22.590  1.00  0.00    -0.383 OA
ATOM     18  C   UNL A   1      28.452  29.005  22.725  1.00  0.00     0.194 C 
ENDBRANCH  16  17
ENDBRANCH  15  16
ENDBRANCH  14  15
BRANCH  14  19
ATOM     19  C   UNL A   1      30.844  27.523  25.196  1.00  0.00     0.124 C 
BRANCH  19  20
ATOM     20  C   UNL A   1      31.929  28.227  26.075  1.00  0.00     0.002 C 
ATOM     21  C   UNL A   1      32.250  29.699  25.755  1.00  0.00     0.009 C 
ATOM     22  C   UNL A   1      31.593  28.065  27.574  1.00  0.00     0.009 C 
ENDBRANCH  19  20
ENDBRANCH  14  19
ENDBRANCH  12  14
ENDBRANCH   7  12
ENDBRANCH   3   6
ENDBRANCH   1   2
BRANCH   1  23
ATOM     23  C   UNL A   1      35.056  20.158  25.260  1.00  0.00     0.023 C 
BRANCH  23  24
ATOM     24  C   UNL A   1      35.679  21.377  24.620  1.00  0.00     0.023 C 
BRANCH  24  25
ATOM     25  C   UNL A   1      37.056  21.734  25.117  1.00  0.00     0.116 C 
BRANCH  25  26
ATOM     26  N   UNL A   1      37.994  20.622  25.225  1.00  0.00    -0.352 N 
ATOM     27  C   UNL A   1      39.211  20.621  25.879  1.00  0.00     0.251 C 
ATOM     28  H   UNL A   1      37.731  19.781  24.785  1.00  0.00     0.163 HD
ATOM     29  O   UNL A   1      39.927  19.625  25.881  1.00  0.00    -0.269 OA
BRANCH  27  30
ATOM     30  C   UNL A   1      39.657  21.879  26.521  1.00  0.00     0.039 A 
ATOM     31  C   UNL A   1      40.681  21.839  27.468  1.00  0.00     0.014 A 
ATOM     32  C   UNL A   1      39.182  23.100  26.043  1.00  0.00     0.014 A 
ATOM     33  C   UNL A   1      41.301  23.032  27.854  1.00  0.00     0.010 A 
ATOM     34  C   UNL A   1      39.899  24.255  26.309  1.00  0.00     0.010 A 
ATOM     35  C   UNL A   1      40.953  24.243  27.233  1.00  0.00    -0.014 A 
BRANCH  35  36
ATOM     36  C   UNL A   1      41.645  25.521  27.543  1.00  0.00     0.031 A 
ATOM     37  C   UNL A   1      40.900  26.606  28.278  1.00  0.00     0.074 A 
ATOM     38  C   UNL A   1      42.890  25.753  27.075  1.00  0.00     0.049 A 
ATOM     39  N   UNL A   1      41.282  27.825  28.561  1.00  0.00    -0.248 NA
ATOM     40  C   UNL A   1      39.522  26.302  28.706  1.00  0.00     0.031 C 
ATOM     41  C   UNL A   1      43.678  24.833  26.251  1.00  0.00     0.029 A 
ATOM     42  N   UNL A   1      43.704  26.850  27.209  1.00  0.00    -0.354 N 
ATOM     43  C   UNL A   1      40.178  28.439  29.139  1.00  0.00     0.074 A 
ATOM     44  C   UNL A   1      39.094  27.486  29.111  1.00  0.00     0.031 C 
ATOM     45  C   UNL A   1      44.867  25.394  25.976  1.00  0.00     0.029 A 
ATOM     46  C   UNL A   1      44.921  26.720  26.581  1.00  0.00     0.049 A 
ATOM     47  H   UNL A   1      43.440  27.657  27.709  1.00  0.00     0.167 HD
ATOM     48  C   UNL A   1      40.083  29.669  29.697  1.00  0.00     0.034 A 
ATOM     49  C   UNL A   1      45.965  27.570  26.514  1.00  0.00     0.034 A 
ATOM     50  C   UNL A   1      41.190  30.575  29.814  1.00  0.00     0.049 A 
ATOM     51  C   UNL A   1      45.874  28.889  27.236  1.00  0.00     0.074 A 
ATOM     52  C   UNL A   1      41.237  31.795  30.462  1.00  0.00     0.029 A 
ATOM     53  N   UNL A   1      42.450  30.349  29.283  1.00  0.00    -0.354 N 
ATOM     54  N   UNL A   1      44.875  29.384  27.927  1.00  0.00    -0.248 NA
ATOM     55  C   UNL A   1      47.068  29.746  27.210  1.00  0.00     0.031 C 
ATOM     56  C   UNL A   1      42.530  32.310  30.320  1.00  0.00     0.029 A 
ATOM     57  C   UNL A   1      43.288  31.404  29.594  1.00  0.00     0.049 A 
ATOM     58  H   UNL A   1      42.709  29.556  28.761  1.00  0.00     0.167 HD
ATOM     59  C   UNL A   1      45.331  30.589  28.447  1.00  0.00     0.074 A 
ATOM     60  C   UNL A   1      46.704  30.740  28.010  1.00  0.00     0.031 C 
ATOM     61  C   UNL A   1      44.670  31.501  29.203  1.00  0.00     0.034 A 
BRANCH  48  62
ATOM     62  C   UNL A   1      38.759  30.059  30.300  1.00  0.00     0.023 A 
ATOM     63  C   UNL A   1      38.449  29.651  31.614  1.00  0.00     0.012 A 
ATOM     64  C   UNL A   1      37.837  30.847  29.586  1.00  0.00     0.148 A 
ATOM     65  C   UNL A   1      37.226  29.981  32.193  1.00  0.00     0.002 A 
ATOM     66  C   UNL A   1      36.638  31.214  30.188  1.00  0.00     0.091 A 
ATOM     67  F   UNL A   1      38.137  31.204  28.330  1.00  0.00    -0.205 F 
ATOM     68  C   UNL A   1      36.326  30.771  31.485  1.00  0.00     0.022 A 
BRANCH  66  69
ATOM     69  S   UNL A   1      35.447  32.294  29.390  1.00  0.00     0.127 S 
ATOM     70  O   UNL A   1      34.386  32.356  30.394  1.00  0.00    -0.237 OA
ATOM     71  O   UNL A   1      36.211  33.533  29.232  1.00  0.00    -0.237 OA
ATOM     72  O   UNL A   1      35.089  31.640  28.140  1.00  0.00    -0.744 OA
ENDBRANCH  66  69
ENDBRANCH  48  62
BRANCH  49  73
ATOM     73  C   UNL A   1      47.222  27.160  25.825  1.00  0.00     0.023 A 
ATOM     74  C   UNL A   1      48.180  26.410  26.537  1.00  0.00     0.012 A 
ATOM     75  C   UNL A   1      47.468  27.477  24.476  1.00  0.00     0.148 A 
ATOM     76  C   UNL A   1      49.372  26.013  25.930  1.00  0.00     0.002 A 
ATOM     77  C   UNL A   1      48.634  27.035  23.861  1.00  0.00     0.091 A 
ATOM     78  F   UNL A   1      46.552  28.202  23.817  1.00  0.00    -0.205 F 
ATOM     79  C   UNL A   1      49.596  26.317  24.590  1.00  0.00     0.022 A 
BRANCH  77  80
ATOM     80  S   UNL A   1      48.944  27.267  22.106  1.00  0.00     0.127 S 
ATOM     81  O   UNL A   1      48.371  28.590  21.874  1.00  0.00    -0.237 OA
ATOM     82  O   UNL A   1      50.405  27.208  22.043  1.00  0.00    -0.237 OA
ATOM     83  O   UNL A   1      48.274  26.156  21.444  1.00  0.00    -0.744 OA
ENDBRANCH  77  80
ENDBRANCH  49  73
BRANCH  61  84
ATOM     84  C   UNL A   1      45.425  32.725  29.643  1.00  0.00     0.023 A 
ATOM     85  C   UNL A   1      46.219  32.673  30.806  1.00  0.00     0.012 A 
ATOM     86  C   UNL A   1      45.416  33.895  28.860  1.00  0.00     0.148 A 
ATOM     87  C   UNL A   1      46.972  33.780  31.196  1.00  0.00     0.002 A 
ATOM     88  C   UNL A   1      46.206  34.976  29.229  1.00  0.00     0.091 A 
ATOM     89  F   UNL A   1      44.638  33.929  27.768  1.00  0.00    -0.205 F 
ATOM     90  C   UNL A   1      46.976  34.925  30.403  1.00  0.00     0.022 A 
BRANCH  88  91
ATOM     91  S   UNL A   1      46.344  36.450  28.212  1.00  0.00     0.127 S 
ATOM     92  O   UNL A   1      47.106  37.343  29.082  1.00  0.00    -0.237 OA
ATOM     93  O   UNL A   1      47.081  35.959  27.047  1.00  0.00    -0.237 OA
ATOM     94  O   UNL A   1      44.976  36.864  27.926  1.00  0.00    -0.744 OA
ENDBRANCH  88  91
ENDBRANCH  61  84
ENDBRANCH  35  36
ENDBRANCH  27  30
ENDBRANCH  25  26
ENDBRANCH  24  25
ENDBRANCH  23  24
ENDBRANCH   1  23
TORSDOF 21
ENDMDL
MODEL 3
REMARK VINA RESULT:     -10.7      2.427      3.225
REMARK SMILES COCCN(CC(C)C)C(=O)N1CC[C@@H](C(=O)NCCCCNC(=O)c2ccc(-c3c4nc(c(-c5cccc(S(=O)(=O)[O-])c5F)c5ccc([nH]5)c(-c5cccc(S(=O)(=O)[O-])c5F)c5nc(c(-c6cccc(S(=O)(=O)[O-])c6F)c6ccc3[nH]6)C=C5)C=C4)cc2)[C@H]1C
REMARK SMILES IDX 19 1 18 2 16 3 17 4 15 6 12 7 13 8 89 9 14 10 90 11 10 12
REMARK SMILES IDX 11 13 5 14 4 15 3 16 2 17 1 18 6 19 7 20 8 21 9 22 20 23
REMARK SMILES IDX 21 24 22 25 23 26 24 27 25 29 26 30 27 31 88 32 28 33 87 34
REMARK SMILES IDX 29 35 30 36 31 37 81 38 32 39 86 40 80 41 82 42 33 43 85 44
REMARK SMILES IDX 79 45 78 46 34 48 66 49 46 50 65 51 47 52 50 53 64 54 83 55
REMARK SMILES IDX 48 56 49 57 63 59 84 60 51 61 35 62 36 63 44 64 37 65 39 66
REMARK SMILES IDX 45 67 38 68 40 69 41 70 42 71 43 72 67 73 68 74 76 75 69 76
REMARK SMILES IDX 71 77 77 78 70 79 72 80 73 81 74 82 75 83 52 84 53 85 61 86
REMARK SMILES IDX 54 87 56 88 62 89 55 90 57 91 58 92 59 93 60 94
REMARK H PARENT 18 5 23 28 82 47 50 58
REMARK Flexibility Score: inf
ROOT
ATOM      1  C   UNL A   1      34.988  23.042  22.965  1.00  0.00     0.116 C 
ENDROOT
BRANCH   1   2
ATOM      2  N   UNL A   1      34.085  21.926  23.285  1.00  0.00    -0.356 N 
ATOM      3  C   UNL A   1      32.980  21.718  24.054  1.00  0.00     0.225 C 
ATOM      4  O   UNL A   1      32.496  20.579  23.965  1.00  0.00    -0.275 OA
ATOM      5  H   UNL A   1      34.353  21.103  22.813  1.00  0.00     0.163 HD
BRANCH   3   6
ATOM      6  C   UNL A   1      32.305  22.696  25.042  1.00  0.00     0.102 C 
ATOM      7  N   UNL A   1      30.729  24.490  25.392  1.00  0.00    -0.321 N 
ATOM      8  C   UNL A   1      30.585  23.487  26.443  1.00  0.00     0.122 C 
ATOM      9  C   UNL A   1      31.841  24.081  24.518  1.00  0.00     0.096 C 
ATOM     10  C   UNL A   1      31.116  22.193  25.845  1.00  0.00     0.037 C 
ATOM     11  C   UNL A   1      31.408  23.915  23.109  1.00  0.00     0.032 C 
BRANCH   7  12
ATOM     12  C   UNL A   1      30.451  25.803  25.738  1.00  0.00     0.320 C 
ATOM     13  O   UNL A   1      29.774  26.029  26.745  1.00  0.00    -0.248 OA
BRANCH  12  14
ATOM     14  N   UNL A   1      30.774  26.826  24.848  1.00  0.00    -0.322 N 
BRANCH  14  15
ATOM     15  C   UNL A   1      29.761  27.149  23.827  1.00  0.00     0.149 C 
BRANCH  15  16
ATOM     16  C   UNL A   1      30.389  27.517  22.460  1.00  0.00     0.181 C 
BRANCH  16  17
ATOM     17  O   UNL A   1      30.182  28.879  22.084  1.00  0.00    -0.383 OA
ATOM     18  C   UNL A   1      28.897  29.386  22.418  1.00  0.00     0.194 C 
ENDBRANCH  16  17
ENDBRANCH  15  16
ENDBRANCH  14  15
BRANCH  14  19
ATOM     19  C   UNL A   1      32.075  27.464  24.626  1.00  0.00     0.124 C 
BRANCH  19  20
ATOM     20  C   UNL A   1      32.489  28.558  25.662  1.00  0.00     0.002 C 
ATOM     21  C   UNL A   1      33.980  28.933  25.737  1.00  0.00     0.009 C 
ATOM     22  C   UNL A   1      31.625  29.826  25.476  1.00  0.00     0.009 C 
ENDBRANCH  19  20
ENDBRANCH  14  19
ENDBRANCH  12  14
ENDBRANCH   7  12
ENDBRANCH   3   6
ENDBRANCH   1   2
BRANCH   1  23
ATOM     23  C   UNL A   1      36.391  22.932  23.606  1.00  0.00     0.023 C 
BRANCH  23  24
ATOM     24  C   UNL A   1      36.693  23.674  24.888  1.00  0.00     0.023 C 
BRANCH  24  25
ATOM     25  C   UNL A   1      37.019  22.805  26.076  1.00  0.00     0.116 C 
BRANCH  25  26
ATOM     26  N   UNL A   1      38.321  22.149  26.037  1.00  0.00    -0.352 N 
ATOM     27  C   UNL A   1      39.535  22.686  26.419  1.00  0.00     0.251 C 
ATOM     28  H   UNL A   1      38.337  21.223  25.702  1.00  0.00     0.163 HD
ATOM     29  O   UNL A   1      40.573  22.040  26.317  1.00  0.00    -0.269 OA
BRANCH  27  30
ATOM     30  C   UNL A   1      39.557  24.089  26.893  1.00  0.00     0.039 A 
ATOM     31  C   UNL A   1      39.310  24.361  28.239  1.00  0.00     0.014 A 
ATOM     32  C   UNL A   1      40.001  25.096  26.037  1.00  0.00     0.014 A 
ATOM     33  C   UNL A   1      39.615  25.628  28.746  1.00  0.00     0.010 A 
ATOM     34  C   UNL A   1      40.446  26.293  26.575  1.00  0.00     0.010 A 
ATOM     35  C   UNL A   1      40.240  26.585  27.930  1.00  0.00    -0.014 A 
BRANCH  35  36
ATOM     36  C   UNL A   1      40.667  27.912  28.447  1.00  0.00     0.031 A 
ATOM     37  C   UNL A   1      42.138  28.216  28.579  1.00  0.00     0.074 A 
ATOM     38  C   UNL A   1      39.751  28.795  28.898  1.00  0.00     0.049 A 
ATOM     39  N   UNL A   1      42.721  29.266  29.095  1.00  0.00    -0.248 NA
ATOM     40  C   UNL A   1      43.081  27.178  28.121  1.00  0.00     0.031 C 
ATOM     41  C   UNL A   1      38.302  28.579  28.935  1.00  0.00     0.029 A 
ATOM     42  N   UNL A   1      39.908  30.049  29.434  1.00  0.00    -0.354 N 
ATOM     43  C   UNL A   1      44.082  28.987  29.076  1.00  0.00     0.074 A 
ATOM     44  C   UNL A   1      44.237  27.648  28.559  1.00  0.00     0.031 C 
ATOM     45  C   UNL A   1      37.705  29.670  29.442  1.00  0.00     0.029 A 
ATOM     46  C   UNL A   1      38.724  30.655  29.788  1.00  0.00     0.049 A 
ATOM     47  H   UNL A   1      40.787  30.475  29.556  1.00  0.00     0.167 HD
ATOM     48  C   UNL A   1      45.120  29.790  29.406  1.00  0.00     0.034 A 
ATOM     49  C   UNL A   1      38.490  31.871  30.318  1.00  0.00     0.034 A 
ATOM     50  C   UNL A   1      44.968  31.155  29.824  1.00  0.00     0.049 A 
ATOM     51  C   UNL A   1      39.657  32.788  30.574  1.00  0.00     0.074 A 
ATOM     52  C   UNL A   1      45.952  32.094  30.071  1.00  0.00     0.029 A 
ATOM     53  N   UNL A   1      43.749  31.778  30.040  1.00  0.00    -0.354 N 
ATOM     54  N   UNL A   1      40.936  32.566  30.388  1.00  0.00    -0.248 NA
ATOM     55  C   UNL A   1      39.349  34.137  31.070  1.00  0.00     0.031 C 
ATOM     56  C   UNL A   1      45.325  33.289  30.440  1.00  0.00     0.029 A 
ATOM     57  C   UNL A   1      43.953  33.095  30.411  1.00  0.00     0.049 A 
ATOM     58  H   UNL A   1      42.869  31.348  29.944  1.00  0.00     0.167 HD
ATOM     59  C   UNL A   1      41.580  33.756  30.707  1.00  0.00     0.074 A 
ATOM     60  C   UNL A   1      40.548  34.702  31.077  1.00  0.00     0.031 C 
ATOM     61  C   UNL A   1      42.907  34.037  30.711  1.00  0.00     0.034 A 
BRANCH  48  62
ATOM     62  C   UNL A   1      46.511  29.234  29.239  1.00  0.00     0.023 A 
ATOM     63  C   UNL A   1      47.153  28.632  30.340  1.00  0.00     0.012 A 
ATOM     64  C   UNL A   1      47.169  29.281  27.996  1.00  0.00     0.148 A 
ATOM     65  C   UNL A   1      48.445  28.124  30.221  1.00  0.00     0.002 A 
ATOM     66  C   UNL A   1      48.439  28.729  27.871  1.00  0.00     0.091 A 
ATOM     67  F   UNL A   1      46.554  29.880  26.967  1.00  0.00    -0.205 F 
ATOM     68  C   UNL A   1      49.083  28.164  28.986  1.00  0.00     0.022 A 
BRANCH  66  69
ATOM     69  S   UNL A   1      49.314  28.659  26.305  1.00  0.00     0.127 S 
ATOM     70  O   UNL A   1      49.991  29.954  26.287  1.00  0.00    -0.237 OA
ATOM     71  O   UNL A   1      50.200  27.509  26.498  1.00  0.00    -0.237 OA
ATOM     72  O   UNL A   1      48.293  28.471  25.285  1.00  0.00    -0.744 OA
ENDBRANCH  66  69
ENDBRANCH  48  62
BRANCH  49  73
ATOM     73  C   UNL A   1      37.090  32.334  30.543  1.00  0.00     0.023 A 
ATOM     74  C   UNL A   1      36.520  32.194  31.825  1.00  0.00     0.012 A 
ATOM     75  C   UNL A   1      36.331  32.930  29.519  1.00  0.00     0.148 A 
ATOM     76  C   UNL A   1      35.211  32.608  32.073  1.00  0.00     0.002 A 
ATOM     77  C   UNL A   1      35.045  33.389  29.786  1.00  0.00     0.091 A 
ATOM     78  F   UNL A   1      36.884  33.044  28.303  1.00  0.00    -0.205 F 
ATOM     79  C   UNL A   1      34.476  33.214  31.057  1.00  0.00     0.022 A 
BRANCH  77  80
ATOM     80  S   UNL A   1      34.077  34.297  28.575  1.00  0.00     0.127 S 
ATOM     81  O   UNL A   1      34.057  33.367  27.449  1.00  0.00    -0.237 OA
ATOM     82  O   UNL A   1      32.796  34.458  29.266  1.00  0.00    -0.237 OA
ATOM     83  O   UNL A   1      34.798  35.545  28.359  1.00  0.00    -0.744 OA
ENDBRANCH  77  80
ENDBRANCH  49  73
BRANCH  61  84
ATOM     84  C   UNL A   1      43.326  35.431  31.090  1.00  0.00     0.023 A 
ATOM     85  C   UNL A   1      43.639  35.724  32.431  1.00  0.00     0.012 A 
ATOM     86  C   UNL A   1      43.492  36.424  30.105  1.00  0.00     0.148 A 
ATOM     87  C   UNL A   1      44.086  36.996  32.791  1.00  0.00     0.002 A 
ATOM     88  C   UNL A   1      43.982  37.673  30.463  1.00  0.00     0.091 A 
ATOM     89  F   UNL A   1      43.168  36.129  28.838  1.00  0.00    -0.205 F 
ATOM     90  C   UNL A   1      44.269  37.964  31.807  1.00  0.00     0.022 A 
BRANCH  88  91
ATOM     91  S   UNL A   1      44.340  38.944  29.246  1.00  0.00     0.127 S 
ATOM     92  O   UNL A   1      43.009  39.485  28.978  1.00  0.00    -0.237 OA
ATOM     93  O   UNL A   1      45.227  39.845  29.984  1.00  0.00    -0.237 OA
ATOM     94  O   UNL A   1      44.978  38.256  28.130  1.00  0.00    -0.744 OA
ENDBRANCH  88  91
ENDBRANCH  61  84
ENDBRANCH  35  36
ENDBRANCH  27  30
ENDBRANCH  25  26
ENDBRANCH  24  25
ENDBRANCH  23  24
ENDBRANCH   1  23
TORSDOF 21
ENDMDL
