MODEL 1
REMARK VINA RESULT:     -12.1      0.000      0.000
REMARK SMILES [NH3+]C1(C(=O)N2[C@@H](C(=O)NCCCCNC(=O)c3ccc(-c4c5nc(c(-c6cccc(S(=O)(=O)[O-])c6F)c6ccc([nH]6)c(-c6cccc(S(=O)(=O)[O-])c6F)c6nc(c(-c7cccc(S(=O)(=O)[O-])c7F)c7ccc4[nH]7)C=C6)C=C5)cc3)CC[C@@H]3CCCC[C@@H]32)CC1
REMARK SMILES IDX 11 1 10 2 9 3 7 4 8 5 6 7 5 8 87 9 80 10 82 11 86 12 81 13
REMARK SMILES IDX 83 14 85 15 84 16 3 17 4 18 2 19 88 20 89 21 1 22 12 26
REMARK SMILES IDX 13 27 14 28 15 29 16 31 17 32 18 33 79 34 19 35 78 36 20 37
REMARK SMILES IDX 21 38 22 39 72 40 23 41 77 42 71 43 73 44 24 45 76 46 70 47
REMARK SMILES IDX 69 48 25 50 57 51 37 52 56 53 38 54 41 55 55 56 74 57 39 58
REMARK SMILES IDX 40 59 54 61 75 62 42 63 26 64 27 65 35 66 28 67 30 68 36 69
REMARK SMILES IDX 29 70 31 71 32 72 33 73 34 74 58 75 59 76 67 77 60 78 62 79
REMARK SMILES IDX 68 80 61 81 63 82 64 83 65 84 66 85 43 86 44 87 52 88 45 89
REMARK SMILES IDX 47 90 53 91 46 92 48 93 49 94 50 95 51 96
REMARK H PARENT 9 6 1 23 1 24 1 25 14 30 73 49 41 60
REMARK Flexibility Score: inf
ROOT
ATOM      1  C   UNL A   1      32.016  27.829  27.362  1.00  0.00     0.023 C 
ENDROOT
BRANCH   1   2
ATOM      2  C   UNL A   1      32.206  26.640  26.420  1.00  0.00     0.116 C 
BRANCH   2   3
ATOM      3  N   UNL A   1      31.436  25.509  26.887  1.00  0.00    -0.354 N 
ATOM      4  C   UNL A   1      31.667  24.183  26.729  1.00  0.00     0.242 C 
ATOM      5  O   UNL A   1      30.734  23.405  26.961  1.00  0.00    -0.273 OA
ATOM      6  H   UNL A   1      30.623  25.734  27.394  1.00  0.00     0.163 HD
BRANCH   4   7
ATOM      7  C   UNL A   1      32.979  23.643  26.126  1.00  0.00     0.175 C 
ATOM      8  N   UNL A   1      32.961  22.985  24.790  1.00  0.00    -0.322 N 
ATOM      9  C   UNL A   1      34.177  22.230  24.419  1.00  0.00     0.089 C 
ATOM     10  C   UNL A   1      33.564  22.717  27.229  1.00  0.00     0.036 C 
ATOM     11  C   UNL A   1      34.578  21.225  25.494  1.00  0.00     0.012 C 
ATOM     12  C   UNL A   1      35.324  23.202  24.058  1.00  0.00     0.025 C 
ATOM     13  C   UNL A   1      34.808  21.940  26.825  1.00  0.00     0.008 C 
ATOM     14  C   UNL A   1      35.804  20.450  25.008  1.00  0.00     0.006 C 
ATOM     15  C   UNL A   1      36.730  22.602  23.973  1.00  0.00     0.002 C 
ATOM     16  C   UNL A   1      37.012  21.350  24.803  1.00  0.00     0.000 C 
BRANCH   8  17
ATOM     17  C   UNL A   1      32.185  23.365  23.679  1.00  0.00     0.284 C 
ATOM     18  O   UNL A   1      31.522  22.536  23.052  1.00  0.00    -0.268 OA
BRANCH  17  19
ATOM     19  C   UNL A   1      32.078  24.791  23.177  1.00  0.00     0.174 C 
ATOM     20  C   UNL A   1      32.866  25.032  21.888  1.00  0.00     0.086 C 
ATOM     21  C   UNL A   1      33.187  25.810  23.117  1.00  0.00     0.086 C 
BRANCH  19  22
ATOM     22  N   UNL A   1      30.669  25.272  23.178  1.00  0.00    -0.345 N 
ATOM     23  H   UNL A   1      30.640  26.244  22.870  1.00  0.00     0.345 HD
ATOM     24  H   UNL A   1      30.286  25.204  24.121  1.00  0.00     0.345 HD
ATOM     25  H   UNL A   1      30.112  24.698  22.544  1.00  0.00     0.345 HD
ENDBRANCH  19  22
ENDBRANCH  17  19
ENDBRANCH   8  17
ENDBRANCH   4   7
ENDBRANCH   2   3
ENDBRANCH   1   2
BRANCH   1  26
ATOM     26  C   UNL A   1      31.525  29.104  26.673  1.00  0.00     0.023 C 
BRANCH  26  27
ATOM     27  C   UNL A   1      32.628  29.980  26.096  1.00  0.00     0.116 C 
BRANCH  27  28
ATOM     28  N   UNL A   1      32.456  31.386  26.435  1.00  0.00    -0.352 N 
ATOM     29  C   UNL A   1      33.212  32.158  27.280  1.00  0.00     0.251 C 
ATOM     30  H   UNL A   1      31.698  31.842  26.001  1.00  0.00     0.163 HD
ATOM     31  O   UNL A   1      32.849  33.292  27.581  1.00  0.00    -0.269 OA
BRANCH  29  32
ATOM     32  C   UNL A   1      34.454  31.593  27.842  1.00  0.00     0.039 A 
ATOM     33  C   UNL A   1      35.564  32.425  28.004  1.00  0.00     0.014 A 
ATOM     34  C   UNL A   1      34.499  30.258  28.250  1.00  0.00     0.014 A 
ATOM     35  C   UNL A   1      36.706  31.928  28.635  1.00  0.00     0.010 A 
ATOM     36  C   UNL A   1      35.608  29.789  28.945  1.00  0.00     0.010 A 
ATOM     37  C   UNL A   1      36.724  30.617  29.139  1.00  0.00    -0.014 A 
BRANCH  37  38
ATOM     38  C   UNL A   1      37.897  30.093  29.882  1.00  0.00     0.031 A 
ATOM     39  C   UNL A   1      38.174  30.568  31.283  1.00  0.00     0.074 A 
ATOM     40  C   UNL A   1      38.761  29.265  29.264  1.00  0.00     0.049 A 
ATOM     41  N   UNL A   1      39.177  30.274  32.069  1.00  0.00    -0.248 NA
ATOM     42  C   UNL A   1      37.214  31.520  31.869  1.00  0.00     0.031 C 
ATOM     43  C   UNL A   1      38.648  28.803  27.878  1.00  0.00     0.029 A 
ATOM     44  N   UNL A   1      39.924  28.688  29.711  1.00  0.00    -0.354 N 
ATOM     45  C   UNL A   1      38.992  31.031  33.219  1.00  0.00     0.074 A 
ATOM     46  C   UNL A   1      37.799  31.823  33.017  1.00  0.00     0.031 C 
ATOM     47  C   UNL A   1      39.694  28.013  27.590  1.00  0.00     0.029 A 
ATOM     48  C   UNL A   1      40.567  27.933  28.757  1.00  0.00     0.049 A 
ATOM     49  H   UNL A   1      40.264  28.803  30.627  1.00  0.00     0.167 HD
ATOM     50  C   UNL A   1      39.729  31.042  34.354  1.00  0.00     0.034 A 
ATOM     51  C   UNL A   1      41.732  27.257  28.816  1.00  0.00     0.034 A 
ATOM     52  C   UNL A   1      40.884  30.214  34.569  1.00  0.00     0.049 A 
ATOM     53  C   UNL A   1      42.503  27.245  30.108  1.00  0.00     0.074 A 
ATOM     54  C   UNL A   1      41.643  30.079  35.718  1.00  0.00     0.029 A 
ATOM     55  N   UNL A   1      41.451  29.385  33.615  1.00  0.00    -0.354 N 
ATOM     56  N   UNL A   1      42.219  27.834  31.244  1.00  0.00    -0.248 NA
ATOM     57  C   UNL A   1      43.735  26.444  30.140  1.00  0.00     0.031 C 
ATOM     58  C   UNL A   1      42.682  29.180  35.452  1.00  0.00     0.029 A 
ATOM     59  C   UNL A   1      42.555  28.740  34.145  1.00  0.00     0.049 A 
ATOM     60  H   UNL A   1      41.119  29.271  32.695  1.00  0.00     0.167 HD
ATOM     61  C   UNL A   1      43.214  27.447  32.135  1.00  0.00     0.074 A 
ATOM     62  C   UNL A   1      44.097  26.556  31.411  1.00  0.00     0.031 C 
ATOM     63  C   UNL A   1      43.391  27.809  33.430  1.00  0.00     0.034 A 
BRANCH  50  64
ATOM     64  C   UNL A   1      39.273  31.935  35.478  1.00  0.00     0.023 A 
ATOM     65  C   UNL A   1      38.394  31.424  36.456  1.00  0.00     0.012 A 
ATOM     66  C   UNL A   1      39.756  33.251  35.603  1.00  0.00     0.148 A 
ATOM     67  C   UNL A   1      37.978  32.219  37.522  1.00  0.00     0.002 A 
ATOM     68  C   UNL A   1      39.371  34.024  36.694  1.00  0.00     0.091 A 
ATOM     69  F   UNL A   1      40.573  33.726  34.653  1.00  0.00    -0.205 F 
ATOM     70  C   UNL A   1      38.474  33.513  37.647  1.00  0.00     0.022 A 
BRANCH  68  71
ATOM     71  S   UNL A   1      40.016  35.674  36.989  1.00  0.00     0.127 S 
ATOM     72  O   UNL A   1      39.332  36.040  38.228  1.00  0.00    -0.237 OA
ATOM     73  O   UNL A   1      41.450  35.423  37.135  1.00  0.00    -0.237 OA
ATOM     74  O   UNL A   1      39.652  36.462  35.820  1.00  0.00    -0.744 OA
ENDBRANCH  68  71
ENDBRANCH  50  64
BRANCH  51  75
ATOM     75  C   UNL A   1      42.202  26.478  27.636  1.00  0.00     0.023 A 
ATOM     76  C   UNL A   1      42.997  27.112  26.662  1.00  0.00     0.012 A 
ATOM     77  C   UNL A   1      41.889  25.113  27.484  1.00  0.00     0.148 A 
ATOM     78  C   UNL A   1      43.444  26.413  25.541  1.00  0.00     0.002 A 
ATOM     79  C   UNL A   1      42.382  24.408  26.392  1.00  0.00     0.091 A 
ATOM     80  F   UNL A   1      41.121  24.530  28.415  1.00  0.00    -0.205 F 
ATOM     81  C   UNL A   1      43.146  25.059  25.411  1.00  0.00     0.022 A 
BRANCH  79  82
ATOM     82  S   UNL A   1      42.158  22.635  26.213  1.00  0.00     0.127 S 
ATOM     83  O   UNL A   1      42.828  22.375  24.941  1.00  0.00    -0.237 OA
ATOM     84  O   UNL A   1      42.855  22.119  27.392  1.00  0.00    -0.237 OA
ATOM     85  O   UNL A   1      40.718  22.419  26.229  1.00  0.00    -0.744 OA
ENDBRANCH  79  82
ENDBRANCH  51  75
BRANCH  63  86
ATOM     86  C   UNL A   1      44.562  27.217  34.168  1.00  0.00     0.023 A 
ATOM     87  C   UNL A   1      45.765  27.943  34.269  1.00  0.00     0.012 A 
ATOM     88  C   UNL A   1      44.442  25.978  34.829  1.00  0.00     0.148 A 
ATOM     89  C   UNL A   1      46.841  27.431  34.992  1.00  0.00     0.002 A 
ATOM     90  C   UNL A   1      45.502  25.497  35.588  1.00  0.00     0.091 A 
ATOM     91  F   UNL A   1      43.295  25.295  34.704  1.00  0.00    -0.205 F 
ATOM     92  C   UNL A   1      46.706  26.216  35.660  1.00  0.00     0.022 A 
BRANCH  90  93
ATOM     93  S   UNL A   1      45.383  23.993  36.560  1.00  0.00     0.127 S 
ATOM     94  O   UNL A   1      46.762  23.509  36.532  1.00  0.00    -0.237 OA
ATOM     95  O   UNL A   1      44.941  24.497  37.862  1.00  0.00    -0.237 OA
ATOM     96  O   UNL A   1      44.410  23.149  35.879  1.00  0.00    -0.744 OA
ENDBRANCH  90  93
ENDBRANCH  63  86
ENDBRANCH  37  38
ENDBRANCH  29  32
ENDBRANCH  27  28
ENDBRANCH  26  27
ENDBRANCH   1  26
TORSDOF 17
ENDMDL
MODEL 2
REMARK VINA RESULT:     -12.0      1.956      2.616
REMARK SMILES [NH3+]C1(C(=O)N2[C@@H](C(=O)NCCCCNC(=O)c3ccc(-c4c5nc(c(-c6cccc(S(=O)(=O)[O-])c6F)c6ccc([nH]6)c(-c6cccc(S(=O)(=O)[O-])c6F)c6nc(c(-c7cccc(S(=O)(=O)[O-])c7F)c7ccc4[nH]7)C=C6)C=C5)cc3)CC[C@@H]3CCCC[C@@H]32)CC1
REMARK SMILES IDX 11 1 10 2 9 3 7 4 8 5 6 7 5 8 87 9 80 10 82 11 86 12 81 13
REMARK SMILES IDX 83 14 85 15 84 16 3 17 4 18 2 19 88 20 89 21 1 22 12 26
REMARK SMILES IDX 13 27 14 28 15 29 16 31 17 32 18 33 79 34 19 35 78 36 20 37
REMARK SMILES IDX 21 38 22 39 72 40 23 41 77 42 71 43 73 44 24 45 76 46 70 47
REMARK SMILES IDX 69 48 25 50 57 51 37 52 56 53 38 54 41 55 55 56 74 57 39 58
REMARK SMILES IDX 40 59 54 61 75 62 42 63 26 64 27 65 35 66 28 67 30 68 36 69
REMARK SMILES IDX 29 70 31 71 32 72 33 73 34 74 58 75 59 76 67 77 60 78 62 79
REMARK SMILES IDX 68 80 61 81 63 82 64 83 65 84 66 85 43 86 44 87 52 88 45 89
REMARK SMILES IDX 47 90 53 91 46 92 48 93 49 94 50 95 51 96
REMARK H PARENT 9 6 1 23 1 24 1 25 14 30 73 49 41 60
REMARK Flexibility Score: inf
ROOT
ATOM      1  C   UNL A   1      31.699  27.658  27.109  1.00  0.00     0.023 C 
ENDROOT
BRANCH   1   2
ATOM      2  C   UNL A   1      31.943  26.434  26.226  1.00  0.00     0.116 C 
BRANCH   2   3
ATOM      3  N   UNL A   1      31.338  25.263  26.820  1.00  0.00    -0.354 N 
ATOM      4  C   UNL A   1      31.719  23.965  26.751  1.00  0.00     0.242 C 
ATOM      5  O   UNL A   1      30.899  23.106  27.095  1.00  0.00    -0.273 OA
ATOM      6  H   UNL A   1      30.529  25.434  27.355  1.00  0.00     0.163 HD
BRANCH   4   7
ATOM      7  C   UNL A   1      33.057  23.533  26.118  1.00  0.00     0.175 C 
ATOM      8  N   UNL A   1      33.060  22.865  24.786  1.00  0.00    -0.322 N 
ATOM      9  C   UNL A   1      34.327  22.213  24.389  1.00  0.00     0.089 C 
ATOM     10  C   UNL A   1      33.746  22.669  27.210  1.00  0.00     0.036 C 
ATOM     11  C   UNL A   1      34.838  21.255  25.459  1.00  0.00     0.012 C 
ATOM     12  C   UNL A   1      35.377  23.276  23.992  1.00  0.00     0.025 C 
ATOM     13  C   UNL A   1      35.040  21.997  26.779  1.00  0.00     0.008 C 
ATOM     14  C   UNL A   1      36.113  20.582  24.945  1.00  0.00     0.006 C 
ATOM     15  C   UNL A   1      36.827  22.796  23.875  1.00  0.00     0.002 C 
ATOM     16  C   UNL A   1      37.235  21.580  24.704  1.00  0.00     0.000 C 
BRANCH   8  17
ATOM     17  C   UNL A   1      32.227  23.170  23.694  1.00  0.00     0.284 C 
ATOM     18  O   UNL A   1      31.562  22.293  23.136  1.00  0.00    -0.268 OA
BRANCH  17  19
ATOM     19  C   UNL A   1      32.058  24.566  23.130  1.00  0.00     0.174 C 
ATOM     20  C   UNL A   1      32.814  24.777  21.817  1.00  0.00     0.086 C 
ATOM     21  C   UNL A   1      33.125  25.622  23.003  1.00  0.00     0.086 C 
BRANCH  19  22
ATOM     22  N   UNL A   1      30.631  24.994  23.135  1.00  0.00    -0.345 N 
ATOM     23  H   UNL A   1      30.235  24.849  24.064  1.00  0.00     0.345 HD
ATOM     24  H   UNL A   1      30.108  24.444  22.454  1.00  0.00     0.345 HD
ATOM     25  H   UNL A   1      30.571  25.983  22.891  1.00  0.00     0.345 HD
ENDBRANCH  19  22
ENDBRANCH  17  19
ENDBRANCH   8  17
ENDBRANCH   4   7
ENDBRANCH   2   3
ENDBRANCH   1   2
BRANCH   1  26
ATOM     26  C   UNL A   1      32.976  28.336  27.611  1.00  0.00     0.023 C 
BRANCH  26  27
ATOM     27  C   UNL A   1      33.721  29.145  26.558  1.00  0.00     0.116 C 
BRANCH  27  28
ATOM     28  N   UNL A   1      33.778  30.563  26.884  1.00  0.00    -0.352 N 
ATOM     29  C   UNL A   1      34.720  31.229  27.628  1.00  0.00     0.251 C 
ATOM     30  H   UNL A   1      33.046  31.116  26.526  1.00  0.00     0.163 HD
ATOM     31  O   UNL A   1      34.549  32.403  27.943  1.00  0.00    -0.269 OA
BRANCH  29  32
ATOM     32  C   UNL A   1      35.928  30.503  28.064  1.00  0.00     0.039 A 
ATOM     33  C   UNL A   1      37.057  30.509  27.242  1.00  0.00     0.014 A 
ATOM     34  C   UNL A   1      35.954  29.861  29.305  1.00  0.00     0.014 A 
ATOM     35  C   UNL A   1      38.237  29.919  27.695  1.00  0.00     0.010 A 
ATOM     36  C   UNL A   1      37.151  29.341  29.784  1.00  0.00     0.010 A 
ATOM     37  C   UNL A   1      38.303  29.359  28.982  1.00  0.00    -0.014 A 
BRANCH  37  38
ATOM     38  C   UNL A   1      39.568  28.796  29.515  1.00  0.00     0.031 A 
ATOM     39  C   UNL A   1      40.280  29.485  30.647  1.00  0.00     0.074 A 
ATOM     40  C   UNL A   1      40.122  27.722  28.919  1.00  0.00     0.049 A 
ATOM     41  N   UNL A   1      41.423  29.182  31.206  1.00  0.00    -0.248 NA
ATOM     42  C   UNL A   1      39.641  30.689  31.206  1.00  0.00     0.031 C 
ATOM     43  C   UNL A   1      39.571  27.020  27.757  1.00  0.00     0.029 A 
ATOM     44  N   UNL A   1      41.288  27.051  29.188  1.00  0.00    -0.354 N 
ATOM     45  C   UNL A   1      41.657  30.174  32.151  1.00  0.00     0.074 A 
ATOM     46  C   UNL A   1      40.556  31.107  32.067  1.00  0.00     0.031 C 
ATOM     47  C   UNL A   1      40.395  26.017  27.417  1.00  0.00     0.029 A 
ATOM     48  C   UNL A   1      41.545  26.019  28.315  1.00  0.00     0.049 A 
ATOM     49  H   UNL A   1      41.884  27.285  29.936  1.00  0.00     0.167 HD
ATOM     50  C   UNL A   1      42.680  30.281  33.030  1.00  0.00     0.034 A 
ATOM     51  C   UNL A   1      42.593  25.175  28.243  1.00  0.00     0.034 A 
ATOM     52  C   UNL A   1      43.746  29.323  33.145  1.00  0.00     0.049 A 
ATOM     53  C   UNL A   1      43.690  25.285  29.268  1.00  0.00     0.074 A 
ATOM     54  C   UNL A   1      44.775  29.288  34.068  1.00  0.00     0.029 A 
ATOM     55  N   UNL A   1      43.922  28.233  32.307  1.00  0.00    -0.354 N 
ATOM     56  N   UNL A   1      43.807  26.130  30.264  1.00  0.00    -0.248 NA
ATOM     57  C   UNL A   1      44.780  24.303  29.184  1.00  0.00     0.031 C 
ATOM     58  C   UNL A   1      45.586  28.186  33.776  1.00  0.00     0.029 A 
ATOM     59  C   UNL A   1      45.047  27.523  32.686  1.00  0.00     0.049 A 
ATOM     60  H   UNL A   1      43.333  27.998  31.554  1.00  0.00     0.167 HD
ATOM     61  C   UNL A   1      44.961  25.759  30.946  1.00  0.00     0.074 A 
ATOM     62  C   UNL A   1      45.495  24.600  30.261  1.00  0.00     0.031 C 
ATOM     63  C   UNL A   1      45.534  26.336  32.031  1.00  0.00     0.034 A 
BRANCH  50  64
ATOM     64  C   UNL A   1      42.665  31.447  33.985  1.00  0.00     0.023 A 
ATOM     65  C   UNL A   1      43.257  32.667  33.599  1.00  0.00     0.012 A 
ATOM     66  C   UNL A   1      42.017  31.357  35.232  1.00  0.00     0.148 A 
ATOM     67  C   UNL A   1      43.232  33.770  34.452  1.00  0.00     0.002 A 
ATOM     68  C   UNL A   1      41.958  32.473  36.058  1.00  0.00     0.091 A 
ATOM     69  F   UNL A   1      41.479  30.182  35.590  1.00  0.00    -0.205 F 
ATOM     70  C   UNL A   1      42.575  33.676  35.674  1.00  0.00     0.022 A 
BRANCH  68  71
ATOM     71  S   UNL A   1      41.066  32.481  37.617  1.00  0.00     0.127 S 
ATOM     72  O   UNL A   1      41.903  31.606  38.439  1.00  0.00    -0.237 OA
ATOM     73  O   UNL A   1      41.111  33.895  37.992  1.00  0.00    -0.237 OA
ATOM     74  O   UNL A   1      39.735  31.972  37.321  1.00  0.00    -0.744 OA
ENDBRANCH  68  71
ENDBRANCH  50  64
BRANCH  51  75
ATOM     75  C   UNL A   1      42.619  24.105  27.207  1.00  0.00     0.023 A 
ATOM     76  C   UNL A   1      43.315  24.328  26.002  1.00  0.00     0.012 A 
ATOM     77  C   UNL A   1      41.984  22.865  27.412  1.00  0.00     0.148 A 
ATOM     78  C   UNL A   1      43.349  23.351  25.007  1.00  0.00     0.002 A 
ATOM     79  C   UNL A   1      42.067  21.875  26.439  1.00  0.00     0.091 A 
ATOM     80  F   UNL A   1      41.316  22.676  28.559  1.00  0.00    -0.205 F 
ATOM     81  C   UNL A   1      42.735  22.121  25.230  1.00  0.00     0.022 A 
BRANCH  79  82
ATOM     82  S   UNL A   1      41.418  20.220  26.696  1.00  0.00     0.127 S 
ATOM     83  O   UNL A   1      41.794  19.555  25.450  1.00  0.00    -0.237 OA
ATOM     84  O   UNL A   1      42.162  19.781  27.877  1.00  0.00    -0.237 OA
ATOM     85  O   UNL A   1      39.989  20.391  26.918  1.00  0.00    -0.744 OA
ENDBRANCH  79  82
ENDBRANCH  51  75
BRANCH  63  86
ATOM     86  C   UNL A   1      46.790  25.707  32.575  1.00  0.00     0.023 A 
ATOM     87  C   UNL A   1      48.048  26.158  32.132  1.00  0.00     0.012 A 
ATOM     88  C   UNL A   1      46.721  24.726  33.585  1.00  0.00     0.148 A 
ATOM     89  C   UNL A   1      49.220  25.620  32.664  1.00  0.00     0.002 A 
ATOM     90  C   UNL A   1      47.892  24.231  34.144  1.00  0.00     0.091 A 
ATOM     91  F   UNL A   1      45.513  24.297  33.979  1.00  0.00    -0.205 F 
ATOM     92  C   UNL A   1      49.142  24.667  33.677  1.00  0.00     0.022 A 
BRANCH  90  93
ATOM     93  S   UNL A   1      47.887  23.076  35.519  1.00  0.00     0.127 S 
ATOM     94  O   UNL A   1      49.317  22.906  35.772  1.00  0.00    -0.237 OA
ATOM     95  O   UNL A   1      47.170  23.825  36.553  1.00  0.00    -0.237 OA
ATOM     96  O   UNL A   1      47.191  21.888  35.044  1.00  0.00    -0.744 OA
ENDBRANCH  90  93
ENDBRANCH  63  86
ENDBRANCH  37  38
ENDBRANCH  29  32
ENDBRANCH  27  28
ENDBRANCH  26  27
ENDBRANCH   1  26
TORSDOF 17
ENDMDL
MODEL 3
REMARK VINA RESULT:     -11.9      4.979     10.204
REMARK SMILES [NH3+]C1(C(=O)N2[C@@H](C(=O)NCCCCNC(=O)c3ccc(-c4c5nc(c(-c6cccc(S(=O)(=O)[O-])c6F)c6ccc([nH]6)c(-c6cccc(S(=O)(=O)[O-])c6F)c6nc(c(-c7cccc(S(=O)(=O)[O-])c7F)c7ccc4[nH]7)C=C6)C=C5)cc3)CC[C@@H]3CCCC[C@@H]32)CC1
REMARK SMILES IDX 11 1 10 2 9 3 7 4 8 5 6 7 5 8 87 9 80 10 82 11 86 12 81 13
REMARK SMILES IDX 83 14 85 15 84 16 3 17 4 18 2 19 88 20 89 21 1 22 12 26
REMARK SMILES IDX 13 27 14 28 15 29 16 31 17 32 18 33 79 34 19 35 78 36 20 37
REMARK SMILES IDX 21 38 22 39 72 40 23 41 77 42 71 43 73 44 24 45 76 46 70 47
REMARK SMILES IDX 69 48 25 50 57 51 37 52 56 53 38 54 41 55 55 56 74 57 39 58
REMARK SMILES IDX 40 59 54 61 75 62 42 63 26 64 27 65 35 66 28 67 30 68 36 69
REMARK SMILES IDX 29 70 31 71 32 72 33 73 34 74 58 75 59 76 67 77 60 78 62 79
REMARK SMILES IDX 68 80 61 81 63 82 64 83 65 84 66 85 43 86 44 87 52 88 45 89
REMARK SMILES IDX 47 90 53 91 46 92 48 93 49 94 50 95 51 96
REMARK H PARENT 9 6 1 23 1 24 1 25 14 30 73 49 41 60
REMARK Flexibility Score: inf
ROOT
ATOM      1  C   UNL A   1      35.064  22.549  23.776  1.00  0.00     0.023 C 
ENDROOT
BRANCH   1   2
ATOM      2  C   UNL A   1      34.469  23.926  24.068  1.00  0.00     0.116 C 
BRANCH   2   3
ATOM      3  N   UNL A   1      33.994  24.532  22.844  1.00  0.00    -0.354 N 
ATOM      4  C   UNL A   1      33.271  25.664  22.665  1.00  0.00     0.242 C 
ATOM      5  O   UNL A   1      32.736  25.837  21.563  1.00  0.00    -0.273 OA
ATOM      6  H   UNL A   1      34.231  24.052  22.018  1.00  0.00     0.163 HD
BRANCH   4   7
ATOM      7  C   UNL A   1      32.969  26.639  23.821  1.00  0.00     0.175 C 
ATOM      8  N   UNL A   1      31.568  26.803  24.300  1.00  0.00    -0.322 N 
ATOM      9  C   UNL A   1      31.315  27.960  25.185  1.00  0.00     0.089 C 
ATOM     10  C   UNL A   1      33.597  27.987  23.370  1.00  0.00     0.036 C 
ATOM     11  C   UNL A   1      31.819  29.266  24.579  1.00  0.00     0.012 C 
ATOM     12  C   UNL A   1      31.893  27.697  26.594  1.00  0.00     0.025 C 
ATOM     13  C   UNL A   1      33.315  29.168  24.286  1.00  0.00     0.008 C 
ATOM     14  C   UNL A   1      31.465  30.415  25.527  1.00  0.00     0.006 C 
ATOM     15  C   UNL A   1      32.009  28.908  27.525  1.00  0.00     0.002 C 
ATOM     16  C   UNL A   1      32.155  30.283  26.876  1.00  0.00     0.000 C 
BRANCH   8  17
ATOM     17  C   UNL A   1      30.601  25.789  24.424  1.00  0.00     0.284 C 
ATOM     18  O   UNL A   1      29.447  25.957  24.021  1.00  0.00    -0.268 OA
BRANCH  17  19
ATOM     19  C   UNL A   1      30.882  24.428  25.027  1.00  0.00     0.174 C 
ATOM     20  C   UNL A   1      30.239  24.238  26.403  1.00  0.00     0.086 C 
ATOM     21  C   UNL A   1      31.717  24.139  26.249  1.00  0.00     0.086 C 
BRANCH  19  22
ATOM     22  N   UNL A   1      30.655  23.331  24.045  1.00  0.00    -0.345 N 
ATOM     23  H   UNL A   1      30.932  23.644  23.115  1.00  0.00     0.345 HD
ATOM     24  H   UNL A   1      29.667  23.080  24.038  1.00  0.00     0.345 HD
ATOM     25  H   UNL A   1      31.210  22.516  24.310  1.00  0.00     0.345 HD
ENDBRANCH  19  22
ENDBRANCH  17  19
ENDBRANCH   8  17
ENDBRANCH   4   7
ENDBRANCH   2   3
ENDBRANCH   1   2
BRANCH   1  26
ATOM     26  C   UNL A   1      36.558  22.432  24.083  1.00  0.00     0.023 C 
BRANCH  26  27
ATOM     27  C   UNL A   1      36.889  22.204  25.552  1.00  0.00     0.116 C 
BRANCH  27  28
ATOM     28  N   UNL A   1      37.905  21.176  25.739  1.00  0.00    -0.352 N 
ATOM     29  C   UNL A   1      39.201  21.327  26.165  1.00  0.00     0.251 C 
ATOM     30  H   UNL A   1      37.625  20.255  25.534  1.00  0.00     0.163 HD
ATOM     31  O   UNL A   1      39.982  20.381  26.126  1.00  0.00    -0.269 OA
BRANCH  29  32
ATOM     32  C   UNL A   1      39.646  22.651  26.641  1.00  0.00     0.039 A 
ATOM     33  C   UNL A   1      40.646  22.719  27.613  1.00  0.00     0.014 A 
ATOM     34  C   UNL A   1      39.107  23.816  26.091  1.00  0.00     0.014 A 
ATOM     35  C   UNL A   1      41.150  23.965  27.991  1.00  0.00     0.010 A 
ATOM     36  C   UNL A   1      39.662  25.049  26.413  1.00  0.00     0.010 A 
ATOM     37  C   UNL A   1      40.685  25.136  27.370  1.00  0.00    -0.014 A 
BRANCH  37  38
ATOM     38  C   UNL A   1      41.261  26.463  27.698  1.00  0.00     0.031 A 
ATOM     39  C   UNL A   1      42.688  26.775  27.336  1.00  0.00     0.074 A 
ATOM     40  C   UNL A   1      40.531  27.351  28.402  1.00  0.00     0.049 A 
ATOM     41  N   UNL A   1      43.386  27.851  27.592  1.00  0.00    -0.248 NA
ATOM     42  C   UNL A   1      43.439  25.731  26.618  1.00  0.00     0.031 C 
ATOM     43  C   UNL A   1      39.166  27.129  28.887  1.00  0.00     0.029 A 
ATOM     44  N   UNL A   1      40.845  28.605  28.861  1.00  0.00    -0.354 N 
ATOM     45  C   UNL A   1      44.662  27.600  27.104  1.00  0.00     0.074 A 
ATOM     46  C   UNL A   1      44.654  26.257  26.568  1.00  0.00     0.031 C 
ATOM     47  C   UNL A   1      38.761  28.211  29.571  1.00  0.00     0.029 A 
ATOM     48  C   UNL A   1      39.842  29.190  29.598  1.00  0.00     0.049 A 
ATOM     49  H   UNL A   1      41.707  29.045  28.679  1.00  0.00     0.167 HD
ATOM     50  C   UNL A   1      45.736  28.422  27.077  1.00  0.00     0.034 A 
ATOM     51  C   UNL A   1      39.801  30.381  30.230  1.00  0.00     0.034 A 
ATOM     52  C   UNL A   1      45.725  29.775  27.564  1.00  0.00     0.049 A 
ATOM     53  C   UNL A   1      40.992  31.297  30.137  1.00  0.00     0.074 A 
ATOM     54  C   UNL A   1      46.730  30.723  27.494  1.00  0.00     0.029 A 
ATOM     55  N   UNL A   1      44.658  30.370  28.217  1.00  0.00    -0.354 N 
ATOM     56  N   UNL A   1      42.134  31.106  29.522  1.00  0.00    -0.248 NA
ATOM     57  C   UNL A   1      40.875  32.608  30.791  1.00  0.00     0.031 C 
ATOM     58  C   UNL A   1      46.276  31.887  28.122  1.00  0.00     0.029 A 
ATOM     59  C   UNL A   1      44.981  31.671  28.562  1.00  0.00     0.049 A 
ATOM     60  H   UNL A   1      43.796  29.934  28.407  1.00  0.00     0.167 HD
ATOM     61  C   UNL A   1      42.856  32.283  29.683  1.00  0.00     0.074 A 
ATOM     62  C   UNL A   1      42.013  33.189  30.435  1.00  0.00     0.031 C 
ATOM     63  C   UNL A   1      44.109  32.582  29.260  1.00  0.00     0.034 A 
BRANCH  50  64
ATOM     64  C   UNL A   1      47.001  27.905  26.442  1.00  0.00     0.023 A 
ATOM     65  C   UNL A   1      47.959  27.247  27.240  1.00  0.00     0.012 A 
ATOM     66  C   UNL A   1      47.214  28.013  25.054  1.00  0.00     0.148 A 
ATOM     67  C   UNL A   1      49.125  26.734  26.674  1.00  0.00     0.002 A 
ATOM     68  C   UNL A   1      48.358  27.460  24.489  1.00  0.00     0.091 A 
ATOM     69  F   UNL A   1      46.303  28.661  24.315  1.00  0.00    -0.205 F 
ATOM     70  C   UNL A   1      49.319  26.831  25.300  1.00  0.00     0.022 A 
BRANCH  68  71
ATOM     71  S   UNL A   1      48.664  27.460  22.720  1.00  0.00     0.127 S 
ATOM     72  O   UNL A   1      49.983  28.088  22.649  1.00  0.00    -0.237 OA
ATOM     73  O   UNL A   1      48.651  26.031  22.404  1.00  0.00    -0.237 OA
ATOM     74  O   UNL A   1      47.577  28.224  22.125  1.00  0.00    -0.744 OA
ENDBRANCH  68  71
ENDBRANCH  50  64
BRANCH  51  75
ATOM     75  C   UNL A   1      38.564  30.803  30.944  1.00  0.00     0.023 A 
ATOM     76  C   UNL A   1      38.458  30.581  32.331  1.00  0.00     0.012 A 
ATOM     77  C   UNL A   1      37.506  31.443  30.269  1.00  0.00     0.148 A 
ATOM     78  C   UNL A   1      37.308  30.955  33.027  1.00  0.00     0.002 A 
ATOM     79  C   UNL A   1      36.386  31.862  30.978  1.00  0.00     0.091 A 
ATOM     80  F   UNL A   1      37.621  31.635  28.948  1.00  0.00    -0.205 F 
ATOM     81  C   UNL A   1      36.277  31.605  32.353  1.00  0.00     0.022 A 
BRANCH  79  82
ATOM     82  S   UNL A   1      35.072  32.821  30.217  1.00  0.00     0.127 S 
ATOM     83  O   UNL A   1      35.794  34.003  29.751  1.00  0.00    -0.237 OA
ATOM     84  O   UNL A   1      34.613  31.922  29.157  1.00  0.00    -0.237 OA
ATOM     85  O   UNL A   1      34.094  33.050  31.272  1.00  0.00    -0.744 OA
ENDBRANCH  79  82
ENDBRANCH  51  75
BRANCH  63  86
ATOM     86  C   UNL A   1      44.642  33.956  29.566  1.00  0.00     0.023 A 
ATOM     87  C   UNL A   1      45.333  34.187  30.772  1.00  0.00     0.012 A 
ATOM     88  C   UNL A   1      44.526  34.997  28.623  1.00  0.00     0.148 A 
ATOM     89  C   UNL A   1      45.876  35.442  31.046  1.00  0.00     0.002 A 
ATOM     90  C   UNL A   1      45.113  36.230  28.883  1.00  0.00     0.091 A 
ATOM     91  F   UNL A   1      43.849  34.762  27.490  1.00  0.00    -0.205 F 
ATOM     92  C   UNL A   1      45.777  36.458  30.099  1.00  0.00     0.022 A 
BRANCH  90  93
ATOM     93  S   UNL A   1      45.119  37.563  27.680  1.00  0.00     0.127 S 
ATOM     94  O   UNL A   1      45.804  38.625  28.415  1.00  0.00    -0.237 OA
ATOM     95  O   UNL A   1      45.894  36.987  26.580  1.00  0.00    -0.237 OA
ATOM     96  O   UNL A   1      43.722  37.824  27.361  1.00  0.00    -0.744 OA
ENDBRANCH  90  93
ENDBRANCH  63  86
ENDBRANCH  37  38
ENDBRANCH  29  32
ENDBRANCH  27  28
ENDBRANCH  26  27
ENDBRANCH   1  26
TORSDOF 17
ENDMDL
