MODEL 1
REMARK VINA RESULT:     -12.3      0.000      0.000
REMARK SMILES Cn1c(C[NH+]2CCCC2)nnc1[C@@H]1CCCN(c2cccc(C(=O)NCCCCNC(=O)c3ccc(-c4c5nc(c(-c6cccc(S(=O)(=O)[O-])c6F)c6ccc([nH]6)c(-c6cccc(S(=O)(=O)[O-])c6F)c6nc(c(-c7cccc(S(=O)(=O)[O-])c7F)c7ccc4[nH]7)C=C6)C=C5)cc3)n2)C1
REMARK SMILES IDX 27 1 26 2 25 3 23 4 24 5 22 7 18 8 19 9 96 10 20 11 21 12
REMARK SMILES IDX 17 13 13 14 14 15 97 16 15 17 16 18 12 19 1 20 2 21 3 22
REMARK SMILES IDX 10 23 11 24 4 25 5 26 6 27 9 28 7 30 8 31 28 32 29 33 30 34
REMARK SMILES IDX 31 35 32 37 33 38 34 39 95 40 35 41 94 42 36 43 37 44 38 45
REMARK SMILES IDX 88 46 39 47 93 48 87 49 89 50 40 51 92 52 86 53 85 54 41 56
REMARK SMILES IDX 73 57 53 58 72 59 54 60 57 61 71 62 90 63 55 64 56 65 70 67
REMARK SMILES IDX 91 68 58 69 42 70 43 71 51 72 44 73 46 74 52 75 45 76 47 77
REMARK SMILES IDX 48 78 49 79 50 80 74 81 75 82 83 83 76 84 78 85 84 86 77 87
REMARK SMILES IDX 79 88 80 89 81 90 82 91 59 92 60 93 68 94 61 95 63 96 69 97
REMARK SMILES IDX 62 98 64 99 65 100 66 101 67 102
REMARK H PARENT 25 6 5 29 30 36 89 55 57 66
REMARK Flexibility Score: inf
ROOT
ATOM      1  C   UNL A   1      34.705  30.924  28.319  1.00  0.00     0.023 C 
ENDROOT
BRANCH   1   2
ATOM      2  C   UNL A   1      34.956  29.648  27.500  1.00  0.00     0.116 C 
BRANCH   2   3
ATOM      3  N   UNL A   1      34.404  29.646  26.147  1.00  0.00    -0.351 N 
ATOM      4  C   UNL A   1      33.425  28.917  25.469  1.00  0.00     0.269 C 
ATOM      5  O   UNL A   1      32.855  29.535  24.564  1.00  0.00    -0.268 OA
ATOM      6  H   UNL A   1      34.827  30.323  25.571  1.00  0.00     0.163 HD
BRANCH   4   7
ATOM      7  C   UNL A   1      33.049  27.454  25.703  1.00  0.00     0.130 A 
ATOM      8  C   UNL A   1      33.586  25.201  25.147  1.00  0.00     0.129 A 
ATOM      9  C   UNL A   1      32.718  24.747  26.128  1.00  0.00     0.047 A 
ATOM     10  N   UNL A   1      33.723  26.533  24.930  1.00  0.00    -0.226 NA
ATOM     11  C   UNL A   1      31.967  25.664  26.858  1.00  0.00     0.006 A 
ATOM     12  C   UNL A   1      32.135  27.031  26.645  1.00  0.00     0.034 A 
BRANCH   8  13
ATOM     13  N   UNL A   1      34.235  24.243  24.354  1.00  0.00    -0.356 N 
ATOM     14  C   UNL A   1      32.529  23.647  22.636  1.00  0.00     0.077 C 
ATOM     15  C   UNL A   1      32.327  22.302  23.404  1.00  0.00     0.015 C 
ATOM     16  C   UNL A   1      33.955  24.111  22.922  1.00  0.00     0.129 C 
ATOM     17  C   UNL A   1      33.088  22.099  24.742  1.00  0.00     0.022 C 
ATOM     18  C   UNL A   1      34.345  22.936  24.978  1.00  0.00     0.118 C 
BRANCH  14  19
ATOM     19  C   UNL A   1      31.433  24.666  22.862  1.00  0.00     0.137 A 
ATOM     20  C   UNL A   1      32.228  26.776  21.627  1.00  0.00     0.153 C 
ATOM     21  N   UNL A   1      31.399  26.002  22.507  1.00  0.00    -0.313 N 
ATOM     22  C   UNL A   1      30.320  26.546  23.176  1.00  0.00     0.187 A 
ATOM     23  N   UNL A   1      29.609  25.562  23.678  1.00  0.00    -0.129 NA
ATOM     24  N   UNL A   1      30.276  24.389  23.440  1.00  0.00    -0.135 NA
BRANCH  22  25
ATOM     25  C   UNL A   1      30.088  28.012  23.360  1.00  0.00     0.341 C 
BRANCH  25  26
ATOM     26  N   UNL A   1      29.268  28.726  22.375  1.00  0.00    -0.329 N 
ATOM     27  C   UNL A   1      29.802  30.056  22.060  1.00  0.00     0.262 C 
ATOM     28  C   UNL A   1      27.876  28.950  22.751  1.00  0.00     0.262 C 
ATOM     29  H   UNL A   1      29.305  28.089  21.579  1.00  0.00     0.348 HD
ATOM     30  C   UNL A   1      29.068  31.042  22.954  1.00  0.00     0.067 C 
ATOM     31  C   UNL A   1      27.822  30.309  23.431  1.00  0.00     0.067 C 
ENDBRANCH  25  26
ENDBRANCH  22  25
ENDBRANCH  14  19
ENDBRANCH   8  13
ENDBRANCH   4   7
ENDBRANCH   2   3
ENDBRANCH   1   2
BRANCH   1  32
ATOM     32  C   UNL A   1      34.253  32.177  27.554  1.00  0.00     0.023 C 
BRANCH  32  33
ATOM     33  C   UNL A   1      32.772  32.558  27.629  1.00  0.00     0.116 C 
BRANCH  33  34
ATOM     34  N   UNL A   1      32.519  33.974  27.861  1.00  0.00    -0.352 N 
ATOM     35  C   UNL A   1      33.192  34.859  28.676  1.00  0.00     0.251 C 
ATOM     36  H   UNL A   1      31.759  34.354  27.364  1.00  0.00     0.163 HD
ATOM     37  O   UNL A   1      32.791  36.020  28.772  1.00  0.00    -0.269 OA
BRANCH  35  38
ATOM     38  C   UNL A   1      34.366  34.419  29.470  1.00  0.00     0.039 A 
ATOM     39  C   UNL A   1      34.153  33.799  30.706  1.00  0.00     0.014 A 
ATOM     40  C   UNL A   1      35.668  34.598  29.001  1.00  0.00     0.014 A 
ATOM     41  C   UNL A   1      35.237  33.282  31.425  1.00  0.00     0.010 A 
ATOM     42  C   UNL A   1      36.738  34.018  29.683  1.00  0.00     0.010 A 
ATOM     43  C   UNL A   1      36.536  33.345  30.898  1.00  0.00    -0.014 A 
BRANCH  43  44
ATOM     44  C   UNL A   1      37.686  32.686  31.579  1.00  0.00     0.031 A 
ATOM     45  C   UNL A   1      38.396  31.525  30.934  1.00  0.00     0.074 A 
ATOM     46  C   UNL A   1      38.029  33.065  32.827  1.00  0.00     0.049 A 
ATOM     47  N   UNL A   1      39.369  30.787  31.404  1.00  0.00    -0.248 NA
ATOM     48  C   UNL A   1      37.936  31.123  29.594  1.00  0.00     0.031 C 
ATOM     49  C   UNL A   1      37.369  34.119  33.601  1.00  0.00     0.029 A 
ATOM     50  N   UNL A   1      38.998  32.590  33.678  1.00  0.00    -0.354 N 
ATOM     51  C   UNL A   1      39.612  29.815  30.440  1.00  0.00     0.074 A 
ATOM     52  C   UNL A   1      38.660  30.035  29.374  1.00  0.00     0.031 C 
ATOM     53  C   UNL A   1      37.952  34.212  34.807  1.00  0.00     0.029 A 
ATOM     54  C   UNL A   1      39.002  33.204  34.910  1.00  0.00     0.049 A 
ATOM     55  H   UNL A   1      39.629  31.877  33.428  1.00  0.00     0.167 HD
ATOM     56  C   UNL A   1      40.557  28.844  30.428  1.00  0.00     0.034 A 
ATOM     57  C   UNL A   1      39.757  32.976  36.003  1.00  0.00     0.034 A 
ATOM     58  C   UNL A   1      41.525  28.646  31.475  1.00  0.00     0.049 A 
ATOM     59  C   UNL A   1      40.822  31.914  35.953  1.00  0.00     0.074 A 
ATOM     60  C   UNL A   1      42.577  27.747  31.515  1.00  0.00     0.029 A 
ATOM     61  N   UNL A   1      41.552  29.344  32.672  1.00  0.00    -0.354 N 
ATOM     62  N   UNL A   1      41.141  31.112  34.966  1.00  0.00    -0.248 NA
ATOM     63  C   UNL A   1      41.655  31.749  37.153  1.00  0.00     0.031 C 
ATOM     64  C   UNL A   1      43.221  27.882  32.749  1.00  0.00     0.029 A 
ATOM     65  C   UNL A   1      42.595  28.890  33.462  1.00  0.00     0.049 A 
ATOM     66  H   UNL A   1      40.923  30.059  32.922  1.00  0.00     0.167 HD
ATOM     67  C   UNL A   1      42.232  30.375  35.412  1.00  0.00     0.074 A 
ATOM     68  C   UNL A   1      42.533  30.841  36.750  1.00  0.00     0.031 C 
ATOM     69  C   UNL A   1      42.917  29.394  34.773  1.00  0.00     0.034 A 
BRANCH  56  70
ATOM     70  C   UNL A   1      40.623  27.947  29.217  1.00  0.00     0.023 A 
ATOM     71  C   UNL A   1      39.755  26.839  29.124  1.00  0.00     0.012 A 
ATOM     72  C   UNL A   1      41.502  28.226  28.152  1.00  0.00     0.148 A 
ATOM     73  C   UNL A   1      39.790  25.998  28.012  1.00  0.00     0.002 A 
ATOM     74  C   UNL A   1      41.496  27.411  27.025  1.00  0.00     0.091 A 
ATOM     75  F   UNL A   1      42.331  29.272  28.264  1.00  0.00    -0.205 F 
ATOM     76  C   UNL A   1      40.653  26.290  26.960  1.00  0.00     0.022 A 
BRANCH  74  77
ATOM     77  S   UNL A   1      42.508  27.748  25.579  1.00  0.00     0.127 S 
ATOM     78  O   UNL A   1      42.262  26.559  24.764  1.00  0.00    -0.237 OA
ATOM     79  O   UNL A   1      41.903  28.976  25.061  1.00  0.00    -0.237 OA
ATOM     80  O   UNL A   1      43.870  27.900  26.068  1.00  0.00    -0.744 OA
ENDBRANCH  74  77
ENDBRANCH  56  70
BRANCH  57  81
ATOM     81  C   UNL A   1      39.571  33.814  37.223  1.00  0.00     0.023 A 
ATOM     82  C   UNL A   1      40.082  35.127  37.247  1.00  0.00     0.012 A 
ATOM     83  C   UNL A   1      38.870  33.330  38.345  1.00  0.00     0.148 A 
ATOM     84  C   UNL A   1      39.929  35.930  38.377  1.00  0.00     0.002 A 
ATOM     85  C   UNL A   1      38.670  34.156  39.445  1.00  0.00     0.091 A 
ATOM     86  F   UNL A   1      38.400  32.075  38.306  1.00  0.00    -0.205 F 
ATOM     87  C   UNL A   1      39.215  35.450  39.472  1.00  0.00     0.022 A 
BRANCH  85  88
ATOM     88  S   UNL A   1      37.654  33.671  40.845  1.00  0.00     0.127 S 
ATOM     89  O   UNL A   1      38.539  32.752  41.554  1.00  0.00    -0.237 OA
ATOM     90  O   UNL A   1      37.434  34.955  41.513  1.00  0.00    -0.237 OA
ATOM     91  O   UNL A   1      36.452  33.078  40.273  1.00  0.00    -0.744 OA
ENDBRANCH  85  88
ENDBRANCH  57  81
BRANCH  69  92
ATOM     92  C   UNL A   1      44.091  28.777  35.491  1.00  0.00     0.023 A 
ATOM     93  C   UNL A   1      45.386  29.297  35.301  1.00  0.00     0.012 A 
ATOM     94  C   UNL A   1      43.896  27.729  36.412  1.00  0.00     0.148 A 
ATOM     95  C   UNL A   1      46.474  28.760  35.990  1.00  0.00     0.002 A 
ATOM     96  C   UNL A   1      44.974  27.233  37.133  1.00  0.00     0.091 A 
ATOM     97  F   UNL A   1      42.658  27.235  36.566  1.00  0.00    -0.205 F 
ATOM     98  C   UNL A   1      46.266  27.738  36.914  1.00  0.00     0.022 A 
BRANCH  96  99
ATOM     99  S   UNL A   1      44.789  25.987  38.415  1.00  0.00     0.127 S 
ATOM    100  O   UNL A   1      46.168  25.820  38.869  1.00  0.00    -0.237 OA
ATOM    101  O   UNL A   1      43.908  26.656  39.371  1.00  0.00    -0.237 OA
ATOM    102  O   UNL A   1      44.201  24.824  37.763  1.00  0.00    -0.744 OA
ENDBRANCH  96  99
ENDBRANCH  69  92
ENDBRANCH  43  44
ENDBRANCH  35  38
ENDBRANCH  33  34
ENDBRANCH  32  33
ENDBRANCH   1  32
TORSDOF 18
ENDMDL
MODEL 2
REMARK VINA RESULT:     -12.2      5.427      8.965
REMARK SMILES Cn1c(C[NH+]2CCCC2)nnc1[C@@H]1CCCN(c2cccc(C(=O)NCCCCNC(=O)c3ccc(-c4c5nc(c(-c6cccc(S(=O)(=O)[O-])c6F)c6ccc([nH]6)c(-c6cccc(S(=O)(=O)[O-])c6F)c6nc(c(-c7cccc(S(=O)(=O)[O-])c7F)c7ccc4[nH]7)C=C6)C=C5)cc3)n2)C1
REMARK SMILES IDX 27 1 26 2 25 3 23 4 24 5 22 7 18 8 19 9 96 10 20 11 21 12
REMARK SMILES IDX 17 13 13 14 14 15 97 16 15 17 16 18 12 19 1 20 2 21 3 22
REMARK SMILES IDX 10 23 11 24 4 25 5 26 6 27 9 28 7 30 8 31 28 32 29 33 30 34
REMARK SMILES IDX 31 35 32 37 33 38 34 39 95 40 35 41 94 42 36 43 37 44 38 45
REMARK SMILES IDX 88 46 39 47 93 48 87 49 89 50 40 51 92 52 86 53 85 54 41 56
REMARK SMILES IDX 73 57 53 58 72 59 54 60 57 61 71 62 90 63 55 64 56 65 70 67
REMARK SMILES IDX 91 68 58 69 42 70 43 71 51 72 44 73 46 74 52 75 45 76 47 77
REMARK SMILES IDX 48 78 49 79 50 80 74 81 75 82 83 83 76 84 78 85 84 86 77 87
REMARK SMILES IDX 79 88 80 89 81 90 82 91 59 92 60 93 68 94 61 95 63 96 69 97
REMARK SMILES IDX 62 98 64 99 65 100 66 101 67 102
REMARK H PARENT 25 6 5 29 30 36 89 55 57 66
REMARK Flexibility Score: inf
ROOT
ATOM      1  C   UNL A   1      36.086  23.267  23.193  1.00  0.00     0.023 C 
ENDROOT
BRANCH   1   2
ATOM      2  C   UNL A   1      34.552  23.292  23.282  1.00  0.00     0.116 C 
BRANCH   2   3
ATOM      3  N   UNL A   1      33.852  23.637  22.047  1.00  0.00    -0.351 N 
ATOM      4  C   UNL A   1      33.177  24.759  21.562  1.00  0.00     0.269 C 
ATOM      5  O   UNL A   1      33.212  24.891  20.334  1.00  0.00    -0.268 OA
ATOM      6  H   UNL A   1      33.855  22.897  21.398  1.00  0.00     0.163 HD
BRANCH   4   7
ATOM      7  C   UNL A   1      32.379  25.771  22.382  1.00  0.00     0.130 A 
ATOM      8  C   UNL A   1      32.541  27.681  23.797  1.00  0.00     0.129 A 
ATOM      9  C   UNL A   1      31.165  27.842  23.746  1.00  0.00     0.047 A 
ATOM     10  N   UNL A   1      33.125  26.646  23.144  1.00  0.00    -0.226 NA
ATOM     11  C   UNL A   1      30.391  26.917  23.051  1.00  0.00     0.006 A 
ATOM     12  C   UNL A   1      31.004  25.872  22.361  1.00  0.00     0.034 A 
BRANCH   8  13
ATOM     13  N   UNL A   1      33.272  28.564  24.603  1.00  0.00    -0.356 N 
ATOM     14  C   UNL A   1      32.915  27.690  26.911  1.00  0.00     0.077 C 
ATOM     15  C   UNL A   1      31.950  28.896  27.144  1.00  0.00     0.015 C 
ATOM     16  C   UNL A   1      33.917  28.123  25.844  1.00  0.00     0.129 C 
ATOM     17  C   UNL A   1      31.638  29.830  25.942  1.00  0.00     0.022 C 
ATOM     18  C   UNL A   1      32.640  29.859  24.787  1.00  0.00     0.118 C 
BRANCH  14  19
ATOM     19  C   UNL A   1      32.215  26.367  26.680  1.00  0.00     0.137 A 
ATOM     20  C   UNL A   1      34.105  24.705  26.156  1.00  0.00     0.153 C 
ATOM     21  N   UNL A   1      32.748  25.162  26.261  1.00  0.00    -0.313 N 
ATOM     22  C   UNL A   1      31.670  24.360  25.943  1.00  0.00     0.187 A 
ATOM     23  N   UNL A   1      30.580  24.942  26.387  1.00  0.00    -0.129 NA
ATOM     24  N   UNL A   1      30.925  26.169  26.890  1.00  0.00    -0.135 NA
BRANCH  22  25
ATOM     25  C   UNL A   1      31.758  23.100  25.142  1.00  0.00     0.341 C 
BRANCH  25  26
ATOM     26  N   UNL A   1      31.655  21.812  25.838  1.00  0.00    -0.329 N 
ATOM     27  C   UNL A   1      32.425  21.786  27.087  1.00  0.00     0.262 C 
ATOM     28  C   UNL A   1      32.106  20.647  25.084  1.00  0.00     0.262 C 
ATOM     29  H   UNL A   1      30.649  21.746  25.994  1.00  0.00     0.348 HD
ATOM     30  C   UNL A   1      33.774  21.169  26.753  1.00  0.00     0.067 C 
ATOM     31  C   UNL A   1      33.574  20.448  25.428  1.00  0.00     0.067 C 
ENDBRANCH  25  26
ENDBRANCH  22  25
ENDBRANCH  14  19
ENDBRANCH   8  13
ENDBRANCH   4   7
ENDBRANCH   2   3
ENDBRANCH   1   2
BRANCH   1  32
ATOM     32  C   UNL A   1      36.799  21.981  23.636  1.00  0.00     0.023 C 
BRANCH  32  33
ATOM     33  C   UNL A   1      37.015  21.771  25.137  1.00  0.00     0.116 C 
BRANCH  33  34
ATOM     34  N   UNL A   1      38.025  20.775  25.473  1.00  0.00    -0.352 N 
ATOM     35  C   UNL A   1      39.233  20.939  26.117  1.00  0.00     0.251 C 
ATOM     36  H   UNL A   1      37.814  19.853  25.202  1.00  0.00     0.163 HD
ATOM     37  O   UNL A   1      39.975  19.968  26.269  1.00  0.00    -0.269 OA
BRANCH  35  38
ATOM     38  C   UNL A   1      39.666  22.276  26.591  1.00  0.00     0.039 A 
ATOM     39  C   UNL A   1      40.726  22.362  27.501  1.00  0.00     0.014 A 
ATOM     40  C   UNL A   1      39.048  23.444  26.138  1.00  0.00     0.014 A 
ATOM     41  C   UNL A   1      41.220  23.615  27.884  1.00  0.00     0.010 A 
ATOM     42  C   UNL A   1      39.589  24.688  26.463  1.00  0.00     0.010 A 
ATOM     43  C   UNL A   1      40.686  24.789  27.332  1.00  0.00    -0.014 A 
BRANCH  43  44
ATOM     44  C   UNL A   1      41.281  26.125  27.619  1.00  0.00     0.031 A 
ATOM     45  C   UNL A   1      42.701  26.433  27.223  1.00  0.00     0.074 A 
ATOM     46  C   UNL A   1      40.577  27.030  28.329  1.00  0.00     0.049 A 
ATOM     47  N   UNL A   1      43.406  27.512  27.449  1.00  0.00    -0.248 NA
ATOM     48  C   UNL A   1      43.435  25.382  26.499  1.00  0.00     0.031 C 
ATOM     49  C   UNL A   1      39.222  26.828  28.848  1.00  0.00     0.029 A 
ATOM     50  N   UNL A   1      40.912  28.290  28.765  1.00  0.00    -0.354 N 
ATOM     51  C   UNL A   1      44.671  27.258  26.932  1.00  0.00     0.074 A 
ATOM     52  C   UNL A   1      44.648  25.908  26.412  1.00  0.00     0.031 C 
ATOM     53  C   UNL A   1      38.842  27.922  29.527  1.00  0.00     0.029 A 
ATOM     54  C   UNL A   1      39.933  28.891  29.524  1.00  0.00     0.049 A 
ATOM     55  H   UNL A   1      41.771  28.721  28.552  1.00  0.00     0.167 HD
ATOM     56  C   UNL A   1      45.748  28.079  26.870  1.00  0.00     0.034 A 
ATOM     57  C   UNL A   1      39.918  30.081  30.157  1.00  0.00     0.034 A 
ATOM     58  C   UNL A   1      45.760  29.432  27.358  1.00  0.00     0.049 A 
ATOM     59  C   UNL A   1      41.114  30.988  30.045  1.00  0.00     0.074 A 
ATOM     60  C   UNL A   1      46.772  30.372  27.262  1.00  0.00     0.029 A 
ATOM     61  N   UNL A   1      44.720  30.036  28.047  1.00  0.00    -0.354 N 
ATOM     62  N   UNL A   1      42.244  30.789  29.411  1.00  0.00    -0.248 NA
ATOM     63  C   UNL A   1      41.019  32.298  30.706  1.00  0.00     0.031 C 
ATOM     64  C   UNL A   1      46.354  31.534  27.920  1.00  0.00     0.029 A 
ATOM     65  C   UNL A   1      45.068  31.332  28.392  1.00  0.00     0.049 A 
ATOM     66  H   UNL A   1      43.859  29.608  28.258  1.00  0.00     0.167 HD
ATOM     67  C   UNL A   1      42.978  31.960  29.564  1.00  0.00     0.074 A 
ATOM     68  C   UNL A   1      42.156  32.870  30.333  1.00  0.00     0.031 C 
ATOM     69  C   UNL A   1      44.225  32.249  29.116  1.00  0.00     0.034 A 
BRANCH  56  70
ATOM     70  C   UNL A   1      46.994  27.550  26.204  1.00  0.00     0.023 A 
ATOM     71  C   UNL A   1      47.211  27.800  24.834  1.00  0.00     0.012 A 
ATOM     72  C   UNL A   1      47.972  26.852  26.941  1.00  0.00     0.148 A 
ATOM     73  C   UNL A   1      48.358  27.327  24.196  1.00  0.00     0.002 A 
ATOM     74  C   UNL A   1      49.135  26.428  26.309  1.00  0.00     0.091 A 
ATOM     75  F   UNL A   1      47.742  26.608  28.238  1.00  0.00    -0.205 F 
ATOM     76  C   UNL A   1      49.323  26.651  24.935  1.00  0.00     0.022 A 
BRANCH  74  77
ATOM     77  S   UNL A   1      50.478  25.622  27.189  1.00  0.00     0.127 S 
ATOM     78  O   UNL A   1      49.834  24.393  27.649  1.00  0.00    -0.237 OA
ATOM     79  O   UNL A   1      51.468  25.430  26.128  1.00  0.00    -0.237 OA
ATOM     80  O   UNL A   1      50.884  26.546  28.238  1.00  0.00    -0.744 OA
ENDBRANCH  74  77
ENDBRANCH  56  70
BRANCH  57  81
ATOM     81  C   UNL A   1      38.702  30.509  30.907  1.00  0.00     0.023 A 
ATOM     82  C   UNL A   1      38.607  30.240  32.286  1.00  0.00     0.012 A 
ATOM     83  C   UNL A   1      37.655  31.203  30.269  1.00  0.00     0.148 A 
ATOM     84  C   UNL A   1      37.478  30.624  33.010  1.00  0.00     0.002 A 
ATOM     85  C   UNL A   1      36.559  31.634  31.008  1.00  0.00     0.091 A 
ATOM     86  F   UNL A   1      37.760  31.442  28.954  1.00  0.00    -0.205 F 
ATOM     87  C   UNL A   1      36.459  31.329  32.375  1.00  0.00     0.022 A 
BRANCH  85  88
ATOM     88  S   UNL A   1      35.263  32.660  30.306  1.00  0.00     0.127 S 
ATOM     89  O   UNL A   1      34.837  31.862  29.160  1.00  0.00    -0.237 OA
ATOM     90  O   UNL A   1      34.301  32.722  31.407  1.00  0.00    -0.237 OA
ATOM     91  O   UNL A   1      35.896  33.934  29.990  1.00  0.00    -0.744 OA
ENDBRANCH  85  88
ENDBRANCH  57  81
BRANCH  69  92
ATOM     92  C   UNL A   1      44.773  33.623  29.406  1.00  0.00     0.023 A 
ATOM     93  C   UNL A   1      45.541  33.846  30.565  1.00  0.00     0.012 A 
ATOM     94  C   UNL A   1      44.588  34.675  28.487  1.00  0.00     0.148 A 
ATOM     95  C   UNL A   1      46.087  35.104  30.823  1.00  0.00     0.002 A 
ATOM     96  C   UNL A   1      45.178  35.911  28.723  1.00  0.00     0.091 A 
ATOM     97  F   UNL A   1      43.839  34.448  27.397  1.00  0.00    -0.205 F 
ATOM     98  C   UNL A   1      45.916  36.131  29.897  1.00  0.00     0.022 A 
BRANCH  96  99
ATOM     99  S   UNL A   1      45.095  37.262  27.542  1.00  0.00     0.127 S 
ATOM    100  O   UNL A   1      43.717  37.157  27.066  1.00  0.00    -0.237 OA
ATOM    101  O   UNL A   1      45.363  38.427  28.385  1.00  0.00    -0.237 OA
ATOM    102  O   UNL A   1      46.122  36.989  26.546  1.00  0.00    -0.744 OA
ENDBRANCH  96  99
ENDBRANCH  69  92
ENDBRANCH  43  44
ENDBRANCH  35  38
ENDBRANCH  33  34
ENDBRANCH  32  33
ENDBRANCH   1  32
TORSDOF 18
ENDMDL
MODEL 3
REMARK VINA RESULT:     -12.2      5.508     10.497
REMARK SMILES Cn1c(C[NH+]2CCCC2)nnc1[C@@H]1CCCN(c2cccc(C(=O)NCCCCNC(=O)c3ccc(-c4c5nc(c(-c6cccc(S(=O)(=O)[O-])c6F)c6ccc([nH]6)c(-c6cccc(S(=O)(=O)[O-])c6F)c6nc(c(-c7cccc(S(=O)(=O)[O-])c7F)c7ccc4[nH]7)C=C6)C=C5)cc3)n2)C1
REMARK SMILES IDX 27 1 26 2 25 3 23 4 24 5 22 7 18 8 19 9 96 10 20 11 21 12
REMARK SMILES IDX 17 13 13 14 14 15 97 16 15 17 16 18 12 19 1 20 2 21 3 22
REMARK SMILES IDX 10 23 11 24 4 25 5 26 6 27 9 28 7 30 8 31 28 32 29 33 30 34
REMARK SMILES IDX 31 35 32 37 33 38 34 39 95 40 35 41 94 42 36 43 37 44 38 45
REMARK SMILES IDX 88 46 39 47 93 48 87 49 89 50 40 51 92 52 86 53 85 54 41 56
REMARK SMILES IDX 73 57 53 58 72 59 54 60 57 61 71 62 90 63 55 64 56 65 70 67
REMARK SMILES IDX 91 68 58 69 42 70 43 71 51 72 44 73 46 74 52 75 45 76 47 77
REMARK SMILES IDX 48 78 49 79 50 80 74 81 75 82 83 83 76 84 78 85 84 86 77 87
REMARK SMILES IDX 79 88 80 89 81 90 82 91 59 92 60 93 68 94 61 95 63 96 69 97
REMARK SMILES IDX 62 98 64 99 65 100 66 101 67 102
REMARK H PARENT 25 6 5 29 30 36 89 55 57 66
REMARK Flexibility Score: inf
ROOT
ATOM      1  C   UNL A   1      35.170  23.594  23.145  1.00  0.00     0.023 C 
ENDROOT
BRANCH   1   2
ATOM      2  C   UNL A   1      33.756  23.184  22.705  1.00  0.00     0.116 C 
BRANCH   2   3
ATOM      3  N   UNL A   1      33.222  23.896  21.546  1.00  0.00    -0.351 N 
ATOM      4  C   UNL A   1      32.757  25.188  21.294  1.00  0.00     0.269 C 
ATOM      5  O   UNL A   1      32.918  25.578  20.133  1.00  0.00    -0.268 OA
ATOM      6  H   UNL A   1      33.178  23.324  20.746  1.00  0.00     0.163 HD
BRANCH   4   7
ATOM      7  C   UNL A   1      32.040  26.109  22.281  1.00  0.00     0.130 A 
ATOM      8  C   UNL A   1      32.328  27.913  23.811  1.00  0.00     0.129 A 
ATOM      9  C   UNL A   1      30.952  28.032  23.937  1.00  0.00     0.047 A 
ATOM     10  N   UNL A   1      32.853  26.950  23.014  1.00  0.00    -0.226 NA
ATOM     11  C   UNL A   1      30.122  27.136  23.269  1.00  0.00     0.006 A 
ATOM     12  C   UNL A   1      30.671  26.166  22.432  1.00  0.00     0.034 A 
BRANCH   8  13
ATOM     13  N   UNL A   1      33.130  28.759  24.590  1.00  0.00    -0.356 N 
ATOM     14  C   UNL A   1      32.986  27.767  26.873  1.00  0.00     0.077 C 
ATOM     15  C   UNL A   1      32.048  28.956  27.254  1.00  0.00     0.015 C 
ATOM     16  C   UNL A   1      33.886  28.258  25.742  1.00  0.00     0.129 C 
ATOM     17  C   UNL A   1      31.627  29.947  26.135  1.00  0.00     0.022 C 
ATOM     18  C   UNL A   1      32.517  30.039  24.897  1.00  0.00     0.118 C 
BRANCH  14  19
ATOM     19  C   UNL A   1      32.269  26.455  26.641  1.00  0.00     0.137 A 
ATOM     20  C   UNL A   1      34.129  24.781  26.055  1.00  0.00     0.153 C 
ATOM     21  N   UNL A   1      32.780  25.250  26.196  1.00  0.00    -0.313 N 
ATOM     22  C   UNL A   1      31.687  24.463  25.891  1.00  0.00     0.187 A 
ATOM     23  N   UNL A   1      30.612  25.050  26.366  1.00  0.00    -0.129 NA
ATOM     24  N   UNL A   1      30.981  26.267  26.876  1.00  0.00    -0.135 NA
BRANCH  22  25
ATOM     25  C   UNL A   1      31.744  23.212  25.072  1.00  0.00     0.341 C 
BRANCH  25  26
ATOM     26  N   UNL A   1      31.611  21.918  25.751  1.00  0.00    -0.329 N 
ATOM     27  C   UNL A   1      32.287  21.894  27.053  1.00  0.00     0.262 C 
ATOM     28  C   UNL A   1      32.135  20.765  25.025  1.00  0.00     0.262 C 
ATOM     29  H   UNL A   1      30.598  21.834  25.832  1.00  0.00     0.348 HD
ATOM     30  C   UNL A   1      33.666  21.301  26.816  1.00  0.00     0.067 C 
ATOM     31  C   UNL A   1      33.576  20.587  25.475  1.00  0.00     0.067 C 
ENDBRANCH  25  26
ENDBRANCH  22  25
ENDBRANCH  14  19
ENDBRANCH   8  13
ENDBRANCH   4   7
ENDBRANCH   2   3
ENDBRANCH   1   2
BRANCH   1  32
ATOM     32  C   UNL A   1      36.172  22.469  23.441  1.00  0.00     0.023 C 
BRANCH  32  33
ATOM     33  C   UNL A   1      36.599  22.264  24.897  1.00  0.00     0.116 C 
BRANCH  33  34
ATOM     34  N   UNL A   1      37.499  21.138  25.114  1.00  0.00    -0.352 N 
ATOM     35  C   UNL A   1      38.721  21.108  25.752  1.00  0.00     0.251 C 
ATOM     36  H   UNL A   1      37.189  20.276  24.755  1.00  0.00     0.163 HD
ATOM     37  O   UNL A   1      39.356  20.053  25.793  1.00  0.00    -0.269 OA
BRANCH  35  38
ATOM     38  C   UNL A   1      39.296  22.337  26.350  1.00  0.00     0.039 A 
ATOM     39  C   UNL A   1      40.410  22.224  27.191  1.00  0.00     0.014 A 
ATOM     40  C   UNL A   1      38.759  23.597  26.081  1.00  0.00     0.014 A 
ATOM     41  C   UNL A   1      41.034  23.375  27.685  1.00  0.00     0.010 A 
ATOM     42  C   UNL A   1      39.425  24.744  26.514  1.00  0.00     0.010 A 
ATOM     43  C   UNL A   1      40.575  24.648  27.312  1.00  0.00    -0.014 A 
BRANCH  43  44
ATOM     44  C   UNL A   1      41.301  25.886  27.715  1.00  0.00     0.031 A 
ATOM     45  C   UNL A   1      40.596  26.972  28.484  1.00  0.00     0.074 A 
ATOM     46  C   UNL A   1      42.570  26.080  27.301  1.00  0.00     0.049 A 
ATOM     47  N   UNL A   1      41.045  28.142  28.861  1.00  0.00    -0.248 NA
ATOM     48  C   UNL A   1      39.194  26.723  28.858  1.00  0.00     0.031 C 
ATOM     49  C   UNL A   1      43.342  25.146  26.478  1.00  0.00     0.029 A 
ATOM     50  N   UNL A   1      43.425  27.139  27.487  1.00  0.00    -0.354 N 
ATOM     51  C   UNL A   1      39.977  28.781  29.480  1.00  0.00     0.074 A 
ATOM     52  C   UNL A   1      38.846  27.882  29.396  1.00  0.00     0.031 C 
ATOM     53  C   UNL A   1      44.554  25.670  26.234  1.00  0.00     0.029 A 
ATOM     54  C   UNL A   1      44.637  26.990  26.850  1.00  0.00     0.049 A 
ATOM     55  H   UNL A   1      43.193  27.929  28.027  1.00  0.00     0.167 HD
ATOM     56  C   UNL A   1      39.944  29.992  30.087  1.00  0.00     0.034 A 
ATOM     57  C   UNL A   1      45.691  27.825  26.761  1.00  0.00     0.034 A 
ATOM     58  C   UNL A   1      41.077  30.871  30.197  1.00  0.00     0.049 A 
ATOM     59  C   UNL A   1      45.641  29.151  27.471  1.00  0.00     0.074 A 
ATOM     60  C   UNL A   1      41.167  32.079  30.869  1.00  0.00     0.029 A 
ATOM     61  N   UNL A   1      42.314  30.649  29.612  1.00  0.00    -0.354 N 
ATOM     62  N   UNL A   1      44.674  29.666  28.189  1.00  0.00    -0.248 NA
ATOM     63  C   UNL A   1      46.843  29.995  27.389  1.00  0.00     0.031 C 
ATOM     64  C   UNL A   1      42.449  32.600  30.663  1.00  0.00     0.029 A 
ATOM     65  C   UNL A   1      43.170  31.700  29.896  1.00  0.00     0.049 A 
ATOM     66  H   UNL A   1      42.549  29.858  29.074  1.00  0.00     0.167 HD
ATOM     67  C   UNL A   1      45.160  30.875  28.674  1.00  0.00     0.074 A 
ATOM     68  C   UNL A   1      46.517  31.005  28.185  1.00  0.00     0.031 C 
ATOM     69  C   UNL A   1      44.535  31.798  29.446  1.00  0.00     0.034 A 
BRANCH  56  70
ATOM     70  C   UNL A   1      38.644  30.419  30.724  1.00  0.00     0.023 A 
ATOM     71  C   UNL A   1      38.410  30.136  32.085  1.00  0.00     0.012 A 
ATOM     72  C   UNL A   1      37.680  31.144  29.994  1.00  0.00     0.148 A 
ATOM     73  C   UNL A   1      37.221  30.526  32.700  1.00  0.00     0.002 A 
ATOM     74  C   UNL A   1      36.519  31.573  30.628  1.00  0.00     0.091 A 
ATOM     75  F   UNL A   1      37.911  31.390  28.698  1.00  0.00    -0.205 F 
ATOM     76  C   UNL A   1      36.281  31.252  31.974  1.00  0.00     0.022 A 
BRANCH  74  77
ATOM     77  S   UNL A   1      35.284  32.586  29.806  1.00  0.00     0.127 S 
ATOM     78  O   UNL A   1      36.085  33.727  29.365  1.00  0.00    -0.237 OA
ATOM     79  O   UNL A   1      34.833  31.706  28.727  1.00  0.00    -0.237 OA
ATOM     80  O   UNL A   1      34.273  32.882  30.811  1.00  0.00    -0.744 OA
ENDBRANCH  74  77
ENDBRANCH  56  70
BRANCH  57  81
ATOM     81  C   UNL A   1      46.912  27.404  26.015  1.00  0.00     0.023 A 
ATOM     82  C   UNL A   1      47.020  27.695  24.640  1.00  0.00     0.012 A 
ATOM     83  C   UNL A   1      47.975  26.744  26.662  1.00  0.00     0.148 A 
ATOM     84  C   UNL A   1      48.147  27.306  23.916  1.00  0.00     0.002 A 
ATOM     85  C   UNL A   1      49.121  26.412  25.947  1.00  0.00     0.091 A 
ATOM     86  F   UNL A   1      47.850  26.468  27.968  1.00  0.00    -0.205 F 
ATOM     87  C   UNL A   1      49.202  26.675  24.570  1.00  0.00     0.022 A 
BRANCH  85  88
ATOM     88  S   UNL A   1      50.580  25.716  26.731  1.00  0.00     0.127 S 
ATOM     89  O   UNL A   1      50.063  24.457  27.261  1.00  0.00    -0.237 OA
ATOM     90  O   UNL A   1      51.492  25.578  25.594  1.00  0.00    -0.237 OA
ATOM     91  O   UNL A   1      51.001  26.696  27.723  1.00  0.00    -0.744 OA
ENDBRANCH  85  88
ENDBRANCH  57  81
BRANCH  69  92
ATOM     92  C   UNL A   1      45.319  33.020  29.853  1.00  0.00     0.023 A 
ATOM     93  C   UNL A   1      46.112  32.994  31.017  1.00  0.00     0.012 A 
ATOM     94  C   UNL A   1      45.328  34.168  29.036  1.00  0.00     0.148 A 
ATOM     95  C   UNL A   1      46.874  34.104  31.381  1.00  0.00     0.002 A 
ATOM     96  C   UNL A   1      46.129  35.251  29.377  1.00  0.00     0.091 A 
ATOM     97  F   UNL A   1      44.553  34.181  27.941  1.00  0.00    -0.205 F 
ATOM     98  C   UNL A   1      46.892  35.226  30.555  1.00  0.00     0.022 A 
BRANCH  96  99
ATOM     99  S   UNL A   1      46.293  36.699  28.326  1.00  0.00     0.127 S 
ATOM    100  O   UNL A   1      46.834  36.116  27.100  1.00  0.00    -0.237 OA
ATOM    101  O   UNL A   1      44.910  37.164  28.222  1.00  0.00    -0.237 OA
ATOM    102  O   UNL A   1      47.186  37.610  29.031  1.00  0.00    -0.744 OA
ENDBRANCH  96  99
ENDBRANCH  69  92
ENDBRANCH  43  44
ENDBRANCH  35  38
ENDBRANCH  33  34
ENDBRANCH  32  33
ENDBRANCH   1  32
TORSDOF 18
ENDMDL
