MODEL 1
REMARK VINA RESULT:     -12.5      0.000      0.000
REMARK SMILES CC[C@H]1CCCCN1S(=O)(=O)c1ccc2oc(C(=O)NCCCCNC(=O)c3ccc(-c4c5nc(c(-c6cccc(S(=O)(=O)[O-])c6F)c6ccc([nH]6)c(-c6cccc(S(=O)(=O)[O-])c6F)c6nc(c(-c7cccc(S(=O)(=O)[O-])c7F)c7ccc4[nH]7)C=C6)C=C5)cc3)c(C)c2c1
REMARK SMILES IDX 22 1 21 2 20 3 18 4 19 5 17 7 12 8 13 9 94 10 14 11 93 12
REMARK SMILES IDX 15 13 91 14 16 15 92 16 9 17 10 18 11 19 8 20 3 21 4 22 5 23
REMARK SMILES IDX 7 24 6 25 2 26 1 27 23 28 24 29 25 30 26 31 27 33 28 34
REMARK SMILES IDX 29 35 90 36 30 37 89 38 31 39 32 40 33 41 83 42 34 43 88 44
REMARK SMILES IDX 82 45 84 46 35 47 87 48 81 49 80 50 36 52 68 53 48 54 67 55
REMARK SMILES IDX 49 56 52 57 66 58 85 59 50 60 51 61 65 63 86 64 53 65 37 66
REMARK SMILES IDX 38 67 46 68 39 69 41 70 47 71 40 72 42 73 43 74 44 75 45 76
REMARK SMILES IDX 69 77 70 78 78 79 71 80 73 81 79 82 72 83 74 84 75 85 76 86
REMARK SMILES IDX 77 87 54 88 55 89 63 90 56 91 58 92 64 93 57 94 59 95 60 96
REMARK SMILES IDX 61 97 62 98
REMARK H PARENT 20 6 25 32 84 51 52 62
REMARK Flexibility Score: inf
ROOT
ATOM      1  C   UNL A   1      36.658  19.899  25.171  1.00  0.00     0.023 C 
ENDROOT
BRANCH   1   2
ATOM      2  C   UNL A   1      35.218  20.357  25.002  1.00  0.00     0.116 C 
BRANCH   2   3
ATOM      3  N   UNL A   1      34.195  19.341  25.094  1.00  0.00    -0.349 N 
ATOM      4  C   UNL A   1      32.817  19.482  25.020  1.00  0.00     0.287 C 
ATOM      5  O   UNL A   1      32.151  18.452  25.142  1.00  0.00    -0.266 OA
ATOM      6  H   UNL A   1      34.520  18.420  25.229  1.00  0.00     0.163 HD
BRANCH   4   7
ATOM      7  C   UNL A   1      32.210  20.799  24.868  1.00  0.00     0.195 A 
ATOM      8  C   UNL A   1      30.741  25.127  24.668  1.00  0.00     0.083 A 
ATOM      9  C   UNL A   1      30.268  24.794  25.943  1.00  0.00     0.025 A 
ATOM     10  C   UNL A   1      31.492  24.213  23.928  1.00  0.00     0.034 A 
ATOM     11  C   UNL A   1      30.540  23.526  26.501  1.00  0.00     0.049 A 
ATOM     12  C   UNL A   1      31.622  22.908  24.401  1.00  0.00     0.025 A 
ATOM     13  C   UNL A   1      31.221  22.617  25.688  1.00  0.00     0.135 A 
ATOM     14  C   UNL A   1      32.028  21.686  23.810  1.00  0.00     0.008 A 
ATOM     15  O   UNL A   1      31.611  21.348  25.995  1.00  0.00    -0.451 OA
ATOM     16  C   UNL A   1      32.155  21.500  22.343  1.00  0.00     0.049 C 
BRANCH   8  17
ATOM     17  S   UNL A   1      30.558  26.754  23.975  1.00  0.00     0.243 S 
ATOM     18  O   UNL A   1      29.133  26.953  23.817  1.00  0.00    -0.207 OA
ATOM     19  O   UNL A   1      31.454  26.853  22.840  1.00  0.00    -0.207 OA
BRANCH  17  20
ATOM     20  N   UNL A   1      31.124  27.876  25.173  1.00  0.00    -0.195 NA
ATOM     21  C   UNL A   1      32.230  27.307  26.044  1.00  0.00     0.073 C 
ATOM     22  C   UNL A   1      32.503  28.285  27.204  1.00  0.00     0.020 C 
ATOM     23  C   UNL A   1      32.888  29.672  26.708  1.00  0.00     0.003 C 
ATOM     24  C   UNL A   1      31.415  29.265  24.704  1.00  0.00     0.103 C 
ATOM     25  C   UNL A   1      31.771  30.215  25.840  1.00  0.00     0.017 C 
BRANCH  21  26
ATOM     26  C   UNL A   1      33.534  26.999  25.271  1.00  0.00     0.017 C 
ATOM     27  C   UNL A   1      34.188  25.690  25.699  1.00  0.00     0.005 C 
ENDBRANCH  21  26
ENDBRANCH  17  20
ENDBRANCH   8  17
ENDBRANCH   4   7
ENDBRANCH   2   3
ENDBRANCH   1   2
BRANCH   1  28
ATOM     28  C   UNL A   1      37.744  20.911  24.827  1.00  0.00     0.023 C 
BRANCH  28  29
ATOM     29  C   UNL A   1      38.926  21.021  25.787  1.00  0.00     0.116 C 
BRANCH  29  30
ATOM     30  N   UNL A   1      39.779  19.841  25.844  1.00  0.00    -0.352 N 
ATOM     31  C   UNL A   1      41.124  19.733  26.128  1.00  0.00     0.251 C 
ATOM     32  H   UNL A   1      39.325  18.988  25.650  1.00  0.00     0.163 HD
ATOM     33  O   UNL A   1      41.663  18.628  26.104  1.00  0.00    -0.269 OA
BRANCH  31  34
ATOM     34  C   UNL A   1      41.929  20.943  26.409  1.00  0.00     0.039 A 
ATOM     35  C   UNL A   1      42.354  21.733  25.335  1.00  0.00     0.014 A 
ATOM     36  C   UNL A   1      42.221  21.332  27.717  1.00  0.00     0.014 A 
ATOM     37  C   UNL A   1      42.968  22.965  25.580  1.00  0.00     0.010 A 
ATOM     38  C   UNL A   1      42.748  22.598  27.959  1.00  0.00     0.010 A 
ATOM     39  C   UNL A   1      43.117  23.436  26.896  1.00  0.00    -0.014 A 
BRANCH  39  40
ATOM     40  C   UNL A   1      43.608  24.813  27.175  1.00  0.00     0.031 A 
ATOM     41  C   UNL A   1      42.676  25.869  27.703  1.00  0.00     0.074 A 
ATOM     42  C   UNL A   1      44.875  25.144  26.848  1.00  0.00     0.049 A 
ATOM     43  N   UNL A   1      42.920  27.129  27.961  1.00  0.00    -0.248 NA
ATOM     44  C   UNL A   1      41.278  25.472  27.939  1.00  0.00     0.031 C 
ATOM     45  C   UNL A   1      45.850  24.249  26.220  1.00  0.00     0.029 A 
ATOM     46  N   UNL A   1      45.553  26.332  26.973  1.00  0.00    -0.354 N 
ATOM     47  C   UNL A   1      41.705  27.682  28.346  1.00  0.00     0.074 A 
ATOM     48  C   UNL A   1      40.716  26.631  28.252  1.00  0.00     0.031 C 
ATOM     49  C   UNL A   1      47.001  24.913  26.028  1.00  0.00     0.029 A 
ATOM     50  C   UNL A   1      46.846  26.285  26.501  1.00  0.00     0.049 A 
ATOM     51  H   UNL A   1      45.153  27.142  27.363  1.00  0.00     0.167 HD
ATOM     52  C   UNL A   1      41.439  28.939  28.776  1.00  0.00     0.034 A 
ATOM     53  C   UNL A   1      47.802  27.234  26.461  1.00  0.00     0.034 A 
ATOM     54  C   UNL A   1      42.435  29.963  28.937  1.00  0.00     0.049 A 
ATOM     55  C   UNL A   1      47.510  28.591  27.040  1.00  0.00     0.074 A 
ATOM     56  C   UNL A   1      42.287  31.232  29.468  1.00  0.00     0.029 A 
ATOM     57  N   UNL A   1      43.766  29.835  28.572  1.00  0.00    -0.354 N 
ATOM     58  N   UNL A   1      46.399  29.037  27.575  1.00  0.00    -0.248 NA
ATOM     59  C   UNL A   1      48.614  29.562  27.056  1.00  0.00     0.031 C 
ATOM     60  C   UNL A   1      43.530  31.872  29.423  1.00  0.00     0.029 A 
ATOM     61  C   UNL A   1      44.452  30.999  28.871  1.00  0.00     0.049 A 
ATOM     62  H   UNL A   1      44.164  29.034  28.161  1.00  0.00     0.167 HD
ATOM     63  C   UNL A   1      46.679  30.323  28.024  1.00  0.00     0.074 A 
ATOM     64  C   UNL A   1      48.072  30.578  27.716  1.00  0.00     0.031 C 
ATOM     65  C   UNL A   1      45.854  31.216  28.621  1.00  0.00     0.034 A 
BRANCH  52  66
ATOM     66  C   UNL A   1      40.023  29.251  29.183  1.00  0.00     0.023 A 
ATOM     67  C   UNL A   1      39.075  29.567  28.189  1.00  0.00     0.012 A 
ATOM     68  C   UNL A   1      39.616  29.186  30.530  1.00  0.00     0.148 A 
ATOM     69  C   UNL A   1      37.752  29.848  28.530  1.00  0.00     0.002 A 
ATOM     70  C   UNL A   1      38.286  29.426  30.858  1.00  0.00     0.091 A 
ATOM     71  F   UNL A   1      40.536  28.907  31.465  1.00  0.00    -0.205 F 
ATOM     72  C   UNL A   1      37.357  29.767  29.861  1.00  0.00     0.022 A 
BRANCH  70  73
ATOM     73  S   UNL A   1      37.665  29.271  32.537  1.00  0.00     0.127 S 
ATOM     74  O   UNL A   1      37.842  27.842  32.785  1.00  0.00    -0.237 OA
ATOM     75  O   UNL A   1      38.575  30.137  33.287  1.00  0.00    -0.237 OA
ATOM     76  O   UNL A   1      36.286  29.738  32.494  1.00  0.00    -0.744 OA
ENDBRANCH  70  73
ENDBRANCH  52  66
BRANCH  53  77
ATOM     77  C   UNL A   1      49.162  26.895  25.951  1.00  0.00     0.023 A 
ATOM     78  C   UNL A   1      50.021  26.121  26.755  1.00  0.00     0.012 A 
ATOM     79  C   UNL A   1      49.590  27.291  24.670  1.00  0.00     0.148 A 
ATOM     80  C   UNL A   1      51.294  25.771  26.305  1.00  0.00     0.002 A 
ATOM     81  C   UNL A   1      50.840  26.893  24.206  1.00  0.00     0.091 A 
ATOM     82  F   UNL A   1      48.764  28.038  23.924  1.00  0.00    -0.205 F 
ATOM     83  C   UNL A   1      51.699  26.146  25.027  1.00  0.00     0.022 A 
BRANCH  81  84
ATOM     84  S   UNL A   1      51.387  27.218  22.526  1.00  0.00     0.127 S 
ATOM     85  O   UNL A   1      51.549  28.670  22.539  1.00  0.00    -0.237 OA
ATOM     86  O   UNL A   1      52.636  26.459  22.458  1.00  0.00    -0.237 OA
ATOM     87  O   UNL A   1      50.328  26.702  21.667  1.00  0.00    -0.744 OA
ENDBRANCH  81  84
ENDBRANCH  53  77
BRANCH  65  88
ATOM     88  C   UNL A   1      46.432  32.547  29.020  1.00  0.00     0.023 A 
ATOM     89  C   UNL A   1      47.050  32.689  30.278  1.00  0.00     0.012 A 
ATOM     90  C   UNL A   1      46.437  33.631  28.120  1.00  0.00     0.148 A 
ATOM     91  C   UNL A   1      47.643  33.898  30.644  1.00  0.00     0.002 A 
ATOM     92  C   UNL A   1      47.067  34.818  28.475  1.00  0.00     0.091 A 
ATOM     93  F   UNL A   1      45.823  33.484  26.937  1.00  0.00    -0.205 F 
ATOM     94  C   UNL A   1      47.662  34.956  29.739  1.00  0.00     0.022 A 
BRANCH  92  95
ATOM     95  S   UNL A   1      47.216  36.196  27.330  1.00  0.00     0.127 S 
ATOM     96  O   UNL A   1      48.013  35.607  26.256  1.00  0.00    -0.237 OA
ATOM     97  O   UNL A   1      45.821  36.465  26.977  1.00  0.00    -0.237 OA
ATOM     98  O   UNL A   1      47.859  37.265  28.081  1.00  0.00    -0.744 OA
ENDBRANCH  92  95
ENDBRANCH  65  88
ENDBRANCH  39  40
ENDBRANCH  31  34
ENDBRANCH  29  30
ENDBRANCH  28  29
ENDBRANCH   1  28
TORSDOF 17
ENDMDL
MODEL 2
REMARK VINA RESULT:     -12.4      0.724      7.579
REMARK SMILES CC[C@H]1CCCCN1S(=O)(=O)c1ccc2oc(C(=O)NCCCCNC(=O)c3ccc(-c4c5nc(c(-c6cccc(S(=O)(=O)[O-])c6F)c6ccc([nH]6)c(-c6cccc(S(=O)(=O)[O-])c6F)c6nc(c(-c7cccc(S(=O)(=O)[O-])c7F)c7ccc4[nH]7)C=C6)C=C5)cc3)c(C)c2c1
REMARK SMILES IDX 22 1 21 2 20 3 18 4 19 5 17 7 12 8 13 9 94 10 14 11 93 12
REMARK SMILES IDX 15 13 91 14 16 15 92 16 9 17 10 18 11 19 8 20 3 21 4 22 5 23
REMARK SMILES IDX 7 24 6 25 2 26 1 27 23 28 24 29 25 30 26 31 27 33 28 34
REMARK SMILES IDX 29 35 90 36 30 37 89 38 31 39 32 40 33 41 83 42 34 43 88 44
REMARK SMILES IDX 82 45 84 46 35 47 87 48 81 49 80 50 36 52 68 53 48 54 67 55
REMARK SMILES IDX 49 56 52 57 66 58 85 59 50 60 51 61 65 63 86 64 53 65 37 66
REMARK SMILES IDX 38 67 46 68 39 69 41 70 47 71 40 72 42 73 43 74 44 75 45 76
REMARK SMILES IDX 69 77 70 78 78 79 71 80 73 81 79 82 72 83 74 84 75 85 76 86
REMARK SMILES IDX 77 87 54 88 55 89 63 90 56 91 58 92 64 93 57 94 59 95 60 96
REMARK SMILES IDX 61 97 62 98
REMARK H PARENT 20 6 25 32 84 51 52 62
REMARK Flexibility Score: inf
ROOT
ATOM      1  C   UNL A   1      36.702  20.017  25.012  1.00  0.00     0.023 C 
ENDROOT
BRANCH   1   2
ATOM      2  C   UNL A   1      35.262  20.505  25.003  1.00  0.00     0.116 C 
BRANCH   2   3
ATOM      3  N   UNL A   1      34.231  19.497  25.094  1.00  0.00    -0.349 N 
ATOM      4  C   UNL A   1      32.855  19.648  25.012  1.00  0.00     0.287 C 
ATOM      5  O   UNL A   1      32.181  18.624  25.134  1.00  0.00    -0.266 OA
ATOM      6  H   UNL A   1      34.549  18.574  25.233  1.00  0.00     0.163 HD
BRANCH   4   7
ATOM      7  C   UNL A   1      32.258  20.970  24.853  1.00  0.00     0.195 A 
ATOM      8  C   UNL A   1      30.826  25.308  24.626  1.00  0.00     0.083 A 
ATOM      9  C   UNL A   1      30.359  24.990  25.908  1.00  0.00     0.025 A 
ATOM     10  C   UNL A   1      31.564  24.381  23.889  1.00  0.00     0.034 A 
ATOM     11  C   UNL A   1      30.624  23.724  26.474  1.00  0.00     0.049 A 
ATOM     12  C   UNL A   1      31.685  23.079  24.372  1.00  0.00     0.025 A 
ATOM     13  C   UNL A   1      31.292  22.803  25.664  1.00  0.00     0.135 A 
ATOM     14  C   UNL A   1      32.077  21.848  23.789  1.00  0.00     0.008 A 
ATOM     15  O   UNL A   1      31.673  21.533  25.980  1.00  0.00    -0.451 OA
ATOM     16  C   UNL A   1      32.192  21.649  22.323  1.00  0.00     0.049 C 
BRANCH   8  17
ATOM     17  S   UNL A   1      30.652  26.930  23.921  1.00  0.00     0.243 S 
ATOM     18  O   UNL A   1      29.240  27.088  23.644  1.00  0.00    -0.207 OA
ATOM     19  O   UNL A   1      31.637  27.060  22.865  1.00  0.00    -0.207 OA
BRANCH  17  20
ATOM     20  N   UNL A   1      31.083  28.066  25.162  1.00  0.00    -0.195 NA
ATOM     21  C   UNL A   1      32.181  27.557  26.079  1.00  0.00     0.073 C 
ATOM     22  C   UNL A   1      32.331  28.529  27.265  1.00  0.00     0.020 C 
ATOM     23  C   UNL A   1      32.644  29.948  26.809  1.00  0.00     0.003 C 
ATOM     24  C   UNL A   1      31.301  29.480  24.729  1.00  0.00     0.103 C 
ATOM     25  C   UNL A   1      31.537  30.430  25.896  1.00  0.00     0.017 C 
BRANCH  21  26
ATOM     26  C   UNL A   1      33.539  27.350  25.367  1.00  0.00     0.017 C 
ATOM     27  C   UNL A   1      34.150  25.979  25.632  1.00  0.00     0.005 C 
ENDBRANCH  21  26
ENDBRANCH  17  20
ENDBRANCH   8  17
ENDBRANCH   4   7
ENDBRANCH   2   3
ENDBRANCH   1   2
BRANCH   1  28
ATOM     28  C   UNL A   1      37.786  21.074  24.829  1.00  0.00     0.023 C 
BRANCH  28  29
ATOM     29  C   UNL A   1      38.903  21.116  25.868  1.00  0.00     0.116 C 
BRANCH  29  30
ATOM     30  N   UNL A   1      39.807  19.972  25.840  1.00  0.00    -0.352 N 
ATOM     31  C   UNL A   1      41.161  19.908  26.092  1.00  0.00     0.251 C 
ATOM     32  H   UNL A   1      39.386  19.114  25.604  1.00  0.00     0.163 HD
ATOM     33  O   UNL A   1      41.746  18.831  25.993  1.00  0.00    -0.269 OA
BRANCH  31  34
ATOM     34  C   UNL A   1      41.920  21.134  26.428  1.00  0.00     0.039 A 
ATOM     35  C   UNL A   1      42.326  21.980  25.391  1.00  0.00     0.014 A 
ATOM     36  C   UNL A   1      42.185  21.481  27.753  1.00  0.00     0.014 A 
ATOM     37  C   UNL A   1      42.893  23.223  25.690  1.00  0.00     0.010 A 
ATOM     38  C   UNL A   1      42.664  22.755  28.050  1.00  0.00     0.010 A 
ATOM     39  C   UNL A   1      43.012  23.646  27.024  1.00  0.00    -0.014 A 
BRANCH  39  40
ATOM     40  C   UNL A   1      43.451  25.028  27.362  1.00  0.00     0.031 A 
ATOM     41  C   UNL A   1      44.904  25.412  27.292  1.00  0.00     0.074 A 
ATOM     42  C   UNL A   1      42.550  25.912  27.840  1.00  0.00     0.049 A 
ATOM     43  N   UNL A   1      45.470  26.553  27.592  1.00  0.00    -0.248 NA
ATOM     44  C   UNL A   1      45.853  24.370  26.866  1.00  0.00     0.031 C 
ATOM     45  C   UNL A   1      41.129  25.634  28.069  1.00  0.00     0.029 A 
ATOM     46  N   UNL A   1      42.698  27.216  28.245  1.00  0.00    -0.354 N 
ATOM     47  C   UNL A   1      46.836  26.356  27.433  1.00  0.00     0.074 A 
ATOM     48  C   UNL A   1      47.019  24.974  27.047  1.00  0.00     0.031 C 
ATOM     49  C   UNL A   1      40.536  26.735  28.559  1.00  0.00     0.029 A 
ATOM     50  C   UNL A   1      41.532  27.793  28.697  1.00  0.00     0.049 A 
ATOM     51  H   UNL A   1      43.558  27.694  28.215  1.00  0.00     0.167 HD
ATOM     52  C   UNL A   1      47.846  27.249  27.559  1.00  0.00     0.034 A 
ATOM     53  C   UNL A   1      41.288  29.034  29.161  1.00  0.00     0.034 A 
ATOM     54  C   UNL A   1      47.658  28.639  27.873  1.00  0.00     0.049 A 
ATOM     55  C   UNL A   1      42.410  30.037  29.192  1.00  0.00     0.074 A 
ATOM     56  C   UNL A   1      48.604  29.648  27.916  1.00  0.00     0.029 A 
ATOM     57  N   UNL A   1      46.441  29.219  28.195  1.00  0.00    -0.354 N 
ATOM     58  N   UNL A   1      43.667  29.878  28.855  1.00  0.00    -0.248 NA
ATOM     59  C   UNL A   1      42.073  31.402  29.620  1.00  0.00     0.031 C 
ATOM     60  C   UNL A   1      47.958  30.839  28.265  1.00  0.00     0.029 A 
ATOM     61  C   UNL A   1      46.609  30.572  28.433  1.00  0.00     0.049 A 
ATOM     62  H   UNL A   1      45.583  28.738  28.248  1.00  0.00     0.167 HD
ATOM     63  C   UNL A   1      44.261  31.127  28.994  1.00  0.00     0.074 A 
ATOM     64  C   UNL A   1      43.222  32.038  29.427  1.00  0.00     0.031 C 
ATOM     65  C   UNL A   1      45.554  31.482  28.797  1.00  0.00     0.034 A 
BRANCH  52  66
ATOM     66  C   UNL A   1      49.243  26.767  27.272  1.00  0.00     0.023 A 
ATOM     67  C   UNL A   1      49.891  25.938  28.211  1.00  0.00     0.012 A 
ATOM     68  C   UNL A   1      49.896  27.084  26.066  1.00  0.00     0.148 A 
ATOM     69  C   UNL A   1      51.179  25.461  27.971  1.00  0.00     0.002 A 
ATOM     70  C   UNL A   1      51.164  26.572  25.814  1.00  0.00     0.091 A 
ATOM     71  F   UNL A   1      49.275  27.893  25.194  1.00  0.00    -0.205 F 
ATOM     72  C   UNL A   1      51.810  25.769  26.769  1.00  0.00     0.022 A 
BRANCH  70  73
ATOM     73  S   UNL A   1      52.027  26.851  24.263  1.00  0.00     0.127 S 
ATOM     74  O   UNL A   1      50.949  26.677  23.292  1.00  0.00    -0.237 OA
ATOM     75  O   UNL A   1      52.497  28.228  24.411  1.00  0.00    -0.237 OA
ATOM     76  O   UNL A   1      53.088  25.854  24.215  1.00  0.00    -0.744 OA
ENDBRANCH  70  73
ENDBRANCH  52  66
BRANCH  53  77
ATOM     77  C   UNL A   1      39.898  29.428  29.528  1.00  0.00     0.023 A 
ATOM     78  C   UNL A   1      38.971  29.703  28.503  1.00  0.00     0.012 A 
ATOM     79  C   UNL A   1      39.477  29.488  30.869  1.00  0.00     0.148 A 
ATOM     80  C   UNL A   1      37.658  30.059  28.807  1.00  0.00     0.002 A 
ATOM     81  C   UNL A   1      38.151  29.792  31.165  1.00  0.00     0.091 A 
ATOM     82  F   UNL A   1      40.375  29.237  31.832  1.00  0.00    -0.205 F 
ATOM     83  C   UNL A   1      37.244  30.092  30.136  1.00  0.00     0.022 A 
BRANCH  81  84
ATOM     84  S   UNL A   1      37.503  29.726  32.838  1.00  0.00     0.127 S 
ATOM     85  O   UNL A   1      36.226  30.420  32.693  1.00  0.00    -0.237 OA
ATOM     86  O   UNL A   1      37.397  28.284  33.069  1.00  0.00    -0.237 OA
ATOM     87  O   UNL A   1      38.500  30.390  33.668  1.00  0.00    -0.744 OA
ENDBRANCH  81  84
ENDBRANCH  53  77
BRANCH  65  88
ATOM     88  C   UNL A   1      45.924  32.925  29.009  1.00  0.00     0.023 A 
ATOM     89  C   UNL A   1      46.484  33.328  30.238  1.00  0.00     0.012 A 
ATOM     90  C   UNL A   1      45.795  33.863  27.966  1.00  0.00     0.148 A 
ATOM     91  C   UNL A   1      46.887  34.649  30.434  1.00  0.00     0.002 A 
ATOM     92  C   UNL A   1      46.238  35.168  28.155  1.00  0.00     0.091 A 
ATOM     93  F   UNL A   1      45.238  33.467  26.813  1.00  0.00    -0.205 F 
ATOM     94  C   UNL A   1      46.776  35.564  29.390  1.00  0.00     0.022 A 
BRANCH  92  95
ATOM     95  S   UNL A   1      46.215  36.382  26.829  1.00  0.00     0.127 S 
ATOM     96  O   UNL A   1      44.825  36.830  26.860  1.00  0.00    -0.237 OA
ATOM     97  O   UNL A   1      47.186  37.373  27.294  1.00  0.00    -0.237 OA
ATOM     98  O   UNL A   1      46.622  35.664  25.629  1.00  0.00    -0.744 OA
ENDBRANCH  92  95
ENDBRANCH  65  88
ENDBRANCH  39  40
ENDBRANCH  31  34
ENDBRANCH  29  30
ENDBRANCH  28  29
ENDBRANCH   1  28
TORSDOF 17
ENDMDL
MODEL 3
REMARK VINA RESULT:     -12.2      2.232      7.401
REMARK SMILES CC[C@H]1CCCCN1S(=O)(=O)c1ccc2oc(C(=O)NCCCCNC(=O)c3ccc(-c4c5nc(c(-c6cccc(S(=O)(=O)[O-])c6F)c6ccc([nH]6)c(-c6cccc(S(=O)(=O)[O-])c6F)c6nc(c(-c7cccc(S(=O)(=O)[O-])c7F)c7ccc4[nH]7)C=C6)C=C5)cc3)c(C)c2c1
REMARK SMILES IDX 22 1 21 2 20 3 18 4 19 5 17 7 12 8 13 9 94 10 14 11 93 12
REMARK SMILES IDX 15 13 91 14 16 15 92 16 9 17 10 18 11 19 8 20 3 21 4 22 5 23
REMARK SMILES IDX 7 24 6 25 2 26 1 27 23 28 24 29 25 30 26 31 27 33 28 34
REMARK SMILES IDX 29 35 90 36 30 37 89 38 31 39 32 40 33 41 83 42 34 43 88 44
REMARK SMILES IDX 82 45 84 46 35 47 87 48 81 49 80 50 36 52 68 53 48 54 67 55
REMARK SMILES IDX 49 56 52 57 66 58 85 59 50 60 51 61 65 63 86 64 53 65 37 66
REMARK SMILES IDX 38 67 46 68 39 69 41 70 47 71 40 72 42 73 43 74 44 75 45 76
REMARK SMILES IDX 69 77 70 78 78 79 71 80 73 81 79 82 72 83 74 84 75 85 76 86
REMARK SMILES IDX 77 87 54 88 55 89 63 90 56 91 58 92 64 93 57 94 59 95 60 96
REMARK SMILES IDX 61 97 62 98
REMARK H PARENT 20 6 25 32 84 51 52 62
REMARK Flexibility Score: inf
ROOT
ATOM      1  C   UNL A   1      36.730  20.203  24.923  1.00  0.00     0.023 C 
ENDROOT
BRANCH   1   2
ATOM      2  C   UNL A   1      35.263  20.603  24.916  1.00  0.00     0.116 C 
BRANCH   2   3
ATOM      3  N   UNL A   1      34.297  19.538  25.059  1.00  0.00    -0.349 N 
ATOM      4  C   UNL A   1      32.912  19.604  24.999  1.00  0.00     0.287 C 
ATOM      5  O   UNL A   1      32.304  18.546  25.167  1.00  0.00    -0.266 OA
ATOM      6  H   UNL A   1      34.672  18.641  25.221  1.00  0.00     0.163 HD
BRANCH   4   7
ATOM      7  C   UNL A   1      32.235  20.881  24.809  1.00  0.00     0.195 A 
ATOM      8  C   UNL A   1      30.553  25.119  24.444  1.00  0.00     0.083 A 
ATOM      9  C   UNL A   1      30.189  24.853  25.770  1.00  0.00     0.025 A 
ATOM     10  C   UNL A   1      31.291  24.190  23.709  1.00  0.00     0.034 A 
ATOM     11  C   UNL A   1      30.560  23.638  26.385  1.00  0.00     0.049 A 
ATOM     12  C   UNL A   1      31.516  22.927  24.254  1.00  0.00     0.025 A 
ATOM     13  C   UNL A   1      31.223  22.706  25.583  1.00  0.00     0.135 A 
ATOM     14  C   UNL A   1      31.936  21.686  23.713  1.00  0.00     0.008 A 
ATOM     15  O   UNL A   1      31.694  21.479  25.941  1.00  0.00    -0.451 OA
ATOM     16  C   UNL A   1      31.965  21.407  22.256  1.00  0.00     0.049 C 
BRANCH   8  17
ATOM     17  S   UNL A   1      30.244  26.687  23.664  1.00  0.00     0.243 S 
ATOM     18  O   UNL A   1      28.805  26.782  23.534  1.00  0.00    -0.207 OA
ATOM     19  O   UNL A   1      31.105  26.778  22.501  1.00  0.00    -0.207 OA
BRANCH  17  20
ATOM     20  N   UNL A   1      30.761  27.913  24.780  1.00  0.00    -0.195 NA
ATOM     21  C   UNL A   1      31.954  27.489  25.618  1.00  0.00     0.073 C 
ATOM     22  C   UNL A   1      32.191  28.543  26.717  1.00  0.00     0.020 C 
ATOM     23  C   UNL A   1      32.423  29.933  26.140  1.00  0.00     0.003 C 
ATOM     24  C   UNL A   1      30.901  29.297  24.235  1.00  0.00     0.103 C 
ATOM     25  C   UNL A   1      31.222  30.330  25.308  1.00  0.00     0.017 C 
BRANCH  21  26
ATOM     26  C   UNL A   1      33.243  27.260  24.793  1.00  0.00     0.017 C 
ATOM     27  C   UNL A   1      34.071  26.082  25.293  1.00  0.00     0.005 C 
ENDBRANCH  21  26
ENDBRANCH  17  20
ENDBRANCH   8  17
ENDBRANCH   4   7
ENDBRANCH   2   3
ENDBRANCH   1   2
BRANCH   1  28
ATOM     28  C   UNL A   1      37.750  21.335  24.871  1.00  0.00     0.023 C 
BRANCH  28  29
ATOM     29  C   UNL A   1      38.781  21.399  25.994  1.00  0.00     0.116 C 
BRANCH  29  30
ATOM     30  N   UNL A   1      39.767  20.325  25.980  1.00  0.00    -0.352 N 
ATOM     31  C   UNL A   1      41.113  20.355  26.277  1.00  0.00     0.251 C 
ATOM     32  H   UNL A   1      39.418  19.442  25.717  1.00  0.00     0.163 HD
ATOM     33  O   UNL A   1      41.779  19.326  26.182  1.00  0.00    -0.269 OA
BRANCH  31  34
ATOM     34  C   UNL A   1      41.768  21.628  26.657  1.00  0.00     0.039 A 
ATOM     35  C   UNL A   1      42.099  22.541  25.651  1.00  0.00     0.014 A 
ATOM     36  C   UNL A   1      42.007  21.948  27.994  1.00  0.00     0.014 A 
ATOM     37  C   UNL A   1      42.562  23.815  25.994  1.00  0.00     0.010 A 
ATOM     38  C   UNL A   1      42.379  23.247  28.336  1.00  0.00     0.010 A 
ATOM     39  C   UNL A   1      42.649  24.200  27.343  1.00  0.00    -0.014 A 
BRANCH  39  40
ATOM     40  C   UNL A   1      42.972  25.600  27.730  1.00  0.00     0.031 A 
ATOM     41  C   UNL A   1      44.384  26.115  27.647  1.00  0.00     0.074 A 
ATOM     42  C   UNL A   1      42.008  26.380  28.262  1.00  0.00     0.049 A 
ATOM     43  N   UNL A   1      44.854  27.289  27.983  1.00  0.00    -0.248 NA
ATOM     44  C   UNL A   1      45.410  25.179  27.158  1.00  0.00     0.031 C 
ATOM     45  C   UNL A   1      40.624  25.968  28.507  1.00  0.00     0.029 A 
ATOM     46  N   UNL A   1      42.051  27.675  28.718  1.00  0.00    -0.354 N 
ATOM     47  C   UNL A   1      46.228  27.220  27.788  1.00  0.00     0.074 A 
ATOM     48  C   UNL A   1      46.523  25.877  27.341  1.00  0.00     0.031 C 
ATOM     49  C   UNL A   1      39.948  26.992  29.055  1.00  0.00     0.029 A 
ATOM     50  C   UNL A   1      40.850  28.127  29.218  1.00  0.00     0.049 A 
ATOM     51  H   UNL A   1      42.864  28.228  28.692  1.00  0.00     0.167 HD
ATOM     52  C   UNL A   1      47.158  28.194  27.931  1.00  0.00     0.034 A 
ATOM     53  C   UNL A   1      40.509  29.322  29.738  1.00  0.00     0.034 A 
ATOM     54  C   UNL A   1      46.856  29.548  28.308  1.00  0.00     0.049 A 
ATOM     55  C   UNL A   1      41.537  30.419  29.789  1.00  0.00     0.074 A 
ATOM     56  C   UNL A   1      47.710  30.635  28.374  1.00  0.00     0.029 A 
ATOM     57  N   UNL A   1      45.600  30.004  28.678  1.00  0.00    -0.354 N 
ATOM     58  N   UNL A   1      42.795  30.386  29.421  1.00  0.00    -0.248 NA
ATOM     59  C   UNL A   1      41.092  31.731  30.281  1.00  0.00     0.031 C 
ATOM     60  C   UNL A   1      46.970  31.748  28.786  1.00  0.00     0.029 A 
ATOM     61  C   UNL A   1      45.654  31.356  28.969  1.00  0.00     0.049 A 
ATOM     62  H   UNL A   1      44.789  29.447  28.728  1.00  0.00     0.167 HD
ATOM     63  C   UNL A   1      43.281  31.676  29.600  1.00  0.00     0.074 A 
ATOM     64  C   UNL A   1      42.175  32.473  30.092  1.00  0.00     0.031 C 
ATOM     65  C   UNL A   1      44.532  32.153  29.393  1.00  0.00     0.034 A 
BRANCH  52  66
ATOM     66  C   UNL A   1      48.585  27.850  27.597  1.00  0.00     0.023 A 
ATOM     67  C   UNL A   1      49.026  27.961  26.262  1.00  0.00     0.012 A 
ATOM     68  C   UNL A   1      49.501  27.468  28.596  1.00  0.00     0.148 A 
ATOM     69  C   UNL A   1      50.344  27.664  25.920  1.00  0.00     0.002 A 
ATOM     70  C   UNL A   1      50.825  27.213  28.254  1.00  0.00     0.091 A 
ATOM     71  F   UNL A   1      49.060  27.344  29.857  1.00  0.00    -0.205 F 
ATOM     72  C   UNL A   1      51.245  27.300  26.917  1.00  0.00     0.022 A 
BRANCH  70  73
ATOM     73  S   UNL A   1      52.076  26.812  29.480  1.00  0.00     0.127 S 
ATOM     74  O   UNL A   1      53.204  26.428  28.633  1.00  0.00    -0.237 OA
ATOM     75  O   UNL A   1      52.246  28.086  30.179  1.00  0.00    -0.237 OA
ATOM     76  O   UNL A   1      51.507  25.748  30.295  1.00  0.00    -0.744 OA
ENDBRANCH  70  73
ENDBRANCH  52  66
BRANCH  53  77
ATOM     77  C   UNL A   1      39.098  29.576  30.149  1.00  0.00     0.023 A 
ATOM     78  C   UNL A   1      38.672  29.161  31.427  1.00  0.00     0.012 A 
ATOM     79  C   UNL A   1      38.195  30.257  29.312  1.00  0.00     0.148 A 
ATOM     80  C   UNL A   1      37.365  29.396  31.853  1.00  0.00     0.002 A 
ATOM     81  C   UNL A   1      36.908  30.535  29.763  1.00  0.00     0.091 A 
ATOM     82  F   UNL A   1      38.613  30.632  28.095  1.00  0.00    -0.205 F 
ATOM     83  C   UNL A   1      36.487  30.092  31.027  1.00  0.00     0.022 A 
BRANCH  81  84
ATOM     84  S   UNL A   1      35.758  31.541  28.820  1.00  0.00     0.127 S 
ATOM     85  O   UNL A   1      36.635  32.586  28.297  1.00  0.00    -0.237 OA
ATOM     86  O   UNL A   1      35.268  30.592  27.821  1.00  0.00    -0.237 OA
ATOM     87  O   UNL A   1      34.748  31.975  29.776  1.00  0.00    -0.744 OA
ENDBRANCH  81  84
ENDBRANCH  53  77
BRANCH  65  88
ATOM     88  C   UNL A   1      44.779  33.614  29.658  1.00  0.00     0.023 A 
ATOM     89  C   UNL A   1      45.156  34.034  30.948  1.00  0.00     0.012 A 
ATOM     90  C   UNL A   1      44.716  34.557  28.613  1.00  0.00     0.148 A 
ATOM     91  C   UNL A   1      45.445  35.375  31.201  1.00  0.00     0.002 A 
ATOM     92  C   UNL A   1      45.047  35.884  28.863  1.00  0.00     0.091 A 
ATOM     93  F   UNL A   1      44.331  34.142  27.397  1.00  0.00    -0.205 F 
ATOM     94  C   UNL A   1      45.403  36.296  30.157  1.00  0.00     0.022 A 
BRANCH  92  95
ATOM     95  S   UNL A   1      45.107  37.113  27.553  1.00  0.00     0.127 S 
ATOM     96  O   UNL A   1      45.503  38.312  28.287  1.00  0.00    -0.237 OA
ATOM     97  O   UNL A   1      46.137  36.575  26.663  1.00  0.00    -0.237 OA
ATOM     98  O   UNL A   1      43.771  37.139  26.974  1.00  0.00    -0.744 OA
ENDBRANCH  92  95
ENDBRANCH  65  88
ENDBRANCH  39  40
ENDBRANCH  31  34
ENDBRANCH  29  30
ENDBRANCH  28  29
ENDBRANCH   1  28
TORSDOF 17
ENDMDL
