MODEL 1
REMARK VINA RESULT:     -13.4      0.000      0.000
REMARK SMILES O=C(CCC(=O)N1N=C(c2ccc(F)cc2)C[C@@H]1c1ccc2nccnc2c1)NCCCCNC(=O)c1ccc(-c2c3nc(c(-c4cccc(S(=O)(=O)[O-])c4F)c4ccc([nH]4)c(-c4cccc(S(=O)(=O)[O-])c4F)c4nc(c(-c5cccc(S(=O)(=O)[O-])c5F)c5ccc2[nH]5)C=C4)C=C3)cc1
REMARK SMILES IDX 31 1 30 2 29 3 1 4 2 5 3 7 4 8 5 9 6 10 7 11 8 12 18 13 9 14
REMARK SMILES IDX 17 15 19 16 20 17 28 18 21 19 27 20 22 21 26 22 23 23 25 24
REMARK SMILES IDX 24 25 10 26 11 27 16 28 12 29 15 30 13 31 14 32 32 33 33 34
REMARK SMILES IDX 34 35 35 36 36 38 37 39 38 40 99 41 39 42 98 43 40 44 41 45
REMARK SMILES IDX 42 46 92 47 43 48 97 49 91 50 93 51 44 52 96 53 90 54 89 55
REMARK SMILES IDX 45 57 77 58 57 59 76 60 58 61 61 62 75 63 94 64 59 65 60 66
REMARK SMILES IDX 74 68 95 69 62 70 46 71 47 72 55 73 48 74 50 75 56 76 49 77
REMARK SMILES IDX 51 78 52 79 53 80 54 81 78 82 79 83 87 84 80 85 82 86 88 87
REMARK SMILES IDX 81 88 83 89 84 90 85 91 86 92 63 93 64 94 72 95 65 96 67 97
REMARK SMILES IDX 73 98 66 99 68 100 69 101 70 102 71 103
REMARK H PARENT 29 6 34 37 93 56 61 67
REMARK Flexibility Score: inf
ROOT
ATOM      1  C   UNL A   1      31.621  30.680  25.882  1.00  0.00     0.023 C 
ENDROOT
BRANCH   1   2
ATOM      2  C   UNL A   1      31.941  29.462  26.823  1.00  0.00     0.116 C 
BRANCH   2   3
ATOM      3  N   UNL A   1      33.032  28.517  26.520  1.00  0.00    -0.356 N 
ATOM      4  O   UNL A   1      31.777  26.630  26.885  1.00  0.00    -0.275 OA
ATOM      5  C   UNL A   1      32.777  27.141  26.407  1.00  0.00     0.220 C 
ATOM      6  H   UNL A   1      33.948  28.855  26.394  1.00  0.00     0.163 HD
BRANCH   5   7
ATOM      7  C   UNL A   1      33.771  26.332  25.537  1.00  0.00     0.110 C 
BRANCH   7   8
ATOM      8  C   UNL A   1      33.969  26.931  24.124  1.00  0.00     0.112 C 
BRANCH   8   9
ATOM      9  C   UNL A   1      33.460  26.311  22.796  1.00  0.00     0.243 C 
ATOM     10  O   UNL A   1      34.042  26.615  21.748  1.00  0.00    -0.273 OA
BRANCH   9  11
ATOM     11  N   UNL A   1      32.532  25.287  22.825  1.00  0.00    -0.225 N 
ATOM     12  N   UNL A   1      33.020  23.961  22.768  1.00  0.00    -0.174 NA
ATOM     13  C   UNL A   1      31.268  25.341  23.503  1.00  0.00     0.147 C 
ATOM     14  C   UNL A   1      32.095  23.182  23.255  1.00  0.00     0.071 C 
ATOM     15  C   UNL A   1      30.825  23.907  23.604  1.00  0.00     0.091 C 
BRANCH  13  16
ATOM     16  C   UNL A   1      30.247  26.416  23.166  1.00  0.00    -0.021 A 
ATOM     17  C   UNL A   1      28.989  26.298  23.767  1.00  0.00     0.008 A 
ATOM     18  C   UNL A   1      30.465  27.595  22.453  1.00  0.00     0.036 A 
ATOM     19  C   UNL A   1      28.020  27.292  23.752  1.00  0.00     0.031 A 
ATOM     20  C   UNL A   1      29.496  28.623  22.403  1.00  0.00     0.089 A 
ATOM     21  C   UNL A   1      28.260  28.462  23.086  1.00  0.00     0.089 A 
ATOM     22  N   UNL A   1      29.737  29.775  21.750  1.00  0.00    -0.253 NA
ATOM     23  N   UNL A   1      27.305  29.405  23.136  1.00  0.00    -0.253 NA
ATOM     24  C   UNL A   1      28.750  30.705  21.762  1.00  0.00     0.132 A 
ATOM     25  C   UNL A   1      27.564  30.529  22.444  1.00  0.00     0.132 A 
ENDBRANCH  13  16
BRANCH  14  26
ATOM     26  C   UNL A   1      32.222  21.704  23.516  1.00  0.00    -0.002 A 
ATOM     27  C   UNL A   1      32.456  21.213  24.812  1.00  0.00     0.013 A 
ATOM     28  C   UNL A   1      32.128  20.770  22.482  1.00  0.00     0.013 A 
ATOM     29  C   UNL A   1      32.502  19.845  25.101  1.00  0.00     0.040 A 
ATOM     30  C   UNL A   1      32.198  19.390  22.761  1.00  0.00     0.040 A 
ATOM     31  C   UNL A   1      32.361  18.941  24.068  1.00  0.00     0.123 A 
ATOM     32  F   UNL A   1      32.393  17.629  24.334  1.00  0.00    -0.207 F 
ENDBRANCH  14  26
ENDBRANCH   9  11
ENDBRANCH   8   9
ENDBRANCH   7   8
ENDBRANCH   5   7
ENDBRANCH   2   3
ENDBRANCH   1   2
BRANCH   1  33
ATOM     33  C   UNL A   1      31.428  32.204  26.230  1.00  0.00     0.023 C 
BRANCH  33  34
ATOM     34  C   UNL A   1      31.839  32.777  27.605  1.00  0.00     0.116 C 
BRANCH  34  35
ATOM     35  N   UNL A   1      32.687  33.955  27.578  1.00  0.00    -0.352 N 
ATOM     36  C   UNL A   1      34.031  34.202  27.789  1.00  0.00     0.251 C 
ATOM     37  H   UNL A   1      32.186  34.773  27.358  1.00  0.00     0.163 HD
ATOM     38  O   UNL A   1      34.394  35.341  27.471  1.00  0.00    -0.269 OA
BRANCH  36  39
ATOM     39  C   UNL A   1      35.085  33.267  28.335  1.00  0.00     0.039 A 
ATOM     40  C   UNL A   1      36.418  33.729  28.297  1.00  0.00     0.014 A 
ATOM     41  C   UNL A   1      34.891  31.981  28.837  1.00  0.00     0.014 A 
ATOM     42  C   UNL A   1      37.500  32.944  28.745  1.00  0.00     0.010 A 
ATOM     43  C   UNL A   1      35.973  31.172  29.256  1.00  0.00     0.010 A 
ATOM     44  C   UNL A   1      37.290  31.652  29.233  1.00  0.00    -0.014 A 
BRANCH  44  45
ATOM     45  C   UNL A   1      38.382  30.919  29.938  1.00  0.00     0.031 A 
ATOM     46  C   UNL A   1      39.189  29.822  29.298  1.00  0.00     0.074 A 
ATOM     47  C   UNL A   1      38.607  31.243  31.228  1.00  0.00     0.049 A 
ATOM     48  N   UNL A   1      40.223  29.176  29.782  1.00  0.00    -0.248 NA
ATOM     49  C   UNL A   1      38.787  29.383  27.955  1.00  0.00     0.031 C 
ATOM     50  C   UNL A   1      37.839  32.240  31.977  1.00  0.00     0.029 A 
ATOM     51  N   UNL A   1      39.512  30.767  32.142  1.00  0.00    -0.354 N 
ATOM     52  C   UNL A   1      40.599  28.254  28.810  1.00  0.00     0.074 A 
ATOM     53  C   UNL A   1      39.665  28.413  27.712  1.00  0.00     0.031 C 
ATOM     54  C   UNL A   1      38.292  32.290  33.237  1.00  0.00     0.029 A 
ATOM     55  C   UNL A   1      39.382  31.333  33.390  1.00  0.00     0.049 A 
ATOM     56  H   UNL A   1      40.190  30.087  31.926  1.00  0.00     0.167 HD
ATOM     57  C   UNL A   1      41.634  27.374  28.831  1.00  0.00     0.034 A 
ATOM     58  C   UNL A   1      40.065  31.118  34.533  1.00  0.00     0.034 A 
ATOM     59  C   UNL A   1      42.549  27.230  29.938  1.00  0.00     0.049 A 
ATOM     60  C   UNL A   1      41.228  30.167  34.517  1.00  0.00     0.074 A 
ATOM     61  C   UNL A   1      43.683  26.436  30.019  1.00  0.00     0.029 A 
ATOM     62  N   UNL A   1      42.427  27.867  31.164  1.00  0.00    -0.354 N 
ATOM     63  N   UNL A   1      41.687  29.450  33.520  1.00  0.00    -0.248 NA
ATOM     64  C   UNL A   1      41.999  30.033  35.760  1.00  0.00     0.031 C 
ATOM     65  C   UNL A   1      44.221  26.565  31.303  1.00  0.00     0.029 A 
ATOM     66  C   UNL A   1      43.450  27.471  32.012  1.00  0.00     0.049 A 
ATOM     67  H   UNL A   1      41.717  28.509  31.398  1.00  0.00     0.167 HD
ATOM     68  C   UNL A   1      42.817  28.803  34.004  1.00  0.00     0.074 A 
ATOM     69  C   UNL A   1      42.984  29.229  35.379  1.00  0.00     0.031 C 
ATOM     70  C   UNL A   1      43.633  27.928  33.368  1.00  0.00     0.034 A 
BRANCH  57  71
ATOM     71  C   UNL A   1      41.899  26.528  27.604  1.00  0.00     0.023 A 
ATOM     72  C   UNL A   1      42.635  27.079  26.536  1.00  0.00     0.012 A 
ATOM     73  C   UNL A   1      41.564  25.157  27.570  1.00  0.00     0.148 A 
ATOM     74  C   UNL A   1      43.016  26.291  25.448  1.00  0.00     0.002 A 
ATOM     75  C   UNL A   1      41.981  24.368  26.501  1.00  0.00     0.091 A 
ATOM     76  F   UNL A   1      40.864  24.645  28.592  1.00  0.00    -0.205 F 
ATOM     77  C   UNL A   1      42.700  24.935  25.437  1.00  0.00     0.022 A 
BRANCH  75  78
ATOM     78  S   UNL A   1      41.707  22.593  26.423  1.00  0.00     0.127 S 
ATOM     79  O   UNL A   1      42.418  22.237  25.196  1.00  0.00    -0.237 OA
ATOM     80  O   UNL A   1      42.344  22.128  27.653  1.00  0.00    -0.237 OA
ATOM     81  O   UNL A   1      40.260  22.409  26.377  1.00  0.00    -0.744 OA
ENDBRANCH  75  78
ENDBRANCH  57  71
BRANCH  58  82
ATOM     82  C   UNL A   1      39.711  31.905  35.748  1.00  0.00     0.023 A 
ATOM     83  C   UNL A   1      40.251  33.194  35.919  1.00  0.00     0.012 A 
ATOM     84  C   UNL A   1      38.770  31.425  36.680  1.00  0.00     0.148 A 
ATOM     85  C   UNL A   1      39.874  33.985  37.004  1.00  0.00     0.002 A 
ATOM     86  C   UNL A   1      38.353  32.240  37.726  1.00  0.00     0.091 A 
ATOM     87  F   UNL A   1      38.271  30.193  36.501  1.00  0.00    -0.205 F 
ATOM     88  C   UNL A   1      38.915  33.515  37.898  1.00  0.00     0.022 A 
BRANCH  86  89
ATOM     89  S   UNL A   1      37.016  31.784  38.835  1.00  0.00     0.127 S 
ATOM     90  O   UNL A   1      37.595  32.070  40.141  1.00  0.00    -0.237 OA
ATOM     91  O   UNL A   1      35.951  32.693  38.415  1.00  0.00    -0.237 OA
ATOM     92  O   UNL A   1      36.740  30.375  38.561  1.00  0.00    -0.744 OA
ENDBRANCH  86  89
ENDBRANCH  58  82
BRANCH  70  93
ATOM     93  C   UNL A   1      44.804  27.370  34.135  1.00  0.00     0.023 A 
ATOM     94  C   UNL A   1      46.024  28.074  34.162  1.00  0.00     0.012 A 
ATOM     95  C   UNL A   1      44.662  26.203  34.914  1.00  0.00     0.148 A 
ATOM     96  C   UNL A   1      47.090  27.615  34.933  1.00  0.00     0.002 A 
ATOM     97  C   UNL A   1      45.712  25.781  35.721  1.00  0.00     0.091 A 
ATOM     98  F   UNL A   1      43.500  25.537  34.860  1.00  0.00    -0.205 F 
ATOM     99  C   UNL A   1      46.931  26.478  35.723  1.00  0.00     0.022 A 
BRANCH  97 100
ATOM    100  S   UNL A   1      45.566  24.391  36.850  1.00  0.00     0.127 S 
ATOM    101  O   UNL A   1      46.927  24.289  37.374  1.00  0.00    -0.237 OA
ATOM    102  O   UNL A   1      44.577  24.878  37.812  1.00  0.00    -0.237 OA
ATOM    103  O   UNL A   1      45.124  23.260  36.045  1.00  0.00    -0.744 OA
ENDBRANCH  97 100
ENDBRANCH  70  93
ENDBRANCH  44  45
ENDBRANCH  36  39
ENDBRANCH  34  35
ENDBRANCH  33  34
ENDBRANCH   1  33
TORSDOF 19
ENDMDL
MODEL 2
REMARK VINA RESULT:     -13.1      0.621      7.144
REMARK SMILES O=C(CCC(=O)N1N=C(c2ccc(F)cc2)C[C@@H]1c1ccc2nccnc2c1)NCCCCNC(=O)c1ccc(-c2c3nc(c(-c4cccc(S(=O)(=O)[O-])c4F)c4ccc([nH]4)c(-c4cccc(S(=O)(=O)[O-])c4F)c4nc(c(-c5cccc(S(=O)(=O)[O-])c5F)c5ccc2[nH]5)C=C4)C=C3)cc1
REMARK SMILES IDX 31 1 30 2 29 3 1 4 2 5 3 7 4 8 5 9 6 10 7 11 8 12 18 13 9 14
REMARK SMILES IDX 17 15 19 16 20 17 28 18 21 19 27 20 22 21 26 22 23 23 25 24
REMARK SMILES IDX 24 25 10 26 11 27 16 28 12 29 15 30 13 31 14 32 32 33 33 34
REMARK SMILES IDX 34 35 35 36 36 38 37 39 38 40 99 41 39 42 98 43 40 44 41 45
REMARK SMILES IDX 42 46 92 47 43 48 97 49 91 50 93 51 44 52 96 53 90 54 89 55
REMARK SMILES IDX 45 57 77 58 57 59 76 60 58 61 61 62 75 63 94 64 59 65 60 66
REMARK SMILES IDX 74 68 95 69 62 70 46 71 47 72 55 73 48 74 50 75 56 76 49 77
REMARK SMILES IDX 51 78 52 79 53 80 54 81 78 82 79 83 87 84 80 85 82 86 88 87
REMARK SMILES IDX 81 88 83 89 84 90 85 91 86 92 63 93 64 94 72 95 65 96 67 97
REMARK SMILES IDX 73 98 66 99 68 100 69 101 70 102 71 103
REMARK H PARENT 29 6 34 37 93 56 61 67
REMARK Flexibility Score: inf
ROOT
ATOM      1  C   UNL A   1      31.011  30.768  25.200  1.00  0.00     0.023 C 
ENDROOT
BRANCH   1   2
ATOM      2  C   UNL A   1      31.137  29.247  25.576  1.00  0.00     0.116 C 
BRANCH   2   3
ATOM      3  N   UNL A   1      32.423  28.532  25.484  1.00  0.00    -0.356 N 
ATOM      4  O   UNL A   1      31.889  26.945  27.054  1.00  0.00    -0.275 OA
ATOM      5  C   UNL A   1      32.606  27.301  26.132  1.00  0.00     0.220 C 
ATOM      6  H   UNL A   1      33.160  28.922  24.962  1.00  0.00     0.163 HD
BRANCH   5   7
ATOM      7  C   UNL A   1      33.686  26.367  25.532  1.00  0.00     0.110 C 
BRANCH   7   8
ATOM      8  C   UNL A   1      34.138  26.794  24.114  1.00  0.00     0.112 C 
BRANCH   8   9
ATOM      9  C   UNL A   1      33.524  26.298  22.778  1.00  0.00     0.243 C 
ATOM     10  O   UNL A   1      34.031  26.690  21.720  1.00  0.00    -0.273 OA
BRANCH   9  11
ATOM     11  N   UNL A   1      32.586  25.282  22.785  1.00  0.00    -0.225 N 
ATOM     12  N   UNL A   1      33.063  23.953  22.716  1.00  0.00    -0.174 NA
ATOM     13  C   UNL A   1      31.317  25.340  23.453  1.00  0.00     0.147 C 
ATOM     14  C   UNL A   1      32.127  23.177  23.185  1.00  0.00     0.071 C 
ATOM     15  C   UNL A   1      30.861  23.909  23.532  1.00  0.00     0.091 C 
BRANCH  13  16
ATOM     16  C   UNL A   1      30.309  26.427  23.120  1.00  0.00    -0.021 A 
ATOM     17  C   UNL A   1      29.079  26.369  23.784  1.00  0.00     0.008 A 
ATOM     18  C   UNL A   1      30.522  27.571  22.348  1.00  0.00     0.036 A 
ATOM     19  C   UNL A   1      28.136  27.388  23.774  1.00  0.00     0.031 A 
ATOM     20  C   UNL A   1      29.579  28.622  22.302  1.00  0.00     0.089 A 
ATOM     21  C   UNL A   1      28.373  28.523  23.049  1.00  0.00     0.089 A 
ATOM     22  N   UNL A   1      29.817  29.740  21.591  1.00  0.00    -0.253 NA
ATOM     23  N   UNL A   1      27.446  29.493  23.105  1.00  0.00    -0.253 NA
ATOM     24  C   UNL A   1      28.856  30.697  21.611  1.00  0.00     0.132 A 
ATOM     25  C   UNL A   1      27.700  30.581  22.355  1.00  0.00     0.132 A 
ENDBRANCH  13  16
BRANCH  14  26
ATOM     26  C   UNL A   1      32.238  21.695  23.428  1.00  0.00    -0.002 A 
ATOM     27  C   UNL A   1      32.529  21.189  24.707  1.00  0.00     0.013 A 
ATOM     28  C   UNL A   1      32.072  20.771  22.394  1.00  0.00     0.013 A 
ATOM     29  C   UNL A   1      32.563  19.818  24.984  1.00  0.00     0.040 A 
ATOM     30  C   UNL A   1      32.130  19.388  22.660  1.00  0.00     0.040 A 
ATOM     31  C   UNL A   1      32.351  18.925  23.953  1.00  0.00     0.123 A 
ATOM     32  F   UNL A   1      32.371  17.610  24.208  1.00  0.00    -0.207 F 
ENDBRANCH  14  26
ENDBRANCH   9  11
ENDBRANCH   8   9
ENDBRANCH   7   8
ENDBRANCH   5   7
ENDBRANCH   2   3
ENDBRANCH   1   2
BRANCH   1  33
ATOM     33  C   UNL A   1      31.124  32.048  26.111  1.00  0.00     0.023 C 
BRANCH  33  34
ATOM     34  C   UNL A   1      32.096  32.103  27.310  1.00  0.00     0.116 C 
BRANCH  34  35
ATOM     35  N   UNL A   1      32.727  33.386  27.562  1.00  0.00    -0.352 N 
ATOM     36  C   UNL A   1      33.975  33.798  27.996  1.00  0.00     0.251 C 
ATOM     37  H   UNL A   1      32.125  34.143  27.381  1.00  0.00     0.163 HD
ATOM     38  O   UNL A   1      34.174  35.014  27.887  1.00  0.00    -0.269 OA
BRANCH  36  39
ATOM     39  C   UNL A   1      35.098  32.960  28.560  1.00  0.00     0.039 A 
ATOM     40  C   UNL A   1      36.409  33.439  28.347  1.00  0.00     0.014 A 
ATOM     41  C   UNL A   1      34.986  31.745  29.235  1.00  0.00     0.014 A 
ATOM     42  C   UNL A   1      37.548  32.739  28.793  1.00  0.00     0.010 A 
ATOM     43  C   UNL A   1      36.124  31.017  29.655  1.00  0.00     0.010 A 
ATOM     44  C   UNL A   1      37.419  31.515  29.456  1.00  0.00    -0.014 A 
BRANCH  44  45
ATOM     45  C   UNL A   1      38.588  30.899  30.149  1.00  0.00     0.031 A 
ATOM     46  C   UNL A   1      39.065  31.332  31.509  1.00  0.00     0.074 A 
ATOM     47  C   UNL A   1      39.263  29.940  29.483  1.00  0.00     0.049 A 
ATOM     48  N   UNL A   1      40.012  30.810  32.250  1.00  0.00    -0.248 NA
ATOM     49  C   UNL A   1      38.410  32.499  32.115  1.00  0.00     0.031 C 
ATOM     50  C   UNL A   1      38.937  29.488  28.129  1.00  0.00     0.029 A 
ATOM     51  N   UNL A   1      40.361  29.193  29.827  1.00  0.00    -0.354 N 
ATOM     52  C   UNL A   1      40.073  31.579  33.408  1.00  0.00     0.074 A 
ATOM     53  C   UNL A   1      39.074  32.619  33.261  1.00  0.00     0.031 C 
ATOM     54  C   UNL A   1      39.824  28.557  27.750  1.00  0.00     0.029 A 
ATOM     55  C   UNL A   1      40.780  28.341  28.831  1.00  0.00     0.049 A 
ATOM     56  H   UNL A   1      40.806  29.259  30.703  1.00  0.00     0.167 HD
ATOM     57  C   UNL A   1      40.876  31.417  34.492  1.00  0.00     0.034 A 
ATOM     58  C   UNL A   1      41.812  27.474  28.786  1.00  0.00     0.034 A 
ATOM     59  C   UNL A   1      41.868  30.375  34.615  1.00  0.00     0.049 A 
ATOM     60  C   UNL A   1      42.659  27.289  30.012  1.00  0.00     0.074 A 
ATOM     61  C   UNL A   1      42.664  30.070  35.709  1.00  0.00     0.029 A 
ATOM     62  N   UNL A   1      42.221  29.487  33.611  1.00  0.00    -0.354 N 
ATOM     63  N   UNL A   1      42.569  27.896  31.170  1.00  0.00    -0.248 NA
ATOM     64  C   UNL A   1      43.714  26.269  29.948  1.00  0.00     0.031 C 
ATOM     65  C   UNL A   1      43.522  29.026  35.351  1.00  0.00     0.029 A 
ATOM     66  C   UNL A   1      43.235  28.648  34.049  1.00  0.00     0.049 A 
ATOM     67  H   UNL A   1      41.812  29.455  32.715  1.00  0.00     0.167 HD
ATOM     68  C   UNL A   1      43.532  27.312  31.984  1.00  0.00     0.074 A 
ATOM     69  C   UNL A   1      44.183  26.289  31.190  1.00  0.00     0.031 C 
ATOM     70  C   UNL A   1      43.852  27.606  33.267  1.00  0.00     0.034 A 
BRANCH  57  71
ATOM     71  C   UNL A   1      40.693  32.336  35.681  1.00  0.00     0.023 A 
ATOM     72  C   UNL A   1      41.497  33.489  35.788  1.00  0.00     0.012 A 
ATOM     73  C   UNL A   1      39.636  32.151  36.598  1.00  0.00     0.148 A 
ATOM     74  C   UNL A   1      41.268  34.430  36.794  1.00  0.00     0.002 A 
ATOM     75  C   UNL A   1      39.388  33.112  37.574  1.00  0.00     0.091 A 
ATOM     76  F   UNL A   1      38.878  31.050  36.485  1.00  0.00    -0.205 F 
ATOM     77  C   UNL A   1      40.208  34.248  37.678  1.00  0.00     0.022 A 
BRANCH  75  78
ATOM     78  S   UNL A   1      37.996  33.026  38.709  1.00  0.00     0.127 S 
ATOM     79  O   UNL A   1      38.316  31.825  39.479  1.00  0.00    -0.237 OA
ATOM     80  O   UNL A   1      38.125  34.278  39.452  1.00  0.00    -0.237 OA
ATOM     81  O   UNL A   1      36.802  32.929  37.876  1.00  0.00    -0.744 OA
ENDBRANCH  75  78
ENDBRANCH  57  71
BRANCH  58  82
ATOM     82  C   UNL A   1      42.016  26.653  27.559  1.00  0.00     0.023 A 
ATOM     83  C   UNL A   1      42.674  27.217  26.450  1.00  0.00     0.012 A 
ATOM     84  C   UNL A   1      41.650  25.292  27.522  1.00  0.00     0.148 A 
ATOM     85  C   UNL A   1      42.951  26.447  25.321  1.00  0.00     0.002 A 
ATOM     86  C   UNL A   1      41.981  24.516  26.418  1.00  0.00     0.091 A 
ATOM     87  F   UNL A   1      41.019  24.776  28.587  1.00  0.00    -0.205 F 
ATOM     88  C   UNL A   1      42.619  25.095  25.310  1.00  0.00     0.022 A 
BRANCH  86  89
ATOM     89  S   UNL A   1      41.732  22.737  26.376  1.00  0.00     0.127 S 
ATOM     90  O   UNL A   1      40.281  22.635  26.312  1.00  0.00    -0.237 OA
ATOM     91  O   UNL A   1      42.435  22.363  25.150  1.00  0.00    -0.237 OA
ATOM     92  O   UNL A   1      42.350  22.224  27.598  1.00  0.00    -0.744 OA
ENDBRANCH  86  89
ENDBRANCH  58  82
BRANCH  70  93
ATOM     93  C   UNL A   1      44.950  26.807  33.921  1.00  0.00     0.023 A 
ATOM     94  C   UNL A   1      46.293  27.209  33.774  1.00  0.00     0.012 A 
ATOM     95  C   UNL A   1      44.643  25.721  34.765  1.00  0.00     0.148 A 
ATOM     96  C   UNL A   1      47.313  26.531  34.439  1.00  0.00     0.002 A 
ATOM     97  C   UNL A   1      45.660  25.082  35.465  1.00  0.00     0.091 A 
ATOM     98  F   UNL A   1      43.362  25.341  34.877  1.00  0.00    -0.205 F 
ATOM     99  C   UNL A   1      46.996  25.478  35.294  1.00  0.00     0.022 A 
BRANCH  97 100
ATOM    100  S   UNL A   1      45.340  23.786  36.668  1.00  0.00     0.127 S 
ATOM    101  O   UNL A   1      46.639  23.666  37.329  1.00  0.00    -0.237 OA
ATOM    102  O   UNL A   1      44.290  24.384  37.493  1.00  0.00    -0.237 OA
ATOM    103  O   UNL A   1      44.921  22.619  35.905  1.00  0.00    -0.744 OA
ENDBRANCH  97 100
ENDBRANCH  70  93
ENDBRANCH  44  45
ENDBRANCH  36  39
ENDBRANCH  34  35
ENDBRANCH  33  34
ENDBRANCH   1  33
TORSDOF 19
ENDMDL
MODEL 3
REMARK VINA RESULT:     -12.6      2.766      8.652
REMARK SMILES O=C(CCC(=O)N1N=C(c2ccc(F)cc2)C[C@@H]1c1ccc2nccnc2c1)NCCCCNC(=O)c1ccc(-c2c3nc(c(-c4cccc(S(=O)(=O)[O-])c4F)c4ccc([nH]4)c(-c4cccc(S(=O)(=O)[O-])c4F)c4nc(c(-c5cccc(S(=O)(=O)[O-])c5F)c5ccc2[nH]5)C=C4)C=C3)cc1
REMARK SMILES IDX 31 1 30 2 29 3 1 4 2 5 3 7 4 8 5 9 6 10 7 11 8 12 18 13 9 14
REMARK SMILES IDX 17 15 19 16 20 17 28 18 21 19 27 20 22 21 26 22 23 23 25 24
REMARK SMILES IDX 24 25 10 26 11 27 16 28 12 29 15 30 13 31 14 32 32 33 33 34
REMARK SMILES IDX 34 35 35 36 36 38 37 39 38 40 99 41 39 42 98 43 40 44 41 45
REMARK SMILES IDX 42 46 92 47 43 48 97 49 91 50 93 51 44 52 96 53 90 54 89 55
REMARK SMILES IDX 45 57 77 58 57 59 76 60 58 61 61 62 75 63 94 64 59 65 60 66
REMARK SMILES IDX 74 68 95 69 62 70 46 71 47 72 55 73 48 74 50 75 56 76 49 77
REMARK SMILES IDX 51 78 52 79 53 80 54 81 78 82 79 83 87 84 80 85 82 86 88 87
REMARK SMILES IDX 81 88 83 89 84 90 85 91 86 92 63 93 64 94 72 95 65 96 67 97
REMARK SMILES IDX 73 98 66 99 68 100 69 101 70 102 71 103
REMARK H PARENT 29 6 34 37 93 56 61 67
REMARK Flexibility Score: inf
ROOT
ATOM      1  C   UNL A   1      42.110  20.800  26.902  1.00  0.00     0.023 C 
ENDROOT
BRANCH   1   2
ATOM      2  C   UNL A   1      40.846  21.391  27.627  1.00  0.00     0.116 C 
BRANCH   2   3
ATOM      3  N   UNL A   1      40.201  22.634  27.166  1.00  0.00    -0.356 N 
ATOM      4  O   UNL A   1      38.845  21.603  25.627  1.00  0.00    -0.275 OA
ATOM      5  C   UNL A   1      39.096  22.589  26.302  1.00  0.00     0.220 C 
ATOM      6  H   UNL A   1      40.548  23.504  27.468  1.00  0.00     0.163 HD
BRANCH   5   7
ATOM      7  C   UNL A   1      38.146  23.811  26.345  1.00  0.00     0.110 C 
BRANCH   7   8
ATOM      8  C   UNL A   1      36.845  23.599  25.534  1.00  0.00     0.112 C 
BRANCH   8   9
ATOM      9  C   UNL A   1      35.506  23.048  26.092  1.00  0.00     0.243 C 
ATOM     10  O   UNL A   1      35.092  23.497  27.167  1.00  0.00    -0.273 OA
BRANCH   9  11
ATOM     11  N   UNL A   1      34.706  22.248  25.298  1.00  0.00    -0.225 N 
ATOM     12  N   UNL A   1      34.949  20.855  25.318  1.00  0.00    -0.174 NA
ATOM     13  C   UNL A   1      33.338  22.527  24.965  1.00  0.00     0.147 C 
ATOM     14  C   UNL A   1      33.864  20.262  24.907  1.00  0.00     0.071 C 
ATOM     15  C   UNL A   1      32.792  21.218  24.464  1.00  0.00     0.091 C 
BRANCH  13  16
ATOM     16  C   UNL A   1      32.954  23.816  24.257  1.00  0.00    -0.021 A 
ATOM     17  C   UNL A   1      32.765  23.741  22.874  1.00  0.00     0.008 A 
ATOM     18  C   UNL A   1      32.612  25.034  24.846  1.00  0.00     0.036 A 
ATOM     19  C   UNL A   1      32.203  24.752  22.106  1.00  0.00     0.031 A 
ATOM     20  C   UNL A   1      32.050  26.091  24.095  1.00  0.00     0.089 A 
ATOM     21  C   UNL A   1      31.831  25.926  22.699  1.00  0.00     0.089 A 
ATOM     22  N   UNL A   1      31.681  27.243  24.683  1.00  0.00    -0.253 NA
ATOM     23  N   UNL A   1      31.256  26.855  21.918  1.00  0.00    -0.253 NA
ATOM     24  C   UNL A   1      31.146  28.198  23.881  1.00  0.00     0.132 A 
ATOM     25  C   UNL A   1      30.932  28.008  22.531  1.00  0.00     0.132 A 
ENDBRANCH  13  16
BRANCH  14  26
ATOM     26  C   UNL A   1      33.613  18.777  24.890  1.00  0.00    -0.002 A 
ATOM     27  C   UNL A   1      34.418  17.914  24.127  1.00  0.00     0.013 A 
ATOM     28  C   UNL A   1      32.565  18.205  25.614  1.00  0.00     0.013 A 
ATOM     29  C   UNL A   1      34.263  16.524  24.150  1.00  0.00     0.040 A 
ATOM     30  C   UNL A   1      32.385  16.808  25.622  1.00  0.00     0.040 A 
ATOM     31  C   UNL A   1      33.247  15.980  24.910  1.00  0.00     0.123 A 
ATOM     32  F   UNL A   1      33.094  14.650  24.947  1.00  0.00    -0.207 F 
ENDBRANCH  14  26
ENDBRANCH   9  11
ENDBRANCH   8   9
ENDBRANCH   7   8
ENDBRANCH   5   7
ENDBRANCH   2   3
ENDBRANCH   1   2
BRANCH   1  33
ATOM     33  C   UNL A   1      43.242  21.531  26.086  1.00  0.00     0.023 C 
BRANCH  33  34
ATOM     34  C   UNL A   1      42.909  22.574  24.996  1.00  0.00     0.116 C 
BRANCH  34  35
ATOM     35  N   UNL A   1      43.988  23.466  24.615  1.00  0.00    -0.352 N 
ATOM     36  C   UNL A   1      44.484  24.668  25.089  1.00  0.00     0.251 C 
ATOM     37  H   UNL A   1      44.486  23.139  23.832  1.00  0.00     0.163 HD
ATOM     38  O   UNL A   1      45.562  25.006  24.587  1.00  0.00    -0.269 OA
BRANCH  36  39
ATOM     39  C   UNL A   1      43.886  25.585  26.130  1.00  0.00     0.039 A 
ATOM     40  C   UNL A   1      42.906  25.023  26.976  1.00  0.00     0.014 A 
ATOM     41  C   UNL A   1      44.168  26.937  26.324  1.00  0.00     0.014 A 
ATOM     42  C   UNL A   1      42.246  25.776  27.968  1.00  0.00     0.010 A 
ATOM     43  C   UNL A   1      43.486  27.710  27.293  1.00  0.00     0.010 A 
ATOM     44  C   UNL A   1      42.530  27.134  28.140  1.00  0.00    -0.014 A 
BRANCH  44  45
ATOM     45  C   UNL A   1      42.031  27.868  29.340  1.00  0.00     0.031 A 
ATOM     46  C   UNL A   1      42.706  27.810  30.684  1.00  0.00     0.074 A 
ATOM     47  C   UNL A   1      40.892  28.577  29.198  1.00  0.00     0.049 A 
ATOM     48  N   UNL A   1      42.417  28.477  31.775  1.00  0.00    -0.248 NA
ATOM     49  C   UNL A   1      43.837  26.885  30.834  1.00  0.00     0.031 C 
ATOM     50  C   UNL A   1      40.111  28.648  27.962  1.00  0.00     0.029 A 
ATOM     51  N   UNL A   1      40.180  29.343  30.086  1.00  0.00    -0.354 N 
ATOM     52  C   UNL A   1      43.324  28.058  32.743  1.00  0.00     0.074 A 
ATOM     53  C   UNL A   1      44.164  27.060  32.111  1.00  0.00     0.031 C 
ATOM     54  C   UNL A   1      39.022  29.400  28.172  1.00  0.00     0.029 A 
ATOM     55  C   UNL A   1      39.024  29.867  29.554  1.00  0.00     0.049 A 
ATOM     56  H   UNL A   1      40.469  29.504  31.013  1.00  0.00     0.167 HD
ATOM     57  C   UNL A   1      43.449  28.480  34.029  1.00  0.00     0.034 A 
ATOM     58  C   UNL A   1      38.071  30.644  30.107  1.00  0.00     0.034 A 
ATOM     59  C   UNL A   1      42.597  29.474  34.639  1.00  0.00     0.049 A 
ATOM     60  C   UNL A   1      38.254  31.126  31.517  1.00  0.00     0.074 A 
ATOM     61  C   UNL A   1      42.701  30.036  35.902  1.00  0.00     0.029 A 
ATOM     62  N   UNL A   1      41.473  30.033  34.050  1.00  0.00    -0.354 N 
ATOM     63  N   UNL A   1      39.232  30.869  32.352  1.00  0.00    -0.248 NA
ATOM     64  C   UNL A   1      37.237  32.044  32.048  1.00  0.00     0.031 C 
ATOM     65  C   UNL A   1      41.620  30.904  36.087  1.00  0.00     0.029 A 
ATOM     66  C   UNL A   1      40.864  30.917  34.927  1.00  0.00     0.049 A 
ATOM     67  H   UNL A   1      41.154  29.832  33.140  1.00  0.00     0.167 HD
ATOM     68  C   UNL A   1      38.967  31.615  33.493  1.00  0.00     0.074 A 
ATOM     69  C   UNL A   1      37.745  32.350  33.236  1.00  0.00     0.031 C 
ATOM     70  C   UNL A   1      39.668  31.675  34.651  1.00  0.00     0.034 A 
BRANCH  57  71
ATOM     71  C   UNL A   1      44.583  27.935  34.870  1.00  0.00     0.023 A 
ATOM     72  C   UNL A   1      45.798  28.646  34.928  1.00  0.00     0.012 A 
ATOM     73  C   UNL A   1      44.400  26.822  35.718  1.00  0.00     0.148 A 
ATOM     74  C   UNL A   1      46.818  28.251  35.796  1.00  0.00     0.002 A 
ATOM     75  C   UNL A   1      45.405  26.456  36.609  1.00  0.00     0.091 A 
ATOM     76  F   UNL A   1      43.239  26.154  35.653  1.00  0.00    -0.205 F 
ATOM     77  C   UNL A   1      46.617  27.165  36.644  1.00  0.00     0.022 A 
BRANCH  75  78
ATOM     78  S   UNL A   1      45.221  25.130  37.810  1.00  0.00     0.127 S 
ATOM     79  O   UNL A   1      46.511  25.172  38.496  1.00  0.00    -0.237 OA
ATOM     80  O   UNL A   1      44.089  25.592  38.610  1.00  0.00    -0.237 OA
ATOM     81  O   UNL A   1      44.970  23.918  37.037  1.00  0.00    -0.744 OA
ENDBRANCH  75  78
ENDBRANCH  57  71
BRANCH  58  82
ATOM     82  C   UNL A   1      36.918  31.084  29.270  1.00  0.00     0.023 A 
ATOM     83  C   UNL A   1      36.821  32.433  28.880  1.00  0.00     0.012 A 
ATOM     84  C   UNL A   1      35.976  30.157  28.780  1.00  0.00     0.148 A 
ATOM     85  C   UNL A   1      35.799  32.856  28.030  1.00  0.00     0.002 A 
ATOM     86  C   UNL A   1      34.996  30.573  27.887  1.00  0.00     0.091 A 
ATOM     87  F   UNL A   1      36.084  28.878  29.168  1.00  0.00    -0.205 F 
ATOM     88  C   UNL A   1      34.896  31.925  27.522  1.00  0.00     0.022 A 
BRANCH  86  89
ATOM     89  S   UNL A   1      33.888  29.425  27.062  1.00  0.00     0.127 S 
ATOM     90  O   UNL A   1      33.023  29.001  28.155  1.00  0.00    -0.237 OA
ATOM     91  O   UNL A   1      33.252  30.283  26.064  1.00  0.00    -0.237 OA
ATOM     92  O   UNL A   1      34.747  28.386  26.496  1.00  0.00    -0.744 OA
ENDBRANCH  86  89
ENDBRANCH  58  82
BRANCH  70  93
ATOM     93  C   UNL A   1      39.153  32.578  35.742  1.00  0.00     0.023 A 
ATOM     94  C   UNL A   1      38.211  32.089  36.669  1.00  0.00     0.012 A 
ATOM     95  C   UNL A   1      39.680  33.874  35.911  1.00  0.00     0.148 A 
ATOM     96  C   UNL A   1      37.785  32.884  37.733  1.00  0.00     0.002 A 
ATOM     97  C   UNL A   1      39.290  34.641  37.003  1.00  0.00     0.091 A 
ATOM     98  F   UNL A   1      40.561  34.328  35.008  1.00  0.00    -0.205 F 
ATOM     99  C   UNL A   1      38.334  34.152  37.908  1.00  0.00     0.022 A 
BRANCH  97 100
ATOM    100  S   UNL A   1      40.019  36.241  37.371  1.00  0.00     0.127 S 
ATOM    101  O   UNL A   1      39.975  36.895  36.063  1.00  0.00    -0.237 OA
ATOM    102  O   UNL A   1      39.085  36.786  38.356  1.00  0.00    -0.237 OA
ATOM    103  O   UNL A   1      41.354  35.970  37.885  1.00  0.00    -0.744 OA
ENDBRANCH  97 100
ENDBRANCH  70  93
ENDBRANCH  44  45
ENDBRANCH  36  39
ENDBRANCH  34  35
ENDBRANCH  33  34
ENDBRANCH   1  33
TORSDOF 19
ENDMDL
