MODEL 1
REMARK VINA RESULT:     -12.2      0.000      0.000
REMARK SMILES C[C@@H](C(=O)NCCCCNC(=O)c1ccc(-c2c3nc(c(-c4cccc(S(=O)(=O)[O-])c4F)c4ccc([nH]4)c(-c4cccc(S(=O)(=O)[O-])c4F)c4nc(c(-c5cccc(S(=O)(=O)[O-])c5F)c5ccc2[nH]5)C=C4)C=C3)cc1)c1ccc(C[C@@H]2CCC[C@@H]2O)cc1Br
REMARK SMILES IDX 7 1 6 2 5 3 3 4 4 5 2 7 1 8 76 9 77 10 88 11 78 12 87 13
REMARK SMILES IDX 89 14 79 15 80 16 81 17 82 18 85 19 83 20 84 21 86 22 8 24
REMARK SMILES IDX 9 25 10 26 11 27 12 29 13 30 14 31 75 32 15 33 74 34 16 35
REMARK SMILES IDX 17 36 18 37 68 38 19 39 73 40 67 41 69 42 20 43 72 44 66 45
REMARK SMILES IDX 65 46 21 48 53 49 33 50 52 51 34 52 37 53 51 54 70 55 35 56
REMARK SMILES IDX 36 57 50 59 71 60 38 61 22 62 23 63 31 64 24 65 26 66 32 67
REMARK SMILES IDX 25 68 27 69 28 70 29 71 30 72 54 73 55 74 63 75 56 76 58 77
REMARK SMILES IDX 64 78 57 79 59 80 60 81 61 82 62 83 39 84 40 85 48 86 41 87
REMARK SMILES IDX 43 88 49 89 42 90 44 91 45 92 46 93 47 94
REMARK H PARENT 5 6 86 23 10 28 69 47 37 58
REMARK Flexibility Score: inf
ROOT
ATOM      1  C   UNL A   1      31.402  28.925  25.970  1.00  0.00     0.023 C 
ENDROOT
BRANCH   1   2
ATOM      2  C   UNL A   1      31.345  28.899  24.444  1.00  0.00     0.116 C 
BRANCH   2   3
ATOM      3  N   UNL A   1      30.506  27.825  23.955  1.00  0.00    -0.356 N 
ATOM      4  C   UNL A   1      30.829  26.580  23.499  1.00  0.00     0.227 C 
ATOM      5  O   UNL A   1      29.886  25.833  23.227  1.00  0.00    -0.274 OA
ATOM      6  H   UNL A   1      29.542  28.027  23.950  1.00  0.00     0.163 HD
BRANCH   4   7
ATOM      7  C   UNL A   1      32.295  26.125  23.449  1.00  0.00     0.106 C 
ATOM      8  C   UNL A   1      33.088  26.602  22.224  1.00  0.00     0.023 C 
BRANCH   7   9
ATOM      9  C   UNL A   1      32.453  24.614  23.638  1.00  0.00    -0.022 A 
ATOM     10  C   UNL A   1      32.847  23.858  22.515  1.00  0.00     0.006 A 
ATOM     11  C   UNL A   1      32.210  23.921  24.838  1.00  0.00     0.022 A 
ATOM     12  C   UNL A   1      32.921  22.465  22.564  1.00  0.00     0.004 A 
ATOM     13  C   UNL A   1      32.258  22.521  24.870  1.00  0.00     0.019 A 
ATOM     14  Br  UNL A   1      31.797  24.766  26.490  1.00  0.00    -0.051 Br
ATOM     15  C   UNL A   1      32.573  21.777  23.727  1.00  0.00    -0.047 A 
BRANCH  15  16
ATOM     16  C   UNL A   1      32.514  20.273  23.766  1.00  0.00     0.041 C 
BRANCH  16  17
ATOM     17  C   UNL A   1      33.205  19.555  24.950  1.00  0.00     0.022 C 
ATOM     18  C   UNL A   1      34.729  19.720  25.000  1.00  0.00     0.007 C 
ATOM     19  C   UNL A   1      33.032  18.036  25.065  1.00  0.00     0.117 C 
ATOM     20  C   UNL A   1      35.331  18.432  24.432  1.00  0.00     0.003 C 
ATOM     21  C   UNL A   1      34.179  17.448  24.256  1.00  0.00     0.032 C 
BRANCH  19  22
ATOM     22  O   UNL A   1      31.779  17.554  24.631  1.00  0.00    -0.393 OA
ATOM     23  H   UNL A   1      31.577  16.724  25.091  1.00  0.00     0.210 HD
ENDBRANCH  19  22
ENDBRANCH  16  17
ENDBRANCH  15  16
ENDBRANCH   7   9
ENDBRANCH   4   7
ENDBRANCH   2   3
ENDBRANCH   1   2
BRANCH   1  24
ATOM     24  C   UNL A   1      32.740  28.476  26.568  1.00  0.00     0.023 C 
BRANCH  24  25
ATOM     25  C   UNL A   1      33.945  29.340  26.207  1.00  0.00     0.116 C 
BRANCH  25  26
ATOM     26  N   UNL A   1      33.943  30.633  26.880  1.00  0.00    -0.352 N 
ATOM     27  C   UNL A   1      34.824  31.113  27.821  1.00  0.00     0.251 C 
ATOM     28  H   UNL A   1      33.215  31.244  26.626  1.00  0.00     0.163 HD
ATOM     29  O   UNL A   1      34.615  32.190  28.372  1.00  0.00    -0.269 OA
BRANCH  27  30
ATOM     30  C   UNL A   1      36.003  30.302  28.190  1.00  0.00     0.039 A 
ATOM     31  C   UNL A   1      37.135  30.346  27.373  1.00  0.00     0.014 A 
ATOM     32  C   UNL A   1      36.007  29.550  29.367  1.00  0.00     0.014 A 
ATOM     33  C   UNL A   1      38.308  29.705  27.782  1.00  0.00     0.010 A 
ATOM     34  C   UNL A   1      37.190  28.956  29.799  1.00  0.00     0.010 A 
ATOM     35  C   UNL A   1      38.356  29.045  29.021  1.00  0.00    -0.014 A 
BRANCH  35  36
ATOM     36  C   UNL A   1      39.629  28.512  29.570  1.00  0.00     0.031 A 
ATOM     37  C   UNL A   1      40.352  29.243  30.665  1.00  0.00     0.074 A 
ATOM     38  C   UNL A   1      40.203  27.447  28.975  1.00  0.00     0.049 A 
ATOM     39  N   UNL A   1      41.529  28.997  31.179  1.00  0.00    -0.248 NA
ATOM     40  C   UNL A   1      39.679  30.419  31.242  1.00  0.00     0.031 C 
ATOM     41  C   UNL A   1      39.642  26.705  27.842  1.00  0.00     0.029 A 
ATOM     42  N   UNL A   1      41.410  26.833  29.204  1.00  0.00    -0.354 N 
ATOM     43  C   UNL A   1      41.761  30.009  32.102  1.00  0.00     0.074 A 
ATOM     44  C   UNL A   1      40.604  30.878  32.075  1.00  0.00     0.031 C 
ATOM     45  C   UNL A   1      40.513  25.758  27.460  1.00  0.00     0.029 A 
ATOM     46  C   UNL A   1      41.704  25.839  28.298  1.00  0.00     0.049 A 
ATOM     47  H   UNL A   1      42.009  27.079  29.946  1.00  0.00     0.167 HD
ATOM     48  C   UNL A   1      42.831  30.185  32.911  1.00  0.00     0.034 A 
ATOM     49  C   UNL A   1      42.816  25.094  28.140  1.00  0.00     0.034 A 
ATOM     50  C   UNL A   1      43.948  29.282  32.982  1.00  0.00     0.049 A 
ATOM     51  C   UNL A   1      43.970  25.287  29.087  1.00  0.00     0.074 A 
ATOM     52  C   UNL A   1      45.002  29.293  33.878  1.00  0.00     0.029 A 
ATOM     53  N   UNL A   1      44.166  28.223  32.118  1.00  0.00    -0.354 N 
ATOM     54  N   UNL A   1      44.075  26.114  30.097  1.00  0.00    -0.248 NA
ATOM     55  C   UNL A   1      45.145  24.426  28.890  1.00  0.00     0.031 C 
ATOM     56  C   UNL A   1      45.872  28.250  33.540  1.00  0.00     0.029 A 
ATOM     57  C   UNL A   1      45.353  27.588  32.442  1.00  0.00     0.049 A 
ATOM     58  H   UNL A   1      43.566  27.961  31.382  1.00  0.00     0.167 HD
ATOM     59  C   UNL A   1      45.316  25.859  30.670  1.00  0.00     0.074 A 
ATOM     60  C   UNL A   1      45.914  24.779  29.912  1.00  0.00     0.031 C 
ATOM     61  C   UNL A   1      45.915  26.479  31.716  1.00  0.00     0.034 A 
BRANCH  48  62
ATOM     62  C   UNL A   1      42.829  31.366  33.843  1.00  0.00     0.023 A 
ATOM     63  C   UNL A   1      43.265  32.619  33.370  1.00  0.00     0.012 A 
ATOM     64  C   UNL A   1      42.299  31.259  35.144  1.00  0.00     0.148 A 
ATOM     65  C   UNL A   1      43.187  33.748  34.184  1.00  0.00     0.002 A 
ATOM     66  C   UNL A   1      42.193  32.396  35.937  1.00  0.00     0.091 A 
ATOM     67  F   UNL A   1      41.909  30.052  35.578  1.00  0.00    -0.205 F 
ATOM     68  C   UNL A   1      42.642  33.638  35.461  1.00  0.00     0.022 A 
BRANCH  66  69
ATOM     69  S   UNL A   1      41.443  32.375  37.569  1.00  0.00     0.127 S 
ATOM     70  O   UNL A   1      42.277  31.397  38.264  1.00  0.00    -0.237 OA
ATOM     71  O   UNL A   1      41.628  33.758  38.010  1.00  0.00    -0.237 OA
ATOM     72  O   UNL A   1      40.055  31.981  37.369  1.00  0.00    -0.744 OA
ENDBRANCH  66  69
ENDBRANCH  48  62
BRANCH  49  73
ATOM     73  C   UNL A   1      42.879  24.065  27.064  1.00  0.00     0.023 A 
ATOM     74  C   UNL A   1      43.603  24.342  25.887  1.00  0.00     0.012 A 
ATOM     75  C   UNL A   1      42.246  22.815  27.202  1.00  0.00     0.148 A 
ATOM     76  C   UNL A   1      43.668  23.403  24.856  1.00  0.00     0.002 A 
ATOM     77  C   UNL A   1      42.362  21.865  26.194  1.00  0.00     0.091 A 
ATOM     78  F   UNL A   1      41.543  22.576  28.319  1.00  0.00    -0.205 F 
ATOM     79  C   UNL A   1      43.057  22.162  25.013  1.00  0.00     0.022 A 
BRANCH  77  80
ATOM     80  S   UNL A   1      41.718  20.199  26.392  1.00  0.00     0.127 S 
ATOM     81  O   UNL A   1      42.294  19.515  25.238  1.00  0.00    -0.237 OA
ATOM     82  O   UNL A   1      42.275  19.801  27.685  1.00  0.00    -0.237 OA
ATOM     83  O   UNL A   1      40.269  20.354  26.394  1.00  0.00    -0.744 OA
ENDBRANCH  77  80
ENDBRANCH  49  73
BRANCH  61  84
ATOM     84  C   UNL A   1      47.286  26.008  32.117  1.00  0.00     0.023 A 
ATOM     85  C   UNL A   1      48.419  26.581  31.508  1.00  0.00     0.012 A 
ATOM     86  C   UNL A   1      47.457  25.069  33.153  1.00  0.00     0.148 A 
ATOM     87  C   UNL A   1      49.702  26.212  31.909  1.00  0.00     0.002 A 
ATOM     88  C   UNL A   1      48.738  24.738  33.578  1.00  0.00     0.091 A 
ATOM     89  F   UNL A   1      46.365  24.522  33.707  1.00  0.00    -0.205 F 
ATOM     90  C   UNL A   1      49.862  25.301  32.950  1.00  0.00     0.022 A 
BRANCH  88  91
ATOM     91  S   UNL A   1      49.039  23.645  34.971  1.00  0.00     0.127 S 
ATOM     92  O   UNL A   1      50.499  23.560  34.974  1.00  0.00    -0.237 OA
ATOM     93  O   UNL A   1      48.469  24.399  36.088  1.00  0.00    -0.237 OA
ATOM     94  O   UNL A   1      48.342  22.404  34.665  1.00  0.00    -0.744 OA
ENDBRANCH  88  91
ENDBRANCH  61  84
ENDBRANCH  35  36
ENDBRANCH  27  30
ENDBRANCH  25  26
ENDBRANCH  24  25
ENDBRANCH   1  24
TORSDOF 18
ENDMDL
MODEL 2
REMARK VINA RESULT:     -12.2      2.767      8.210
REMARK SMILES C[C@@H](C(=O)NCCCCNC(=O)c1ccc(-c2c3nc(c(-c4cccc(S(=O)(=O)[O-])c4F)c4ccc([nH]4)c(-c4cccc(S(=O)(=O)[O-])c4F)c4nc(c(-c5cccc(S(=O)(=O)[O-])c5F)c5ccc2[nH]5)C=C4)C=C3)cc1)c1ccc(C[C@@H]2CCC[C@@H]2O)cc1Br
REMARK SMILES IDX 7 1 6 2 5 3 3 4 4 5 2 7 1 8 76 9 77 10 88 11 78 12 87 13
REMARK SMILES IDX 89 14 79 15 80 16 81 17 82 18 85 19 83 20 84 21 86 22 8 24
REMARK SMILES IDX 9 25 10 26 11 27 12 29 13 30 14 31 75 32 15 33 74 34 16 35
REMARK SMILES IDX 17 36 18 37 68 38 19 39 73 40 67 41 69 42 20 43 72 44 66 45
REMARK SMILES IDX 65 46 21 48 53 49 33 50 52 51 34 52 37 53 51 54 70 55 35 56
REMARK SMILES IDX 36 57 50 59 71 60 38 61 22 62 23 63 31 64 24 65 26 66 32 67
REMARK SMILES IDX 25 68 27 69 28 70 29 71 30 72 54 73 55 74 63 75 56 76 58 77
REMARK SMILES IDX 64 78 57 79 59 80 60 81 61 82 62 83 39 84 40 85 48 86 41 87
REMARK SMILES IDX 43 88 49 89 42 90 44 91 45 92 46 93 47 94
REMARK H PARENT 5 6 86 23 10 28 69 47 37 58
REMARK Flexibility Score: inf
ROOT
ATOM      1  C   UNL A   1      31.863  28.796  27.203  1.00  0.00     0.023 C 
ENDROOT
BRANCH   1   2
ATOM      2  C   UNL A   1      31.879  27.694  26.145  1.00  0.00     0.116 C 
BRANCH   2   3
ATOM      3  N   UNL A   1      31.269  26.473  26.630  1.00  0.00    -0.356 N 
ATOM      4  C   UNL A   1      31.697  25.179  26.567  1.00  0.00     0.227 C 
ATOM      5  O   UNL A   1      31.005  24.343  27.152  1.00  0.00    -0.274 OA
ATOM      6  H   UNL A   1      30.403  26.599  27.081  1.00  0.00     0.163 HD
BRANCH   4   7
ATOM      7  C   UNL A   1      33.032  24.832  25.892  1.00  0.00     0.106 C 
ATOM      8  C   UNL A   1      33.403  25.703  24.684  1.00  0.00     0.023 C 
BRANCH   7   9
ATOM      9  C   UNL A   1      33.149  23.346  25.542  1.00  0.00    -0.022 A 
ATOM     10  C   UNL A   1      34.065  22.575  26.288  1.00  0.00     0.006 A 
ATOM     11  C   UNL A   1      32.435  22.699  24.518  1.00  0.00     0.022 A 
ATOM     12  C   UNL A   1      34.313  21.237  25.978  1.00  0.00     0.004 A 
ATOM     13  C   UNL A   1      32.712  21.364  24.195  1.00  0.00     0.019 A 
ATOM     14  Br  UNL A   1      31.067  23.526  23.488  1.00  0.00    -0.051 Br
ATOM     15  C   UNL A   1      33.680  20.632  24.892  1.00  0.00    -0.047 A 
BRANCH  15  16
ATOM     16  C   UNL A   1      34.029  19.234  24.453  1.00  0.00     0.041 C 
BRANCH  16  17
ATOM     17  C   UNL A   1      32.898  18.179  24.440  1.00  0.00     0.022 C 
ATOM     18  C   UNL A   1      32.637  17.500  25.790  1.00  0.00     0.007 C 
ATOM     19  C   UNL A   1      33.045  16.984  23.491  1.00  0.00     0.117 C 
ATOM     20  C   UNL A   1      33.323  16.132  25.736  1.00  0.00     0.003 C 
ATOM     21  C   UNL A   1      33.790  15.931  24.298  1.00  0.00     0.032 C 
BRANCH  19  22
ATOM     22  O   UNL A   1      33.699  17.277  22.276  1.00  0.00    -0.393 OA
ATOM     23  H   UNL A   1      34.654  17.148  22.386  1.00  0.00     0.210 HD
ENDBRANCH  19  22
ENDBRANCH  16  17
ENDBRANCH  15  16
ENDBRANCH   7   9
ENDBRANCH   4   7
ENDBRANCH   2   3
ENDBRANCH   1   2
BRANCH   1  24
ATOM     24  C   UNL A   1      31.863  30.222  26.641  1.00  0.00     0.023 C 
BRANCH  24  25
ATOM     25  C   UNL A   1      32.998  31.120  27.123  1.00  0.00     0.116 C 
BRANCH  25  26
ATOM     26  N   UNL A   1      32.615  32.523  27.220  1.00  0.00    -0.352 N 
ATOM     27  C   UNL A   1      33.201  33.524  27.959  1.00  0.00     0.251 C 
ATOM     28  H   UNL A   1      31.833  32.789  26.685  1.00  0.00     0.163 HD
ATOM     29  O   UNL A   1      32.683  34.636  28.014  1.00  0.00    -0.269 OA
BRANCH  27  30
ATOM     30  C   UNL A   1      34.437  33.238  28.716  1.00  0.00     0.039 A 
ATOM     31  C   UNL A   1      34.335  32.636  29.973  1.00  0.00     0.014 A 
ATOM     32  C   UNL A   1      35.689  33.512  28.161  1.00  0.00     0.014 A 
ATOM     33  C   UNL A   1      35.493  32.223  30.637  1.00  0.00     0.010 A 
ATOM     34  C   UNL A   1      36.838  33.054  28.799  1.00  0.00     0.010 A 
ATOM     35  C   UNL A   1      36.750  32.388  30.032  1.00  0.00    -0.014 A 
BRANCH  35  36
ATOM     36  C   UNL A   1      37.981  31.801  30.623  1.00  0.00     0.031 A 
ATOM     37  C   UNL A   1      38.733  30.721  29.898  1.00  0.00     0.074 A 
ATOM     38  C   UNL A   1      38.331  32.142  31.879  1.00  0.00     0.049 A 
ATOM     39  N   UNL A   1      39.749  30.009  30.311  1.00  0.00    -0.248 NA
ATOM     40  C   UNL A   1      38.269  30.376  28.544  1.00  0.00     0.031 C 
ATOM     41  C   UNL A   1      37.626  33.113  32.721  1.00  0.00     0.029 A 
ATOM     42  N   UNL A   1      39.336  31.674  32.690  1.00  0.00    -0.354 N 
ATOM     43  C   UNL A   1      40.017  29.102  29.294  1.00  0.00     0.074 A 
ATOM     44  C   UNL A   1      39.053  29.349  28.243  1.00  0.00     0.031 C 
ATOM     45  C   UNL A   1      38.202  33.148  33.932  1.00  0.00     0.029 A 
ATOM     46  C   UNL A   1      39.298  32.185  33.967  1.00  0.00     0.049 A 
ATOM     47  H   UNL A   1      40.020  31.034  32.386  1.00  0.00     0.167 HD
ATOM     48  C   UNL A   1      40.991  28.164  29.234  1.00  0.00     0.034 A 
ATOM     49  C   UNL A   1      40.042  31.895  35.053  1.00  0.00     0.034 A 
ATOM     50  C   UNL A   1      41.987  27.967  30.252  1.00  0.00     0.049 A 
ATOM     51  C   UNL A   1      41.145  30.878  34.937  1.00  0.00     0.074 A 
ATOM     52  C   UNL A   1      43.103  27.149  30.211  1.00  0.00     0.029 A 
ATOM     53  N   UNL A   1      41.981  28.576  31.495  1.00  0.00    -0.354 N 
ATOM     54  N   UNL A   1      41.518  30.186  33.889  1.00  0.00    -0.248 NA
ATOM     55  C   UNL A   1      41.946  30.623  36.143  1.00  0.00     0.031 C 
ATOM     56  C   UNL A   1      43.760  27.248  31.442  1.00  0.00     0.029 A 
ATOM     57  C   UNL A   1      43.059  28.133  32.242  1.00  0.00     0.049 A 
ATOM     58  H   UNL A   1      41.309  29.228  31.802  1.00  0.00     0.167 HD
ATOM     59  C   UNL A   1      42.610  29.430  34.301  1.00  0.00     0.074 A 
ATOM     60  C   UNL A   1      42.857  29.773  35.687  1.00  0.00     0.031 C 
ATOM     61  C   UNL A   1      43.329  28.519  33.602  1.00  0.00     0.034 A 
BRANCH  48  62
ATOM     62  C   UNL A   1      41.078  27.311  27.998  1.00  0.00     0.023 A 
ATOM     63  C   UNL A   1      41.713  27.822  26.850  1.00  0.00     0.012 A 
ATOM     64  C   UNL A   1      40.631  25.974  28.010  1.00  0.00     0.148 A 
ATOM     65  C   UNL A   1      41.890  27.020  25.722  1.00  0.00     0.002 A 
ATOM     66  C   UNL A   1      40.841  25.172  26.894  1.00  0.00     0.091 A 
ATOM     67  F   UNL A   1      40.013  25.517  29.108  1.00  0.00    -0.205 F 
ATOM     68  C   UNL A   1      41.464  25.694  25.750  1.00  0.00     0.022 A 
BRANCH  66  69
ATOM     69  S   UNL A   1      40.394  23.432  26.851  1.00  0.00     0.127 S 
ATOM     70  O   UNL A   1      41.211  22.946  25.741  1.00  0.00    -0.237 OA
ATOM     71  O   UNL A   1      40.823  22.972  28.172  1.00  0.00    -0.237 OA
ATOM     72  O   UNL A   1      38.954  23.392  26.631  1.00  0.00    -0.744 OA
ENDBRANCH  66  69
ENDBRANCH  48  62
BRANCH  49  73
ATOM     73  C   UNL A   1      39.795  32.606  36.339  1.00  0.00     0.023 A 
ATOM     74  C   UNL A   1      40.561  33.745  36.655  1.00  0.00     0.012 A 
ATOM     75  C   UNL A   1      38.800  32.177  37.238  1.00  0.00     0.148 A 
ATOM     76  C   UNL A   1      40.362  34.424  37.858  1.00  0.00     0.002 A 
ATOM     77  C   UNL A   1      38.571  32.891  38.409  1.00  0.00     0.091 A 
ATOM     78  F   UNL A   1      38.095  31.078  36.933  1.00  0.00    -0.205 F 
ATOM     79  C   UNL A   1      39.360  34.004  38.730  1.00  0.00     0.022 A 
BRANCH  77  80
ATOM     80  S   UNL A   1      37.205  32.487  39.505  1.00  0.00     0.127 S 
ATOM     81  O   UNL A   1      37.601  31.174  40.007  1.00  0.00    -0.237 OA
ATOM     82  O   UNL A   1      37.266  33.566  40.491  1.00  0.00    -0.237 OA
ATOM     83  O   UNL A   1      36.020  32.524  38.659  1.00  0.00    -0.744 OA
ENDBRANCH  77  80
ENDBRANCH  49  73
BRANCH  61  84
ATOM     84  C   UNL A   1      44.460  27.825  34.310  1.00  0.00     0.023 A 
ATOM     85  C   UNL A   1      45.745  28.401  34.289  1.00  0.00     0.012 A 
ATOM     86  C   UNL A   1      44.236  26.659  35.068  1.00  0.00     0.148 A 
ATOM     87  C   UNL A   1      46.796  27.816  34.993  1.00  0.00     0.002 A 
ATOM     88  C   UNL A   1      45.278  26.105  35.804  1.00  0.00     0.091 A 
ATOM     89  F   UNL A   1      43.010  26.116  35.061  1.00  0.00    -0.205 F 
ATOM     90  C   UNL A   1      46.560  26.677  35.759  1.00  0.00     0.022 A 
BRANCH  88  91
ATOM     91  S   UNL A   1      45.046  24.693  36.890  1.00  0.00     0.127 S 
ATOM     92  O   UNL A   1      46.386  24.525  37.450  1.00  0.00    -0.237 OA
ATOM     93  O   UNL A   1      44.047  25.189  37.837  1.00  0.00    -0.237 OA
ATOM     94  O   UNL A   1      44.583  23.606  36.039  1.00  0.00    -0.744 OA
ENDBRANCH  88  91
ENDBRANCH  61  84
ENDBRANCH  35  36
ENDBRANCH  27  30
ENDBRANCH  25  26
ENDBRANCH  24  25
ENDBRANCH   1  24
TORSDOF 18
ENDMDL
MODEL 3
REMARK VINA RESULT:     -12.1      3.474      8.649
REMARK SMILES C[C@@H](C(=O)NCCCCNC(=O)c1ccc(-c2c3nc(c(-c4cccc(S(=O)(=O)[O-])c4F)c4ccc([nH]4)c(-c4cccc(S(=O)(=O)[O-])c4F)c4nc(c(-c5cccc(S(=O)(=O)[O-])c5F)c5ccc2[nH]5)C=C4)C=C3)cc1)c1ccc(C[C@@H]2CCC[C@@H]2O)cc1Br
REMARK SMILES IDX 7 1 6 2 5 3 3 4 4 5 2 7 1 8 76 9 77 10 88 11 78 12 87 13
REMARK SMILES IDX 89 14 79 15 80 16 81 17 82 18 85 19 83 20 84 21 86 22 8 24
REMARK SMILES IDX 9 25 10 26 11 27 12 29 13 30 14 31 75 32 15 33 74 34 16 35
REMARK SMILES IDX 17 36 18 37 68 38 19 39 73 40 67 41 69 42 20 43 72 44 66 45
REMARK SMILES IDX 65 46 21 48 53 49 33 50 52 51 34 52 37 53 51 54 70 55 35 56
REMARK SMILES IDX 36 57 50 59 71 60 38 61 22 62 23 63 31 64 24 65 26 66 32 67
REMARK SMILES IDX 25 68 27 69 28 70 29 71 30 72 54 73 55 74 63 75 56 76 58 77
REMARK SMILES IDX 64 78 57 79 59 80 60 81 61 82 62 83 39 84 40 85 48 86 41 87
REMARK SMILES IDX 43 88 49 89 42 90 44 91 45 92 46 93 47 94
REMARK H PARENT 5 6 86 23 10 28 69 47 37 58
REMARK Flexibility Score: inf
ROOT
ATOM      1  C   UNL A   1      31.644  29.746  26.700  1.00  0.00     0.023 C 
ENDROOT
BRANCH   1   2
ATOM      2  C   UNL A   1      31.443  28.519  25.812  1.00  0.00     0.116 C 
BRANCH   2   3
ATOM      3  N   UNL A   1      32.444  27.503  26.064  1.00  0.00    -0.356 N 
ATOM      4  C   UNL A   1      32.428  26.160  25.826  1.00  0.00     0.227 C 
ATOM      5  O   UNL A   1      33.471  25.547  26.064  1.00  0.00    -0.274 OA
ATOM      6  H   UNL A   1      33.273  27.838  26.476  1.00  0.00     0.163 HD
BRANCH   4   7
ATOM      7  C   UNL A   1      31.198  25.497  25.187  1.00  0.00     0.106 C 
ATOM      8  C   UNL A   1      29.980  25.347  26.108  1.00  0.00     0.023 C 
BRANCH   7   9
ATOM      9  C   UNL A   1      31.530  24.164  24.510  1.00  0.00    -0.022 A 
ATOM     10  C   UNL A   1      31.299  22.986  25.251  1.00  0.00     0.006 A 
ATOM     11  C   UNL A   1      32.071  24.027  23.219  1.00  0.00     0.022 A 
ATOM     12  C   UNL A   1      31.662  21.732  24.757  1.00  0.00     0.004 A 
ATOM     13  C   UNL A   1      32.459  22.766  22.744  1.00  0.00     0.019 A 
ATOM     14  Br  UNL A   1      32.336  25.475  22.016  1.00  0.00    -0.051 Br
ATOM     15  C   UNL A   1      32.298  21.614  23.521  1.00  0.00    -0.047 A 
BRANCH  15  16
ATOM     16  C   UNL A   1      32.821  20.291  23.026  1.00  0.00     0.041 C 
BRANCH  16  17
ATOM     17  C   UNL A   1      32.592  19.047  23.916  1.00  0.00     0.022 C 
ATOM     18  C   UNL A   1      33.711  18.764  24.925  1.00  0.00     0.007 C 
ATOM     19  C   UNL A   1      32.422  17.691  23.221  1.00  0.00     0.117 C 
ATOM     20  C   UNL A   1      34.569  17.643  24.330  1.00  0.00     0.003 C 
ATOM     21  C   UNL A   1      33.833  17.134  23.095  1.00  0.00     0.032 C 
BRANCH  19  22
ATOM     22  O   UNL A   1      31.766  17.750  21.973  1.00  0.00    -0.393 OA
ATOM     23  H   UNL A   1      32.269  17.238  21.321  1.00  0.00     0.210 HD
ENDBRANCH  19  22
ENDBRANCH  16  17
ENDBRANCH  15  16
ENDBRANCH   7   9
ENDBRANCH   4   7
ENDBRANCH   2   3
ENDBRANCH   1   2
BRANCH   1  24
ATOM     24  C   UNL A   1      32.730  30.713  26.218  1.00  0.00     0.023 C 
BRANCH  24  25
ATOM     25  C   UNL A   1      33.430  31.516  27.311  1.00  0.00     0.116 C 
BRANCH  25  26
ATOM     26  N   UNL A   1      32.865  32.847  27.492  1.00  0.00    -0.352 N 
ATOM     27  C   UNL A   1      33.243  33.827  28.381  1.00  0.00     0.251 C 
ATOM     28  H   UNL A   1      32.114  33.075  26.899  1.00  0.00     0.163 HD
ATOM     29  O   UNL A   1      32.586  34.859  28.479  1.00  0.00    -0.269 OA
BRANCH  27  30
ATOM     30  C   UNL A   1      34.423  33.607  29.243  1.00  0.00     0.039 A 
ATOM     31  C   UNL A   1      34.284  32.823  30.390  1.00  0.00     0.014 A 
ATOM     32  C   UNL A   1      35.669  34.128  28.887  1.00  0.00     0.014 A 
ATOM     33  C   UNL A   1      35.417  32.482  31.136  1.00  0.00     0.010 A 
ATOM     34  C   UNL A   1      36.802  33.746  29.599  1.00  0.00     0.010 A 
ATOM     35  C   UNL A   1      36.689  32.903  30.717  1.00  0.00    -0.014 A 
BRANCH  35  36
ATOM     36  C   UNL A   1      37.927  32.412  31.376  1.00  0.00     0.031 A 
ATOM     37  C   UNL A   1      38.728  31.301  30.760  1.00  0.00     0.074 A 
ATOM     38  C   UNL A   1      38.242  32.873  32.604  1.00  0.00     0.049 A 
ATOM     39  N   UNL A   1      39.760  30.663  31.250  1.00  0.00    -0.248 NA
ATOM     40  C   UNL A   1      38.303  30.825  29.434  1.00  0.00     0.031 C 
ATOM     41  C   UNL A   1      37.489  33.888  33.346  1.00  0.00     0.029 A 
ATOM     42  N   UNL A   1      39.247  32.512  33.468  1.00  0.00    -0.354 N 
ATOM     43  C   UNL A   1      40.077  29.682  30.320  1.00  0.00     0.074 A 
ATOM     44  C   UNL A   1      39.126  29.803  29.236  1.00  0.00     0.031 C 
ATOM     45  C   UNL A   1      38.041  34.047  34.559  1.00  0.00     0.029 A 
ATOM     46  C   UNL A   1      39.167  33.130  34.695  1.00  0.00     0.049 A 
ATOM     47  H   UNL A   1      39.957  31.872  33.232  1.00  0.00     0.167 HD
ATOM     48  C   UNL A   1      41.083  28.776  30.358  1.00  0.00     0.034 A 
ATOM     49  C   UNL A   1      39.899  32.960  35.814  1.00  0.00     0.034 A 
ATOM     50  C   UNL A   1      42.065  28.703  31.404  1.00  0.00     0.049 A 
ATOM     51  C   UNL A   1      41.037  31.976  35.805  1.00  0.00     0.074 A 
ATOM     52  C   UNL A   1      43.209  27.924  31.453  1.00  0.00     0.029 A 
ATOM     53  N   UNL A   1      42.015  29.416  32.590  1.00  0.00    -0.354 N 
ATOM     54  N   UNL A   1      41.453  31.209  34.827  1.00  0.00    -0.248 NA
ATOM     55  C   UNL A   1      41.824  31.854  37.041  1.00  0.00     0.031 C 
ATOM     56  C   UNL A   1      43.838  28.152  32.681  1.00  0.00     0.029 A 
ATOM     57  C   UNL A   1      43.093  29.077  33.390  1.00  0.00     0.049 A 
ATOM     58  H   UNL A   1      41.316  30.068  32.828  1.00  0.00     0.167 HD
ATOM     59  C   UNL A   1      42.562  30.531  35.321  1.00  0.00     0.074 A 
ATOM     60  C   UNL A   1      42.770  31.000  36.676  1.00  0.00     0.031 C 
ATOM     61  C   UNL A   1      43.324  29.588  34.715  1.00  0.00     0.034 A 
BRANCH  48  62
ATOM     62  C   UNL A   1      41.223  27.824  29.202  1.00  0.00     0.023 A 
ATOM     63  C   UNL A   1      40.521  26.602  29.225  1.00  0.00     0.012 A 
ATOM     64  C   UNL A   1      41.958  28.182  28.055  1.00  0.00     0.148 A 
ATOM     65  C   UNL A   1      40.559  25.743  28.128  1.00  0.00     0.002 A 
ATOM     66  C   UNL A   1      41.964  27.335  26.953  1.00  0.00     0.091 A 
ATOM     67  F   UNL A   1      42.633  29.340  28.065  1.00  0.00    -0.205 F 
ATOM     68  C   UNL A   1      41.271  26.115  26.990  1.00  0.00     0.022 A 
BRANCH  66  69
ATOM     69  S   UNL A   1      42.791  27.751  25.413  1.00  0.00     0.127 S 
ATOM     70  O   UNL A   1      42.020  28.911  24.968  1.00  0.00    -0.237 OA
ATOM     71  O   UNL A   1      44.148  28.059  25.866  1.00  0.00    -0.237 OA
ATOM     72  O   UNL A   1      42.685  26.570  24.567  1.00  0.00    -0.744 OA
ENDBRANCH  66  69
ENDBRANCH  48  62
BRANCH  49  73
ATOM     73  C   UNL A   1      39.604  33.771  37.029  1.00  0.00     0.023 A 
ATOM     74  C   UNL A   1      40.005  35.121  37.072  1.00  0.00     0.012 A 
ATOM     75  C   UNL A   1      38.917  33.224  38.130  1.00  0.00     0.148 A 
ATOM     76  C   UNL A   1      39.755  35.901  38.202  1.00  0.00     0.002 A 
ATOM     77  C   UNL A   1      38.623  34.023  39.229  1.00  0.00     0.091 A 
ATOM     78  F   UNL A   1      38.561  31.932  38.083  1.00  0.00    -0.205 F 
ATOM     79  C   UNL A   1      39.055  35.356  39.276  1.00  0.00     0.022 A 
BRANCH  77  80
ATOM     80  S   UNL A   1      37.604  33.424  40.583  1.00  0.00     0.127 S 
ATOM     81  O   UNL A   1      36.375  33.050  39.890  1.00  0.00    -0.237 OA
ATOM     82  O   UNL A   1      38.390  32.301  41.092  1.00  0.00    -0.237 OA
ATOM     83  O   UNL A   1      37.508  34.547  41.507  1.00  0.00    -0.744 OA
ENDBRANCH  77  80
ENDBRANCH  49  73
BRANCH  61  84
ATOM     84  C   UNL A   1      44.463  28.998  35.500  1.00  0.00     0.023 A 
ATOM     85  C   UNL A   1      45.737  29.594  35.422  1.00  0.00     0.012 A 
ATOM     86  C   UNL A   1      44.258  27.916  36.378  1.00  0.00     0.148 A 
ATOM     87  C   UNL A   1      46.795  29.110  36.189  1.00  0.00     0.002 A 
ATOM     88  C   UNL A   1      45.305  27.466  37.174  1.00  0.00     0.091 A 
ATOM     89  F   UNL A   1      43.042  27.352  36.424  1.00  0.00    -0.205 F 
ATOM     90  C   UNL A   1      46.576  28.056  37.073  1.00  0.00     0.022 A 
BRANCH  88  91
ATOM     91  S   UNL A   1      45.094  26.176  38.405  1.00  0.00     0.127 S 
ATOM     92  O   UNL A   1      44.729  25.029  37.576  1.00  0.00    -0.237 OA
ATOM     93  O   UNL A   1      46.426  26.096  39.005  1.00  0.00    -0.237 OA
ATOM     94  O   UNL A   1      44.055  26.650  39.308  1.00  0.00    -0.744 OA
ENDBRANCH  88  91
ENDBRANCH  61  84
ENDBRANCH  35  36
ENDBRANCH  27  30
ENDBRANCH  25  26
ENDBRANCH  24  25
ENDBRANCH   1  24
TORSDOF 18
ENDMDL
