MODEL 1
REMARK VINA RESULT:     -11.4      0.000      0.000
REMARK SMILES COc1ccc(S(=O)(=O)N2CCC[C@H](C(=O)N3CCC[C@H](C(=O)NCCCCNC(=O)c4ccc(-c5c6nc(c(-c7cccc(S(=O)(=O)[O-])c7F)c7ccc([nH]7)c(-c7cccc(S(=O)(=O)[O-])c7F)c7nc(c(-c8cccc(S(=O)(=O)[O-])c8F)c8ccc5[nH]8)C=C7)C=C6)cc4)C3)C2)cc1
REMARK SMILES IDX 25 1 24 2 22 3 23 4 21 6 17 7 18 8 95 9 19 10 20 11 15 12
REMARK SMILES IDX 16 13 14 14 10 15 11 16 96 17 12 18 13 19 7 20 8 21 9 22
REMARK SMILES IDX 6 23 3 24 4 25 98 26 5 27 97 28 2 29 1 30 26 31 27 32 28 33
REMARK SMILES IDX 29 34 30 35 31 37 32 38 33 39 94 40 34 41 93 42 35 43 36 44
REMARK SMILES IDX 37 45 87 46 38 47 92 48 86 49 88 50 39 51 91 52 85 53 84 54
REMARK SMILES IDX 40 56 72 57 52 58 71 59 53 60 56 61 70 62 89 63 54 64 55 65
REMARK SMILES IDX 69 67 90 68 57 69 41 70 42 71 50 72 43 73 45 74 51 75 44 76
REMARK SMILES IDX 46 77 47 78 48 79 49 80 73 81 74 82 82 83 75 84 77 85 83 86
REMARK SMILES IDX 76 87 78 88 79 89 80 90 81 91 58 92 59 93 67 94 60 95 62 96
REMARK SMILES IDX 68 97 61 98 63 99 64 100 65 101 66 102
REMARK H PARENT 24 5 29 36 88 55 56 66
REMARK Flexibility Score: inf
ROOT
ATOM      1  C   UNL A   1      35.033  30.891  28.193  1.00  0.00     0.116 C 
ENDROOT
BRANCH   1   2
ATOM      2  N   UNL A   1      34.232  30.887  26.993  1.00  0.00    -0.356 N 
ATOM      3  C   UNL A   1      33.347  29.961  26.544  1.00  0.00     0.224 C 
ATOM      4  O   UNL A   1      32.628  30.286  25.593  1.00  0.00    -0.275 OA
ATOM      5  H   UNL A   1      34.344  31.675  26.413  1.00  0.00     0.163 HD
BRANCH   3   6
ATOM      6  C   UNL A   1      33.193  28.559  27.148  1.00  0.00     0.098 C 
ATOM      7  N   UNL A   1      32.946  26.642  25.538  1.00  0.00    -0.342 N 
ATOM      8  C   UNL A   1      31.723  26.186  26.190  1.00  0.00     0.119 C 
ATOM      9  C   UNL A   1      33.858  27.439  26.343  1.00  0.00     0.133 C 
ATOM     10  C   UNL A   1      30.939  27.312  26.853  1.00  0.00     0.022 C 
ATOM     11  C   UNL A   1      31.808  28.227  27.712  1.00  0.00     0.017 C 
BRANCH   7  12
ATOM     12  C   UNL A   1      33.069  26.471  24.172  1.00  0.00     0.227 C 
ATOM     13  O   UNL A   1      33.849  27.177  23.521  1.00  0.00    -0.275 OA
BRANCH  12  14
ATOM     14  C   UNL A   1      32.069  25.603  23.406  1.00  0.00     0.094 C 
ATOM     15  N   UNL A   1      33.203  23.462  23.865  1.00  0.00    -0.197 NA
ATOM     16  C   UNL A   1      33.707  23.323  22.489  1.00  0.00     0.102 C 
ATOM     17  C   UNL A   1      31.995  24.265  24.131  1.00  0.00     0.116 C 
ATOM     18  C   UNL A   1      33.160  24.308  21.459  1.00  0.00     0.018 C 
ATOM     19  C   UNL A   1      32.152  25.356  21.911  1.00  0.00     0.016 C 
BRANCH  15  20
ATOM     20  S   UNL A   1      33.585  22.217  24.955  1.00  0.00     0.243 S 
ATOM     21  O   UNL A   1      33.245  20.951  24.353  1.00  0.00    -0.207 OA
ATOM     22  O   UNL A   1      33.053  22.606  26.249  1.00  0.00    -0.207 OA
BRANCH  20  23
ATOM     23  C   UNL A   1      35.358  22.237  25.131  1.00  0.00     0.082 A 
ATOM     24  C   UNL A   1      38.118  22.105  25.556  1.00  0.00     0.118 A 
ATOM     25  C   UNL A   1      37.416  20.969  25.145  1.00  0.00     0.048 A 
ATOM     26  C   UNL A   1      37.447  23.318  25.698  1.00  0.00     0.048 A 
ATOM     27  C   UNL A   1      36.035  21.029  24.941  1.00  0.00     0.025 A 
ATOM     28  C   UNL A   1      36.068  23.384  25.493  1.00  0.00     0.025 A 
BRANCH  24  29
ATOM     29  O   UNL A   1      39.457  21.931  25.775  1.00  0.00    -0.497 OA
ATOM     30  C   UNL A   1      39.911  22.371  27.053  1.00  0.00     0.278 C 
ENDBRANCH  24  29
ENDBRANCH  20  23
ENDBRANCH  15  20
ENDBRANCH  12  14
ENDBRANCH   7  12
ENDBRANCH   3   6
ENDBRANCH   1   2
BRANCH   1  31
ATOM     31  C   UNL A   1      34.923  32.170  29.011  1.00  0.00     0.023 C 
BRANCH  31  32
ATOM     32  C   UNL A   1      34.056  33.249  28.376  1.00  0.00     0.023 C 
BRANCH  32  33
ATOM     33  C   UNL A   1      34.304  34.671  28.875  1.00  0.00     0.116 C 
BRANCH  33  34
ATOM     34  N   UNL A   1      33.222  35.239  29.671  1.00  0.00    -0.352 N 
ATOM     35  C   UNL A   1      33.095  35.219  31.045  1.00  0.00     0.251 C 
ATOM     36  H   UNL A   1      32.501  35.685  29.172  1.00  0.00     0.163 HD
ATOM     37  O   UNL A   1      32.099  35.661  31.608  1.00  0.00    -0.269 OA
BRANCH  35  38
ATOM     38  C   UNL A   1      34.188  34.612  31.834  1.00  0.00     0.039 A 
ATOM     39  C   UNL A   1      34.007  33.343  32.388  1.00  0.00     0.014 A 
ATOM     40  C   UNL A   1      35.427  35.251  31.899  1.00  0.00     0.014 A 
ATOM     41  C   UNL A   1      35.108  32.669  32.921  1.00  0.00     0.010 A 
ATOM     42  C   UNL A   1      36.534  34.545  32.353  1.00  0.00     0.010 A 
ATOM     43  C   UNL A   1      36.390  33.242  32.857  1.00  0.00    -0.014 A 
BRANCH  43  44
ATOM     44  C   UNL A   1      37.602  32.490  33.274  1.00  0.00     0.031 A 
ATOM     45  C   UNL A   1      38.341  32.884  34.523  1.00  0.00     0.074 A 
ATOM     46  C   UNL A   1      38.102  31.530  32.469  1.00  0.00     0.049 A 
ATOM     47  N   UNL A   1      39.462  32.411  35.002  1.00  0.00    -0.248 NA
ATOM     48  C   UNL A   1      37.766  33.982  35.320  1.00  0.00     0.031 C 
ATOM     49  C   UNL A   1      37.539  31.124  31.179  1.00  0.00     0.029 A 
ATOM     50  N   UNL A   1      39.219  30.742  32.602  1.00  0.00    -0.354 N 
ATOM     51  C   UNL A   1      39.747  33.176  36.125  1.00  0.00     0.074 A 
ATOM     52  C   UNL A   1      38.703  34.170  36.237  1.00  0.00     0.031 C 
ATOM     53  C   UNL A   1      38.308  30.160  30.644  1.00  0.00     0.029 A 
ATOM     54  C   UNL A   1      39.430  29.894  31.538  1.00  0.00     0.049 A 
ATOM     55  H   UNL A   1      39.814  30.779  33.386  1.00  0.00     0.167 HD
ATOM     56  C   UNL A   1      40.764  33.040  37.009  1.00  0.00     0.034 A 
ATOM     57  C   UNL A   1      40.414  29.001  31.310  1.00  0.00     0.034 A 
ATOM     58  C   UNL A   1      41.760  32.006  36.937  1.00  0.00     0.049 A 
ATOM     59  C   UNL A   1      41.484  28.813  32.352  1.00  0.00     0.074 A 
ATOM     60  C   UNL A   1      42.771  31.722  37.837  1.00  0.00     0.029 A 
ATOM     61  N   UNL A   1      41.866  31.083  35.910  1.00  0.00    -0.354 N 
ATOM     62  N   UNL A   1      41.639  29.432  33.497  1.00  0.00    -0.248 NA
ATOM     63  C   UNL A   1      42.494  27.776  32.092  1.00  0.00     0.031 C 
ATOM     64  C   UNL A   1      43.491  30.626  37.352  1.00  0.00     0.029 A 
ATOM     65  C   UNL A   1      42.923  30.223  36.154  1.00  0.00     0.049 A 
ATOM     66  H   UNL A   1      41.277  31.043  35.122  1.00  0.00     0.167 HD
ATOM     67  C   UNL A   1      42.738  28.839  34.108  1.00  0.00     0.074 A 
ATOM     68  C   UNL A   1      43.197  27.794  33.215  1.00  0.00     0.031 C 
ATOM     69  C   UNL A   1      43.326  29.145  35.290  1.00  0.00     0.034 A 
BRANCH  56  70
ATOM     70  C   UNL A   1      40.799  33.984  38.181  1.00  0.00     0.023 A 
ATOM     71  C   UNL A   1      41.627  35.124  38.121  1.00  0.00     0.012 A 
ATOM     72  C   UNL A   1      39.983  33.779  39.311  1.00  0.00     0.148 A 
ATOM     73  C   UNL A   1      41.670  36.028  39.180  1.00  0.00     0.002 A 
ATOM     74  C   UNL A   1      40.001  34.708  40.346  1.00  0.00     0.091 A 
ATOM     75  F   UNL A   1      39.220  32.679  39.360  1.00  0.00    -0.205 F 
ATOM     76  C   UNL A   1      40.850  35.826  40.287  1.00  0.00     0.022 A 
BRANCH  74  77
ATOM     77  S   UNL A   1      38.931  34.577  41.782  1.00  0.00     0.127 S 
ATOM     78  O   UNL A   1      38.448  33.202  41.668  1.00  0.00    -0.237 OA
ATOM     79  O   UNL A   1      39.864  34.805  42.886  1.00  0.00    -0.237 OA
ATOM     80  O   UNL A   1      37.918  35.612  41.623  1.00  0.00    -0.744 OA
ENDBRANCH  74  77
ENDBRANCH  56  70
BRANCH  57  81
ATOM     81  C   UNL A   1      40.382  28.151  30.086  1.00  0.00     0.023 A 
ATOM     82  C   UNL A   1      39.458  27.091  30.011  1.00  0.00     0.012 A 
ATOM     83  C   UNL A   1      41.237  28.395  28.994  1.00  0.00     0.148 A 
ATOM     84  C   UNL A   1      39.407  26.268  28.884  1.00  0.00     0.002 A 
ATOM     85  C   UNL A   1      41.146  27.602  27.854  1.00  0.00     0.091 A 
ATOM     86  F   UNL A   1      42.122  29.397  29.089  1.00  0.00    -0.205 F 
ATOM     87  C   UNL A   1      40.243  26.529  27.803  1.00  0.00     0.022 A 
BRANCH  85  88
ATOM     88  S   UNL A   1      42.097  27.954  26.370  1.00  0.00     0.127 S 
ATOM     89  O   UNL A   1      41.620  26.919  25.457  1.00  0.00    -0.237 OA
ATOM     90  O   UNL A   1      41.664  29.313  26.042  1.00  0.00    -0.237 OA
ATOM     91  O   UNL A   1      43.493  27.857  26.776  1.00  0.00    -0.744 OA
ENDBRANCH  85  88
ENDBRANCH  57  81
BRANCH  69  92
ATOM     92  C   UNL A   1      44.515  28.326  35.712  1.00  0.00     0.023 A 
ATOM     93  C   UNL A   1      45.807  28.711  35.302  1.00  0.00     0.012 A 
ATOM     94  C   UNL A   1      44.364  27.230  36.585  1.00  0.00     0.148 A 
ATOM     95  C   UNL A   1      46.927  28.004  35.733  1.00  0.00     0.002 A 
ATOM     96  C   UNL A   1      45.489  26.557  37.046  1.00  0.00     0.091 A 
ATOM     97  F   UNL A   1      43.124  26.866  36.947  1.00  0.00    -0.205 F 
ATOM     98  C   UNL A   1      46.770  26.937  36.614  1.00  0.00     0.022 A 
BRANCH  96  99
ATOM     99  S   UNL A   1      45.383  25.231  38.253  1.00  0.00     0.127 S 
ATOM    100  O   UNL A   1      46.791  24.982  38.549  1.00  0.00    -0.237 OA
ATOM    101  O   UNL A   1      44.632  25.858  39.342  1.00  0.00    -0.237 OA
ATOM    102  O   UNL A   1      44.678  24.143  37.588  1.00  0.00    -0.744 OA
ENDBRANCH  96  99
ENDBRANCH  69  92
ENDBRANCH  43  44
ENDBRANCH  35  38
ENDBRANCH  33  34
ENDBRANCH  32  33
ENDBRANCH  31  32
ENDBRANCH   1  31
TORSDOF 19
ENDMDL
MODEL 2
REMARK VINA RESULT:     -11.2      6.593     10.639
REMARK SMILES COc1ccc(S(=O)(=O)N2CCC[C@H](C(=O)N3CCC[C@H](C(=O)NCCCCNC(=O)c4ccc(-c5c6nc(c(-c7cccc(S(=O)(=O)[O-])c7F)c7ccc([nH]7)c(-c7cccc(S(=O)(=O)[O-])c7F)c7nc(c(-c8cccc(S(=O)(=O)[O-])c8F)c8ccc5[nH]8)C=C7)C=C6)cc4)C3)C2)cc1
REMARK SMILES IDX 25 1 24 2 22 3 23 4 21 6 17 7 18 8 95 9 19 10 20 11 15 12
REMARK SMILES IDX 16 13 14 14 10 15 11 16 96 17 12 18 13 19 7 20 8 21 9 22
REMARK SMILES IDX 6 23 3 24 4 25 98 26 5 27 97 28 2 29 1 30 26 31 27 32 28 33
REMARK SMILES IDX 29 34 30 35 31 37 32 38 33 39 94 40 34 41 93 42 35 43 36 44
REMARK SMILES IDX 37 45 87 46 38 47 92 48 86 49 88 50 39 51 91 52 85 53 84 54
REMARK SMILES IDX 40 56 72 57 52 58 71 59 53 60 56 61 70 62 89 63 54 64 55 65
REMARK SMILES IDX 69 67 90 68 57 69 41 70 42 71 50 72 43 73 45 74 51 75 44 76
REMARK SMILES IDX 46 77 47 78 48 79 49 80 73 81 74 82 82 83 75 84 77 85 83 86
REMARK SMILES IDX 76 87 78 88 79 89 80 90 81 91 58 92 59 93 67 94 60 95 62 96
REMARK SMILES IDX 68 97 61 98 63 99 64 100 65 101 66 102
REMARK H PARENT 24 5 29 36 88 55 56 66
REMARK Flexibility Score: inf
ROOT
ATOM      1  C   UNL A   1      36.611  21.446  25.055  1.00  0.00     0.116 C 
ENDROOT
BRANCH   1   2
ATOM      2  N   UNL A   1      35.804  21.612  26.239  1.00  0.00    -0.356 N 
ATOM      3  C   UNL A   1      34.454  21.601  26.377  1.00  0.00     0.224 C 
ATOM      4  O   UNL A   1      34.007  21.552  27.529  1.00  0.00    -0.275 OA
ATOM      5  H   UNL A   1      36.308  21.754  27.073  1.00  0.00     0.163 HD
BRANCH   3   6
ATOM      6  C   UNL A   1      33.471  21.640  25.199  1.00  0.00     0.098 C 
ATOM      7  N   UNL A   1      32.805  23.909  24.341  1.00  0.00    -0.342 N 
ATOM      8  C   UNL A   1      31.386  23.599  24.478  1.00  0.00     0.119 C 
ATOM      9  C   UNL A   1      33.710  22.778  24.204  1.00  0.00     0.133 C 
ATOM     10  C   UNL A   1      31.093  22.597  25.587  1.00  0.00     0.022 C 
ATOM     11  C   UNL A   1      32.004  21.373  25.550  1.00  0.00     0.017 C 
BRANCH   7  12
ATOM     12  C   UNL A   1      33.220  25.209  24.550  1.00  0.00     0.227 C 
ATOM     13  O   UNL A   1      33.032  25.759  25.642  1.00  0.00    -0.275 OA
BRANCH  12  14
ATOM     14  C   UNL A   1      33.676  26.077  23.376  1.00  0.00     0.094 C 
ATOM     15  N   UNL A   1      31.439  26.967  22.847  1.00  0.00    -0.197 NA
ATOM     16  C   UNL A   1      31.299  26.159  21.624  1.00  0.00     0.102 C 
ATOM     17  C   UNL A   1      32.779  27.308  23.357  1.00  0.00     0.116 C 
ATOM     18  C   UNL A   1      32.546  25.417  21.151  1.00  0.00     0.018 C 
ATOM     19  C   UNL A   1      33.830  25.552  21.960  1.00  0.00     0.016 C 
BRANCH  15  20
ATOM     20  S   UNL A   1      30.152  28.008  23.232  1.00  0.00     0.243 S 
ATOM     21  O   UNL A   1      29.057  27.223  23.745  1.00  0.00    -0.207 OA
ATOM     22  O   UNL A   1      29.977  28.903  22.101  1.00  0.00    -0.207 OA
BRANCH  20  23
ATOM     23  C   UNL A   1      30.723  29.028  24.576  1.00  0.00     0.082 A 
ATOM     24  C   UNL A   1      31.728  30.751  26.534  1.00  0.00     0.118 A 
ATOM     25  C   UNL A   1      30.989  31.260  25.464  1.00  0.00     0.048 A 
ATOM     26  C   UNL A   1      31.913  29.375  26.653  1.00  0.00     0.048 A 
ATOM     27  C   UNL A   1      30.494  30.403  24.478  1.00  0.00     0.025 A 
ATOM     28  C   UNL A   1      31.418  28.514  25.673  1.00  0.00     0.025 A 
BRANCH  24  29
ATOM     29  O   UNL A   1      32.211  31.675  27.420  1.00  0.00    -0.497 OA
ATOM     30  C   UNL A   1      32.067  33.030  27.000  1.00  0.00     0.278 C 
ENDBRANCH  24  29
ENDBRANCH  20  23
ENDBRANCH  15  20
ENDBRANCH  12  14
ENDBRANCH   7  12
ENDBRANCH   3   6
ENDBRANCH   1   2
BRANCH   1  31
ATOM     31  C   UNL A   1      37.236  20.065  24.915  1.00  0.00     0.023 C 
BRANCH  31  32
ATOM     32  C   UNL A   1      38.758  20.058  24.951  1.00  0.00     0.023 C 
BRANCH  32  33
ATOM     33  C   UNL A   1      39.384  19.523  26.237  1.00  0.00     0.116 C 
BRANCH  33  34
ATOM     34  N   UNL A   1      40.693  18.901  26.069  1.00  0.00    -0.352 N 
ATOM     35  C   UNL A   1      41.928  19.506  26.186  1.00  0.00     0.251 C 
ATOM     36  H   UNL A   1      40.695  17.942  25.846  1.00  0.00     0.163 HD
ATOM     37  O   UNL A   1      42.967  18.901  25.946  1.00  0.00    -0.269 OA
BRANCH  35  38
ATOM     38  C   UNL A   1      41.968  20.930  26.580  1.00  0.00     0.039 A 
ATOM     39  C   UNL A   1      42.310  21.266  27.891  1.00  0.00     0.014 A 
ATOM     40  C   UNL A   1      41.802  21.918  25.607  1.00  0.00     0.014 A 
ATOM     41  C   UNL A   1      42.586  22.599  28.203  1.00  0.00     0.010 A 
ATOM     42  C   UNL A   1      42.157  23.229  25.902  1.00  0.00     0.010 A 
ATOM     43  C   UNL A   1      42.565  23.582  27.198  1.00  0.00    -0.014 A 
BRANCH  43  44
ATOM     44  C   UNL A   1      43.002  24.978  27.463  1.00  0.00     0.031 A 
ATOM     45  C   UNL A   1      42.046  25.961  28.080  1.00  0.00     0.074 A 
ATOM     46  C   UNL A   1      44.215  25.389  27.044  1.00  0.00     0.049 A 
ATOM     47  N   UNL A   1      42.210  27.238  28.306  1.00  0.00    -0.248 NA
ATOM     48  C   UNL A   1      40.716  25.452  28.458  1.00  0.00     0.031 C 
ATOM     49  C   UNL A   1      45.197  24.561  26.339  1.00  0.00     0.029 A 
ATOM     50  N   UNL A   1      44.821  26.620  27.121  1.00  0.00    -0.354 N 
ATOM     51  C   UNL A   1      40.997  27.693  28.810  1.00  0.00     0.074 A 
ATOM     52  C   UNL A   1      40.094  26.564  28.822  1.00  0.00     0.031 C 
ATOM     53  C   UNL A   1      46.281  25.304  26.055  1.00  0.00     0.029 A 
ATOM     54  C   UNL A   1      46.065  26.665  26.536  1.00  0.00     0.049 A 
ATOM     55  H   UNL A   1      44.402  27.399  27.556  1.00  0.00     0.167 HD
ATOM     56  C   UNL A   1      40.675  28.928  29.261  1.00  0.00     0.034 A 
ATOM     57  C   UNL A   1      46.936  27.685  26.403  1.00  0.00     0.034 A 
ATOM     58  C   UNL A   1      41.596  30.031  29.315  1.00  0.00     0.049 A 
ATOM     59  C   UNL A   1      46.583  29.026  26.990  1.00  0.00     0.074 A 
ATOM     60  C   UNL A   1      41.396  31.292  29.846  1.00  0.00     0.029 A 
ATOM     61  N   UNL A   1      42.892  30.001  28.829  1.00  0.00    -0.354 N 
ATOM     62  N   UNL A   1      45.492  29.390  27.619  1.00  0.00    -0.248 NA
ATOM     63  C   UNL A   1      47.596  30.088  26.885  1.00  0.00     0.031 C 
ATOM     64  C   UNL A   1      42.574  32.027  29.679  1.00  0.00     0.029 A 
ATOM     65  C   UNL A   1      43.508  31.220  29.050  1.00  0.00     0.049 A 
ATOM     66  H   UNL A   1      43.314  29.227  28.390  1.00  0.00     0.167 HD
ATOM     67  C   UNL A   1      45.699  30.706  28.015  1.00  0.00     0.074 A 
ATOM     68  C   UNL A   1      47.031  31.070  27.574  1.00  0.00     0.031 C 
ATOM     69  C   UNL A   1      44.857  31.544  28.666  1.00  0.00     0.034 A 
BRANCH  56  70
ATOM     70  C   UNL A   1      39.289  29.128  29.811  1.00  0.00     0.023 A 
ATOM     71  C   UNL A   1      39.011  28.733  31.136  1.00  0.00     0.012 A 
ATOM     72  C   UNL A   1      38.280  29.748  29.049  1.00  0.00     0.148 A 
ATOM     73  C   UNL A   1      37.743  28.920  31.684  1.00  0.00     0.002 A 
ATOM     74  C   UNL A   1      37.030  29.970  29.615  1.00  0.00     0.091 A 
ATOM     75  F   UNL A   1      38.556  30.096  27.784  1.00  0.00    -0.205 F 
ATOM     76  C   UNL A   1      36.757  29.548  30.928  1.00  0.00     0.022 A 
BRANCH  74  77
ATOM     77  S   UNL A   1      35.713  30.833  28.751  1.00  0.00     0.127 S 
ATOM     78  O   UNL A   1      34.929  29.719  28.219  1.00  0.00    -0.237 OA
ATOM     79  O   UNL A   1      35.064  31.572  29.834  1.00  0.00    -0.237 OA
ATOM     80  O   UNL A   1      36.370  31.669  27.755  1.00  0.00    -0.744 OA
ENDBRANCH  74  77
ENDBRANCH  56  70
BRANCH  57  81
ATOM     81  C   UNL A   1      48.265  27.456  25.766  1.00  0.00     0.023 A 
ATOM     82  C   UNL A   1      49.354  27.073  26.572  1.00  0.00     0.012 A 
ATOM     83  C   UNL A   1      48.452  27.591  24.378  1.00  0.00     0.148 A 
ATOM     84  C   UNL A   1      50.615  26.860  26.012  1.00  0.00     0.002 A 
ATOM     85  C   UNL A   1      49.699  27.327  23.820  1.00  0.00     0.091 A 
ATOM     86  F   UNL A   1      47.409  27.971  23.627  1.00  0.00    -0.205 F 
ATOM     87  C   UNL A   1      50.785  26.977  24.636  1.00  0.00     0.022 A 
BRANCH  85  88
ATOM     88  S   UNL A   1      49.969  27.330  22.043  1.00  0.00     0.127 S 
ATOM     89  O   UNL A   1      51.375  26.947  21.952  1.00  0.00    -0.237 OA
ATOM     90  O   UNL A   1      49.021  26.310  21.586  1.00  0.00    -0.237 OA
ATOM     91  O   UNL A   1      49.643  28.681  21.606  1.00  0.00    -0.744 OA
ENDBRANCH  85  88
ENDBRANCH  57  81
BRANCH  69  92
ATOM     92  C   UNL A   1      45.350  32.933  28.974  1.00  0.00     0.023 A 
ATOM     93  C   UNL A   1      46.138  33.152  30.121  1.00  0.00     0.012 A 
ATOM     94  C   UNL A   1      45.110  33.998  28.084  1.00  0.00     0.148 A 
ATOM     95  C   UNL A   1      46.659  34.416  30.391  1.00  0.00     0.002 A 
ATOM     96  C   UNL A   1      45.669  35.246  28.338  1.00  0.00     0.091 A 
ATOM     97  F   UNL A   1      44.340  33.774  27.009  1.00  0.00    -0.205 F 
ATOM     98  C   UNL A   1      46.436  35.458  29.495  1.00  0.00     0.022 A 
BRANCH  96  99
ATOM     99  S   UNL A   1      45.508  36.617  27.189  1.00  0.00     0.127 S 
ATOM    100  O   UNL A   1      46.403  36.209  26.109  1.00  0.00    -0.237 OA
ATOM    101  O   UNL A   1      44.085  36.575  26.850  1.00  0.00    -0.237 OA
ATOM    102  O   UNL A   1      45.913  37.805  27.928  1.00  0.00    -0.744 OA
ENDBRANCH  96  99
ENDBRANCH  69  92
ENDBRANCH  43  44
ENDBRANCH  35  38
ENDBRANCH  33  34
ENDBRANCH  32  33
ENDBRANCH  31  32
ENDBRANCH   1  31
TORSDOF 19
ENDMDL
MODEL 3
REMARK VINA RESULT:     -10.7      2.129      7.597
REMARK SMILES COc1ccc(S(=O)(=O)N2CCC[C@H](C(=O)N3CCC[C@H](C(=O)NCCCCNC(=O)c4ccc(-c5c6nc(c(-c7cccc(S(=O)(=O)[O-])c7F)c7ccc([nH]7)c(-c7cccc(S(=O)(=O)[O-])c7F)c7nc(c(-c8cccc(S(=O)(=O)[O-])c8F)c8ccc5[nH]8)C=C7)C=C6)cc4)C3)C2)cc1
REMARK SMILES IDX 25 1 24 2 22 3 23 4 21 6 17 7 18 8 95 9 19 10 20 11 15 12
REMARK SMILES IDX 16 13 14 14 10 15 11 16 96 17 12 18 13 19 7 20 8 21 9 22
REMARK SMILES IDX 6 23 3 24 4 25 98 26 5 27 97 28 2 29 1 30 26 31 27 32 28 33
REMARK SMILES IDX 29 34 30 35 31 37 32 38 33 39 94 40 34 41 93 42 35 43 36 44
REMARK SMILES IDX 37 45 87 46 38 47 92 48 86 49 88 50 39 51 91 52 85 53 84 54
REMARK SMILES IDX 40 56 72 57 52 58 71 59 53 60 56 61 70 62 89 63 54 64 55 65
REMARK SMILES IDX 69 67 90 68 57 69 41 70 42 71 50 72 43 73 45 74 51 75 44 76
REMARK SMILES IDX 46 77 47 78 48 79 49 80 73 81 74 82 82 83 75 84 77 85 83 86
REMARK SMILES IDX 76 87 78 88 79 89 80 90 81 91 58 92 59 93 67 94 60 95 62 96
REMARK SMILES IDX 68 97 61 98 63 99 64 100 65 101 66 102
REMARK H PARENT 24 5 29 36 88 55 56 66
REMARK Flexibility Score: inf
ROOT
ATOM      1  C   UNL A   1      33.858  28.908  26.613  1.00  0.00     0.116 C 
ENDROOT
BRANCH   1   2
ATOM      2  N   UNL A   1      33.981  28.776  25.182  1.00  0.00    -0.356 N 
ATOM      3  C   UNL A   1      33.030  28.861  24.218  1.00  0.00     0.224 C 
ATOM      4  O   UNL A   1      33.420  28.923  23.047  1.00  0.00    -0.275 OA
ATOM      5  H   UNL A   1      34.893  28.597  24.855  1.00  0.00     0.163 HD
BRANCH   3   6
ATOM      6  C   UNL A   1      31.522  28.889  24.501  1.00  0.00     0.098 C 
ATOM      7  N   UNL A   1      30.394  26.678  24.911  1.00  0.00    -0.342 N 
ATOM      8  C   UNL A   1      29.396  26.940  23.880  1.00  0.00     0.119 C 
ATOM      9  C   UNL A   1      31.040  27.838  25.504  1.00  0.00     0.133 C 
ATOM     10  C   UNL A   1      29.904  27.845  22.765  1.00  0.00     0.022 C 
ATOM     11  C   UNL A   1      30.620  29.091  23.280  1.00  0.00     0.017 C 
BRANCH   7  12
ATOM     12  C   UNL A   1      30.808  25.375  25.112  1.00  0.00     0.227 C 
ATOM     13  O   UNL A   1      30.902  24.919  26.258  1.00  0.00    -0.275 OA
BRANCH  12  14
ATOM     14  C   UNL A   1      31.405  24.564  23.961  1.00  0.00     0.094 C 
ATOM     15  N   UNL A   1      33.383  23.787  25.211  1.00  0.00    -0.197 NA
ATOM     16  C   UNL A   1      34.310  24.671  24.484  1.00  0.00     0.102 C 
ATOM     17  C   UNL A   1      32.117  23.368  24.582  1.00  0.00     0.116 C 
ATOM     18  C   UNL A   1      33.747  25.394  23.264  1.00  0.00     0.018 C 
ATOM     19  C   UNL A   1      32.289  25.166  22.885  1.00  0.00     0.016 C 
BRANCH  15  20
ATOM     20  S   UNL A   1      34.058  22.772  26.394  1.00  0.00     0.243 S 
ATOM     21  O   UNL A   1      33.169  22.725  27.529  1.00  0.00    -0.207 OA
ATOM     22  O   UNL A   1      35.451  23.156  26.539  1.00  0.00    -0.207 OA
BRANCH  20  23
ATOM     23  C   UNL A   1      34.076  21.134  25.693  1.00  0.00     0.082 A 
ATOM     24  C   UNL A   1      34.043  18.488  24.793  1.00  0.00     0.118 A 
ATOM     25  C   UNL A   1      32.899  19.049  25.365  1.00  0.00     0.048 A 
ATOM     26  C   UNL A   1      35.183  19.270  24.620  1.00  0.00     0.048 A 
ATOM     27  C   UNL A   1      32.914  20.368  25.825  1.00  0.00     0.025 A 
ATOM     28  C   UNL A   1      35.204  20.589  25.075  1.00  0.00     0.025 A 
BRANCH  24  29
ATOM     29  O   UNL A   1      33.941  17.176  24.419  1.00  0.00    -0.497 OA
ATOM     30  C   UNL A   1      34.030  16.951  23.014  1.00  0.00     0.278 C 
ENDBRANCH  24  29
ENDBRANCH  20  23
ENDBRANCH  15  20
ENDBRANCH  12  14
ENDBRANCH   7  12
ENDBRANCH   3   6
ENDBRANCH   1   2
BRANCH   1  31
ATOM     31  C   UNL A   1      34.931  29.778  27.253  1.00  0.00     0.023 C 
BRANCH  31  32
ATOM     32  C   UNL A   1      34.388  30.896  28.134  1.00  0.00     0.023 C 
BRANCH  32  33
ATOM     33  C   UNL A   1      34.637  32.315  27.626  1.00  0.00     0.116 C 
BRANCH  33  34
ATOM     34  N   UNL A   1      33.618  33.288  28.002  1.00  0.00    -0.352 N 
ATOM     35  C   UNL A   1      33.535  33.998  29.182  1.00  0.00     0.251 C 
ATOM     36  H   UNL A   1      32.909  33.456  27.340  1.00  0.00     0.163 HD
ATOM     37  O   UNL A   1      32.587  34.737  29.425  1.00  0.00    -0.269 OA
BRANCH  35  38
ATOM     38  C   UNL A   1      34.613  33.820  30.177  1.00  0.00     0.039 A 
ATOM     39  C   UNL A   1      34.499  32.810  31.134  1.00  0.00     0.014 A 
ATOM     40  C   UNL A   1      35.787  34.567  30.061  1.00  0.00     0.014 A 
ATOM     41  C   UNL A   1      35.611  32.481  31.914  1.00  0.00     0.010 A 
ATOM     42  C   UNL A   1      36.913  34.181  30.779  1.00  0.00     0.010 A 
ATOM     43  C   UNL A   1      36.842  33.127  31.703  1.00  0.00    -0.014 A 
BRANCH  43  44
ATOM     44  C   UNL A   1      38.078  32.696  32.406  1.00  0.00     0.031 A 
ATOM     45  C   UNL A   1      39.083  31.829  31.698  1.00  0.00     0.074 A 
ATOM     46  C   UNL A   1      38.239  32.985  33.712  1.00  0.00     0.049 A 
ATOM     47  N   UNL A   1      40.173  31.280  32.166  1.00  0.00    -0.248 NA
ATOM     48  C   UNL A   1      38.809  31.505  30.286  1.00  0.00     0.031 C 
ATOM     49  C   UNL A   1      37.288  33.728  34.543  1.00  0.00     0.029 A 
ATOM     50  N   UNL A   1      39.250  32.660  34.584  1.00  0.00    -0.354 N 
ATOM     51  C   UNL A   1      40.689  30.516  31.127  1.00  0.00     0.074 A 
ATOM     52  C   UNL A   1      39.774  30.640  30.015  1.00  0.00     0.031 C 
ATOM     53  C   UNL A   1      37.763  33.808  35.797  1.00  0.00     0.029 A 
ATOM     54  C   UNL A   1      39.039  33.104  35.870  1.00  0.00     0.049 A 
ATOM     55  H   UNL A   1      40.052  32.156  34.314  1.00  0.00     0.167 HD
ATOM     56  C   UNL A   1      41.841  29.806  31.087  1.00  0.00     0.034 A 
ATOM     57  C   UNL A   1      39.789  32.962  36.981  1.00  0.00     0.034 A 
ATOM     58  C   UNL A   1      42.785  29.741  32.169  1.00  0.00     0.049 A 
ATOM     59  C   UNL A   1      41.106  32.239  36.884  1.00  0.00     0.074 A 
ATOM     60  C   UNL A   1      44.026  29.132  32.192  1.00  0.00     0.029 A 
ATOM     61  N   UNL A   1      42.595  30.312  33.417  1.00  0.00    -0.354 N 
ATOM     62  N   UNL A   1      41.659  31.668  35.842  1.00  0.00    -0.248 NA
ATOM     63  C   UNL A   1      41.922  32.175  38.106  1.00  0.00     0.031 C 
ATOM     64  C   UNL A   1      44.587  29.333  33.457  1.00  0.00     0.029 A 
ATOM     65  C   UNL A   1      43.698  30.074  34.219  1.00  0.00     0.049 A 
ATOM     66  H   UNL A   1      41.794  30.813  33.694  1.00  0.00     0.167 HD
ATOM     67  C   UNL A   1      42.899  31.209  36.271  1.00  0.00     0.074 A 
ATOM     68  C   UNL A   1      43.026  31.588  37.664  1.00  0.00     0.031 C 
ATOM     69  C   UNL A   1      43.838  30.517  35.581  1.00  0.00     0.034 A 
BRANCH  56  70
ATOM     70  C   UNL A   1      42.185  29.110  29.798  1.00  0.00     0.023 A 
ATOM     71  C   UNL A   1      42.962  29.788  28.836  1.00  0.00     0.012 A 
ATOM     72  C   UNL A   1      41.792  27.779  29.556  1.00  0.00     0.148 A 
ATOM     73  C   UNL A   1      43.314  29.167  27.639  1.00  0.00     0.002 A 
ATOM     74  C   UNL A   1      42.183  27.152  28.378  1.00  0.00     0.091 A 
ATOM     75  F   UNL A   1      41.035  27.158  30.472  1.00  0.00    -0.205 F 
ATOM     76  C   UNL A   1      42.934  27.847  27.415  1.00  0.00     0.022 A 
BRANCH  74  77
ATOM     77  S   UNL A   1      41.805  25.432  28.025  1.00  0.00     0.127 S 
ATOM     78  O   UNL A   1      42.519  24.745  29.101  1.00  0.00    -0.237 OA
ATOM     79  O   UNL A   1      40.347  25.403  28.147  1.00  0.00    -0.237 OA
ATOM     80  O   UNL A   1      42.306  25.180  26.681  1.00  0.00    -0.744 OA
ENDBRANCH  74  77
ENDBRANCH  56  70
BRANCH  57  81
ATOM     81  C   UNL A   1      39.357  33.596  38.260  1.00  0.00     0.023 A 
ATOM     82  C   UNL A   1      38.720  32.805  39.236  1.00  0.00     0.012 A 
ATOM     83  C   UNL A   1      39.591  34.958  38.525  1.00  0.00     0.148 A 
ATOM     84  C   UNL A   1      38.294  33.366  40.440  1.00  0.00     0.002 A 
ATOM     85  C   UNL A   1      39.208  35.499  39.749  1.00  0.00     0.091 A 
ATOM     86  F   UNL A   1      40.183  35.700  37.580  1.00  0.00    -0.205 F 
ATOM     87  C   UNL A   1      38.546  34.709  40.701  1.00  0.00     0.022 A 
BRANCH  85  88
ATOM     88  S   UNL A   1      39.613  37.187  40.214  1.00  0.00     0.127 S 
ATOM     89  O   UNL A   1      41.057  37.219  40.000  1.00  0.00    -0.237 OA
ATOM     90  O   UNL A   1      38.830  37.967  39.253  1.00  0.00    -0.237 OA
ATOM     91  O   UNL A   1      39.167  37.325  41.594  1.00  0.00    -0.744 OA
ENDBRANCH  85  88
ENDBRANCH  57  81
BRANCH  69  92
ATOM     92  C   UNL A   1      45.106  30.146  36.303  1.00  0.00     0.023 A 
ATOM     93  C   UNL A   1      46.207  31.024  36.269  1.00  0.00     0.012 A 
ATOM     94  C   UNL A   1      45.176  28.977  37.085  1.00  0.00     0.148 A 
ATOM     95  C   UNL A   1      47.368  30.732  36.982  1.00  0.00     0.002 A 
ATOM     96  C   UNL A   1      46.320  28.714  37.829  1.00  0.00     0.091 A 
ATOM     97  F   UNL A   1      44.124  28.144  37.088  1.00  0.00    -0.205 F 
ATOM     98  C   UNL A   1      47.420  29.585  37.771  1.00  0.00     0.022 A 
BRANCH  96  99
ATOM     99  S   UNL A   1      46.435  27.309  38.942  1.00  0.00     0.127 S 
ATOM    100  O   UNL A   1      47.877  27.214  39.156  1.00  0.00    -0.237 OA
ATOM    101  O   UNL A   1      45.676  27.768  40.106  1.00  0.00    -0.237 OA
ATOM    102  O   UNL A   1      45.829  26.190  38.234  1.00  0.00    -0.744 OA
ENDBRANCH  96  99
ENDBRANCH  69  92
ENDBRANCH  43  44
ENDBRANCH  35  38
ENDBRANCH  33  34
ENDBRANCH  32  33
ENDBRANCH  31  32
ENDBRANCH   1  31
TORSDOF 19
ENDMDL
