MODEL 1
REMARK VINA RESULT:     -12.9      0.000      0.000
REMARK SMILES O=C(Nc1ccc2c(c1)OCO2)N[C@H]1C=C[C@@H](C(=O)NCCCCNC(=O)c2ccc(-c3c4nc(c(-c5cccc(S(=O)(=O)[O-])c5F)c5ccc([nH]5)c(-c5cccc(S(=O)(=O)[O-])c5F)c5nc(c(-c6cccc(S(=O)(=O)[O-])c6F)c6ccc3[nH]6)C=C5)C=C4)cc2)C1
REMARK SMILES IDX 23 1 22 2 21 3 20 4 18 5 19 6 17 8 14 9 15 10 91 11 16 12
REMARK SMILES IDX 13 13 1 14 2 15 3 16 4 19 5 20 9 21 6 22 8 23 7 24 10 25
REMARK SMILES IDX 12 26 11 27 24 28 25 29 26 30 27 32 28 33 29 34 90 35 30 36
REMARK SMILES IDX 89 37 31 38 32 39 33 40 83 41 34 42 88 43 82 44 84 45 35 46
REMARK SMILES IDX 87 47 81 48 80 49 36 51 68 52 48 53 67 54 49 55 52 56 66 57
REMARK SMILES IDX 85 58 50 59 51 60 65 62 86 63 53 64 37 65 38 66 46 67 39 68
REMARK SMILES IDX 41 69 47 70 40 71 42 72 43 73 44 74 45 75 69 76 70 77 78 78
REMARK SMILES IDX 71 79 73 80 79 81 72 82 74 83 75 84 76 85 77 86 54 87 55 88
REMARK SMILES IDX 63 89 56 90 58 91 64 92 57 93 59 94 60 95 61 96 62 97
REMARK H PARENT 20 7 3 17 13 18 25 31 84 50 52 61
REMARK Flexibility Score: inf
ROOT
ATOM      1  C   UNL A   1      31.737  29.355  26.117  1.00  0.00     0.023 C 
ENDROOT
BRANCH   1   2
ATOM      2  C   UNL A   1      31.653  28.130  27.025  1.00  0.00     0.023 C 
BRANCH   2   3
ATOM      3  C   UNL A   1      31.071  26.883  26.365  1.00  0.00     0.116 C 
BRANCH   3   4
ATOM      4  N   UNL A   1      31.858  25.706  26.667  1.00  0.00    -0.356 N 
ATOM      5  C   UNL A   1      32.752  25.016  25.908  1.00  0.00     0.227 C 
ATOM      6  O   UNL A   1      33.313  24.049  26.435  1.00  0.00    -0.274 OA
ATOM      7  H   UNL A   1      31.723  25.343  27.572  1.00  0.00     0.163 HD
BRANCH   5   8
ATOM      8  C   UNL A   1      33.106  25.402  24.468  1.00  0.00     0.103 C 
ATOM      9  C   UNL A   1      32.097  26.898  22.776  1.00  0.00     0.107 C 
ATOM     10  C   UNL A   1      33.270  27.513  23.461  1.00  0.00    -0.006 C 
ATOM     11  C   UNL A   1      31.935  25.538  23.486  1.00  0.00     0.047 C 
ATOM     12  C   UNL A   1      33.823  26.709  24.373  1.00  0.00    -0.016 C 
BRANCH   9  13
ATOM     13  N   UNL A   1      30.858  27.663  22.828  1.00  0.00    -0.332 N 
ATOM     14  O   UNL A   1      29.339  26.102  23.550  1.00  0.00    -0.248 OA
ATOM     15  C   UNL A   1      29.627  27.253  23.235  1.00  0.00     0.319 C 
ATOM     16  N   UNL A   1      28.669  28.211  23.393  1.00  0.00    -0.308 N 
ATOM     17  H   UNL A   1      27.869  27.889  23.868  1.00  0.00     0.171 HD
ATOM     18  H   UNL A   1      30.920  28.599  22.531  1.00  0.00     0.165 HD
BRANCH  16  19
ATOM     19  C   UNL A   1      28.586  29.563  23.020  1.00  0.00     0.046 A 
ATOM     20  C   UNL A   1      28.917  30.633  23.874  1.00  0.00     0.030 A 
ATOM     21  C   UNL A   1      28.179  29.830  21.707  1.00  0.00     0.076 A 
ATOM     22  C   UNL A   1      28.798  31.960  23.447  1.00  0.00     0.053 A 
ATOM     23  C   UNL A   1      28.033  31.146  21.324  1.00  0.00     0.167 A 
ATOM     24  C   UNL A   1      28.330  32.184  22.172  1.00  0.00     0.165 A 
ATOM     25  O   UNL A   1      27.575  31.577  20.118  1.00  0.00    -0.454 OA
ATOM     26  O   UNL A   1      28.105  33.398  21.607  1.00  0.00    -0.454 OA
ATOM     27  C   UNL A   1      27.576  33.005  20.324  1.00  0.00     0.468 C 
ENDBRANCH  16  19
ENDBRANCH   9  13
ENDBRANCH   5   8
ENDBRANCH   3   4
ENDBRANCH   2   3
ENDBRANCH   1   2
BRANCH   1  28
ATOM     28  C   UNL A   1      33.054  30.119  26.192  1.00  0.00     0.116 C 
BRANCH  28  29
ATOM     29  N   UNL A   1      32.893  31.493  26.649  1.00  0.00    -0.352 N 
ATOM     30  C   UNL A   1      33.665  32.203  27.535  1.00  0.00     0.251 C 
ATOM     31  H   UNL A   1      32.124  31.978  26.271  1.00  0.00     0.163 HD
ATOM     32  O   UNL A   1      33.303  33.316  27.910  1.00  0.00    -0.269 OA
BRANCH  30  33
ATOM     33  C   UNL A   1      34.915  31.612  28.056  1.00  0.00     0.039 A 
ATOM     34  C   UNL A   1      36.058  32.410  28.138  1.00  0.00     0.014 A 
ATOM     35  C   UNL A   1      34.953  30.282  28.484  1.00  0.00     0.014 A 
ATOM     36  C   UNL A   1      37.222  31.892  28.708  1.00  0.00     0.010 A 
ATOM     37  C   UNL A   1      36.087  29.795  29.125  1.00  0.00     0.010 A 
ATOM     38  C   UNL A   1      37.235  30.590  29.236  1.00  0.00    -0.014 A 
BRANCH  38  39
ATOM     39  C   UNL A   1      38.440  30.052  29.918  1.00  0.00     0.031 A 
ATOM     40  C   UNL A   1      38.812  30.530  31.295  1.00  0.00     0.074 A 
ATOM     41  C   UNL A   1      39.246  29.193  29.262  1.00  0.00     0.049 A 
ATOM     42  N   UNL A   1      39.834  30.190  32.037  1.00  0.00    -0.248 NA
ATOM     43  C   UNL A   1      37.939  31.545  31.910  1.00  0.00     0.031 C 
ATOM     44  C   UNL A   1      39.049  28.730  27.887  1.00  0.00     0.029 A 
ATOM     45  N   UNL A   1      40.405  28.575  29.656  1.00  0.00    -0.354 N 
ATOM     46  C   UNL A   1      39.748  30.969  33.184  1.00  0.00     0.074 A 
ATOM     47  C   UNL A   1      38.597  31.829  33.025  1.00  0.00     0.031 C 
ATOM     48  C   UNL A   1      40.046  27.894  27.557  1.00  0.00     0.029 A 
ATOM     49  C   UNL A   1      40.964  27.777  28.685  1.00  0.00     0.049 A 
ATOM     50  H   UNL A   1      40.801  28.690  30.551  1.00  0.00     0.167 HD
ATOM     51  C   UNL A   1      40.535  30.948  34.287  1.00  0.00     0.034 A 
ATOM     52  C   UNL A   1      42.087  27.033  28.702  1.00  0.00     0.034 A 
ATOM     53  C   UNL A   1      41.649  30.056  34.463  1.00  0.00     0.049 A 
ATOM     54  C   UNL A   1      42.906  26.978  29.964  1.00  0.00     0.074 A 
ATOM     55  C   UNL A   1      42.446  29.885  35.581  1.00  0.00     0.029 A 
ATOM     56  N   UNL A   1      42.129  29.190  33.493  1.00  0.00    -0.354 N 
ATOM     57  N   UNL A   1      42.704  27.587  31.106  1.00  0.00    -0.248 NA
ATOM     58  C   UNL A   1      44.084  26.099  29.951  1.00  0.00     0.031 C 
ATOM     59  C   UNL A   1      43.421  28.927  35.280  1.00  0.00     0.029 A 
ATOM     60  C   UNL A   1      43.217  28.486  33.982  1.00  0.00     0.049 A 
ATOM     61  H   UNL A   1      41.752  29.090  32.590  1.00  0.00     0.167 HD
ATOM     62  C   UNL A   1      43.710  27.145  31.958  1.00  0.00     0.074 A 
ATOM     63  C   UNL A   1      44.502  26.192  31.206  1.00  0.00     0.031 C 
ATOM     64  C   UNL A   1      43.967  27.507  33.240  1.00  0.00     0.034 A 
BRANCH  51  65
ATOM     65  C   UNL A   1      40.177  31.878  35.417  1.00  0.00     0.023 A 
ATOM     66  C   UNL A   1      40.876  33.094  35.564  1.00  0.00     0.012 A 
ATOM     67  C   UNL A   1      39.121  31.579  36.301  1.00  0.00     0.148 A 
ATOM     68  C   UNL A   1      40.558  33.980  36.592  1.00  0.00     0.002 A 
ATOM     69  C   UNL A   1      38.780  32.488  37.296  1.00  0.00     0.091 A 
ATOM     70  F   UNL A   1      38.482  30.410  36.162  1.00  0.00    -0.205 F 
ATOM     71  C   UNL A   1      39.505  33.681  37.451  1.00  0.00     0.022 A 
BRANCH  69  72
ATOM     72  S   UNL A   1      37.388  32.235  38.403  1.00  0.00     0.127 S 
ATOM     73  O   UNL A   1      36.325  32.965  37.713  1.00  0.00    -0.237 OA
ATOM     74  O   UNL A   1      37.238  30.779  38.382  1.00  0.00    -0.237 OA
ATOM     75  O   UNL A   1      37.792  32.784  39.689  1.00  0.00    -0.744 OA
ENDBRANCH  69  72
ENDBRANCH  51  65
BRANCH  52  76
ATOM     76  C   UNL A   1      42.456  26.216  27.512  1.00  0.00     0.023 A 
ATOM     77  C   UNL A   1      43.238  26.796  26.492  1.00  0.00     0.012 A 
ATOM     78  C   UNL A   1      42.066  24.869  27.395  1.00  0.00     0.148 A 
ATOM     79  C   UNL A   1      43.597  26.058  25.364  1.00  0.00     0.002 A 
ATOM     80  C   UNL A   1      42.474  24.123  26.294  1.00  0.00     0.091 A 
ATOM     81  F   UNL A   1      41.314  24.339  28.369  1.00  0.00    -0.205 F 
ATOM     82  C   UNL A   1      43.224  24.721  25.269  1.00  0.00     0.022 A 
BRANCH  80  83
ATOM     83  S   UNL A   1      42.153  22.361  26.154  1.00  0.00     0.127 S 
ATOM     84  O   UNL A   1      40.695  22.327  26.078  1.00  0.00    -0.237 OA
ATOM     85  O   UNL A   1      42.843  22.027  24.908  1.00  0.00    -0.237 OA
ATOM     86  O   UNL A   1      42.741  21.760  27.343  1.00  0.00    -0.744 OA
ENDBRANCH  80  83
ENDBRANCH  52  76
BRANCH  64  87
ATOM     87  C   UNL A   1      45.141  26.856  33.922  1.00  0.00     0.023 A 
ATOM     88  C   UNL A   1      46.419  27.443  33.827  1.00  0.00     0.012 A 
ATOM     89  C   UNL A   1      44.970  25.696  34.704  1.00  0.00     0.148 A 
ATOM     90  C   UNL A   1      47.515  26.865  34.467  1.00  0.00     0.002 A 
ATOM     91  C   UNL A   1      46.058  25.155  35.380  1.00  0.00     0.091 A 
ATOM     92  F   UNL A   1      43.753  25.139  34.767  1.00  0.00    -0.205 F 
ATOM     93  C   UNL A   1      47.333  25.730  35.252  1.00  0.00     0.022 A 
BRANCH  91  94
ATOM     94  S   UNL A   1      45.894  23.750  36.488  1.00  0.00     0.127 S 
ATOM     95  O   UNL A   1      47.279  23.532  36.901  1.00  0.00    -0.237 OA
ATOM     96  O   UNL A   1      45.021  24.279  37.538  1.00  0.00    -0.237 OA
ATOM     97  O   UNL A   1      45.299  22.684  35.693  1.00  0.00    -0.744 OA
ENDBRANCH  91  94
ENDBRANCH  64  87
ENDBRANCH  38  39
ENDBRANCH  30  33
ENDBRANCH  28  29
ENDBRANCH   1  28
TORSDOF 16
ENDMDL
MODEL 2
REMARK VINA RESULT:     -12.7      5.485     10.768
REMARK SMILES O=C(Nc1ccc2c(c1)OCO2)N[C@H]1C=C[C@@H](C(=O)NCCCCNC(=O)c2ccc(-c3c4nc(c(-c5cccc(S(=O)(=O)[O-])c5F)c5ccc([nH]5)c(-c5cccc(S(=O)(=O)[O-])c5F)c5nc(c(-c6cccc(S(=O)(=O)[O-])c6F)c6ccc3[nH]6)C=C5)C=C4)cc2)C1
REMARK SMILES IDX 23 1 22 2 21 3 20 4 18 5 19 6 17 8 14 9 15 10 91 11 16 12
REMARK SMILES IDX 13 13 1 14 2 15 3 16 4 19 5 20 9 21 6 22 8 23 7 24 10 25
REMARK SMILES IDX 12 26 11 27 24 28 25 29 26 30 27 32 28 33 29 34 90 35 30 36
REMARK SMILES IDX 89 37 31 38 32 39 33 40 83 41 34 42 88 43 82 44 84 45 35 46
REMARK SMILES IDX 87 47 81 48 80 49 36 51 68 52 48 53 67 54 49 55 52 56 66 57
REMARK SMILES IDX 85 58 50 59 51 60 65 62 86 63 53 64 37 65 38 66 46 67 39 68
REMARK SMILES IDX 41 69 47 70 40 71 42 72 43 73 44 74 45 75 69 76 70 77 78 78
REMARK SMILES IDX 71 79 73 80 79 81 72 82 74 83 75 84 76 85 77 86 54 87 55 88
REMARK SMILES IDX 63 89 56 90 58 91 64 92 57 93 59 94 60 95 61 96 62 97
REMARK H PARENT 20 7 3 17 13 18 25 31 84 50 52 61
REMARK Flexibility Score: inf
ROOT
ATOM      1  C   UNL A   1      35.608  22.050  24.207  1.00  0.00     0.023 C 
ENDROOT
BRANCH   1   2
ATOM      2  C   UNL A   1      35.470  23.348  23.415  1.00  0.00     0.023 C 
BRANCH   2   3
ATOM      3  C   UNL A   1      34.155  23.497  22.655  1.00  0.00     0.116 C 
BRANCH   3   4
ATOM      4  N   UNL A   1      34.057  24.789  22.010  1.00  0.00    -0.356 N 
ATOM      5  C   UNL A   1      33.518  25.961  22.444  1.00  0.00     0.227 C 
ATOM      6  O   UNL A   1      33.600  26.935  21.688  1.00  0.00    -0.274 OA
ATOM      7  H   UNL A   1      34.445  24.827  21.106  1.00  0.00     0.163 HD
BRANCH   5   8
ATOM      8  C   UNL A   1      32.855  26.123  23.816  1.00  0.00     0.103 C 
ATOM      9  C   UNL A   1      32.360  24.591  25.694  1.00  0.00     0.107 C 
ATOM     10  C   UNL A   1      33.570  25.426  25.937  1.00  0.00    -0.006 C 
ATOM     11  C   UNL A   1      31.925  24.988  24.268  1.00  0.00     0.047 C 
ATOM     12  C   UNL A   1      33.842  26.259  24.929  1.00  0.00    -0.016 C 
BRANCH   9  13
ATOM     13  N   UNL A   1      32.550  23.150  25.797  1.00  0.00    -0.332 N 
ATOM     14  O   UNL A   1      32.641  22.820  28.066  1.00  0.00    -0.248 OA
ATOM     15  C   UNL A   1      32.629  22.385  26.918  1.00  0.00     0.319 C 
ATOM     16  N   UNL A   1      32.597  21.031  26.755  1.00  0.00    -0.308 N 
ATOM     17  H   UNL A   1      32.461  20.539  27.597  1.00  0.00     0.171 HD
ATOM     18  H   UNL A   1      32.631  22.667  24.943  1.00  0.00     0.165 HD
BRANCH  16  19
ATOM     19  C   UNL A   1      32.714  20.191  25.635  1.00  0.00     0.046 A 
ATOM     20  C   UNL A   1      32.315  20.558  24.335  1.00  0.00     0.030 A 
ATOM     21  C   UNL A   1      33.294  18.934  25.849  1.00  0.00     0.076 A 
ATOM     22  C   UNL A   1      32.444  19.668  23.262  1.00  0.00     0.053 A 
ATOM     23  C   UNL A   1      33.374  18.063  24.784  1.00  0.00     0.167 A 
ATOM     24  C   UNL A   1      32.956  18.418  23.524  1.00  0.00     0.165 A 
ATOM     25  O   UNL A   1      33.835  16.785  24.835  1.00  0.00    -0.454 OA
ATOM     26  O   UNL A   1      33.108  17.414  22.623  1.00  0.00    -0.454 OA
ATOM     27  C   UNL A   1      33.616  16.364  23.472  1.00  0.00     0.468 C 
ENDBRANCH  16  19
ENDBRANCH   9  13
ENDBRANCH   5   8
ENDBRANCH   3   4
ENDBRANCH   2   3
ENDBRANCH   1   2
BRANCH   1  28
ATOM     28  C   UNL A   1      36.455  22.156  25.470  1.00  0.00     0.116 C 
BRANCH  28  29
ATOM     29  N   UNL A   1      37.456  21.104  25.576  1.00  0.00    -0.352 N 
ATOM     30  C   UNL A   1      38.774  21.201  25.950  1.00  0.00     0.251 C 
ATOM     31  H   UNL A   1      37.145  20.197  25.349  1.00  0.00     0.163 HD
ATOM     32  O   UNL A   1      39.514  20.224  25.855  1.00  0.00    -0.269 OA
BRANCH  30  33
ATOM     33  C   UNL A   1      39.304  22.492  26.438  1.00  0.00     0.039 A 
ATOM     34  C   UNL A   1      40.309  22.486  27.407  1.00  0.00     0.014 A 
ATOM     35  C   UNL A   1      38.826  23.701  25.925  1.00  0.00     0.014 A 
ATOM     36  C   UNL A   1      40.880  23.694  27.815  1.00  0.00     0.010 A 
ATOM     37  C   UNL A   1      39.452  24.893  26.272  1.00  0.00     0.010 A 
ATOM     38  C   UNL A   1      40.479  24.904  27.226  1.00  0.00    -0.014 A 
BRANCH  38  39
ATOM     39  C   UNL A   1      41.132  26.187  27.590  1.00  0.00     0.031 A 
ATOM     40  C   UNL A   1      42.555  26.460  27.182  1.00  0.00     0.074 A 
ATOM     41  C   UNL A   1      40.470  27.074  28.359  1.00  0.00     0.049 A 
ATOM     42  N   UNL A   1      43.294  27.511  27.425  1.00  0.00    -0.248 NA
ATOM     43  C   UNL A   1      43.249  25.402  26.428  1.00  0.00     0.031 C 
ATOM     44  C   UNL A   1      39.123  26.884  28.903  1.00  0.00     0.029 A 
ATOM     45  N   UNL A   1      40.849  28.303  28.838  1.00  0.00    -0.354 N 
ATOM     46  C   UNL A   1      44.544  27.228  26.888  1.00  0.00     0.074 A 
ATOM     47  C   UNL A   1      44.477  25.892  26.340  1.00  0.00     0.031 C 
ATOM     48  C   UNL A   1      38.786  27.961  29.630  1.00  0.00     0.029 A 
ATOM     49  C   UNL A   1      39.896  28.908  29.624  1.00  0.00     0.049 A 
ATOM     50  H   UNL A   1      41.722  28.714  28.638  1.00  0.00     0.167 HD
ATOM     51  C   UNL A   1      45.640  28.022  26.823  1.00  0.00     0.034 A 
ATOM     52  C   UNL A   1      39.914  30.092  30.267  1.00  0.00     0.034 A 
ATOM     53  C   UNL A   1      45.688  29.369  27.324  1.00  0.00     0.049 A 
ATOM     54  C   UNL A   1      41.120  30.981  30.123  1.00  0.00     0.074 A 
ATOM     55  C   UNL A   1      46.715  30.291  27.218  1.00  0.00     0.029 A 
ATOM     56  N   UNL A   1      44.668  29.987  28.031  1.00  0.00    -0.354 N 
ATOM     57  N   UNL A   1      42.227  30.769  29.455  1.00  0.00    -0.248 NA
ATOM     58  C   UNL A   1      41.060  32.291  30.788  1.00  0.00     0.031 C 
ATOM     59  C   UNL A   1      46.322  31.460  27.879  1.00  0.00     0.029 A 
ATOM     60  C   UNL A   1      45.042  31.274  28.376  1.00  0.00     0.049 A 
ATOM     61  H   UNL A   1      43.805  29.570  28.255  1.00  0.00     0.167 HD
ATOM     62  C   UNL A   1      42.984  31.927  29.593  1.00  0.00     0.074 A 
ATOM     63  C   UNL A   1      42.194  32.849  30.384  1.00  0.00     0.031 C 
ATOM     64  C   UNL A   1      44.228  32.198  29.123  1.00  0.00     0.034 A 
BRANCH  51  65
ATOM     65  C   UNL A   1      46.860  27.472  26.130  1.00  0.00     0.023 A 
ATOM     66  C   UNL A   1      47.031  27.693  24.747  1.00  0.00     0.012 A 
ATOM     67  C   UNL A   1      47.859  26.786  26.847  1.00  0.00     0.148 A 
ATOM     68  C   UNL A   1      48.155  27.208  24.081  1.00  0.00     0.002 A 
ATOM     69  C   UNL A   1      48.999  26.344  26.184  1.00  0.00     0.091 A 
ATOM     70  F   UNL A   1      47.671  26.565  28.155  1.00  0.00    -0.205 F 
ATOM     71  C   UNL A   1      49.142  26.543  24.801  1.00  0.00     0.022 A 
BRANCH  69  72
ATOM     72  S   UNL A   1      50.366  25.548  27.036  1.00  0.00     0.127 S 
ATOM     73  O   UNL A   1      51.301  25.311  25.936  1.00  0.00    -0.237 OA
ATOM     74  O   UNL A   1      50.787  26.584  27.979  1.00  0.00    -0.237 OA
ATOM     75  O   UNL A   1      49.812  24.353  27.654  1.00  0.00    -0.744 OA
ENDBRANCH  69  72
ENDBRANCH  51  65
BRANCH  52  76
ATOM     76  C   UNL A   1      38.718  30.540  31.034  1.00  0.00     0.023 A 
ATOM     77  C   UNL A   1      38.663  30.309  32.423  1.00  0.00     0.012 A 
ATOM     78  C   UNL A   1      37.653  31.214  30.408  1.00  0.00     0.148 A 
ATOM     79  C   UNL A   1      37.556  30.713  33.169  1.00  0.00     0.002 A 
ATOM     80  C   UNL A   1      36.577  31.664  31.166  1.00  0.00     0.091 A 
ATOM     81  F   UNL A   1      37.718  31.414  29.084  1.00  0.00    -0.205 F 
ATOM     82  C   UNL A   1      36.518  31.398  32.543  1.00  0.00     0.022 A 
BRANCH  80  83
ATOM     83  S   UNL A   1      35.262  32.669  30.468  1.00  0.00     0.127 S 
ATOM     84  O   UNL A   1      35.988  33.868  30.057  1.00  0.00    -0.237 OA
ATOM     85  O   UNL A   1      34.789  31.828  29.368  1.00  0.00    -0.237 OA
ATOM     86  O   UNL A   1      34.295  32.849  31.541  1.00  0.00    -0.744 OA
ENDBRANCH  80  83
ENDBRANCH  52  76
BRANCH  64  87
ATOM     87  C   UNL A   1      44.806  33.553  29.434  1.00  0.00     0.023 A 
ATOM     88  C   UNL A   1      45.491  33.760  30.648  1.00  0.00     0.012 A 
ATOM     89  C   UNL A   1      44.723  34.605  28.499  1.00  0.00     0.148 A 
ATOM     90  C   UNL A   1      46.050  35.003  30.945  1.00  0.00     0.002 A 
ATOM     91  C   UNL A   1      45.326  35.825  28.781  1.00  0.00     0.091 A 
ATOM     92  F   UNL A   1      44.052  34.397  27.358  1.00  0.00    -0.205 F 
ATOM     93  C   UNL A   1      45.977  36.030  30.008  1.00  0.00     0.022 A 
BRANCH  91  94
ATOM     94  S   UNL A   1      45.364  37.172  27.591  1.00  0.00     0.127 S 
ATOM     95  O   UNL A   1      43.940  37.441  27.401  1.00  0.00    -0.237 OA
ATOM     96  O   UNL A   1      46.089  38.213  28.320  1.00  0.00    -0.237 OA
ATOM     97  O   UNL A   1      46.068  36.653  26.426  1.00  0.00    -0.744 OA
ENDBRANCH  91  94
ENDBRANCH  64  87
ENDBRANCH  38  39
ENDBRANCH  30  33
ENDBRANCH  28  29
ENDBRANCH   1  28
TORSDOF 16
ENDMDL
MODEL 3
REMARK VINA RESULT:     -12.7      3.042      8.947
REMARK SMILES O=C(Nc1ccc2c(c1)OCO2)N[C@H]1C=C[C@@H](C(=O)NCCCCNC(=O)c2ccc(-c3c4nc(c(-c5cccc(S(=O)(=O)[O-])c5F)c5ccc([nH]5)c(-c5cccc(S(=O)(=O)[O-])c5F)c5nc(c(-c6cccc(S(=O)(=O)[O-])c6F)c6ccc3[nH]6)C=C5)C=C4)cc2)C1
REMARK SMILES IDX 23 1 22 2 21 3 20 4 18 5 19 6 17 8 14 9 15 10 91 11 16 12
REMARK SMILES IDX 13 13 1 14 2 15 3 16 4 19 5 20 9 21 6 22 8 23 7 24 10 25
REMARK SMILES IDX 12 26 11 27 24 28 25 29 26 30 27 32 28 33 29 34 90 35 30 36
REMARK SMILES IDX 89 37 31 38 32 39 33 40 83 41 34 42 88 43 82 44 84 45 35 46
REMARK SMILES IDX 87 47 81 48 80 49 36 51 68 52 48 53 67 54 49 55 52 56 66 57
REMARK SMILES IDX 85 58 50 59 51 60 65 62 86 63 53 64 37 65 38 66 46 67 39 68
REMARK SMILES IDX 41 69 47 70 40 71 42 72 43 73 44 74 45 75 69 76 70 77 78 78
REMARK SMILES IDX 71 79 73 80 79 81 72 82 74 83 75 84 76 85 77 86 54 87 55 88
REMARK SMILES IDX 63 89 56 90 58 91 64 92 57 93 59 94 60 95 61 96 62 97
REMARK H PARENT 20 7 3 17 13 18 25 31 84 50 52 61
REMARK Flexibility Score: inf
ROOT
ATOM      1  C   UNL A   1      31.570  32.308  26.813  1.00  0.00     0.023 C 
ENDROOT
BRANCH   1   2
ATOM      2  C   UNL A   1      31.670  30.786  26.747  1.00  0.00     0.023 C 
BRANCH   2   3
ATOM      3  C   UNL A   1      32.965  30.205  27.306  1.00  0.00     0.116 C 
BRANCH   3   4
ATOM      4  N   UNL A   1      32.941  28.757  27.310  1.00  0.00    -0.356 N 
ATOM      5  C   UNL A   1      32.954  27.865  26.283  1.00  0.00     0.227 C 
ATOM      6  O   UNL A   1      32.959  26.665  26.576  1.00  0.00    -0.274 OA
ATOM      7  H   UNL A   1      32.910  28.350  28.205  1.00  0.00     0.163 HD
BRANCH   5   8
ATOM      8  C   UNL A   1      32.993  28.283  24.808  1.00  0.00     0.103 C 
ATOM      9  C   UNL A   1      32.899  27.064  22.658  1.00  0.00     0.107 C 
ATOM     10  C   UNL A   1      31.594  27.683  23.026  1.00  0.00    -0.006 C 
ATOM     11  C   UNL A   1      33.807  27.389  23.863  1.00  0.00     0.047 C 
ATOM     12  C   UNL A   1      31.638  28.347  24.184  1.00  0.00    -0.016 C 
BRANCH   9  13
ATOM     13  N   UNL A   1      32.872  25.630  22.400  1.00  0.00    -0.332 N 
ATOM     14  O   UNL A   1      32.918  25.536  20.107  1.00  0.00    -0.248 OA
ATOM     15  C   UNL A   1      32.927  24.985  21.204  1.00  0.00     0.319 C 
ATOM     16  N   UNL A   1      33.100  23.632  21.231  1.00  0.00    -0.308 N 
ATOM     17  H   UNL A   1      33.325  23.250  20.352  1.00  0.00     0.171 HD
ATOM     18  H   UNL A   1      32.807  25.053  23.194  1.00  0.00     0.165 HD
BRANCH  16  19
ATOM     19  C   UNL A   1      33.026  22.670  22.252  1.00  0.00     0.046 A 
ATOM     20  C   UNL A   1      32.169  21.553  22.216  1.00  0.00     0.030 A 
ATOM     21  C   UNL A   1      33.890  22.842  23.342  1.00  0.00     0.076 A 
ATOM     22  C   UNL A   1      32.132  20.638  23.275  1.00  0.00     0.053 A 
ATOM     23  C   UNL A   1      33.806  21.948  24.387  1.00  0.00     0.167 A 
ATOM     24  C   UNL A   1      32.946  20.876  24.358  1.00  0.00     0.165 A 
ATOM     25  O   UNL A   1      34.511  22.014  25.548  1.00  0.00    -0.454 OA
ATOM     26  O   UNL A   1      33.008  20.129  25.489  1.00  0.00    -0.454 OA
ATOM     27  C   UNL A   1      33.963  20.885  26.261  1.00  0.00     0.468 C 
ENDBRANCH  16  19
ENDBRANCH   9  13
ENDBRANCH   5   8
ENDBRANCH   3   4
ENDBRANCH   2   3
ENDBRANCH   1   2
BRANCH   1  28
ATOM     28  C   UNL A   1      32.772  33.003  27.440  1.00  0.00     0.116 C 
BRANCH  28  29
ATOM     29  N   UNL A   1      32.512  34.394  27.787  1.00  0.00    -0.352 N 
ATOM     30  C   UNL A   1      33.104  35.168  28.754  1.00  0.00     0.251 C 
ATOM     31  H   UNL A   1      31.815  34.840  27.253  1.00  0.00     0.163 HD
ATOM     32  O   UNL A   1      32.665  36.289  28.999  1.00  0.00    -0.269 OA
BRANCH  30  33
ATOM     33  C   UNL A   1      34.252  34.635  29.518  1.00  0.00     0.039 A 
ATOM     34  C   UNL A   1      34.027  34.093  30.785  1.00  0.00     0.014 A 
ATOM     35  C   UNL A   1      35.540  34.649  28.977  1.00  0.00     0.014 A 
ATOM     36  C   UNL A   1      35.086  33.508  31.483  1.00  0.00     0.010 A 
ATOM     37  C   UNL A   1      36.574  33.993  29.637  1.00  0.00     0.010 A 
ATOM     38  C   UNL A   1      36.361  33.424  30.899  1.00  0.00    -0.014 A 
BRANCH  38  39
ATOM     39  C   UNL A   1      37.477  32.734  31.594  1.00  0.00     0.031 A 
ATOM     40  C   UNL A   1      38.180  31.574  30.940  1.00  0.00     0.074 A 
ATOM     41  C   UNL A   1      37.805  33.098  32.849  1.00  0.00     0.049 A 
ATOM     42  N   UNL A   1      39.159  30.839  31.399  1.00  0.00    -0.248 NA
ATOM     43  C   UNL A   1      37.701  31.167  29.608  1.00  0.00     0.031 C 
ATOM     44  C   UNL A   1      37.134  34.140  33.630  1.00  0.00     0.029 A 
ATOM     45  N   UNL A   1      38.769  32.618  33.699  1.00  0.00    -0.354 N 
ATOM     46  C   UNL A   1      39.389  29.866  30.434  1.00  0.00     0.074 A 
ATOM     47  C   UNL A   1      38.422  30.079  29.381  1.00  0.00     0.031 C 
ATOM     48  C   UNL A   1      37.714  34.227  34.838  1.00  0.00     0.029 A 
ATOM     49  C   UNL A   1      38.781  33.235  34.928  1.00  0.00     0.049 A 
ATOM     50  H   UNL A   1      39.395  31.898  33.453  1.00  0.00     0.167 HD
ATOM     51  C   UNL A   1      40.342  28.904  30.409  1.00  0.00     0.034 A 
ATOM     52  C   UNL A   1      39.564  33.028  36.004  1.00  0.00     0.034 A 
ATOM     53  C   UNL A   1      41.334  28.727  31.434  1.00  0.00     0.049 A 
ATOM     54  C   UNL A   1      40.657  31.997  35.923  1.00  0.00     0.074 A 
ATOM     55  C   UNL A   1      42.404  27.849  31.455  1.00  0.00     0.029 A 
ATOM     56  N   UNL A   1      41.376  29.437  32.624  1.00  0.00    -0.354 N 
ATOM     57  N   UNL A   1      40.975  31.207  34.927  1.00  0.00    -0.248 NA
ATOM     58  C   UNL A   1      41.526  31.858  37.101  1.00  0.00     0.031 C 
ATOM     59  C   UNL A   1      43.082  28.015  32.668  1.00  0.00     0.029 A 
ATOM     60  C   UNL A   1      42.448  29.013  33.392  1.00  0.00     0.049 A 
ATOM     61  H   UNL A   1      40.738  30.139  32.885  1.00  0.00     0.167 HD
ATOM     62  C   UNL A   1      42.097  30.499  35.343  1.00  0.00     0.074 A 
ATOM     63  C   UNL A   1      42.420  30.976  36.672  1.00  0.00     0.031 C 
ATOM     64  C   UNL A   1      42.786  29.529  34.693  1.00  0.00     0.034 A 
BRANCH  51  65
ATOM     65  C   UNL A   1      40.395  28.006  29.199  1.00  0.00     0.023 A 
ATOM     66  C   UNL A   1      39.461  26.957  29.073  1.00  0.00     0.012 A 
ATOM     67  C   UNL A   1      41.327  28.227  28.167  1.00  0.00     0.148 A 
ATOM     68  C   UNL A   1      39.477  26.118  27.959  1.00  0.00     0.002 A 
ATOM     69  C   UNL A   1      41.308  27.415  27.038  1.00  0.00     0.091 A 
ATOM     70  F   UNL A   1      42.222  29.214  28.313  1.00  0.00    -0.205 F 
ATOM     71  C   UNL A   1      40.393  26.354  26.939  1.00  0.00     0.022 A 
BRANCH  69  72
ATOM     72  S   UNL A   1      42.393  27.685  25.632  1.00  0.00     0.127 S 
ATOM     73  O   UNL A   1      42.155  26.480  24.839  1.00  0.00    -0.237 OA
ATOM     74  O   UNL A   1      41.846  28.913  25.052  1.00  0.00    -0.237 OA
ATOM     75  O   UNL A   1      43.735  27.818  26.181  1.00  0.00    -0.744 OA
ENDBRANCH  69  72
ENDBRANCH  51  65
BRANCH  52  76
ATOM     76  C   UNL A   1      39.395  33.872  37.220  1.00  0.00     0.023 A 
ATOM     77  C   UNL A   1      39.861  35.202  37.207  1.00  0.00     0.012 A 
ATOM     78  C   UNL A   1      38.754  33.382  38.373  1.00  0.00     0.148 A 
ATOM     79  C   UNL A   1      39.721  36.017  38.330  1.00  0.00     0.002 A 
ATOM     80  C   UNL A   1      38.567  34.217  39.470  1.00  0.00     0.091 A 
ATOM     81  F   UNL A   1      38.327  32.112  38.371  1.00  0.00    -0.205 F 
ATOM     82  C   UNL A   1      39.066  35.529  39.457  1.00  0.00     0.022 A 
BRANCH  80  83
ATOM     83  S   UNL A   1      37.619  33.715  40.911  1.00  0.00     0.127 S 
ATOM     84  O   UNL A   1      37.434  34.987  41.605  1.00  0.00    -0.237 OA
ATOM     85  O   UNL A   1      36.408  33.166  40.298  1.00  0.00    -0.237 OA
ATOM     86  O   UNL A   1      38.441  32.729  41.597  1.00  0.00    -0.744 OA
ENDBRANCH  80  83
ENDBRANCH  52  76
BRANCH  64  87
ATOM     87  C   UNL A   1      43.974  28.930  35.400  1.00  0.00     0.023 A 
ATOM     88  C   UNL A   1      45.257  29.476  35.196  1.00  0.00     0.012 A 
ATOM     89  C   UNL A   1      43.812  27.867  36.310  1.00  0.00     0.148 A 
ATOM     90  C   UNL A   1      46.367  28.948  35.856  1.00  0.00     0.002 A 
ATOM     91  C   UNL A   1      44.915  27.379  37.002  1.00  0.00     0.091 A 
ATOM     92  F   UNL A   1      42.588  27.347  36.477  1.00  0.00    -0.205 F 
ATOM     93  C   UNL A   1      46.194  27.908  36.765  1.00  0.00     0.022 A 
BRANCH  91  94
ATOM     94  S   UNL A   1      44.768  26.106  38.262  1.00  0.00     0.127 S 
ATOM     95  O   UNL A   1      43.976  25.091  37.570  1.00  0.00    -0.237 OA
ATOM     96  O   UNL A   1      46.164  25.735  38.496  1.00  0.00    -0.237 OA
ATOM     97  O   UNL A   1      44.118  26.746  39.398  1.00  0.00    -0.744 OA
ENDBRANCH  91  94
ENDBRANCH  64  87
ENDBRANCH  38  39
ENDBRANCH  30  33
ENDBRANCH  28  29
ENDBRANCH   1  28
TORSDOF 16
ENDMDL
