MODEL 1
REMARK VINA RESULT:     -12.3      0.000      0.000
REMARK SMILES O=C(C[C@H](Cc1ccc(Cl)cc1)C(=O)Nc1cc(Cl)ccc1Cl)NCCCCNC(=O)c1ccc(-c2c3nc(c(-c4cccc(S(=O)(=O)[O-])c4F)c4ccc([nH]4)c(-c4cccc(S(=O)(=O)[O-])c4F)c4nc(c(-c5cccc(S(=O)(=O)[O-])c5F)c5ccc2[nH]5)C=C4)C=C3)cc1
REMARK SMILES IDX 26 1 25 2 24 3 1 4 2 5 3 7 4 8 13 9 14 10 15 11 16 13 17 14
REMARK SMILES IDX 22 15 18 16 21 17 23 18 19 19 20 20 5 21 6 22 7 23 12 24
REMARK SMILES IDX 8 25 11 26 9 27 10 28 27 29 28 30 29 31 30 32 31 34 32 35
REMARK SMILES IDX 33 36 94 37 34 38 93 39 35 40 36 41 37 42 87 43 38 44 92 45
REMARK SMILES IDX 86 46 88 47 39 48 91 49 85 50 84 51 40 53 72 54 52 55 71 56
REMARK SMILES IDX 53 57 56 58 70 59 89 60 54 61 55 62 69 64 90 65 57 66 41 67
REMARK SMILES IDX 42 68 50 69 43 70 45 71 51 72 44 73 46 74 47 75 48 76 49 77
REMARK SMILES IDX 73 78 74 79 82 80 75 81 77 82 83 83 76 84 78 85 79 86 80 87
REMARK SMILES IDX 81 88 58 89 59 90 67 91 60 92 62 93 68 94 61 95 63 96 64 97
REMARK SMILES IDX 65 98 66 99
REMARK H PARENT 24 6 15 12 29 33 88 52 56 63
REMARK Flexibility Score: inf
ROOT
ATOM      1  C   UNL A   1      36.638  20.332  25.136  1.00  0.00     0.023 C 
ENDROOT
BRANCH   1   2
ATOM      2  C   UNL A   1      36.046  21.738  25.195  1.00  0.00     0.116 C 
BRANCH   2   3
ATOM      3  N   UNL A   1      35.361  22.076  23.962  1.00  0.00    -0.356 N 
ATOM      4  O   UNL A   1      35.312  24.307  24.422  1.00  0.00    -0.275 OA
ATOM      5  C   UNL A   1      35.011  23.365  23.686  1.00  0.00     0.220 C 
ATOM      6  H   UNL A   1      35.146  21.366  23.316  1.00  0.00     0.163 HD
BRANCH   5   7
ATOM      7  C   UNL A   1      34.121  23.628  22.492  1.00  0.00     0.113 C 
BRANCH   7   8
ATOM      8  C   UNL A   1      32.879  24.508  22.606  1.00  0.00     0.092 C 
BRANCH   8   9
ATOM      9  C   UNL A   1      32.806  25.498  21.401  1.00  0.00     0.228 C 
ATOM     10  O   UNL A   1      33.128  25.047  20.290  1.00  0.00    -0.274 OA
ATOM     11  N   UNL A   1      32.197  26.728  21.406  1.00  0.00    -0.324 N 
ATOM     12  H   UNL A   1      32.047  27.127  20.517  1.00  0.00     0.169 HD
BRANCH  11  13
ATOM     13  C   UNL A   1      31.758  27.502  22.492  1.00  0.00     0.061 A 
ATOM     14  C   UNL A   1      30.428  27.377  22.876  1.00  0.00     0.048 A 
ATOM     15  C   UNL A   1      32.563  28.391  23.166  1.00  0.00     0.064 A 
ATOM     16  C   UNL A   1      29.558  28.440  23.462  1.00  0.00     0.043 A 
ATOM     17  C   UNL A   1      31.962  29.262  24.058  1.00  0.00     0.024 A 
ATOM     18  Cl  UNL A   1      34.252  28.501  22.866  1.00  0.00    -0.082 Cl
ATOM     19  Cl  UNL A   1      27.126  28.723  23.085  1.00  0.00    -0.084 Cl
ATOM     20  C   UNL A   1      30.542  29.335  24.162  1.00  0.00     0.022 A 
ENDBRANCH  11  13
ENDBRANCH   8   9
BRANCH   8  21
ATOM     21  C   UNL A   1      31.629  23.707  23.102  1.00  0.00     0.049 C 
BRANCH  21  22
ATOM     22  C   UNL A   1      31.772  22.240  23.517  1.00  0.00    -0.047 A 
ATOM     23  C   UNL A   1      31.836  20.971  22.171  1.00  0.00     0.005 A 
ATOM     24  C   UNL A   1      32.217  21.747  25.219  1.00  0.00     0.005 A 
ATOM     25  C   UNL A   1      32.356  19.267  22.546  1.00  0.00     0.021 A 
ATOM     26  C   UNL A   1      32.630  20.019  25.606  1.00  0.00     0.021 A 
ATOM     27  C   UNL A   1      32.688  18.777  24.260  1.00  0.00     0.041 A 
ATOM     28  Cl  UNL A   1      32.944  17.119  24.650  1.00  0.00    -0.084 Cl
ENDBRANCH  21  22
ENDBRANCH   8  21
ENDBRANCH   7   8
ENDBRANCH   5   7
ENDBRANCH   2   3
ENDBRANCH   1   2
BRANCH   1  29
ATOM     29  C   UNL A   1      38.136  20.292  24.829  1.00  0.00     0.023 C 
BRANCH  29  30
ATOM     30  C   UNL A   1      39.043  20.328  26.054  1.00  0.00     0.116 C 
BRANCH  30  31
ATOM     31  N   UNL A   1      40.071  19.297  26.015  1.00  0.00    -0.352 N 
ATOM     32  C   UNL A   1      41.435  19.436  26.096  1.00  0.00     0.251 C 
ATOM     33  H   UNL A   1      39.743  18.375  25.919  1.00  0.00     0.163 HD
ATOM     34  O   UNL A   1      42.165  18.471  25.888  1.00  0.00    -0.269 OA
BRANCH  32  35
ATOM     35  C   UNL A   1      42.017  20.759  26.406  1.00  0.00     0.039 A 
ATOM     36  C   UNL A   1      42.328  21.622  25.353  1.00  0.00     0.014 A 
ATOM     37  C   UNL A   1      42.232  21.155  27.729  1.00  0.00     0.014 A 
ATOM     38  C   UNL A   1      42.797  22.907  25.631  1.00  0.00     0.010 A 
ATOM     39  C   UNL A   1      42.617  22.463  28.004  1.00  0.00     0.010 A 
ATOM     40  C   UNL A   1      42.911  23.352  26.959  1.00  0.00    -0.014 A 
BRANCH  40  41
ATOM     41  C   UNL A   1      43.317  24.747  27.270  1.00  0.00     0.031 A 
ATOM     42  C   UNL A   1      42.346  25.696  27.916  1.00  0.00     0.074 A 
ATOM     43  C   UNL A   1      44.539  25.182  26.899  1.00  0.00     0.049 A 
ATOM     44  N   UNL A   1      42.509  26.957  28.226  1.00  0.00    -0.248 NA
ATOM     45  C   UNL A   1      41.008  25.171  28.235  1.00  0.00     0.031 C 
ATOM     46  C   UNL A   1      45.547  24.382  26.201  1.00  0.00     0.029 A 
ATOM     47  N   UNL A   1      45.132  26.412  27.038  1.00  0.00    -0.354 N 
ATOM     48  C   UNL A   1      41.289  27.384  28.739  1.00  0.00     0.074 A 
ATOM     49  C   UNL A   1      40.385  26.257  28.668  1.00  0.00     0.031 C 
ATOM     50  C   UNL A   1      46.635  25.136  25.984  1.00  0.00     0.029 A 
ATOM     51  C   UNL A   1      46.391  26.483  26.488  1.00  0.00     0.049 A 
ATOM     52  H   UNL A   1      44.698  27.173  27.489  1.00  0.00     0.167 HD
ATOM     53  C   UNL A   1      40.958  28.595  29.245  1.00  0.00     0.034 A 
ATOM     54  C   UNL A   1      47.249  27.517  26.389  1.00  0.00     0.034 A 
ATOM     55  C   UNL A   1      41.867  29.706  29.338  1.00  0.00     0.049 A 
ATOM     56  C   UNL A   1      46.860  28.849  26.973  1.00  0.00     0.074 A 
ATOM     57  C   UNL A   1      41.653  30.945  29.914  1.00  0.00     0.029 A 
ATOM     58  N   UNL A   1      43.155  29.720  28.825  1.00  0.00    -0.354 N 
ATOM     59  N   UNL A   1      45.758  29.188  27.594  1.00  0.00    -0.248 NA
ATOM     60  C   UNL A   1      47.850  29.931  26.873  1.00  0.00     0.031 C 
ATOM     61  C   UNL A   1      42.794  31.727  29.707  1.00  0.00     0.029 A 
ATOM     62  C   UNL A   1      43.741  30.955  29.050  1.00  0.00     0.049 A 
ATOM     63  H   UNL A   1      43.590  28.966  28.368  1.00  0.00     0.167 HD
ATOM     64  C   UNL A   1      45.935  30.507  27.993  1.00  0.00     0.074 A 
ATOM     65  C   UNL A   1      47.260  30.900  27.559  1.00  0.00     0.031 C 
ATOM     66  C   UNL A   1      45.075  31.323  28.653  1.00  0.00     0.034 A 
BRANCH  53  67
ATOM     67  C   UNL A   1      39.554  28.778  29.765  1.00  0.00     0.023 A 
ATOM     68  C   UNL A   1      39.235  28.387  31.082  1.00  0.00     0.012 A 
ATOM     69  C   UNL A   1      38.566  29.390  28.968  1.00  0.00     0.148 A 
ATOM     70  C   UNL A   1      37.946  28.564  31.583  1.00  0.00     0.002 A 
ATOM     71  C   UNL A   1      37.298  29.610  29.492  1.00  0.00     0.091 A 
ATOM     72  F   UNL A   1      38.882  29.739  27.713  1.00  0.00    -0.205 F 
ATOM     73  C   UNL A   1      36.981  29.184  30.793  1.00  0.00     0.022 A 
BRANCH  71  74
ATOM     74  S   UNL A   1      36.012  30.476  28.586  1.00  0.00     0.127 S 
ATOM     75  O   UNL A   1      35.210  29.364  28.077  1.00  0.00    -0.237 OA
ATOM     76  O   UNL A   1      35.367  31.258  29.642  1.00  0.00    -0.237 OA
ATOM     77  O   UNL A   1      36.695  31.267  27.573  1.00  0.00    -0.744 OA
ENDBRANCH  71  74
ENDBRANCH  53  67
BRANCH  54  78
ATOM     78  C   UNL A   1      48.581  27.324  25.749  1.00  0.00     0.023 A 
ATOM     79  C   UNL A   1      49.683  26.945  26.539  1.00  0.00     0.012 A 
ATOM     80  C   UNL A   1      48.757  27.498  24.362  1.00  0.00     0.148 A 
ATOM     81  C   UNL A   1      50.945  26.779  25.968  1.00  0.00     0.002 A 
ATOM     82  C   UNL A   1      50.004  27.275  23.790  1.00  0.00     0.091 A 
ATOM     83  F   UNL A   1      47.697  27.866  23.629  1.00  0.00    -0.205 F 
ATOM     84  C   UNL A   1      51.103  26.934  24.593  1.00  0.00     0.022 A 
BRANCH  82  85
ATOM     85  S   UNL A   1      50.274  27.329  22.015  1.00  0.00     0.127 S 
ATOM     86  O   UNL A   1      49.256  26.402  21.529  1.00  0.00    -0.237 OA
ATOM     87  O   UNL A   1      50.019  28.738  21.716  1.00  0.00    -0.237 OA
ATOM     88  O   UNL A   1      51.654  26.910  21.811  1.00  0.00    -0.744 OA
ENDBRANCH  82  85
ENDBRANCH  54  78
BRANCH  66  89
ATOM     89  C   UNL A   1      45.549  32.712  28.996  1.00  0.00     0.023 A 
ATOM     90  C   UNL A   1      46.167  32.965  30.238  1.00  0.00     0.012 A 
ATOM     91  C   UNL A   1      45.443  33.755  28.053  1.00  0.00     0.148 A 
ATOM     92  C   UNL A   1      46.636  34.240  30.549  1.00  0.00     0.002 A 
ATOM     93  C   UNL A   1      45.962  35.008  28.348  1.00  0.00     0.091 A 
ATOM     94  F   UNL A   1      44.838  33.499  26.885  1.00  0.00    -0.205 F 
ATOM     95  C   UNL A   1      46.545  35.257  29.601  1.00  0.00     0.022 A 
BRANCH  93  96
ATOM     96  S   UNL A   1      45.982  36.350  27.155  1.00  0.00     0.127 S 
ATOM     97  O   UNL A   1      44.581  36.767  27.153  1.00  0.00    -0.237 OA
ATOM     98  O   UNL A   1      46.902  37.302  27.777  1.00  0.00    -0.237 OA
ATOM     99  O   UNL A   1      46.462  35.773  25.906  1.00  0.00    -0.744 OA
ENDBRANCH  93  96
ENDBRANCH  66  89
ENDBRANCH  40  41
ENDBRANCH  32  35
ENDBRANCH  30  31
ENDBRANCH  29  30
ENDBRANCH   1  29
TORSDOF 19
ENDMDL
MODEL 2
REMARK VINA RESULT:     -12.0      6.421     11.303
REMARK SMILES O=C(C[C@H](Cc1ccc(Cl)cc1)C(=O)Nc1cc(Cl)ccc1Cl)NCCCCNC(=O)c1ccc(-c2c3nc(c(-c4cccc(S(=O)(=O)[O-])c4F)c4ccc([nH]4)c(-c4cccc(S(=O)(=O)[O-])c4F)c4nc(c(-c5cccc(S(=O)(=O)[O-])c5F)c5ccc2[nH]5)C=C4)C=C3)cc1
REMARK SMILES IDX 26 1 25 2 24 3 1 4 2 5 3 7 4 8 13 9 14 10 15 11 16 13 17 14
REMARK SMILES IDX 22 15 18 16 21 17 23 18 19 19 20 20 5 21 6 22 7 23 12 24
REMARK SMILES IDX 8 25 11 26 9 27 10 28 27 29 28 30 29 31 30 32 31 34 32 35
REMARK SMILES IDX 33 36 94 37 34 38 93 39 35 40 36 41 37 42 87 43 38 44 92 45
REMARK SMILES IDX 86 46 88 47 39 48 91 49 85 50 84 51 40 53 72 54 52 55 71 56
REMARK SMILES IDX 53 57 56 58 70 59 89 60 54 61 55 62 69 64 90 65 57 66 41 67
REMARK SMILES IDX 42 68 50 69 43 70 45 71 51 72 44 73 46 74 47 75 48 76 49 77
REMARK SMILES IDX 73 78 74 79 82 80 75 81 77 82 83 83 76 84 78 85 79 86 80 87
REMARK SMILES IDX 81 88 58 89 59 90 67 91 60 92 62 93 68 94 61 95 63 96 64 97
REMARK SMILES IDX 65 98 66 99
REMARK H PARENT 24 6 15 12 29 33 88 52 56 63
REMARK Flexibility Score: inf
ROOT
ATOM      1  C   UNL A   1      34.359  30.888  28.188  1.00  0.00     0.023 C 
ENDROOT
BRANCH   1   2
ATOM      2  C   UNL A   1      34.564  29.670  27.293  1.00  0.00     0.116 C 
BRANCH   2   3
ATOM      3  N   UNL A   1      33.544  28.665  27.524  1.00  0.00    -0.356 N 
ATOM      4  O   UNL A   1      32.664  28.858  25.431  1.00  0.00    -0.275 OA
ATOM      5  C   UNL A   1      32.632  28.358  26.557  1.00  0.00     0.220 C 
ATOM      6  H   UNL A   1      33.510  28.198  28.389  1.00  0.00     0.163 HD
BRANCH   5   7
ATOM      7  C   UNL A   1      31.472  27.460  26.923  1.00  0.00     0.113 C 
BRANCH   7   8
ATOM      8  C   UNL A   1      31.466  25.979  26.554  1.00  0.00     0.092 C 
BRANCH   8   9
ATOM      9  C   UNL A   1      30.066  25.566  26.000  1.00  0.00     0.228 C 
ATOM     10  O   UNL A   1      29.194  25.293  26.841  1.00  0.00    -0.274 OA
ATOM     11  N   UNL A   1      29.639  25.708  24.704  1.00  0.00    -0.324 N 
ATOM     12  H   UNL A   1      28.668  25.607  24.567  1.00  0.00     0.169 HD
BRANCH  11  13
ATOM     13  C   UNL A   1      30.383  25.975  23.543  1.00  0.00     0.061 A 
ATOM     14  C   UNL A   1      30.999  24.901  22.911  1.00  0.00     0.048 A 
ATOM     15  C   UNL A   1      30.556  27.239  23.026  1.00  0.00     0.064 A 
ATOM     16  C   UNL A   1      32.286  24.922  22.155  1.00  0.00     0.043 A 
ATOM     17  C   UNL A   1      31.496  27.406  22.023  1.00  0.00     0.024 A 
ATOM     18  Cl  UNL A   1      29.711  28.600  23.645  1.00  0.00    -0.082 Cl
ATOM     19  Cl  UNL A   1      33.961  23.099  22.052  1.00  0.00    -0.084 Cl
ATOM     20  C   UNL A   1      32.358  26.335  21.647  1.00  0.00     0.022 A 
ENDBRANCH  11  13
ENDBRANCH   8   9
BRANCH   8  21
ATOM     21  C   UNL A   1      32.798  25.536  25.862  1.00  0.00     0.049 C 
BRANCH  21  22
ATOM     22  C   UNL A   1      33.156  24.050  25.766  1.00  0.00    -0.047 A 
ATOM     23  C   UNL A   1      31.774  22.855  25.468  1.00  0.00     0.005 A 
ATOM     24  C   UNL A   1      34.879  23.470  25.593  1.00  0.00     0.005 A 
ATOM     25  C   UNL A   1      32.141  21.136  24.990  1.00  0.00     0.021 A 
ATOM     26  C   UNL A   1      35.238  21.727  25.223  1.00  0.00     0.021 A 
ATOM     27  C   UNL A   1      33.858  20.558  24.930  1.00  0.00     0.041 A 
ATOM     28  Cl  UNL A   1      34.199  18.883  24.716  1.00  0.00    -0.084 Cl
ENDBRANCH  21  22
ENDBRANCH   8  21
ENDBRANCH   7   8
ENDBRANCH   5   7
ENDBRANCH   2   3
ENDBRANCH   1   2
BRANCH   1  29
ATOM     29  C   UNL A   1      33.142  31.741  27.823  1.00  0.00     0.023 C 
BRANCH  29  30
ATOM     30  C   UNL A   1      33.461  33.016  27.052  1.00  0.00     0.116 C 
BRANCH  30  31
ATOM     31  N   UNL A   1      32.876  34.199  27.668  1.00  0.00    -0.352 N 
ATOM     32  C   UNL A   1      33.191  34.793  28.866  1.00  0.00     0.251 C 
ATOM     33  H   UNL A   1      32.157  34.633  27.155  1.00  0.00     0.163 HD
ATOM     34  O   UNL A   1      32.488  35.697  29.308  1.00  0.00    -0.269 OA
BRANCH  32  35
ATOM     35  C   UNL A   1      34.362  34.318  29.631  1.00  0.00     0.039 A 
ATOM     36  C   UNL A   1      34.151  33.612  30.818  1.00  0.00     0.014 A 
ATOM     37  C   UNL A   1      35.661  34.545  29.167  1.00  0.00     0.014 A 
ATOM     38  C   UNL A   1      35.243  33.081  31.507  1.00  0.00     0.010 A 
ATOM     39  C   UNL A   1      36.739  33.942  29.809  1.00  0.00     0.010 A 
ATOM     40  C   UNL A   1      36.543  33.209  30.989  1.00  0.00    -0.014 A 
BRANCH  40  41
ATOM     41  C   UNL A   1      37.704  32.569  31.661  1.00  0.00     0.031 A 
ATOM     42  C   UNL A   1      38.428  31.427  31.002  1.00  0.00     0.074 A 
ATOM     43  C   UNL A   1      38.058  32.966  32.899  1.00  0.00     0.049 A 
ATOM     44  N   UNL A   1      39.434  30.721  31.451  1.00  0.00    -0.248 NA
ATOM     45  C   UNL A   1      37.946  31.003  29.677  1.00  0.00     0.031 C 
ATOM     46  C   UNL A   1      37.392  34.014  33.676  1.00  0.00     0.029 A 
ATOM     47  N   UNL A   1      39.054  32.521  33.733  1.00  0.00    -0.354 N 
ATOM     48  C   UNL A   1      39.681  29.752  30.486  1.00  0.00     0.074 A 
ATOM     49  C   UNL A   1      38.698  29.938  29.442  1.00  0.00     0.031 C 
ATOM     50  C   UNL A   1      38.002  34.138  34.864  1.00  0.00     0.029 A 
ATOM     51  C   UNL A   1      39.077  33.155  34.954  1.00  0.00     0.049 A 
ATOM     52  H   UNL A   1      39.692  31.815  33.482  1.00  0.00     0.167 HD
ATOM     53  C   UNL A   1      40.651  28.808  30.458  1.00  0.00     0.034 A 
ATOM     54  C   UNL A   1      39.864  32.959  36.030  1.00  0.00     0.034 A 
ATOM     55  C   UNL A   1      41.643  28.642  31.486  1.00  0.00     0.049 A 
ATOM     56  C   UNL A   1      40.943  31.913  35.966  1.00  0.00     0.074 A 
ATOM     57  C   UNL A   1      42.720  27.774  31.509  1.00  0.00     0.029 A 
ATOM     58  N   UNL A   1      41.671  29.344  32.681  1.00  0.00    -0.354 N 
ATOM     59  N   UNL A   1      41.258  31.110  34.980  1.00  0.00    -0.248 NA
ATOM     60  C   UNL A   1      41.799  31.769  37.153  1.00  0.00     0.031 C 
ATOM     61  C   UNL A   1      43.371  27.915  32.739  1.00  0.00     0.029 A 
ATOM     62  C   UNL A   1      42.732  28.912  33.460  1.00  0.00     0.049 A 
ATOM     63  H   UNL A   1      41.031  30.045  32.940  1.00  0.00     0.167 HD
ATOM     64  C   UNL A   1      42.371  30.396  35.409  1.00  0.00     0.074 A 
ATOM     65  C   UNL A   1      42.686  30.875  36.740  1.00  0.00     0.031 C 
ATOM     66  C   UNL A   1      43.063  29.425  34.764  1.00  0.00     0.034 A 
BRANCH  53  67
ATOM     67  C   UNL A   1      40.705  27.892  29.262  1.00  0.00     0.023 A 
ATOM     68  C   UNL A   1      39.850  26.771  29.195  1.00  0.00     0.012 A 
ATOM     69  C   UNL A   1      41.560  28.172  28.179  1.00  0.00     0.148 A 
ATOM     70  C   UNL A   1      39.876  25.923  28.088  1.00  0.00     0.002 A 
ATOM     71  C   UNL A   1      41.544  27.351  27.057  1.00  0.00     0.091 A 
ATOM     72  F   UNL A   1      42.379  29.230  28.267  1.00  0.00    -0.205 F 
ATOM     73  C   UNL A   1      40.714  26.218  27.017  1.00  0.00     0.022 A 
BRANCH  71  74
ATOM     74  S   UNL A   1      42.523  27.693  25.591  1.00  0.00     0.127 S 
ATOM     75  O   UNL A   1      42.263  26.505  24.779  1.00  0.00    -0.237 OA
ATOM     76  O   UNL A   1      41.905  28.921  25.090  1.00  0.00    -0.237 OA
ATOM     77  O   UNL A   1      43.897  27.846  26.049  1.00  0.00    -0.744 OA
ENDBRANCH  71  74
ENDBRANCH  53  67
BRANCH  54  78
ATOM     78  C   UNL A   1      39.690  33.804  37.246  1.00  0.00     0.023 A 
ATOM     79  C   UNL A   1      40.254  35.094  37.281  1.00  0.00     0.012 A 
ATOM     80  C   UNL A   1      38.958  33.343  38.357  1.00  0.00     0.148 A 
ATOM     81  C   UNL A   1      40.124  35.897  38.415  1.00  0.00     0.002 A 
ATOM     82  C   UNL A   1      38.784  34.169  39.461  1.00  0.00     0.091 A 
ATOM     83  F   UNL A   1      38.437  32.110  38.306  1.00  0.00    -0.205 F 
ATOM     84  C   UNL A   1      39.382  35.438  39.500  1.00  0.00     0.022 A 
BRANCH  82  85
ATOM     85  S   UNL A   1      37.741  33.714  40.851  1.00  0.00     0.127 S 
ATOM     86  O   UNL A   1      38.651  32.903  41.655  1.00  0.00    -0.237 OA
ATOM     87  O   UNL A   1      37.413  35.022  41.420  1.00  0.00    -0.237 OA
ATOM     88  O   UNL A   1      36.606  33.004  40.279  1.00  0.00    -0.744 OA
ENDBRANCH  82  85
ENDBRANCH  54  78
BRANCH  66  89
ATOM     89  C   UNL A   1      44.267  28.842  35.460  1.00  0.00     0.023 A 
ATOM     90  C   UNL A   1      45.549  29.382  35.233  1.00  0.00     0.012 A 
ATOM     91  C   UNL A   1      44.113  27.798  36.395  1.00  0.00     0.148 A 
ATOM     92  C   UNL A   1      46.662  28.867  35.896  1.00  0.00     0.002 A 
ATOM     93  C   UNL A   1      45.218  27.328  37.093  1.00  0.00     0.091 A 
ATOM     94  F   UNL A   1      42.889  27.287  36.585  1.00  0.00    -0.205 F 
ATOM     95  C   UNL A   1      46.495  27.850  36.834  1.00  0.00     0.022 A 
BRANCH  93  96
ATOM     96  S   UNL A   1      45.086  26.094  38.391  1.00  0.00     0.127 S 
ATOM     97  O   UNL A   1      43.923  26.571  39.137  1.00  0.00    -0.237 OA
ATOM     98  O   UNL A   1      44.860  24.867  37.627  1.00  0.00    -0.237 OA
ATOM     99  O   UNL A   1      46.349  26.132  39.115  1.00  0.00    -0.744 OA
ENDBRANCH  93  96
ENDBRANCH  66  89
ENDBRANCH  40  41
ENDBRANCH  32  35
ENDBRANCH  30  31
ENDBRANCH  29  30
ENDBRANCH   1  29
TORSDOF 19
ENDMDL
MODEL 3
REMARK VINA RESULT:     -12.0      1.978      3.350
REMARK SMILES O=C(C[C@H](Cc1ccc(Cl)cc1)C(=O)Nc1cc(Cl)ccc1Cl)NCCCCNC(=O)c1ccc(-c2c3nc(c(-c4cccc(S(=O)(=O)[O-])c4F)c4ccc([nH]4)c(-c4cccc(S(=O)(=O)[O-])c4F)c4nc(c(-c5cccc(S(=O)(=O)[O-])c5F)c5ccc2[nH]5)C=C4)C=C3)cc1
REMARK SMILES IDX 26 1 25 2 24 3 1 4 2 5 3 7 4 8 13 9 14 10 15 11 16 13 17 14
REMARK SMILES IDX 22 15 18 16 21 17 23 18 19 19 20 20 5 21 6 22 7 23 12 24
REMARK SMILES IDX 8 25 11 26 9 27 10 28 27 29 28 30 29 31 30 32 31 34 32 35
REMARK SMILES IDX 33 36 94 37 34 38 93 39 35 40 36 41 37 42 87 43 38 44 92 45
REMARK SMILES IDX 86 46 88 47 39 48 91 49 85 50 84 51 40 53 72 54 52 55 71 56
REMARK SMILES IDX 53 57 56 58 70 59 89 60 54 61 55 62 69 64 90 65 57 66 41 67
REMARK SMILES IDX 42 68 50 69 43 70 45 71 51 72 44 73 46 74 47 75 48 76 49 77
REMARK SMILES IDX 73 78 74 79 82 80 75 81 77 82 83 83 76 84 78 85 79 86 80 87
REMARK SMILES IDX 81 88 58 89 59 90 67 91 60 92 62 93 68 94 61 95 63 96 64 97
REMARK SMILES IDX 65 98 66 99
REMARK H PARENT 24 6 15 12 29 33 88 52 56 63
REMARK Flexibility Score: inf
ROOT
ATOM      1  C   UNL A   1      36.782  20.678  25.164  1.00  0.00     0.023 C 
ENDROOT
BRANCH   1   2
ATOM      2  C   UNL A   1      36.498  21.937  24.350  1.00  0.00     0.116 C 
BRANCH   2   3
ATOM      3  N   UNL A   1      35.075  22.194  24.252  1.00  0.00    -0.356 N 
ATOM      4  O   UNL A   1      34.996  23.373  26.200  1.00  0.00    -0.275 OA
ATOM      5  C   UNL A   1      34.417  22.881  25.230  1.00  0.00     0.220 C 
ATOM      6  H   UNL A   1      34.576  21.869  23.469  1.00  0.00     0.163 HD
BRANCH   5   7
ATOM      7  C   UNL A   1      32.907  22.939  25.176  1.00  0.00     0.113 C 
BRANCH   7   8
ATOM      8  C   UNL A   1      32.174  24.215  24.771  1.00  0.00     0.092 C 
BRANCH   8   9
ATOM      9  C   UNL A   1      31.362  23.979  23.459  1.00  0.00     0.228 C 
ATOM     10  O   UNL A   1      31.170  22.797  23.128  1.00  0.00    -0.274 OA
ATOM     11  N   UNL A   1      30.641  24.927  22.776  1.00  0.00    -0.324 N 
ATOM     12  H   UNL A   1      30.014  24.575  22.103  1.00  0.00     0.169 HD
BRANCH  11  13
ATOM     13  C   UNL A   1      30.667  26.325  22.897  1.00  0.00     0.061 A 
ATOM     14  C   UNL A   1      31.752  26.999  22.346  1.00  0.00     0.048 A 
ATOM     15  C   UNL A   1      29.699  27.050  23.555  1.00  0.00     0.064 A 
ATOM     16  C   UNL A   1      32.374  28.261  22.847  1.00  0.00     0.043 A 
ATOM     17  C   UNL A   1      29.952  28.386  23.810  1.00  0.00     0.024 A 
ATOM     18  Cl  UNL A   1      28.252  26.325  24.130  1.00  0.00    -0.082 Cl
ATOM     19  Cl  UNL A   1      34.778  28.851  22.754  1.00  0.00    -0.084 Cl
ATOM     20  C   UNL A   1      31.231  28.953  23.535  1.00  0.00     0.022 A 
ENDBRANCH  11  13
ENDBRANCH   8   9
BRANCH   8  21
ATOM     21  C   UNL A   1      31.566  24.965  26.003  1.00  0.00     0.049 C 
BRANCH  21  22
ATOM     22  C   UNL A   1      32.143  26.313  26.443  1.00  0.00    -0.047 A 
ATOM     23  C   UNL A   1      33.880  26.706  25.938  1.00  0.00     0.005 A 
ATOM     24  C   UNL A   1      31.098  27.647  27.125  1.00  0.00     0.005 A 
ATOM     25  C   UNL A   1      34.519  28.403  26.106  1.00  0.00     0.021 A 
ATOM     26  C   UNL A   1      31.776  29.313  27.391  1.00  0.00     0.021 A 
ATOM     27  C   UNL A   1      33.497  29.683  26.884  1.00  0.00     0.041 A 
ATOM     28  Cl  UNL A   1      34.178  31.219  27.263  1.00  0.00    -0.084 Cl
ENDBRANCH  21  22
ENDBRANCH   8  21
ENDBRANCH   7   8
ENDBRANCH   5   7
ENDBRANCH   2   3
ENDBRANCH   1   2
BRANCH   1  29
ATOM     29  C   UNL A   1      38.116  20.003  24.836  1.00  0.00     0.023 C 
BRANCH  29  30
ATOM     30  C   UNL A   1      39.248  20.317  25.807  1.00  0.00     0.116 C 
BRANCH  30  31
ATOM     31  N   UNL A   1      40.198  19.220  25.927  1.00  0.00    -0.352 N 
ATOM     32  C   UNL A   1      41.555  19.272  26.133  1.00  0.00     0.251 C 
ATOM     33  H   UNL A   1      39.815  18.317  25.851  1.00  0.00     0.163 HD
ATOM     34  O   UNL A   1      42.229  18.249  26.052  1.00  0.00    -0.269 OA
BRANCH  32  35
ATOM     35  C   UNL A   1      42.199  20.569  26.424  1.00  0.00     0.039 A 
ATOM     36  C   UNL A   1      42.672  21.341  25.360  1.00  0.00     0.014 A 
ATOM     37  C   UNL A   1      42.315  21.033  27.738  1.00  0.00     0.014 A 
ATOM     38  C   UNL A   1      43.205  22.607  25.610  1.00  0.00     0.010 A 
ATOM     39  C   UNL A   1      42.767  22.328  27.975  1.00  0.00     0.010 A 
ATOM     40  C   UNL A   1      43.223  23.127  26.916  1.00  0.00    -0.014 A 
BRANCH  40  41
ATOM     41  C   UNL A   1      43.699  24.508  27.186  1.00  0.00     0.031 A 
ATOM     42  C   UNL A   1      42.742  25.560  27.678  1.00  0.00     0.074 A 
ATOM     43  C   UNL A   1      44.978  24.836  26.915  1.00  0.00     0.049 A 
ATOM     44  N   UNL A   1      42.966  26.824  27.930  1.00  0.00    -0.248 NA
ATOM     45  C   UNL A   1      41.345  25.146  27.891  1.00  0.00     0.031 C 
ATOM     46  C   UNL A   1      45.988  23.927  26.367  1.00  0.00     0.029 A 
ATOM     47  N   UNL A   1      45.644  26.030  27.042  1.00  0.00    -0.354 N 
ATOM     48  C   UNL A   1      41.738  27.363  28.294  1.00  0.00     0.074 A 
ATOM     49  C   UNL A   1      40.765  26.297  28.198  1.00  0.00     0.031 C 
ATOM     50  C   UNL A   1      47.144  24.592  26.216  1.00  0.00     0.029 A 
ATOM     51  C   UNL A   1      46.951  25.981  26.617  1.00  0.00     0.049 A 
ATOM     52  H   UNL A   1      45.226  26.845  27.403  1.00  0.00     0.167 HD
ATOM     53  C   UNL A   1      41.449  28.623  28.696  1.00  0.00     0.034 A 
ATOM     54  C   UNL A   1      47.888  26.948  26.545  1.00  0.00     0.034 A 
ATOM     55  C   UNL A   1      42.424  29.674  28.815  1.00  0.00     0.049 A 
ATOM     56  C   UNL A   1      47.543  28.336  27.011  1.00  0.00     0.074 A 
ATOM     57  C   UNL A   1      42.247  30.959  29.297  1.00  0.00     0.029 A 
ATOM     58  N   UNL A   1      43.752  29.570  28.433  1.00  0.00    -0.354 N 
ATOM     59  N   UNL A   1      46.414  28.787  27.499  1.00  0.00    -0.248 NA
ATOM     60  C   UNL A   1      48.614  29.342  26.949  1.00  0.00     0.031 C 
ATOM     61  C   UNL A   1      43.456  31.648  29.160  1.00  0.00     0.029 A 
ATOM     62  C   UNL A   1      44.402  30.775  28.645  1.00  0.00     0.049 A 
ATOM     63  H   UNL A   1      44.172  28.760  28.065  1.00  0.00     0.167 HD
ATOM     64  C   UNL A   1      46.648  30.114  27.839  1.00  0.00     0.074 A 
ATOM     65  C   UNL A   1      48.034  30.389  27.518  1.00  0.00     0.031 C 
ATOM     66  C   UNL A   1      45.792  31.026  28.362  1.00  0.00     0.034 A 
BRANCH  53  67
ATOM     67  C   UNL A   1      40.019  28.933  29.062  1.00  0.00     0.023 A 
ATOM     68  C   UNL A   1      39.055  29.106  28.047  1.00  0.00     0.012 A 
ATOM     69  C   UNL A   1      39.619  28.995  30.411  1.00  0.00     0.148 A 
ATOM     70  C   UNL A   1      37.725  29.377  28.369  1.00  0.00     0.002 A 
ATOM     71  C   UNL A   1      38.283  29.214  30.725  1.00  0.00     0.091 A 
ATOM     72  F   UNL A   1      40.552  28.846  31.363  1.00  0.00    -0.205 F 
ATOM     73  C   UNL A   1      37.338  29.421  29.706  1.00  0.00     0.022 A 
BRANCH  71  74
ATOM     74  S   UNL A   1      37.669  29.204  32.412  1.00  0.00     0.127 S 
ATOM     75  O   UNL A   1      38.571  30.155  33.060  1.00  0.00    -0.237 OA
ATOM     76  O   UNL A   1      36.297  29.685  32.241  1.00  0.00    -0.237 OA
ATOM     77  O   UNL A   1      37.779  27.828  32.873  1.00  0.00    -0.744 OA
ENDBRANCH  71  74
ENDBRANCH  53  67
BRANCH  54  78
ATOM     78  C   UNL A   1      49.258  26.626  26.052  1.00  0.00     0.023 A 
ATOM     79  C   UNL A   1      50.115  25.841  26.848  1.00  0.00     0.012 A 
ATOM     80  C   UNL A   1      49.706  27.077  24.796  1.00  0.00     0.148 A 
ATOM     81  C   UNL A   1      51.409  25.544  26.419  1.00  0.00     0.002 A 
ATOM     82  C   UNL A   1      50.976  26.729  24.350  1.00  0.00     0.091 A 
ATOM     83  F   UNL A   1      48.877  27.828  24.058  1.00  0.00    -0.205 F 
ATOM     84  C   UNL A   1      51.835  25.979  25.167  1.00  0.00     0.022 A 
BRANCH  82  85
ATOM     85  S   UNL A   1      51.565  27.138  22.703  1.00  0.00     0.127 S 
ATOM     86  O   UNL A   1      52.771  26.322  22.605  1.00  0.00    -0.237 OA
ATOM     87  O   UNL A   1      50.449  26.693  21.868  1.00  0.00    -0.237 OA
ATOM     88  O   UNL A   1      51.779  28.579  22.704  1.00  0.00    -0.744 OA
ENDBRANCH  82  85
ENDBRANCH  54  78
BRANCH  66  89
ATOM     89  C   UNL A   1      46.331  32.399  28.672  1.00  0.00     0.023 A 
ATOM     90  C   UNL A   1      47.118  32.610  29.822  1.00  0.00     0.012 A 
ATOM     91  C   UNL A   1      46.112  33.469  27.780  1.00  0.00     0.148 A 
ATOM     92  C   UNL A   1      47.646  33.871  30.098  1.00  0.00     0.002 A 
ATOM     93  C   UNL A   1      46.687  34.707  28.032  1.00  0.00     0.091 A 
ATOM     94  F   UNL A   1      45.347  33.253  26.700  1.00  0.00    -0.205 F 
ATOM     95  C   UNL A   1      47.441  34.914  29.198  1.00  0.00     0.022 A 
BRANCH  93  96
ATOM     96  S   UNL A   1      46.563  36.081  26.882  1.00  0.00     0.127 S 
ATOM     97  O   UNL A   1      46.374  37.211  27.790  1.00  0.00    -0.237 OA
ATOM     98  O   UNL A   1      47.866  36.044  26.217  1.00  0.00    -0.237 OA
ATOM     99  O   UNL A   1      45.431  35.782  26.015  1.00  0.00    -0.744 OA
ENDBRANCH  93  96
ENDBRANCH  66  89
ENDBRANCH  40  41
ENDBRANCH  32  35
ENDBRANCH  30  31
ENDBRANCH  29  30
ENDBRANCH   1  29
TORSDOF 19
ENDMDL
