MODEL 1
REMARK VINA RESULT:     -12.3      0.000      0.000
REMARK SMILES Cc1nnc(SCC(=O)Nc2cccc(C(=O)NCCCCNC(=O)c3ccc(-c4c5nc(c(-c6cccc(S(=O)(=O)[O-])c6F)c6ccc([nH]6)c(-c6cccc(S(=O)(=O)[O-])c6F)c6nc(c(-c7cccc(S(=O)(=O)[O-])c7F)c7ccc4[nH]7)C=C6)C=C5)cc3)c2)n1-c1ccccc1
REMARK SMILES IDX 19 1 18 2 16 3 17 4 15 6 11 7 12 8 89 9 13 10 14 11 10 12
REMARK SMILES IDX 8 13 9 14 7 16 6 17 5 18 1 19 2 20 3 21 90 22 4 23 91 24
REMARK SMILES IDX 92 25 96 26 93 27 95 28 94 29 20 30 21 31 22 32 23 33 24 34
REMARK SMILES IDX 25 36 26 37 27 38 88 39 28 40 87 41 29 42 30 43 31 44 81 45
REMARK SMILES IDX 32 46 86 47 80 48 82 49 33 50 85 51 79 52 78 53 34 55 66 56
REMARK SMILES IDX 46 57 65 58 47 59 50 60 64 61 83 62 48 63 49 64 63 66 84 67
REMARK SMILES IDX 51 68 35 69 36 70 44 71 37 72 39 73 45 74 38 75 40 76 41 77
REMARK SMILES IDX 42 78 43 79 67 80 68 81 76 82 69 83 71 84 77 85 70 86 72 87
REMARK SMILES IDX 73 88 74 89 75 90 52 91 53 92 61 93 54 94 56 95 62 96 55 97
REMARK SMILES IDX 57 98 58 99 59 100 60 101
REMARK H PARENT 18 5 10 15 23 35 82 54 50 65
REMARK Flexibility Score: inf
ROOT
ATOM      1  C   UNL A   1      32.683  30.046  25.619  1.00  0.00     0.116 C 
ENDROOT
BRANCH   1   2
ATOM      2  N   UNL A   1      33.030  29.481  24.325  1.00  0.00    -0.352 N 
ATOM      3  C   UNL A   1      32.424  28.503  23.563  1.00  0.00     0.251 C 
ATOM      4  O   UNL A   1      33.019  28.090  22.569  1.00  0.00    -0.269 OA
ATOM      5  H   UNL A   1      33.842  29.864  23.920  1.00  0.00     0.163 HD
BRANCH   3   6
ATOM      6  C   UNL A   1      31.130  27.853  23.932  1.00  0.00     0.041 A 
ATOM      7  C   UNL A   1      29.785  26.312  25.229  1.00  0.00     0.041 A 
ATOM      8  C   UNL A   1      28.731  26.485  24.320  1.00  0.00     0.026 A 
ATOM      9  C   UNL A   1      30.950  27.060  25.073  1.00  0.00     0.040 A 
ATOM     10  C   UNL A   1      28.841  27.383  23.264  1.00  0.00     0.003 A 
ATOM     11  C   UNL A   1      30.046  28.050  23.060  1.00  0.00     0.014 A 
BRANCH   7  12
ATOM     12  N   UNL A   1      29.625  25.270  26.149  1.00  0.00    -0.325 N 
ATOM     13  C   UNL A   1      30.436  24.325  26.686  1.00  0.00     0.234 C 
ATOM     14  O   UNL A   1      29.842  23.392  27.244  1.00  0.00    -0.274 OA
ATOM     15  H   UNL A   1      28.703  25.208  26.487  1.00  0.00     0.169 HD
BRANCH  13  16
ATOM     16  C   UNL A   1      31.929  24.482  26.823  1.00  0.00     0.178 C 
BRANCH  16  17
ATOM     17  S   UNL A   1      32.992  23.043  26.753  1.00  0.00    -0.076 SA
BRANCH  17  18
ATOM     18  C   UNL A   1      34.289  23.305  25.643  1.00  0.00     0.196 A 
ATOM     19  C   UNL A   1      37.077  22.142  23.625  1.00  0.00     0.090 C 
ATOM     20  C   UNL A   1      36.075  22.845  24.457  1.00  0.00     0.135 A 
ATOM     21  N   UNL A   1      36.232  24.041  24.992  1.00  0.00    -0.134 NA
ATOM     22  N   UNL A   1      34.836  22.349  24.813  1.00  0.00    -0.274 N 
ATOM     23  N   UNL A   1      35.113  24.323  25.732  1.00  0.00    -0.123 NA
BRANCH  22  24
ATOM     24  C   UNL A   1      34.179  21.225  24.297  1.00  0.00     0.049 A 
ATOM     25  C   UNL A   1      33.111  21.439  23.425  1.00  0.00     0.027 A 
ATOM     26  C   UNL A   1      34.440  19.967  24.837  1.00  0.00     0.027 A 
ATOM     27  C   UNL A   1      32.222  20.400  23.171  1.00  0.00     0.002 A 
ATOM     28  C   UNL A   1      33.568  18.922  24.539  1.00  0.00     0.002 A 
ATOM     29  C   UNL A   1      32.444  19.146  23.736  1.00  0.00     0.000 A 
ENDBRANCH  22  24
ENDBRANCH  17  18
ENDBRANCH  16  17
ENDBRANCH  13  16
ENDBRANCH   7  12
ENDBRANCH   3   6
ENDBRANCH   1   2
BRANCH   1  30
ATOM     30  C   UNL A   1      33.870  30.289  26.558  1.00  0.00     0.023 C 
BRANCH  30  31
ATOM     31  C   UNL A   1      33.618  30.851  27.963  1.00  0.00     0.023 C 
BRANCH  31  32
ATOM     32  C   UNL A   1      34.333  32.138  28.366  1.00  0.00     0.116 C 
BRANCH  32  33
ATOM     33  N   UNL A   1      34.340  32.461  29.788  1.00  0.00    -0.352 N 
ATOM     34  C   UNL A   1      35.218  31.935  30.749  1.00  0.00     0.251 C 
ATOM     35  H   UNL A   1      33.667  33.108  30.103  1.00  0.00     0.163 HD
ATOM     36  O   UNL A   1      35.031  32.050  31.942  1.00  0.00    -0.269 OA
BRANCH  34  37
ATOM     37  C   UNL A   1      36.431  31.265  30.235  1.00  0.00     0.039 A 
ATOM     38  C   UNL A   1      37.491  31.967  29.649  1.00  0.00     0.014 A 
ATOM     39  C   UNL A   1      36.536  29.899  30.477  1.00  0.00     0.014 A 
ATOM     40  C   UNL A   1      38.707  31.304  29.436  1.00  0.00     0.010 A 
ATOM     41  C   UNL A   1      37.768  29.291  30.398  1.00  0.00     0.010 A 
ATOM     42  C   UNL A   1      38.860  29.971  29.857  1.00  0.00    -0.014 A 
BRANCH  42  43
ATOM     43  C   UNL A   1      40.185  29.330  29.891  1.00  0.00     0.031 A 
ATOM     44  C   UNL A   1      40.754  29.061  31.246  1.00  0.00     0.074 A 
ATOM     45  C   UNL A   1      40.759  28.742  28.814  1.00  0.00     0.049 A 
ATOM     46  N   UNL A   1      41.853  29.522  31.751  1.00  0.00    -0.248 NA
ATOM     47  C   UNL A   1      39.975  28.234  32.180  1.00  0.00     0.031 C 
ATOM     48  C   UNL A   1      40.187  28.619  27.465  1.00  0.00     0.029 A 
ATOM     49  N   UNL A   1      41.891  27.980  28.731  1.00  0.00    -0.354 N 
ATOM     50  C   UNL A   1      42.023  28.851  32.966  1.00  0.00     0.074 A 
ATOM     51  C   UNL A   1      40.761  28.228  33.259  1.00  0.00     0.031 C 
ATOM     52  C   UNL A   1      40.797  27.611  26.810  1.00  0.00     0.029 A 
ATOM     53  C   UNL A   1      41.934  27.176  27.596  1.00  0.00     0.049 A 
ATOM     54  H   UNL A   1      42.606  27.999  29.407  1.00  0.00     0.167 HD
ATOM     55  C   UNL A   1      43.266  28.634  33.483  1.00  0.00     0.034 A 
ATOM     56  C   UNL A   1      42.835  26.217  27.291  1.00  0.00     0.034 A 
ATOM     57  C   UNL A   1      44.266  29.394  32.780  1.00  0.00     0.049 A 
ATOM     58  C   UNL A   1      44.084  26.528  28.011  1.00  0.00     0.074 A 
ATOM     59  C   UNL A   1      44.701  30.697  32.704  1.00  0.00     0.029 A 
ATOM     60  N   UNL A   1      44.817  28.714  31.728  1.00  0.00    -0.354 N 
ATOM     61  N   UNL A   1      44.792  27.600  27.780  1.00  0.00    -0.248 NA
ATOM     62  C   UNL A   1      44.457  25.776  29.202  1.00  0.00     0.031 C 
ATOM     63  C   UNL A   1      45.382  30.815  31.454  1.00  0.00     0.029 A 
ATOM     64  C   UNL A   1      45.344  29.578  30.810  1.00  0.00     0.049 A 
ATOM     65  H   UNL A   1      44.831  27.734  31.644  1.00  0.00     0.167 HD
ATOM     66  C   UNL A   1      45.361  27.890  29.004  1.00  0.00     0.074 A 
ATOM     67  C   UNL A   1      45.305  26.646  29.757  1.00  0.00     0.031 C 
ATOM     68  C   UNL A   1      45.488  29.180  29.427  1.00  0.00     0.034 A 
BRANCH  55  69
ATOM     69  C   UNL A   1      43.713  27.419  34.288  1.00  0.00     0.023 A 
ATOM     70  C   UNL A   1      44.374  27.678  35.516  1.00  0.00     0.012 A 
ATOM     71  C   UNL A   1      43.827  26.107  33.778  1.00  0.00     0.148 A 
ATOM     72  C   UNL A   1      45.162  26.714  36.157  1.00  0.00     0.002 A 
ATOM     73  C   UNL A   1      44.558  25.131  34.456  1.00  0.00     0.091 A 
ATOM     74  F   UNL A   1      43.354  25.814  32.565  1.00  0.00    -0.205 F 
ATOM     75  C   UNL A   1      45.254  25.437  35.626  1.00  0.00     0.022 A 
BRANCH  73  76
ATOM     76  S   UNL A   1      44.682  23.452  33.824  1.00  0.00     0.127 S 
ATOM     77  O   UNL A   1      45.933  23.008  34.429  1.00  0.00    -0.237 OA
ATOM     78  O   UNL A   1      43.473  22.834  34.370  1.00  0.00    -0.237 OA
ATOM     79  O   UNL A   1      44.674  23.593  32.374  1.00  0.00    -0.744 OA
ENDBRANCH  73  76
ENDBRANCH  55  69
BRANCH  56  80
ATOM     80  C   UNL A   1      42.693  25.016  26.443  1.00  0.00     0.023 A 
ATOM     81  C   UNL A   1      43.615  24.780  25.406  1.00  0.00     0.012 A 
ATOM     82  C   UNL A   1      41.814  23.975  26.812  1.00  0.00     0.148 A 
ATOM     83  C   UNL A   1      43.693  23.530  24.785  1.00  0.00     0.002 A 
ATOM     84  C   UNL A   1      41.894  22.733  26.189  1.00  0.00     0.091 A 
ATOM     85  F   UNL A   1      40.964  24.182  27.827  1.00  0.00    -0.205 F 
ATOM     86  C   UNL A   1      42.843  22.503  25.184  1.00  0.00     0.022 A 
BRANCH  84  87
ATOM     87  S   UNL A   1      40.842  21.351  26.656  1.00  0.00     0.127 S 
ATOM     88  O   UNL A   1      39.621  21.631  25.899  1.00  0.00    -0.237 OA
ATOM     89  O   UNL A   1      41.614  20.210  26.171  1.00  0.00    -0.237 OA
ATOM     90  O   UNL A   1      40.685  21.452  28.100  1.00  0.00    -0.744 OA
ENDBRANCH  84  87
ENDBRANCH  56  80
BRANCH  68  91
ATOM     91  C   UNL A   1      45.495  30.265  28.388  1.00  0.00     0.023 A 
ATOM     92  C   UNL A   1      44.308  30.767  27.819  1.00  0.00     0.012 A 
ATOM     93  C   UNL A   1      46.718  30.868  28.057  1.00  0.00     0.148 A 
ATOM     94  C   UNL A   1      44.343  31.833  26.919  1.00  0.00     0.002 A 
ATOM     95  C   UNL A   1      46.746  31.956  27.193  1.00  0.00     0.091 A 
ATOM     96  F   UNL A   1      47.838  30.377  28.611  1.00  0.00    -0.205 F 
ATOM     97  C   UNL A   1      45.561  32.435  26.614  1.00  0.00     0.022 A 
BRANCH  95  98
ATOM     98  S   UNL A   1      48.264  32.847  26.849  1.00  0.00     0.127 S 
ATOM     99  O   UNL A   1      49.123  31.793  26.313  1.00  0.00    -0.237 OA
ATOM    100  O   UNL A   1      47.830  33.841  25.867  1.00  0.00    -0.237 OA
ATOM    101  O   UNL A   1      48.691  33.417  28.121  1.00  0.00    -0.744 OA
ENDBRANCH  95  98
ENDBRANCH  68  91
ENDBRANCH  42  43
ENDBRANCH  34  37
ENDBRANCH  32  33
ENDBRANCH  31  32
ENDBRANCH  30  31
ENDBRANCH   1  30
TORSDOF 19
ENDMDL
MODEL 2
REMARK VINA RESULT:     -11.4      9.122     15.272
REMARK SMILES Cc1nnc(SCC(=O)Nc2cccc(C(=O)NCCCCNC(=O)c3ccc(-c4c5nc(c(-c6cccc(S(=O)(=O)[O-])c6F)c6ccc([nH]6)c(-c6cccc(S(=O)(=O)[O-])c6F)c6nc(c(-c7cccc(S(=O)(=O)[O-])c7F)c7ccc4[nH]7)C=C6)C=C5)cc3)c2)n1-c1ccccc1
REMARK SMILES IDX 19 1 18 2 16 3 17 4 15 6 11 7 12 8 89 9 13 10 14 11 10 12
REMARK SMILES IDX 8 13 9 14 7 16 6 17 5 18 1 19 2 20 3 21 90 22 4 23 91 24
REMARK SMILES IDX 92 25 96 26 93 27 95 28 94 29 20 30 21 31 22 32 23 33 24 34
REMARK SMILES IDX 25 36 26 37 27 38 88 39 28 40 87 41 29 42 30 43 31 44 81 45
REMARK SMILES IDX 32 46 86 47 80 48 82 49 33 50 85 51 79 52 78 53 34 55 66 56
REMARK SMILES IDX 46 57 65 58 47 59 50 60 64 61 83 62 48 63 49 64 63 66 84 67
REMARK SMILES IDX 51 68 35 69 36 70 44 71 37 72 39 73 45 74 38 75 40 76 41 77
REMARK SMILES IDX 42 78 43 79 67 80 68 81 76 82 69 83 71 84 77 85 70 86 72 87
REMARK SMILES IDX 73 88 74 89 75 90 52 91 53 92 61 93 54 94 56 95 62 96 55 97
REMARK SMILES IDX 57 98 58 99 59 100 60 101
REMARK H PARENT 18 5 10 15 23 35 82 54 50 65
REMARK Flexibility Score: inf
ROOT
ATOM      1  C   UNL A   1      41.920  40.997  25.623  1.00  0.00     0.116 C 
ENDROOT
BRANCH   1   2
ATOM      2  N   UNL A   1      42.954  41.884  26.131  1.00  0.00    -0.352 N 
ATOM      3  C   UNL A   1      43.866  42.690  25.480  1.00  0.00     0.251 C 
ATOM      4  O   UNL A   1      44.751  43.221  26.150  1.00  0.00    -0.269 OA
ATOM      5  H   UNL A   1      43.013  41.917  27.113  1.00  0.00     0.163 HD
BRANCH   3   6
ATOM      6  C   UNL A   1      43.896  42.873  23.998  1.00  0.00     0.041 A 
ATOM      7  C   UNL A   1      42.835  43.082  21.831  1.00  0.00     0.041 A 
ATOM      8  C   UNL A   1      44.082  42.903  21.215  1.00  0.00     0.026 A 
ATOM      9  C   UNL A   1      42.762  43.145  23.221  1.00  0.00     0.040 A 
ATOM     10  C   UNL A   1      45.241  42.779  21.976  1.00  0.00     0.003 A 
ATOM     11  C   UNL A   1      45.143  42.745  23.364  1.00  0.00     0.014 A 
BRANCH   7  12
ATOM     12  N   UNL A   1      41.728  43.031  20.977  1.00  0.00    -0.325 N 
ATOM     13  C   UNL A   1      41.485  43.387  19.690  1.00  0.00     0.234 C 
ATOM     14  O   UNL A   1      40.286  43.454  19.391  1.00  0.00    -0.274 OA
ATOM     15  H   UNL A   1      40.936  42.645  21.414  1.00  0.00     0.169 HD
BRANCH  13  16
ATOM     16  C   UNL A   1      42.552  43.465  18.628  1.00  0.00     0.178 C 
BRANCH  16  17
ATOM     17  S   UNL A   1      43.051  45.056  17.976  1.00  0.00    -0.076 SA
BRANCH  17  18
ATOM     18  C   UNL A   1      44.675  45.415  18.443  1.00  0.00     0.196 A 
ATOM     19  C   UNL A   1      47.744  47.341  18.180  1.00  0.00     0.090 C 
ATOM     20  C   UNL A   1      46.654  46.358  18.362  1.00  0.00     0.135 A 
ATOM     21  N   UNL A   1      46.819  45.073  18.611  1.00  0.00    -0.134 NA
ATOM     22  N   UNL A   1      45.302  46.633  18.283  1.00  0.00    -0.274 N 
ATOM     23  N   UNL A   1      45.580  44.489  18.660  1.00  0.00    -0.123 NA
BRANCH  22  24
ATOM     24  C   UNL A   1      44.681  47.888  18.250  1.00  0.00     0.049 A 
ATOM     25  C   UNL A   1      44.325  48.404  17.003  1.00  0.00     0.027 A 
ATOM     26  C   UNL A   1      44.654  48.673  19.400  1.00  0.00     0.027 A 
ATOM     27  C   UNL A   1      44.040  49.761  16.886  1.00  0.00     0.002 A 
ATOM     28  C   UNL A   1      44.322  50.021  19.278  1.00  0.00     0.002 A 
ATOM     29  C   UNL A   1      44.049  50.570  18.020  1.00  0.00     0.000 A 
ENDBRANCH  22  24
ENDBRANCH  17  18
ENDBRANCH  16  17
ENDBRANCH  13  16
ENDBRANCH   7  12
ENDBRANCH   3   6
ENDBRANCH   1   2
BRANCH   1  30
ATOM     30  C   UNL A   1      41.370  39.994  26.644  1.00  0.00     0.023 C 
BRANCH  30  31
ATOM     31  C   UNL A   1      42.348  39.163  27.486  1.00  0.00     0.023 C 
BRANCH  31  32
ATOM     32  C   UNL A   1      42.964  37.916  26.856  1.00  0.00     0.116 C 
BRANCH  32  33
ATOM     33  N   UNL A   1      44.415  37.907  26.717  1.00  0.00    -0.352 N 
ATOM     34  C   UNL A   1      45.318  37.216  27.540  1.00  0.00     0.251 C 
ATOM     35  H   UNL A   1      44.797  38.435  25.978  1.00  0.00     0.163 HD
ATOM     36  O   UNL A   1      46.512  37.430  27.531  1.00  0.00    -0.269 OA
BRANCH  34  37
ATOM     37  C   UNL A   1      44.747  36.158  28.399  1.00  0.00     0.039 A 
ATOM     38  C   UNL A   1      44.323  36.397  29.712  1.00  0.00     0.014 A 
ATOM     39  C   UNL A   1      44.523  34.924  27.798  1.00  0.00     0.014 A 
ATOM     40  C   UNL A   1      43.552  35.425  30.362  1.00  0.00     0.010 A 
ATOM     41  C   UNL A   1      43.651  34.034  28.384  1.00  0.00     0.010 A 
ATOM     42  C   UNL A   1      43.174  34.257  29.676  1.00  0.00    -0.014 A 
BRANCH  42  43
ATOM     43  C   UNL A   1      42.158  33.345  30.227  1.00  0.00     0.031 A 
ATOM     44  C   UNL A   1      40.818  33.941  30.507  1.00  0.00     0.074 A 
ATOM     45  C   UNL A   1      42.285  31.996  30.225  1.00  0.00     0.049 A 
ATOM     46  N   UNL A   1      40.204  34.019  31.645  1.00  0.00    -0.248 NA
ATOM     47  C   UNL A   1      40.097  34.592  29.402  1.00  0.00     0.031 C 
ATOM     48  C   UNL A   1      43.404  31.214  29.681  1.00  0.00     0.029 A 
ATOM     49  N   UNL A   1      41.373  31.029  30.548  1.00  0.00    -0.354 N 
ATOM     50  C   UNL A   1      38.926  34.505  31.355  1.00  0.00     0.074 A 
ATOM     51  C   UNL A   1      38.985  35.012  30.011  1.00  0.00     0.031 C 
ATOM     52  C   UNL A   1      42.993  29.954  29.434  1.00  0.00     0.029 A 
ATOM     53  C   UNL A   1      41.672  29.784  30.007  1.00  0.00     0.049 A 
ATOM     54  H   UNL A   1      40.581  31.199  31.110  1.00  0.00     0.167 HD
ATOM     55  C   UNL A   1      37.859  34.193  32.144  1.00  0.00     0.034 A 
ATOM     56  C   UNL A   1      40.912  28.668  30.020  1.00  0.00     0.034 A 
ATOM     57  C   UNL A   1      38.278  33.576  33.375  1.00  0.00     0.049 A 
ATOM     58  C   UNL A   1      39.998  28.760  31.174  1.00  0.00     0.074 A 
ATOM     59  C   UNL A   1      38.848  33.949  34.570  1.00  0.00     0.029 A 
ATOM     60  N   UNL A   1      38.347  32.211  33.294  1.00  0.00    -0.354 N 
ATOM     61  N   UNL A   1      40.413  28.778  32.412  1.00  0.00    -0.248 NA
ATOM     62  C   UNL A   1      38.593  29.092  30.979  1.00  0.00     0.031 C 
ATOM     63  C   UNL A   1      39.433  32.767  35.116  1.00  0.00     0.029 A 
ATOM     64  C   UNL A   1      39.198  31.709  34.238  1.00  0.00     0.049 A 
ATOM     65  H   UNL A   1      37.851  31.665  32.643  1.00  0.00     0.167 HD
ATOM     66  C   UNL A   1      39.473  29.551  33.063  1.00  0.00     0.074 A 
ATOM     67  C   UNL A   1      38.295  29.525  32.208  1.00  0.00     0.031 C 
ATOM     68  C   UNL A   1      39.845  30.430  34.037  1.00  0.00     0.034 A 
BRANCH  55  69
ATOM     69  C   UNL A   1      36.421  33.982  31.682  1.00  0.00     0.023 A 
ATOM     70  C   UNL A   1      36.213  32.996  30.682  1.00  0.00     0.012 A 
ATOM     71  C   UNL A   1      35.356  34.882  31.908  1.00  0.00     0.148 A 
ATOM     72  C   UNL A   1      35.050  32.959  29.902  1.00  0.00     0.002 A 
ATOM     73  C   UNL A   1      34.172  34.796  31.175  1.00  0.00     0.091 A 
ATOM     74  F   UNL A   1      35.518  35.920  32.731  1.00  0.00    -0.205 F 
ATOM     75  C   UNL A   1      34.027  33.860  30.151  1.00  0.00     0.022 A 
BRANCH  73  76
ATOM     76  S   UNL A   1      32.805  35.922  31.480  1.00  0.00     0.127 S 
ATOM     77  O   UNL A   1      32.326  36.169  30.124  1.00  0.00    -0.237 OA
ATOM     78  O   UNL A   1      31.920  35.106  32.312  1.00  0.00    -0.237 OA
ATOM     79  O   UNL A   1      33.397  37.056  32.177  1.00  0.00    -0.744 OA
ENDBRANCH  73  76
ENDBRANCH  55  69
BRANCH  56  80
ATOM     80  C   UNL A   1      40.885  27.526  29.083  1.00  0.00     0.023 A 
ATOM     81  C   UNL A   1      39.952  27.508  28.029  1.00  0.00     0.012 A 
ATOM     82  C   UNL A   1      41.937  26.584  29.068  1.00  0.00     0.148 A 
ATOM     83  C   UNL A   1      40.088  26.610  26.966  1.00  0.00     0.002 A 
ATOM     84  C   UNL A   1      42.066  25.691  28.008  1.00  0.00     0.091 A 
ATOM     85  F   UNL A   1      42.850  26.625  30.048  1.00  0.00    -0.205 F 
ATOM     86  C   UNL A   1      41.149  25.711  26.948  1.00  0.00     0.022 A 
BRANCH  84  87
ATOM     87  S   UNL A   1      43.416  24.509  27.904  1.00  0.00     0.127 S 
ATOM     88  O   UNL A   1      43.193  23.687  29.095  1.00  0.00    -0.237 OA
ATOM     89  O   UNL A   1      43.131  23.839  26.638  1.00  0.00    -0.237 OA
ATOM     90  O   UNL A   1      44.635  25.305  27.947  1.00  0.00    -0.744 OA
ENDBRANCH  84  87
ENDBRANCH  56  80
BRANCH  68  91
ATOM     91  C   UNL A   1      41.149  30.192  34.741  1.00  0.00     0.023 A 
ATOM     92  C   UNL A   1      41.302  29.190  35.719  1.00  0.00     0.012 A 
ATOM     93  C   UNL A   1      42.276  30.920  34.329  1.00  0.00     0.148 A 
ATOM     94  C   UNL A   1      42.549  28.937  36.295  1.00  0.00     0.002 A 
ATOM     95  C   UNL A   1      43.523  30.638  34.873  1.00  0.00     0.091 A 
ATOM     96  F   UNL A   1      42.111  31.868  33.394  1.00  0.00    -0.205 F 
ATOM     97  C   UNL A   1      43.662  29.654  35.863  1.00  0.00     0.022 A 
BRANCH  95  98
ATOM     98  S   UNL A   1      45.013  31.444  34.281  1.00  0.00     0.127 S 
ATOM     99  O   UNL A   1      46.061  30.693  34.968  1.00  0.00    -0.237 OA
ATOM    100  O   UNL A   1      44.941  31.215  32.837  1.00  0.00    -0.237 OA
ATOM    101  O   UNL A   1      44.889  32.844  34.666  1.00  0.00    -0.744 OA
ENDBRANCH  95  98
ENDBRANCH  68  91
ENDBRANCH  42  43
ENDBRANCH  34  37
ENDBRANCH  32  33
ENDBRANCH  31  32
ENDBRANCH  30  31
ENDBRANCH   1  30
TORSDOF 19
ENDMDL
MODEL 3
REMARK VINA RESULT:     -11.4      3.308      9.147
REMARK SMILES Cc1nnc(SCC(=O)Nc2cccc(C(=O)NCCCCNC(=O)c3ccc(-c4c5nc(c(-c6cccc(S(=O)(=O)[O-])c6F)c6ccc([nH]6)c(-c6cccc(S(=O)(=O)[O-])c6F)c6nc(c(-c7cccc(S(=O)(=O)[O-])c7F)c7ccc4[nH]7)C=C6)C=C5)cc3)c2)n1-c1ccccc1
REMARK SMILES IDX 19 1 18 2 16 3 17 4 15 6 11 7 12 8 89 9 13 10 14 11 10 12
REMARK SMILES IDX 8 13 9 14 7 16 6 17 5 18 1 19 2 20 3 21 90 22 4 23 91 24
REMARK SMILES IDX 92 25 96 26 93 27 95 28 94 29 20 30 21 31 22 32 23 33 24 34
REMARK SMILES IDX 25 36 26 37 27 38 88 39 28 40 87 41 29 42 30 43 31 44 81 45
REMARK SMILES IDX 32 46 86 47 80 48 82 49 33 50 85 51 79 52 78 53 34 55 66 56
REMARK SMILES IDX 46 57 65 58 47 59 50 60 64 61 83 62 48 63 49 64 63 66 84 67
REMARK SMILES IDX 51 68 35 69 36 70 44 71 37 72 39 73 45 74 38 75 40 76 41 77
REMARK SMILES IDX 42 78 43 79 67 80 68 81 76 82 69 83 71 84 77 85 70 86 72 87
REMARK SMILES IDX 73 88 74 89 75 90 52 91 53 92 61 93 54 94 56 95 62 96 55 97
REMARK SMILES IDX 57 98 58 99 59 100 60 101
REMARK H PARENT 18 5 10 15 23 35 82 54 50 65
REMARK Flexibility Score: inf
ROOT
ATOM      1  C   UNL A   1      38.545  20.887  25.608  1.00  0.00     0.116 C 
ENDROOT
BRANCH   1   2
ATOM      2  N   UNL A   1      38.168  22.272  25.840  1.00  0.00    -0.352 N 
ATOM      3  C   UNL A   1      36.939  22.899  25.824  1.00  0.00     0.251 C 
ATOM      4  O   UNL A   1      36.914  24.127  25.892  1.00  0.00    -0.269 OA
ATOM      5  H   UNL A   1      38.924  22.868  26.046  1.00  0.00     0.163 HD
BRANCH   3   6
ATOM      6  C   UNL A   1      35.646  22.176  25.630  1.00  0.00     0.041 A 
ATOM      7  C   UNL A   1      33.275  21.862  26.009  1.00  0.00     0.041 A 
ATOM      8  C   UNL A   1      33.368  20.577  25.455  1.00  0.00     0.026 A 
ATOM      9  C   UNL A   1      34.400  22.683  26.020  1.00  0.00     0.040 A 
ATOM     10  C   UNL A   1      34.570  20.114  24.928  1.00  0.00     0.003 A 
ATOM     11  C   UNL A   1      35.709  20.905  25.034  1.00  0.00     0.014 A 
BRANCH   7  12
ATOM     12  N   UNL A   1      32.067  22.156  26.652  1.00  0.00    -0.325 N 
ATOM     13  C   UNL A   1      31.076  23.065  26.473  1.00  0.00     0.234 C 
ATOM     14  O   UNL A   1      30.314  23.193  27.441  1.00  0.00    -0.274 OA
ATOM     15  H   UNL A   1      31.896  21.560  27.416  1.00  0.00     0.169 HD
BRANCH  13  16
ATOM     16  C   UNL A   1      30.756  23.705  25.147  1.00  0.00     0.178 C 
BRANCH  16  17
ATOM     17  S   UNL A   1      30.706  25.489  25.002  1.00  0.00    -0.076 SA
BRANCH  17  18
ATOM     18  C   UNL A   1      32.049  26.056  24.076  1.00  0.00     0.196 A 
ATOM     19  C   UNL A   1      34.072  28.710  22.640  1.00  0.00     0.090 C 
ATOM     20  C   UNL A   1      33.331  27.486  23.017  1.00  0.00     0.135 A 
ATOM     21  N   UNL A   1      33.216  26.404  22.270  1.00  0.00    -0.134 NA
ATOM     22  N   UNL A   1      32.634  27.299  24.195  1.00  0.00    -0.274 N 
ATOM     23  N   UNL A   1      32.414  25.514  22.937  1.00  0.00    -0.123 NA
BRANCH  22  24
ATOM     24  C   UNL A   1      32.667  28.093  25.349  1.00  0.00     0.049 A 
ATOM     25  C   UNL A   1      31.748  29.139  25.443  1.00  0.00     0.027 A 
ATOM     26  C   UNL A   1      33.736  27.979  26.233  1.00  0.00     0.027 A 
ATOM     27  C   UNL A   1      31.963  30.151  26.373  1.00  0.00     0.002 A 
ATOM     28  C   UNL A   1      33.917  28.975  27.191  1.00  0.00     0.002 A 
ATOM     29  C   UNL A   1      33.053  30.074  27.239  1.00  0.00     0.000 A 
ENDBRANCH  22  24
ENDBRANCH  17  18
ENDBRANCH  16  17
ENDBRANCH  13  16
ENDBRANCH   7  12
ENDBRANCH   3   6
ENDBRANCH   1   2
BRANCH   1  30
ATOM     30  C   UNL A   1      39.992  20.540  25.980  1.00  0.00     0.023 C 
BRANCH  30  31
ATOM     31  C   UNL A   1      40.481  20.787  27.413  1.00  0.00     0.023 C 
BRANCH  31  32
ATOM     32  C   UNL A   1      41.270  22.063  27.697  1.00  0.00     0.116 C 
BRANCH  32  33
ATOM     33  N   UNL A   1      42.348  22.381  26.768  1.00  0.00    -0.352 N 
ATOM     34  C   UNL A   1      42.856  23.663  26.502  1.00  0.00     0.251 C 
ATOM     35  H   UNL A   1      42.758  21.628  26.283  1.00  0.00     0.163 HD
ATOM     36  O   UNL A   1      43.579  23.900  25.557  1.00  0.00    -0.269 OA
BRANCH  34  37
ATOM     37  C   UNL A   1      42.506  24.722  27.471  1.00  0.00     0.039 A 
ATOM     38  C   UNL A   1      43.258  24.969  28.626  1.00  0.00     0.014 A 
ATOM     39  C   UNL A   1      41.457  25.565  27.117  1.00  0.00     0.014 A 
ATOM     40  C   UNL A   1      43.028  26.149  29.345  1.00  0.00     0.010 A 
ATOM     41  C   UNL A   1      41.330  26.785  27.742  1.00  0.00     0.010 A 
ATOM     42  C   UNL A   1      42.090  27.085  28.873  1.00  0.00    -0.014 A 
BRANCH  42  43
ATOM     43  C   UNL A   1      42.009  28.438  29.447  1.00  0.00     0.031 A 
ATOM     44  C   UNL A   1      42.966  29.446  28.898  1.00  0.00     0.074 A 
ATOM     45  C   UNL A   1      40.973  28.867  30.205  1.00  0.00     0.049 A 
ATOM     46  N   UNL A   1      43.882  30.101  29.536  1.00  0.00    -0.248 NA
ATOM     47  C   UNL A   1      42.949  29.712  27.452  1.00  0.00     0.031 C 
ATOM     48  C   UNL A   1      39.770  28.105  30.573  1.00  0.00     0.029 A 
ATOM     49  N   UNL A   1      40.684  30.122  30.666  1.00  0.00    -0.354 N 
ATOM     50  C   UNL A   1      44.388  31.032  28.625  1.00  0.00     0.074 A 
ATOM     51  C   UNL A   1      43.919  30.621  27.329  1.00  0.00     0.031 C 
ATOM     52  C   UNL A   1      38.785  28.958  30.915  1.00  0.00     0.029 A 
ATOM     53  C   UNL A   1      39.347  30.291  31.008  1.00  0.00     0.049 A 
ATOM     54  H   UNL A   1      41.357  30.836  30.748  1.00  0.00     0.167 HD
ATOM     55  C   UNL A   1      44.914  32.217  29.047  1.00  0.00     0.034 A 
ATOM     56  C   UNL A   1      38.716  31.434  31.358  1.00  0.00     0.034 A 
ATOM     57  C   UNL A   1      45.109  32.226  30.473  1.00  0.00     0.049 A 
ATOM     58  C   UNL A   1      39.730  32.358  31.901  1.00  0.00     0.074 A 
ATOM     59  C   UNL A   1      45.982  31.695  31.394  1.00  0.00     0.029 A 
ATOM     60  N   UNL A   1      44.026  32.705  31.160  1.00  0.00    -0.354 N 
ATOM     61  N   UNL A   1      40.404  32.116  32.993  1.00  0.00    -0.248 NA
ATOM     62  C   UNL A   1      40.212  33.477  31.103  1.00  0.00     0.031 C 
ATOM     63  C   UNL A   1      45.291  31.703  32.644  1.00  0.00     0.029 A 
ATOM     64  C   UNL A   1      44.021  32.243  32.446  1.00  0.00     0.049 A 
ATOM     65  H   UNL A   1      43.343  33.302  30.779  1.00  0.00     0.167 HD
ATOM     66  C   UNL A   1      41.619  32.731  32.774  1.00  0.00     0.074 A 
ATOM     67  C   UNL A   1      41.369  33.713  31.728  1.00  0.00     0.031 C 
ATOM     68  C   UNL A   1      42.781  32.149  33.187  1.00  0.00     0.034 A 
BRANCH  55  69
ATOM     69  C   UNL A   1      44.834  33.555  28.319  1.00  0.00     0.023 A 
ATOM     70  C   UNL A   1      46.067  34.194  28.027  1.00  0.00     0.012 A 
ATOM     71  C   UNL A   1      43.673  34.352  28.213  1.00  0.00     0.148 A 
ATOM     72  C   UNL A   1      46.146  35.559  27.725  1.00  0.00     0.002 A 
ATOM     73  C   UNL A   1      43.752  35.695  27.844  1.00  0.00     0.091 A 
ATOM     74  F   UNL A   1      42.490  33.870  28.600  1.00  0.00    -0.205 F 
ATOM     75  C   UNL A   1      44.985  36.311  27.631  1.00  0.00     0.022 A 
BRANCH  73  76
ATOM     76  S   UNL A   1      42.273  36.704  27.680  1.00  0.00     0.127 S 
ATOM     77  O   UNL A   1      42.794  37.865  26.966  1.00  0.00    -0.237 OA
ATOM     78  O   UNL A   1      41.397  35.833  26.895  1.00  0.00    -0.237 OA
ATOM     79  O   UNL A   1      41.816  36.930  29.045  1.00  0.00    -0.744 OA
ENDBRANCH  73  76
ENDBRANCH  55  69
BRANCH  56  80
ATOM     80  C   UNL A   1      37.295  31.812  31.229  1.00  0.00     0.023 A 
ATOM     81  C   UNL A   1      36.499  31.949  32.383  1.00  0.00     0.012 A 
ATOM     82  C   UNL A   1      36.787  32.289  30.000  1.00  0.00     0.148 A 
ATOM     83  C   UNL A   1      35.255  32.583  32.326  1.00  0.00     0.002 A 
ATOM     84  C   UNL A   1      35.546  32.918  29.949  1.00  0.00     0.091 A 
ATOM     85  F   UNL A   1      37.558  32.198  28.908  1.00  0.00    -0.205 F 
ATOM     86  C   UNL A   1      34.783  33.079  31.114  1.00  0.00     0.022 A 
BRANCH  84  87
ATOM     87  S   UNL A   1      34.873  33.598  28.427  1.00  0.00     0.127 S 
ATOM     88  O   UNL A   1      33.435  33.390  28.612  1.00  0.00    -0.237 OA
ATOM     89  O   UNL A   1      35.303  34.991  28.505  1.00  0.00    -0.237 OA
ATOM     90  O   UNL A   1      35.457  32.805  27.355  1.00  0.00    -0.744 OA
ENDBRANCH  84  87
ENDBRANCH  56  80
BRANCH  68  91
ATOM     91  C   UNL A   1      42.709  31.142  34.297  1.00  0.00     0.023 A 
ATOM     92  C   UNL A   1      42.793  31.513  35.654  1.00  0.00     0.012 A 
ATOM     93  C   UNL A   1      42.441  29.804  33.972  1.00  0.00     0.148 A 
ATOM     94  C   UNL A   1      42.638  30.563  36.665  1.00  0.00     0.002 A 
ATOM     95  C   UNL A   1      42.245  28.868  34.981  1.00  0.00     0.091 A 
ATOM     96  F   UNL A   1      42.363  29.470  32.674  1.00  0.00    -0.205 F 
ATOM     97  C   UNL A   1      42.353  29.242  36.329  1.00  0.00     0.022 A 
BRANCH  95  98
ATOM     98  S   UNL A   1      41.765  27.178  34.618  1.00  0.00     0.127 S 
ATOM     99  O   UNL A   1      41.520  26.636  35.952  1.00  0.00    -0.237 OA
ATOM    100  O   UNL A   1      40.563  27.362  33.802  1.00  0.00    -0.237 OA
ATOM    101  O   UNL A   1      42.887  26.589  33.897  1.00  0.00    -0.744 OA
ENDBRANCH  95  98
ENDBRANCH  68  91
ENDBRANCH  42  43
ENDBRANCH  34  37
ENDBRANCH  32  33
ENDBRANCH  31  32
ENDBRANCH  30  31
ENDBRANCH   1  30
TORSDOF 19
ENDMDL
