MODEL 1
REMARK VINA RESULT:     -13.1      0.000      0.000
REMARK SMILES C[C@H]1CC[C@H]([NH2+]Cc2c(C(=O)NCCCCNC(=O)c3ccc(-c4c5nc(c(-c6cccc(S(=O)(=O)[O-])c6F)c6ccc([nH]6)c(-c6cccc(S(=O)(=O)[O-])c6F)c6nc(c(-c7cccc(S(=O)(=O)[O-])c7F)c7ccc4[nH]7)C=C6)C=C5)cc3)n(Cc3ccccc3F)c3ccccc23)CC1
REMARK SMILES IDX 14 1 13 2 12 3 10 4 11 5 9 7 8 8 97 9 83 10 92 11 96 12
REMARK SMILES IDX 93 13 95 14 94 15 7 16 6 17 5 20 1 21 2 22 3 23 99 24 4 25
REMARK SMILES IDX 98 26 84 27 85 28 86 29 90 30 87 31 89 32 91 33 88 34 15 35
REMARK SMILES IDX 16 36 17 37 18 38 19 40 20 41 21 42 82 43 22 44 81 45 23 46
REMARK SMILES IDX 24 47 25 48 75 49 26 50 80 51 74 52 76 53 27 54 79 55 73 56
REMARK SMILES IDX 72 57 28 59 60 60 40 61 59 62 41 63 44 64 58 65 77 66 42 67
REMARK SMILES IDX 43 68 57 70 78 71 45 72 29 73 30 74 38 75 31 76 33 77 39 78
REMARK SMILES IDX 32 79 34 80 35 81 36 82 37 83 61 84 62 85 70 86 63 87 65 88
REMARK SMILES IDX 71 89 64 90 66 91 67 92 68 93 69 94 46 95 47 96 55 97 48 98
REMARK SMILES IDX 50 99 56 100 49 101 51 102 52 103 53 104 54 105
REMARK H PARENT 12 6 6 18 6 19 17 39 76 58 44 69
REMARK Flexibility Score: inf
ROOT
ATOM      1  C   UNL A   1      32.658  29.393  27.217  1.00  0.00     0.023 C 
ENDROOT
BRANCH   1   2
ATOM      2  C   UNL A   1      32.650  27.870  27.250  1.00  0.00     0.116 C 
BRANCH   2   3
ATOM      3  N   UNL A   1      31.391  27.181  27.191  1.00  0.00    -0.351 N 
ATOM      4  C   UNL A   1      30.910  26.336  26.206  1.00  0.00     0.268 C 
ATOM      5  O   UNL A   1      29.864  25.759  26.506  1.00  0.00    -0.268 OA
ATOM      6  H   UNL A   1      30.788  27.330  27.956  1.00  0.00     0.163 HD
BRANCH   4   7
ATOM      7  C   UNL A   1      31.539  26.173  24.878  1.00  0.00     0.117 A 
ATOM      8  C   UNL A   1      31.838  27.055  23.819  1.00  0.00     0.045 A 
ATOM      9  C   UNL A   1      32.004  26.229  22.660  1.00  0.00     0.009 A 
ATOM     10  N   UNL A   1      32.181  24.970  24.476  1.00  0.00    -0.331 N 
ATOM     11  C   UNL A   1      32.478  25.014  23.118  1.00  0.00     0.049 A 
ATOM     12  C   UNL A   1      31.966  26.475  21.270  1.00  0.00     0.011 A 
ATOM     13  C   UNL A   1      33.128  24.122  22.246  1.00  0.00     0.027 A 
ATOM     14  C   UNL A   1      32.437  25.506  20.382  1.00  0.00     0.001 A 
ATOM     15  C   UNL A   1      33.056  24.364  20.871  1.00  0.00     0.002 A 
BRANCH   8  16
ATOM     16  C   UNL A   1      32.000  28.542  23.654  1.00  0.00     0.300 C 
BRANCH  16  17
ATOM     17  N   UNL A   1      30.964  29.402  24.194  1.00  0.00    -0.340 N 
ATOM     18  H   UNL A   1      30.607  28.916  25.018  1.00  0.00     0.346 HD
ATOM     19  H   UNL A   1      31.474  30.282  24.277  1.00  0.00     0.346 HD
BRANCH  17  20
ATOM     20  C   UNL A   1      29.783  29.844  23.456  1.00  0.00     0.182 C 
ATOM     21  C   UNL A   1      27.679  32.812  20.926  1.00  0.00     0.007 C 
ATOM     22  C   UNL A   1      28.718  32.001  21.685  1.00  0.00    -0.014 C 
ATOM     23  C   UNL A   1      28.722  30.534  21.243  1.00  0.00     0.009 C 
ATOM     24  C   UNL A   1      28.481  32.067  23.193  1.00  0.00     0.009 C 
ATOM     25  C   UNL A   1      29.862  29.790  21.930  1.00  0.00     0.065 C 
ATOM     26  C   UNL A   1      29.564  31.299  23.932  1.00  0.00     0.065 C 
ENDBRANCH  17  20
ENDBRANCH  16  17
ENDBRANCH   8  16
BRANCH  10  27
ATOM     27  C   UNL A   1      32.614  23.855  25.338  1.00  0.00     0.161 C 
BRANCH  27  28
ATOM     28  C   UNL A   1      34.055  23.432  25.163  1.00  0.00     0.008 A 
ATOM     29  C   UNL A   1      35.136  24.261  25.511  1.00  0.00     0.008 A 
ATOM     30  C   UNL A   1      34.366  22.148  24.712  1.00  0.00     0.128 A 
ATOM     31  C   UNL A   1      36.462  23.846  25.364  1.00  0.00     0.001 A 
ATOM     32  C   UNL A   1      35.687  21.726  24.549  1.00  0.00     0.039 A 
ATOM     33  F   UNL A   1      33.391  21.262  24.470  1.00  0.00    -0.207 F 
ATOM     34  C   UNL A   1      36.740  22.581  24.867  1.00  0.00     0.003 A 
ENDBRANCH  27  28
ENDBRANCH  10  27
ENDBRANCH   4   7
ENDBRANCH   2   3
ENDBRANCH   1   2
BRANCH   1  35
ATOM     35  C   UNL A   1      34.041  30.072  27.142  1.00  0.00     0.023 C 
BRANCH  35  36
ATOM     36  C   UNL A   1      34.182  31.497  27.703  1.00  0.00     0.116 C 
BRANCH  36  37
ATOM     37  N   UNL A   1      34.422  31.658  29.124  1.00  0.00    -0.352 N 
ATOM     38  C   UNL A   1      35.596  31.902  29.800  1.00  0.00     0.251 C 
ATOM     39  H   UNL A   1      33.622  31.580  29.694  1.00  0.00     0.163 HD
ATOM     40  O   UNL A   1      35.552  32.597  30.814  1.00  0.00    -0.269 OA
BRANCH  38  41
ATOM     41  C   UNL A   1      36.841  31.181  29.451  1.00  0.00     0.039 A 
ATOM     42  C   UNL A   1      36.910  29.798  29.311  1.00  0.00     0.014 A 
ATOM     43  C   UNL A   1      38.023  31.941  29.445  1.00  0.00     0.014 A 
ATOM     44  C   UNL A   1      38.128  29.162  29.406  1.00  0.00     0.010 A 
ATOM     45  C   UNL A   1      39.255  31.309  29.477  1.00  0.00     0.010 A 
ATOM     46  C   UNL A   1      39.291  29.920  29.542  1.00  0.00    -0.014 A 
BRANCH  46  47
ATOM     47  C   UNL A   1      40.531  29.168  29.635  1.00  0.00     0.031 A 
ATOM     48  C   UNL A   1      40.931  28.853  31.032  1.00  0.00     0.074 A 
ATOM     49  C   UNL A   1      41.222  28.766  28.554  1.00  0.00     0.049 A 
ATOM     50  N   UNL A   1      41.989  29.244  31.667  1.00  0.00    -0.248 NA
ATOM     51  C   UNL A   1      39.945  28.155  31.872  1.00  0.00     0.031 C 
ATOM     52  C   UNL A   1      40.797  28.799  27.153  1.00  0.00     0.029 A 
ATOM     53  N   UNL A   1      42.407  28.099  28.504  1.00  0.00    -0.354 N 
ATOM     54  C   UNL A   1      41.900  28.653  32.926  1.00  0.00     0.074 A 
ATOM     55  C   UNL A   1      40.560  28.147  33.055  1.00  0.00     0.031 C 
ATOM     56  C   UNL A   1      41.567  27.945  26.444  1.00  0.00     0.029 A 
ATOM     57  C   UNL A   1      42.600  27.409  27.312  1.00  0.00     0.049 A 
ATOM     58  H   UNL A   1      43.063  28.104  29.239  1.00  0.00     0.167 HD
ATOM     59  C   UNL A   1      42.999  28.409  33.688  1.00  0.00     0.034 A 
ATOM     60  C   UNL A   1      43.468  26.386  27.116  1.00  0.00     0.034 A 
ATOM     61  C   UNL A   1      44.135  29.177  33.268  1.00  0.00     0.049 A 
ATOM     62  C   UNL A   1      44.495  26.480  28.183  1.00  0.00     0.074 A 
ATOM     63  C   UNL A   1      44.419  30.523  33.172  1.00  0.00     0.029 A 
ATOM     64  N   UNL A   1      45.082  28.527  32.516  1.00  0.00    -0.354 N 
ATOM     65  N   UNL A   1      45.350  27.459  28.287  1.00  0.00    -0.248 NA
ATOM     66  C   UNL A   1      44.306  25.683  29.386  1.00  0.00     0.031 C 
ATOM     67  C   UNL A   1      45.222  30.643  32.002  1.00  0.00     0.029 A 
ATOM     68  C   UNL A   1      45.415  29.360  31.484  1.00  0.00     0.049 A 
ATOM     69  H   UNL A   1      45.452  27.631  32.688  1.00  0.00     0.167 HD
ATOM     70  C   UNL A   1      45.472  27.670  29.654  1.00  0.00     0.074 A 
ATOM     71  C   UNL A   1      44.893  26.483  30.278  1.00  0.00     0.031 C 
ATOM     72  C   UNL A   1      45.762  28.905  30.156  1.00  0.00     0.034 A 
BRANCH  59  73
ATOM     73  C   UNL A   1      43.144  27.210  34.587  1.00  0.00     0.023 A 
ATOM     74  C   UNL A   1      43.126  27.421  35.982  1.00  0.00     0.012 A 
ATOM     75  C   UNL A   1      43.569  25.943  34.129  1.00  0.00     0.148 A 
ATOM     76  C   UNL A   1      43.535  26.423  36.874  1.00  0.00     0.002 A 
ATOM     77  C   UNL A   1      43.895  24.930  35.020  1.00  0.00     0.091 A 
ATOM     78  F   UNL A   1      43.801  25.748  32.826  1.00  0.00    -0.205 F 
ATOM     79  C   UNL A   1      43.906  25.172  36.395  1.00  0.00     0.022 A 
BRANCH  77  80
ATOM     80  S   UNL A   1      44.339  23.288  34.443  1.00  0.00     0.127 S 
ATOM     81  O   UNL A   1      45.557  23.563  33.688  1.00  0.00    -0.237 OA
ATOM     82  O   UNL A   1      44.537  22.570  35.703  1.00  0.00    -0.237 OA
ATOM     83  O   UNL A   1      43.192  22.828  33.671  1.00  0.00    -0.744 OA
ENDBRANCH  77  80
ENDBRANCH  59  73
BRANCH  60  84
ATOM     84  C   UNL A   1      43.311  25.170  26.275  1.00  0.00     0.023 A 
ATOM     85  C   UNL A   1      44.217  24.944  25.217  1.00  0.00     0.012 A 
ATOM     86  C   UNL A   1      42.462  24.102  26.650  1.00  0.00     0.148 A 
ATOM     87  C   UNL A   1      44.303  23.695  24.588  1.00  0.00     0.002 A 
ATOM     88  C   UNL A   1      42.531  22.872  26.003  1.00  0.00     0.091 A 
ATOM     89  F   UNL A   1      41.654  24.247  27.706  1.00  0.00    -0.205 F 
ATOM     90  C   UNL A   1      43.463  22.657  24.982  1.00  0.00     0.022 A 
BRANCH  88  91
ATOM     91  S   UNL A   1      41.461  21.501  26.463  1.00  0.00     0.127 S 
ATOM     92  O   UNL A   1      42.004  20.402  25.662  1.00  0.00    -0.237 OA
ATOM     93  O   UNL A   1      41.703  21.393  27.897  1.00  0.00    -0.237 OA
ATOM     94  O   UNL A   1      40.116  21.909  26.072  1.00  0.00    -0.744 OA
ENDBRANCH  88  91
ENDBRANCH  60  84
BRANCH  72  95
ATOM     95  C   UNL A   1      46.212  29.982  29.208  1.00  0.00     0.023 A 
ATOM     96  C   UNL A   1      47.557  30.096  28.798  1.00  0.00     0.012 A 
ATOM     97  C   UNL A   1      45.220  30.701  28.523  1.00  0.00     0.148 A 
ATOM     98  C   UNL A   1      47.900  30.908  27.713  1.00  0.00     0.002 A 
ATOM     99  C   UNL A   1      45.559  31.467  27.417  1.00  0.00     0.091 A 
ATOM    100  F   UNL A   1      43.949  30.563  28.929  1.00  0.00    -0.205 F 
ATOM    101  C   UNL A   1      46.899  31.576  27.011  1.00  0.00     0.022 A 
BRANCH  99 102
ATOM    102  S   UNL A   1      44.310  32.234  26.382  1.00  0.00     0.127 S 
ATOM    103  O   UNL A   1      43.386  31.126  26.146  1.00  0.00    -0.237 OA
ATOM    104  O   UNL A   1      43.791  33.289  27.255  1.00  0.00    -0.237 OA
ATOM    105  O   UNL A   1      45.005  32.723  25.198  1.00  0.00    -0.744 OA
ENDBRANCH  99 102
ENDBRANCH  72  95
ENDBRANCH  46  47
ENDBRANCH  38  41
ENDBRANCH  36  37
ENDBRANCH  35  36
ENDBRANCH   1  35
TORSDOF 19
ENDMDL
MODEL 2
REMARK VINA RESULT:     -12.6      3.535      7.725
REMARK SMILES C[C@H]1CC[C@H]([NH2+]Cc2c(C(=O)NCCCCNC(=O)c3ccc(-c4c5nc(c(-c6cccc(S(=O)(=O)[O-])c6F)c6ccc([nH]6)c(-c6cccc(S(=O)(=O)[O-])c6F)c6nc(c(-c7cccc(S(=O)(=O)[O-])c7F)c7ccc4[nH]7)C=C6)C=C5)cc3)n(Cc3ccccc3F)c3ccccc23)CC1
REMARK SMILES IDX 14 1 13 2 12 3 10 4 11 5 9 7 8 8 97 9 83 10 92 11 96 12
REMARK SMILES IDX 93 13 95 14 94 15 7 16 6 17 5 20 1 21 2 22 3 23 99 24 4 25
REMARK SMILES IDX 98 26 84 27 85 28 86 29 90 30 87 31 89 32 91 33 88 34 15 35
REMARK SMILES IDX 16 36 17 37 18 38 19 40 20 41 21 42 82 43 22 44 81 45 23 46
REMARK SMILES IDX 24 47 25 48 75 49 26 50 80 51 74 52 76 53 27 54 79 55 73 56
REMARK SMILES IDX 72 57 28 59 60 60 40 61 59 62 41 63 44 64 58 65 77 66 42 67
REMARK SMILES IDX 43 68 57 70 78 71 45 72 29 73 30 74 38 75 31 76 33 77 39 78
REMARK SMILES IDX 32 79 34 80 35 81 36 82 37 83 61 84 62 85 70 86 63 87 65 88
REMARK SMILES IDX 71 89 64 90 66 91 67 92 68 93 69 94 46 95 47 96 55 97 48 98
REMARK SMILES IDX 50 99 56 100 49 101 51 102 52 103 53 104 54 105
REMARK H PARENT 12 6 6 18 6 19 17 39 76 58 44 69
REMARK Flexibility Score: inf
ROOT
ATOM      1  C   UNL A   1      30.734  26.272  26.290  1.00  0.00     0.023 C 
ENDROOT
BRANCH   1   2
ATOM      2  C   UNL A   1      30.776  24.764  26.078  1.00  0.00     0.116 C 
BRANCH   2   3
ATOM      3  N   UNL A   1      30.470  24.238  24.776  1.00  0.00    -0.351 N 
ATOM      4  C   UNL A   1      31.252  23.442  23.957  1.00  0.00     0.268 C 
ATOM      5  O   UNL A   1      30.663  23.007  22.969  1.00  0.00    -0.268 OA
ATOM      6  H   UNL A   1      29.584  24.474  24.419  1.00  0.00     0.163 HD
BRANCH   4   7
ATOM      7  C   UNL A   1      32.689  23.178  24.189  1.00  0.00     0.117 A 
ATOM      8  C   UNL A   1      33.854  23.971  24.136  1.00  0.00     0.045 A 
ATOM      9  C   UNL A   1      34.945  23.052  24.002  1.00  0.00     0.009 A 
ATOM     10  N   UNL A   1      33.165  21.959  24.744  1.00  0.00    -0.331 N 
ATOM     11  C   UNL A   1      34.550  21.891  24.640  1.00  0.00     0.049 A 
ATOM     12  C   UNL A   1      36.280  23.175  23.560  1.00  0.00     0.011 A 
ATOM     13  C   UNL A   1      35.500  20.940  25.054  1.00  0.00     0.027 A 
ATOM     14  C   UNL A   1      37.188  22.144  23.801  1.00  0.00     0.001 A 
ATOM     15  C   UNL A   1      36.812  21.061  24.584  1.00  0.00     0.002 A 
BRANCH   8  16
ATOM     16  C   UNL A   1      34.172  25.442  24.178  1.00  0.00     0.300 C 
BRANCH  16  17
ATOM     17  N   UNL A   1      34.169  26.173  22.926  1.00  0.00    -0.340 N 
ATOM     18  H   UNL A   1      35.127  26.500  22.797  1.00  0.00     0.346 HD
ATOM     19  H   UNL A   1      33.758  25.478  22.302  1.00  0.00     0.346 HD
BRANCH  17  20
ATOM     20  C   UNL A   1      33.319  27.327  22.640  1.00  0.00     0.182 C 
ATOM     21  C   UNL A   1      29.770  29.836  23.507  1.00  0.00     0.007 C 
ATOM     22  C   UNL A   1      30.910  28.832  23.569  1.00  0.00    -0.014 C 
ATOM     23  C   UNL A   1      32.274  29.517  23.422  1.00  0.00     0.009 C 
ATOM     24  C   UNL A   1      30.770  27.764  22.485  1.00  0.00     0.009 C 
ATOM     25  C   UNL A   1      33.389  28.497  23.622  1.00  0.00     0.065 C 
ATOM     26  C   UNL A   1      31.888  26.740  22.604  1.00  0.00     0.065 C 
ENDBRANCH  17  20
ENDBRANCH  16  17
ENDBRANCH   8  16
BRANCH  10  27
ATOM     27  C   UNL A   1      32.380  20.931  25.453  1.00  0.00     0.161 C 
BRANCH  27  28
ATOM     28  C   UNL A   1      32.583  19.516  24.958  1.00  0.00     0.008 A 
ATOM     29  C   UNL A   1      32.830  18.438  25.827  1.00  0.00     0.008 A 
ATOM     30  C   UNL A   1      32.453  19.216  23.601  1.00  0.00     0.128 A 
ATOM     31  C   UNL A   1      32.992  17.133  25.354  1.00  0.00     0.001 A 
ATOM     32  C   UNL A   1      32.625  17.917  23.116  1.00  0.00     0.039 A 
ATOM     33  F   UNL A   1      32.104  20.169  22.728  1.00  0.00    -0.207 F 
ATOM     34  C   UNL A   1      32.906  16.873  23.994  1.00  0.00     0.003 A 
ENDBRANCH  27  28
ENDBRANCH  10  27
ENDBRANCH   4   7
ENDBRANCH   2   3
ENDBRANCH   1   2
BRANCH   1  35
ATOM     35  C   UNL A   1      32.095  26.988  26.407  1.00  0.00     0.023 C 
BRANCH  35  36
ATOM     36  C   UNL A   1      32.339  27.889  27.630  1.00  0.00     0.116 C 
BRANCH  36  37
ATOM     37  N   UNL A   1      31.884  29.264  27.575  1.00  0.00    -0.352 N 
ATOM     38  C   UNL A   1      32.480  30.370  27.011  1.00  0.00     0.251 C 
ATOM     39  H   UNL A   1      31.016  29.434  28.008  1.00  0.00     0.163 HD
ATOM     40  O   UNL A   1      31.757  31.232  26.514  1.00  0.00    -0.269 OA
BRANCH  38  41
ATOM     41  C   UNL A   1      33.927  30.628  27.184  1.00  0.00     0.039 A 
ATOM     42  C   UNL A   1      34.899  29.637  27.084  1.00  0.00     0.014 A 
ATOM     43  C   UNL A   1      34.283  31.907  27.645  1.00  0.00     0.014 A 
ATOM     44  C   UNL A   1      36.137  29.834  27.653  1.00  0.00     0.010 A 
ATOM     45  C   UNL A   1      35.549  32.131  28.162  1.00  0.00     0.010 A 
ATOM     46  C   UNL A   1      36.437  31.064  28.237  1.00  0.00    -0.014 A 
BRANCH  46  47
ATOM     47  C   UNL A   1      37.765  31.185  28.814  1.00  0.00     0.031 A 
ATOM     48  C   UNL A   1      38.537  29.914  28.805  1.00  0.00     0.074 A 
ATOM     49  C   UNL A   1      38.256  32.351  29.273  1.00  0.00     0.049 A 
ATOM     50  N   UNL A   1      38.970  29.235  29.818  1.00  0.00    -0.248 NA
ATOM     51  C   UNL A   1      38.695  29.234  27.510  1.00  0.00     0.031 C 
ATOM     52  C   UNL A   1      37.693  33.691  29.103  1.00  0.00     0.029 A 
ATOM     53  N   UNL A   1      39.456  32.590  29.870  1.00  0.00    -0.354 N 
ATOM     54  C   UNL A   1      39.648  28.149  29.269  1.00  0.00     0.074 A 
ATOM     55  C   UNL A   1      39.302  28.105  27.873  1.00  0.00     0.031 C 
ATOM     56  C   UNL A   1      38.663  34.603  29.330  1.00  0.00     0.029 A 
ATOM     57  C   UNL A   1      39.864  33.915  29.771  1.00  0.00     0.049 A 
ATOM     58  H   UNL A   1      39.983  31.893  30.325  1.00  0.00     0.167 HD
ATOM     59  C   UNL A   1      40.633  27.498  29.942  1.00  0.00     0.034 A 
ATOM     60  C   UNL A   1      41.132  34.372  29.924  1.00  0.00     0.034 A 
ATOM     61  C   UNL A   1      40.593  27.757  31.352  1.00  0.00     0.049 A 
ATOM     62  C   UNL A   1      41.871  33.342  30.695  1.00  0.00     0.074 A 
ATOM     63  C   UNL A   1      39.672  27.542  32.357  1.00  0.00     0.029 A 
ATOM     64  N   UNL A   1      41.495  28.668  31.844  1.00  0.00    -0.354 N 
ATOM     65  N   UNL A   1      41.612  33.035  31.936  1.00  0.00    -0.248 NA
ATOM     66  C   UNL A   1      42.643  32.357  29.954  1.00  0.00     0.031 C 
ATOM     67  C   UNL A   1      39.797  28.673  33.212  1.00  0.00     0.029 A 
ATOM     68  C   UNL A   1      40.814  29.484  32.703  1.00  0.00     0.049 A 
ATOM     69  H   UNL A   1      42.452  28.722  31.619  1.00  0.00     0.167 HD
ATOM     70  C   UNL A   1      41.801  31.661  32.000  1.00  0.00     0.074 A 
ATOM     71  C   UNL A   1      42.535  31.318  30.786  1.00  0.00     0.031 C 
ATOM     72  C   UNL A   1      41.096  30.891  32.879  1.00  0.00     0.034 A 
BRANCH  59  73
ATOM     73  C   UNL A   1      41.851  26.910  29.281  1.00  0.00     0.023 A 
ATOM     74  C   UNL A   1      42.950  27.760  29.039  1.00  0.00     0.012 A 
ATOM     75  C   UNL A   1      41.856  25.648  28.645  1.00  0.00     0.148 A 
ATOM     76  C   UNL A   1      43.992  27.379  28.187  1.00  0.00     0.002 A 
ATOM     77  C   UNL A   1      42.931  25.241  27.866  1.00  0.00     0.091 A 
ATOM     78  F   UNL A   1      40.759  24.884  28.670  1.00  0.00    -0.205 F 
ATOM     79  C   UNL A   1      43.991  26.113  27.611  1.00  0.00     0.022 A 
BRANCH  77  80
ATOM     80  S   UNL A   1      42.986  23.600  27.139  1.00  0.00     0.127 S 
ATOM     81  O   UNL A   1      41.916  23.682  26.150  1.00  0.00    -0.237 OA
ATOM     82  O   UNL A   1      44.342  23.562  26.587  1.00  0.00    -0.237 OA
ATOM     83  O   UNL A   1      42.771  22.680  28.249  1.00  0.00    -0.744 OA
ENDBRANCH  77  80
ENDBRANCH  59  73
BRANCH  60  84
ATOM     84  C   UNL A   1      41.826  35.471  29.203  1.00  0.00     0.023 A 
ATOM     85  C   UNL A   1      41.351  35.870  27.936  1.00  0.00     0.012 A 
ATOM     86  C   UNL A   1      42.773  36.307  29.841  1.00  0.00     0.148 A 
ATOM     87  C   UNL A   1      41.768  37.071  27.348  1.00  0.00     0.002 A 
ATOM     88  C   UNL A   1      43.206  37.485  29.241  1.00  0.00     0.091 A 
ATOM     89  F   UNL A   1      43.178  36.010  31.081  1.00  0.00    -0.205 F 
ATOM     90  C   UNL A   1      42.694  37.881  28.001  1.00  0.00     0.022 A 
BRANCH  88  91
ATOM     91  S   UNL A   1      44.410  38.562  30.033  1.00  0.00     0.127 S 
ATOM     92  O   UNL A   1      45.582  37.691  30.137  1.00  0.00    -0.237 OA
ATOM     93  O   UNL A   1      44.535  39.646  29.065  1.00  0.00    -0.237 OA
ATOM     94  O   UNL A   1      43.824  38.920  31.320  1.00  0.00    -0.744 OA
ENDBRANCH  88  91
ENDBRANCH  60  84
BRANCH  72  95
ATOM     95  C   UNL A   1      40.307  31.571  33.964  1.00  0.00     0.023 A 
ATOM     96  C   UNL A   1      40.921  32.050  35.140  1.00  0.00     0.012 A 
ATOM     97  C   UNL A   1      38.995  31.967  33.661  1.00  0.00     0.148 A 
ATOM     98  C   UNL A   1      40.235  32.920  35.992  1.00  0.00     0.002 A 
ATOM     99  C   UNL A   1      38.336  32.869  34.484  1.00  0.00     0.091 A 
ATOM    100  F   UNL A   1      38.443  31.504  32.529  1.00  0.00    -0.205 F 
ATOM    101  C   UNL A   1      38.951  33.345  35.654  1.00  0.00     0.022 A 
BRANCH  99 102
ATOM    102  S   UNL A   1      36.746  33.568  34.036  1.00  0.00     0.127 S 
ATOM    103  O   UNL A   1      36.115  33.754  35.342  1.00  0.00    -0.237 OA
ATOM    104  O   UNL A   1      37.133  34.809  33.361  1.00  0.00    -0.237 OA
ATOM    105  O   UNL A   1      36.099  32.591  33.170  1.00  0.00    -0.744 OA
ENDBRANCH  99 102
ENDBRANCH  72  95
ENDBRANCH  46  47
ENDBRANCH  38  41
ENDBRANCH  36  37
ENDBRANCH  35  36
ENDBRANCH   1  35
TORSDOF 19
ENDMDL
MODEL 3
REMARK VINA RESULT:     -12.5      2.641      3.772
REMARK SMILES C[C@H]1CC[C@H]([NH2+]Cc2c(C(=O)NCCCCNC(=O)c3ccc(-c4c5nc(c(-c6cccc(S(=O)(=O)[O-])c6F)c6ccc([nH]6)c(-c6cccc(S(=O)(=O)[O-])c6F)c6nc(c(-c7cccc(S(=O)(=O)[O-])c7F)c7ccc4[nH]7)C=C6)C=C5)cc3)n(Cc3ccccc3F)c3ccccc23)CC1
REMARK SMILES IDX 14 1 13 2 12 3 10 4 11 5 9 7 8 8 97 9 83 10 92 11 96 12
REMARK SMILES IDX 93 13 95 14 94 15 7 16 6 17 5 20 1 21 2 22 3 23 99 24 4 25
REMARK SMILES IDX 98 26 84 27 85 28 86 29 90 30 87 31 89 32 91 33 88 34 15 35
REMARK SMILES IDX 16 36 17 37 18 38 19 40 20 41 21 42 82 43 22 44 81 45 23 46
REMARK SMILES IDX 24 47 25 48 75 49 26 50 80 51 74 52 76 53 27 54 79 55 73 56
REMARK SMILES IDX 72 57 28 59 60 60 40 61 59 62 41 63 44 64 58 65 77 66 42 67
REMARK SMILES IDX 43 68 57 70 78 71 45 72 29 73 30 74 38 75 31 76 33 77 39 78
REMARK SMILES IDX 32 79 34 80 35 81 36 82 37 83 61 84 62 85 70 86 63 87 65 88
REMARK SMILES IDX 71 89 64 90 66 91 67 92 68 93 69 94 46 95 47 96 55 97 48 98
REMARK SMILES IDX 50 99 56 100 49 101 51 102 52 103 53 104 54 105
REMARK H PARENT 12 6 6 18 6 19 17 39 76 58 44 69
REMARK Flexibility Score: inf
ROOT
ATOM      1  C   UNL A   1      31.001  26.748  26.234  1.00  0.00     0.023 C 
ENDROOT
BRANCH   1   2
ATOM      2  C   UNL A   1      30.927  25.229  26.143  1.00  0.00     0.116 C 
BRANCH   2   3
ATOM      3  N   UNL A   1      30.544  24.627  24.896  1.00  0.00    -0.351 N 
ATOM      4  C   UNL A   1      31.254  23.738  24.107  1.00  0.00     0.268 C 
ATOM      5  O   UNL A   1      30.605  23.263  23.176  1.00  0.00    -0.268 OA
ATOM      6  H   UNL A   1      29.655  24.880  24.556  1.00  0.00     0.163 HD
BRANCH   4   7
ATOM      7  C   UNL A   1      32.686  23.423  24.303  1.00  0.00     0.117 A 
ATOM      8  C   UNL A   1      33.871  24.188  24.283  1.00  0.00     0.045 A 
ATOM      9  C   UNL A   1      34.935  23.251  24.077  1.00  0.00     0.009 A 
ATOM     10  N   UNL A   1      33.136  22.160  24.773  1.00  0.00    -0.331 N 
ATOM     11  C   UNL A   1      34.517  22.063  24.646  1.00  0.00     0.049 A 
ATOM     12  C   UNL A   1      36.268  23.368  23.625  1.00  0.00     0.011 A 
ATOM     13  C   UNL A   1      35.447  21.064  24.987  1.00  0.00     0.027 A 
ATOM     14  C   UNL A   1      37.151  22.300  23.789  1.00  0.00     0.001 A 
ATOM     15  C   UNL A   1      36.755  21.180  24.507  1.00  0.00     0.002 A 
BRANCH   8  16
ATOM     16  C   UNL A   1      34.229  25.644  24.413  1.00  0.00     0.300 C 
BRANCH  16  17
ATOM     17  N   UNL A   1      33.711  26.562  23.417  1.00  0.00    -0.340 N 
ATOM     18  H   UNL A   1      34.376  27.336  23.385  1.00  0.00     0.346 HD
ATOM     19  H   UNL A   1      33.592  25.932  22.623  1.00  0.00     0.346 HD
BRANCH  17  20
ATOM     20  C   UNL A   1      32.389  27.183  23.467  1.00  0.00     0.182 C 
ATOM     21  C   UNL A   1      29.485  30.237  22.096  1.00  0.00     0.007 C 
ATOM     22  C   UNL A   1      30.673  29.299  22.239  1.00  0.00    -0.014 C 
ATOM     23  C   UNL A   1      30.233  27.831  22.271  1.00  0.00     0.009 C 
ATOM     24  C   UNL A   1      31.474  29.606  23.504  1.00  0.00     0.009 C 
ATOM     25  C   UNL A   1      31.458  26.923  22.283  1.00  0.00     0.065 C 
ATOM     26  C   UNL A   1      32.688  28.695  23.595  1.00  0.00     0.065 C 
ENDBRANCH  17  20
ENDBRANCH  16  17
ENDBRANCH   8  16
BRANCH  10  27
ATOM     27  C   UNL A   1      32.333  21.110  25.427  1.00  0.00     0.161 C 
BRANCH  27  28
ATOM     28  C   UNL A   1      32.534  19.715  24.879  1.00  0.00     0.008 A 
ATOM     29  C   UNL A   1      32.830  18.614  25.701  1.00  0.00     0.008 A 
ATOM     30  C   UNL A   1      32.355  19.456  23.519  1.00  0.00     0.128 A 
ATOM     31  C   UNL A   1      32.991  17.327  25.181  1.00  0.00     0.001 A 
ATOM     32  C   UNL A   1      32.525  18.176  22.985  1.00  0.00     0.039 A 
ATOM     33  F   UNL A   1      31.959  20.432  22.692  1.00  0.00    -0.207 F 
ATOM     34  C   UNL A   1      32.854  17.109  23.817  1.00  0.00     0.003 A 
ENDBRANCH  27  28
ENDBRANCH  10  27
ENDBRANCH   4   7
ENDBRANCH   2   3
ENDBRANCH   1   2
BRANCH   1  35
ATOM     35  C   UNL A   1      31.845  27.327  27.388  1.00  0.00     0.023 C 
BRANCH  35  36
ATOM     36  C   UNL A   1      32.946  28.343  27.044  1.00  0.00     0.116 C 
BRANCH  36  37
ATOM     37  N   UNL A   1      32.900  29.650  27.671  1.00  0.00    -0.352 N 
ATOM     38  C   UNL A   1      33.771  30.710  27.567  1.00  0.00     0.251 C 
ATOM     39  H   UNL A   1      32.128  29.801  28.262  1.00  0.00     0.163 HD
ATOM     40  O   UNL A   1      33.311  31.850  27.618  1.00  0.00    -0.269 OA
BRANCH  38  41
ATOM     41  C   UNL A   1      35.236  30.501  27.612  1.00  0.00     0.039 A 
ATOM     42  C   UNL A   1      35.839  29.263  27.412  1.00  0.00     0.014 A 
ATOM     43  C   UNL A   1      36.009  31.589  28.054  1.00  0.00     0.014 A 
ATOM     44  C   UNL A   1      37.120  29.045  27.870  1.00  0.00     0.010 A 
ATOM     45  C   UNL A   1      37.320  31.390  28.457  1.00  0.00     0.010 A 
ATOM     46  C   UNL A   1      37.835  30.098  28.438  1.00  0.00    -0.014 A 
BRANCH  46  47
ATOM     47  C   UNL A   1      39.177  29.781  28.895  1.00  0.00     0.031 A 
ATOM     48  C   UNL A   1      39.471  30.269  30.268  1.00  0.00     0.074 A 
ATOM     49  C   UNL A   1      40.051  29.075  28.153  1.00  0.00     0.049 A 
ATOM     50  N   UNL A   1      40.355  31.139  30.634  1.00  0.00    -0.248 NA
ATOM     51  C   UNL A   1      38.548  29.857  31.338  1.00  0.00     0.031 C 
ATOM     52  C   UNL A   1      39.789  28.340  26.914  1.00  0.00     0.029 A 
ATOM     53  N   UNL A   1      41.340  28.749  28.442  1.00  0.00    -0.354 N 
ATOM     54  C   UNL A   1      40.240  31.219  32.021  1.00  0.00     0.074 A 
ATOM     55  C   UNL A   1      39.015  30.552  32.375  1.00  0.00     0.031 C 
ATOM     56  C   UNL A   1      40.783  27.447  26.719  1.00  0.00     0.029 A 
ATOM     57  C   UNL A   1      41.794  27.636  27.744  1.00  0.00     0.049 A 
ATOM     58  H   UNL A   1      41.895  29.250  29.083  1.00  0.00     0.167 HD
ATOM     59  C   UNL A   1      41.271  31.620  32.809  1.00  0.00     0.034 A 
ATOM     60  C   UNL A   1      42.860  26.866  28.079  1.00  0.00     0.034 A 
ATOM     61  C   UNL A   1      42.279  32.325  32.071  1.00  0.00     0.049 A 
ATOM     62  C   UNL A   1      43.722  27.684  28.967  1.00  0.00     0.074 A 
ATOM     63  C   UNL A   1      42.309  33.487  31.328  1.00  0.00     0.029 A 
ATOM     64  N   UNL A   1      43.412  31.625  31.739  1.00  0.00    -0.354 N 
ATOM     65  N   UNL A   1      44.356  28.756  28.581  1.00  0.00    -0.248 NA
ATOM     66  C   UNL A   1      43.554  27.539  30.405  1.00  0.00     0.031 C 
ATOM     67  C   UNL A   1      43.200  33.208  30.254  1.00  0.00     0.029 A 
ATOM     68  C   UNL A   1      43.694  31.913  30.433  1.00  0.00     0.049 A 
ATOM     69  H   UNL A   1      43.925  31.027  32.331  1.00  0.00     0.167 HD
ATOM     70  C   UNL A   1      44.280  29.615  29.669  1.00  0.00     0.074 A 
ATOM     71  C   UNL A   1      43.873  28.776  30.792  1.00  0.00     0.031 C 
ATOM     72  C   UNL A   1      44.269  30.969  29.501  1.00  0.00     0.034 A 
BRANCH  59  73
ATOM     73  C   UNL A   1      41.541  31.063  34.181  1.00  0.00     0.023 A 
ATOM     74  C   UNL A   1      41.812  31.972  35.225  1.00  0.00     0.012 A 
ATOM     75  C   UNL A   1      41.810  29.697  34.426  1.00  0.00     0.148 A 
ATOM     76  C   UNL A   1      42.347  31.543  36.445  1.00  0.00     0.002 A 
ATOM     77  C   UNL A   1      42.263  29.266  35.665  1.00  0.00     0.091 A 
ATOM     78  F   UNL A   1      41.767  28.819  33.419  1.00  0.00    -0.205 F 
ATOM     79  C   UNL A   1      42.559  30.187  36.671  1.00  0.00     0.022 A 
BRANCH  77  80
ATOM     80  S   UNL A   1      42.510  27.521  36.011  1.00  0.00     0.127 S 
ATOM     81  O   UNL A   1      41.174  26.984  35.775  1.00  0.00    -0.237 OA
ATOM     82  O   UNL A   1      43.513  27.156  35.010  1.00  0.00    -0.237 OA
ATOM     83  O   UNL A   1      42.994  27.465  37.384  1.00  0.00    -0.744 OA
ENDBRANCH  77  80
ENDBRANCH  59  73
BRANCH  60  84
ATOM     84  C   UNL A   1      43.034  25.396  27.942  1.00  0.00     0.023 A 
ATOM     85  C   UNL A   1      42.074  24.533  28.511  1.00  0.00     0.012 A 
ATOM     86  C   UNL A   1      43.972  24.831  27.046  1.00  0.00     0.148 A 
ATOM     87  C   UNL A   1      42.023  23.175  28.170  1.00  0.00     0.002 A 
ATOM     88  C   UNL A   1      43.936  23.476  26.732  1.00  0.00     0.091 A 
ATOM     89  F   UNL A   1      44.840  25.631  26.416  1.00  0.00    -0.205 F 
ATOM     90  C   UNL A   1      42.952  22.646  27.279  1.00  0.00     0.022 A 
BRANCH  88  91
ATOM     91  S   UNL A   1      45.120  22.738  25.596  1.00  0.00     0.127 S 
ATOM     92  O   UNL A   1      44.739  21.324  25.628  1.00  0.00    -0.237 OA
ATOM     93  O   UNL A   1      44.815  23.426  24.347  1.00  0.00    -0.237 OA
ATOM     94  O   UNL A   1      46.433  23.009  26.171  1.00  0.00    -0.744 OA
ENDBRANCH  88  91
ENDBRANCH  60  84
BRANCH  72  95
ATOM     95  C   UNL A   1      44.609  31.532  28.148  1.00  0.00     0.023 A 
ATOM     96  C   UNL A   1      43.609  31.880  27.216  1.00  0.00     0.012 A 
ATOM     97  C   UNL A   1      45.928  31.965  27.938  1.00  0.00     0.148 A 
ATOM     98  C   UNL A   1      43.924  32.658  26.098  1.00  0.00     0.002 A 
ATOM     99  C   UNL A   1      46.226  32.777  26.853  1.00  0.00     0.091 A 
ATOM    100  F   UNL A   1      46.854  31.628  28.848  1.00  0.00    -0.205 F 
ATOM    101  C   UNL A   1      45.227  33.122  25.927  1.00  0.00     0.022 A 
BRANCH  99 102
ATOM    102  S   UNL A   1      47.842  33.528  26.652  1.00  0.00     0.127 S 
ATOM    103  O   UNL A   1      48.709  32.358  26.523  1.00  0.00    -0.237 OA
ATOM    104  O   UNL A   1      47.672  34.302  25.420  1.00  0.00    -0.237 OA
ATOM    105  O   UNL A   1      48.068  34.337  27.843  1.00  0.00    -0.744 OA
ENDBRANCH  99 102
ENDBRANCH  72  95
ENDBRANCH  46  47
ENDBRANCH  38  41
ENDBRANCH  36  37
ENDBRANCH  35  36
ENDBRANCH   1  35
TORSDOF 19
ENDMDL
