MODEL 1
REMARK VINA RESULT:     -12.1      0.000      0.000
REMARK SMILES O=C(NCCCCNC(=O)[C@H]1C=C[C@@H](NC(=O)[C@@H]2CSC[NH2+]2)C1)c1ccc(-c2c3nc(c(-c4cccc(S(=O)(=O)[O-])c4F)c4ccc([nH]4)c(-c4cccc(S(=O)(=O)[O-])c4F)c4nc(c(-c5cccc(S(=O)(=O)[O-])c5F)c5ccc2[nH]5)C=C4)C=C3)cc1
REMARK SMILES IDX 5 1 4 2 3 3 1 4 2 5 24 7 25 8 86 9 26 10 85 11 27 12 28 13
REMARK SMILES IDX 29 14 79 15 30 16 84 17 78 18 80 19 31 20 83 21 77 22 76 23
REMARK SMILES IDX 32 25 64 26 44 27 63 28 45 29 48 30 62 31 81 32 46 33 47 34
REMARK SMILES IDX 61 36 82 37 49 38 33 39 34 40 42 41 35 42 37 43 43 44 36 45
REMARK SMILES IDX 38 46 39 47 40 48 41 49 65 50 66 51 74 52 67 53 69 54 75 55
REMARK SMILES IDX 68 56 70 57 71 58 72 59 73 60 50 61 51 62 59 63 52 64 54 65
REMARK SMILES IDX 60 66 53 67 55 68 56 69 57 70 58 71 6 72 7 73 8 74 9 75
REMARK SMILES IDX 10 77 11 78 12 79 23 80 13 81 14 82 15 83 16 84 17 86 18 87
REMARK SMILES IDX 19 88 22 89 20 90 21 91
REMARK H PARENT 3 6 80 24 48 35 8 76 15 85 22 92 22 93
REMARK Flexibility Score: inf
ROOT
ATOM      1  C   UNL A   1      31.674  28.980  26.650  1.00  0.00     0.023 C 
ENDROOT
BRANCH   1   2
ATOM      2  C   UNL A   1      32.594  30.043  26.071  1.00  0.00     0.116 C 
BRANCH   2   3
ATOM      3  N   UNL A   1      32.270  31.397  26.496  1.00  0.00    -0.352 N 
ATOM      4  O   UNL A   1      32.585  33.327  27.627  1.00  0.00    -0.269 OA
ATOM      5  C   UNL A   1      33.024  32.237  27.287  1.00  0.00     0.251 C 
ATOM      6  H   UNL A   1      31.409  31.755  26.182  1.00  0.00     0.163 HD
BRANCH   5   7
ATOM      7  C   UNL A   1      34.345  31.766  27.756  1.00  0.00     0.039 A 
ATOM      8  C   UNL A   1      34.537  30.420  28.075  1.00  0.00     0.014 A 
ATOM      9  C   UNL A   1      35.365  32.696  27.963  1.00  0.00     0.014 A 
ATOM     10  C   UNL A   1      35.680  30.039  28.764  1.00  0.00     0.010 A 
ATOM     11  C   UNL A   1      36.554  32.290  28.575  1.00  0.00     0.010 A 
ATOM     12  C   UNL A   1      36.698  30.969  29.030  1.00  0.00    -0.014 A 
BRANCH  12  13
ATOM     13  C   UNL A   1      37.910  30.521  29.763  1.00  0.00     0.031 A 
ATOM     14  C   UNL A   1      38.147  30.914  31.197  1.00  0.00     0.074 A 
ATOM     15  C   UNL A   1      38.785  29.719  29.127  1.00  0.00     0.049 A 
ATOM     16  N   UNL A   1      39.115  30.548  31.997  1.00  0.00    -0.248 NA
ATOM     17  C   UNL A   1      37.183  31.842  31.813  1.00  0.00     0.031 C 
ATOM     18  C   UNL A   1      38.682  29.309  27.725  1.00  0.00     0.029 A 
ATOM     19  N   UNL A   1      39.921  29.094  29.575  1.00  0.00    -0.354 N 
ATOM     20  C   UNL A   1      38.911  31.235  33.188  1.00  0.00     0.074 A 
ATOM     21  C   UNL A   1      37.724  32.041  33.009  1.00  0.00     0.031 C 
ATOM     22  C   UNL A   1      39.682  28.464  27.440  1.00  0.00     0.029 A 
ATOM     23  C   UNL A   1      40.524  28.307  28.622  1.00  0.00     0.049 A 
ATOM     24  H   UNL A   1      40.269  29.196  30.489  1.00  0.00     0.167 HD
ATOM     25  C   UNL A   1      39.637  31.184  34.330  1.00  0.00     0.034 A 
ATOM     26  C   UNL A   1      41.627  27.540  28.689  1.00  0.00     0.034 A 
ATOM     27  C   UNL A   1      40.779  30.331  34.525  1.00  0.00     0.049 A 
ATOM     28  C   UNL A   1      42.370  27.450  29.991  1.00  0.00     0.074 A 
ATOM     29  C   UNL A   1      41.538  30.156  35.670  1.00  0.00     0.029 A 
ATOM     30  N   UNL A   1      41.328  29.507  33.554  1.00  0.00    -0.354 N 
ATOM     31  N   UNL A   1      42.084  28.009  31.142  1.00  0.00    -0.248 NA
ATOM     32  C   UNL A   1      43.570  26.604  30.013  1.00  0.00     0.031 C 
ATOM     33  C   UNL A   1      42.549  29.230  35.388  1.00  0.00     0.029 A 
ATOM     34  C   UNL A   1      42.415  28.823  34.070  1.00  0.00     0.049 A 
ATOM     35  H   UNL A   1      40.993  29.422  32.632  1.00  0.00     0.167 HD
ATOM     36  C   UNL A   1      43.054  27.566  32.030  1.00  0.00     0.074 A 
ATOM     37  C   UNL A   1      43.919  26.668  31.291  1.00  0.00     0.031 C 
ATOM     38  C   UNL A   1      43.229  27.891  33.335  1.00  0.00     0.034 A 
BRANCH  25  39
ATOM     39  C   UNL A   1      39.191  32.039  35.488  1.00  0.00     0.023 A 
ATOM     40  C   UNL A   1      38.310  31.503  36.448  1.00  0.00     0.012 A 
ATOM     41  C   UNL A   1      39.699  33.341  35.667  1.00  0.00     0.148 A 
ATOM     42  C   UNL A   1      37.923  32.257  37.556  1.00  0.00     0.002 A 
ATOM     43  C   UNL A   1      39.336  34.074  36.792  1.00  0.00     0.091 A 
ATOM     44  F   UNL A   1      40.515  33.845  34.730  1.00  0.00    -0.205 F 
ATOM     45  C   UNL A   1      38.444  33.536  37.734  1.00  0.00     0.022 A 
BRANCH  43  46
ATOM     46  S   UNL A   1      40.015  35.701  37.137  1.00  0.00     0.127 S 
ATOM     47  O   UNL A   1      41.440  35.405  37.264  1.00  0.00    -0.237 OA
ATOM     48  O   UNL A   1      39.655  36.454  35.934  1.00  0.00    -0.237 OA
ATOM     49  O   UNL A   1      39.351  36.156  38.351  1.00  0.00    -0.744 OA
ENDBRANCH  43  46
ENDBRANCH  25  39
BRANCH  26  50
ATOM     50  C   UNL A   1      42.037  26.737  27.504  1.00  0.00     0.023 A 
ATOM     51  C   UNL A   1      42.798  27.347  26.489  1.00  0.00     0.012 A 
ATOM     52  C   UNL A   1      41.740  25.364  27.410  1.00  0.00     0.148 A 
ATOM     53  C   UNL A   1      43.244  26.607  25.393  1.00  0.00     0.002 A 
ATOM     54  C   UNL A   1      42.238  24.620  26.347  1.00  0.00     0.091 A 
ATOM     55  F   UNL A   1      40.996  24.805  28.375  1.00  0.00    -0.205 F 
ATOM     56  C   UNL A   1      42.977  25.242  25.330  1.00  0.00     0.022 A 
BRANCH  54  57
ATOM     57  S   UNL A   1      42.066  22.832  26.284  1.00  0.00     0.127 S 
ATOM     58  O   UNL A   1      40.616  22.668  26.322  1.00  0.00    -0.237 OA
ATOM     59  O   UNL A   1      42.690  22.506  25.001  1.00  0.00    -0.237 OA
ATOM     60  O   UNL A   1      42.801  22.338  27.442  1.00  0.00    -0.744 OA
ENDBRANCH  54  57
ENDBRANCH  26  50
BRANCH  38  61
ATOM     61  C   UNL A   1      44.392  27.261  34.052  1.00  0.00     0.023 A 
ATOM     62  C   UNL A   1      45.627  27.939  34.097  1.00  0.00     0.012 A 
ATOM     63  C   UNL A   1      44.250  26.034  34.726  1.00  0.00     0.148 A 
ATOM     64  C   UNL A   1      46.711  27.389  34.779  1.00  0.00     0.002 A 
ATOM     65  C   UNL A   1      45.325  25.511  35.437  1.00  0.00     0.091 A 
ATOM     66  F   UNL A   1      43.076  25.390  34.650  1.00  0.00    -0.205 F 
ATOM     67  C   UNL A   1      46.558  26.182  35.457  1.00  0.00     0.022 A 
BRANCH  65  68
ATOM     68  S   UNL A   1      45.172  24.005  36.404  1.00  0.00     0.127 S 
ATOM     69  O   UNL A   1      44.520  24.491  37.618  1.00  0.00    -0.237 OA
ATOM     70  O   UNL A   1      44.328  23.164  35.555  1.00  0.00    -0.237 OA
ATOM     71  O   UNL A   1      46.532  23.510  36.570  1.00  0.00    -0.744 OA
ENDBRANCH  65  68
ENDBRANCH  38  61
ENDBRANCH  12  13
ENDBRANCH   5   7
ENDBRANCH   2   3
ENDBRANCH   1   2
BRANCH   1  72
ATOM     72  C   UNL A   1      32.377  27.742  27.200  1.00  0.00     0.023 C 
BRANCH  72  73
ATOM     73  C   UNL A   1      32.104  26.443  26.435  1.00  0.00     0.116 C 
BRANCH  73  74
ATOM     74  N   UNL A   1      33.332  25.751  26.116  1.00  0.00    -0.356 N 
ATOM     75  C   UNL A   1      33.995  25.557  24.949  1.00  0.00     0.227 C 
ATOM     76  H   UNL A   1      33.772  25.341  26.895  1.00  0.00     0.163 HD
ATOM     77  O   UNL A   1      35.030  24.882  25.037  1.00  0.00    -0.274 OA
BRANCH  75  78
ATOM     78  C   UNL A   1      33.601  26.183  23.596  1.00  0.00     0.103 C 
ATOM     79  C   UNL A   1      32.932  25.115  22.764  1.00  0.00    -0.016 C 
ATOM     80  C   UNL A   1      32.596  27.335  23.484  1.00  0.00     0.047 C 
ATOM     81  C   UNL A   1      31.883  25.576  22.080  1.00  0.00    -0.006 C 
ATOM     82  C   UNL A   1      31.676  27.034  22.297  1.00  0.00     0.106 C 
BRANCH  82  83
ATOM     83  N   UNL A   1      30.281  27.236  22.622  1.00  0.00    -0.345 N 
ATOM     84  C   UNL A   1      29.549  28.353  22.872  1.00  0.00     0.279 C 
ATOM     85  H   UNL A   1      29.761  26.402  22.673  1.00  0.00     0.164 HD
ATOM     86  O   UNL A   1      28.377  28.162  23.220  1.00  0.00    -0.268 OA
BRANCH  84  87
ATOM     87  C   UNL A   1      30.124  29.786  22.849  1.00  0.00     0.283 C 
ATOM     88  C   UNL A   1      29.352  30.702  23.813  1.00  0.00     0.150 C 
ATOM     89  N   UNL A   1      30.140  30.450  21.521  1.00  0.00    -0.327 N 
ATOM     90  S   UNL A   1      28.132  31.569  22.779  1.00  0.00    -0.096 SA
ATOM     91  C   UNL A   1      28.767  30.872  21.251  1.00  0.00     0.333 C 
ATOM     92  H   UNL A   1      30.455  29.796  20.804  1.00  0.00     0.347 HD
ATOM     93  H   UNL A   1      30.778  31.245  21.514  1.00  0.00     0.347 HD
ENDBRANCH  84  87
ENDBRANCH  82  83
ENDBRANCH  75  78
ENDBRANCH  73  74
ENDBRANCH  72  73
ENDBRANCH   1  72
TORSDOF 16
ENDMDL
MODEL 2
REMARK VINA RESULT:     -12.0      5.427     10.614
REMARK SMILES O=C(NCCCCNC(=O)[C@H]1C=C[C@@H](NC(=O)[C@@H]2CSC[NH2+]2)C1)c1ccc(-c2c3nc(c(-c4cccc(S(=O)(=O)[O-])c4F)c4ccc([nH]4)c(-c4cccc(S(=O)(=O)[O-])c4F)c4nc(c(-c5cccc(S(=O)(=O)[O-])c5F)c5ccc2[nH]5)C=C4)C=C3)cc1
REMARK SMILES IDX 5 1 4 2 3 3 1 4 2 5 24 7 25 8 86 9 26 10 85 11 27 12 28 13
REMARK SMILES IDX 29 14 79 15 30 16 84 17 78 18 80 19 31 20 83 21 77 22 76 23
REMARK SMILES IDX 32 25 64 26 44 27 63 28 45 29 48 30 62 31 81 32 46 33 47 34
REMARK SMILES IDX 61 36 82 37 49 38 33 39 34 40 42 41 35 42 37 43 43 44 36 45
REMARK SMILES IDX 38 46 39 47 40 48 41 49 65 50 66 51 74 52 67 53 69 54 75 55
REMARK SMILES IDX 68 56 70 57 71 58 72 59 73 60 50 61 51 62 59 63 52 64 54 65
REMARK SMILES IDX 60 66 53 67 55 68 56 69 57 70 58 71 6 72 7 73 8 74 9 75
REMARK SMILES IDX 10 77 11 78 12 79 23 80 13 81 14 82 15 83 16 84 17 86 18 87
REMARK SMILES IDX 19 88 22 89 20 90 21 91
REMARK H PARENT 3 6 80 24 48 35 8 76 15 85 22 92 22 93
REMARK Flexibility Score: inf
ROOT
ATOM      1  C   UNL A   1      35.163  22.197  26.586  1.00  0.00     0.023 C 
ENDROOT
BRANCH   1   2
ATOM      2  C   UNL A   1      36.156  22.331  25.442  1.00  0.00     0.116 C 
BRANCH   2   3
ATOM      3  N   UNL A   1      37.107  21.232  25.356  1.00  0.00    -0.352 N 
ATOM      4  O   UNL A   1      39.130  20.245  25.546  1.00  0.00    -0.269 OA
ATOM      5  C   UNL A   1      38.428  21.224  25.752  1.00  0.00     0.251 C 
ATOM      6  H   UNL A   1      36.766  20.394  24.969  1.00  0.00     0.163 HD
BRANCH   5   7
ATOM      7  C   UNL A   1      38.982  22.444  26.378  1.00  0.00     0.039 A 
ATOM      8  C   UNL A   1      38.492  23.701  26.019  1.00  0.00     0.014 A 
ATOM      9  C   UNL A   1      40.060  22.328  27.257  1.00  0.00     0.014 A 
ATOM     10  C   UNL A   1      39.191  24.839  26.397  1.00  0.00     0.010 A 
ATOM     11  C   UNL A   1      40.706  23.481  27.710  1.00  0.00     0.010 A 
ATOM     12  C   UNL A   1      40.310  24.744  27.240  1.00  0.00    -0.014 A 
BRANCH  12  13
ATOM     13  C   UNL A   1      41.028  25.984  27.629  1.00  0.00     0.031 A 
ATOM     14  C   UNL A   1      42.427  26.263  27.150  1.00  0.00     0.074 A 
ATOM     15  C   UNL A   1      40.384  26.883  28.399  1.00  0.00     0.049 A 
ATOM     16  N   UNL A   1      43.161  27.329  27.341  1.00  0.00    -0.248 NA
ATOM     17  C   UNL A   1      43.095  25.212  26.363  1.00  0.00     0.031 C 
ATOM     18  C   UNL A   1      39.044  26.702  28.959  1.00  0.00     0.029 A 
ATOM     19  N   UNL A   1      40.759  28.130  28.830  1.00  0.00    -0.354 N 
ATOM     20  C   UNL A   1      44.390  27.061  26.748  1.00  0.00     0.074 A 
ATOM     21  C   UNL A   1      44.304  25.731  26.187  1.00  0.00     0.031 C 
ATOM     22  C   UNL A   1      38.688  27.813  29.618  1.00  0.00     0.029 A 
ATOM     23  C   UNL A   1      39.790  28.768  29.568  1.00  0.00     0.049 A 
ATOM     24  H   UNL A   1      41.636  28.530  28.629  1.00  0.00     0.167 HD
ATOM     25  C   UNL A   1      45.481  27.859  26.664  1.00  0.00     0.034 A 
ATOM     26  C   UNL A   1      39.784  29.987  30.138  1.00  0.00     0.034 A 
ATOM     27  C   UNL A   1      45.540  29.206  27.167  1.00  0.00     0.049 A 
ATOM     28  C   UNL A   1      40.983  30.874  29.967  1.00  0.00     0.074 A 
ATOM     29  C   UNL A   1      46.576  30.118  27.068  1.00  0.00     0.029 A 
ATOM     30  N   UNL A   1      44.518  29.837  27.861  1.00  0.00    -0.354 N 
ATOM     31  N   UNL A   1      42.084  30.649  29.292  1.00  0.00    -0.248 NA
ATOM     32  C   UNL A   1      40.930  32.193  30.611  1.00  0.00     0.031 C 
ATOM     33  C   UNL A   1      46.183  31.299  27.707  1.00  0.00     0.029 A 
ATOM     34  C   UNL A   1      44.899  31.125  28.198  1.00  0.00     0.049 A 
ATOM     35  H   UNL A   1      43.650  29.429  28.082  1.00  0.00     0.167 HD
ATOM     36  C   UNL A   1      42.845  31.803  29.411  1.00  0.00     0.074 A 
ATOM     37  C   UNL A   1      42.066  32.738  30.199  1.00  0.00     0.031 C 
ATOM     38  C   UNL A   1      44.088  32.060  28.933  1.00  0.00     0.034 A 
BRANCH  25  39
ATOM     39  C   UNL A   1      46.697  27.318  25.957  1.00  0.00     0.023 A 
ATOM     40  C   UNL A   1      46.821  27.486  24.563  1.00  0.00     0.012 A 
ATOM     41  C   UNL A   1      47.747  26.713  26.676  1.00  0.00     0.148 A 
ATOM     42  C   UNL A   1      47.960  27.040  23.892  1.00  0.00     0.002 A 
ATOM     43  C   UNL A   1      48.895  26.303  26.006  1.00  0.00     0.091 A 
ATOM     44  F   UNL A   1      47.601  26.538  27.997  1.00  0.00    -0.205 F 
ATOM     45  C   UNL A   1      49.001  26.459  24.614  1.00  0.00     0.022 A 
BRANCH  43  46
ATOM     46  S   UNL A   1      50.312  25.612  26.866  1.00  0.00     0.127 S 
ATOM     47  O   UNL A   1      51.221  25.327  25.758  1.00  0.00    -0.237 OA
ATOM     48  O   UNL A   1      50.730  26.721  27.726  1.00  0.00    -0.237 OA
ATOM     49  O   UNL A   1      49.808  24.451  27.587  1.00  0.00    -0.744 OA
ENDBRANCH  43  46
ENDBRANCH  25  39
BRANCH  26  50
ATOM     50  C   UNL A   1      38.563  30.459  30.849  1.00  0.00     0.023 A 
ATOM     51  C   UNL A   1      38.470  30.289  32.244  1.00  0.00     0.012 A 
ATOM     52  C   UNL A   1      37.533  31.134  30.168  1.00  0.00     0.148 A 
ATOM     53  C   UNL A   1      37.364  30.769  32.945  1.00  0.00     0.002 A 
ATOM     54  C   UNL A   1      36.464  31.663  30.882  1.00  0.00     0.091 A 
ATOM     55  F   UNL A   1      37.628  31.268  28.838  1.00  0.00    -0.205 F 
ATOM     56  C   UNL A   1      36.370  31.469  32.268  1.00  0.00     0.022 A 
BRANCH  54  57
ATOM     57  S   UNL A   1      35.230  32.708  30.097  1.00  0.00     0.127 S 
ATOM     58  O   UNL A   1      36.046  33.811  29.598  1.00  0.00    -0.237 OA
ATOM     59  O   UNL A   1      34.689  31.825  29.062  1.00  0.00    -0.237 OA
ATOM     60  O   UNL A   1      34.280  33.035  31.152  1.00  0.00    -0.744 OA
ENDBRANCH  54  57
ENDBRANCH  26  50
BRANCH  38  61
ATOM     61  C   UNL A   1      44.678  33.410  29.236  1.00  0.00     0.023 A 
ATOM     62  C   UNL A   1      45.360  33.611  30.453  1.00  0.00     0.012 A 
ATOM     63  C   UNL A   1      44.608  34.459  28.299  1.00  0.00     0.148 A 
ATOM     64  C   UNL A   1      45.940  34.844  30.744  1.00  0.00     0.002 A 
ATOM     65  C   UNL A   1      45.222  35.674  28.580  1.00  0.00     0.091 A 
ATOM     66  F   UNL A   1      43.932  34.258  27.158  1.00  0.00    -0.205 F 
ATOM     67  C   UNL A   1      45.880  35.872  29.805  1.00  0.00     0.022 A 
BRANCH  65  68
ATOM     68  S   UNL A   1      45.259  37.011  27.381  1.00  0.00     0.127 S 
ATOM     69  O   UNL A   1      43.836  37.222  27.123  1.00  0.00    -0.237 OA
ATOM     70  O   UNL A   1      45.908  38.090  28.127  1.00  0.00    -0.237 OA
ATOM     71  O   UNL A   1      46.040  36.507  26.260  1.00  0.00    -0.744 OA
ENDBRANCH  65  68
ENDBRANCH  38  61
ENDBRANCH  12  13
ENDBRANCH   5   7
ENDBRANCH   2   3
ENDBRANCH   1   2
BRANCH   1  72
ATOM     72  C   UNL A   1      34.222  23.384  26.771  1.00  0.00     0.023 C 
BRANCH  72  73
ATOM     73  C   UNL A   1      32.891  23.062  27.457  1.00  0.00     0.116 C 
BRANCH  73  74
ATOM     74  N   UNL A   1      31.881  24.046  27.139  1.00  0.00    -0.356 N 
ATOM     75  C   UNL A   1      31.098  24.230  26.047  1.00  0.00     0.227 C 
ATOM     76  H   UNL A   1      31.733  24.708  27.851  1.00  0.00     0.163 HD
ATOM     77  O   UNL A   1      30.340  25.208  26.102  1.00  0.00    -0.274 OA
BRANCH  75  78
ATOM     78  C   UNL A   1      31.034  23.278  24.836  1.00  0.00     0.103 C 
ATOM     79  C   UNL A   1      32.005  23.780  23.795  1.00  0.00    -0.016 C 
ATOM     80  C   UNL A   1      31.422  21.798  24.931  1.00  0.00     0.047 C 
ATOM     81  C   UNL A   1      32.671  22.792  23.192  1.00  0.00    -0.006 C 
ATOM     82  C   UNL A   1      32.247  21.454  23.688  1.00  0.00     0.106 C 
BRANCH  82  83
ATOM     83  N   UNL A   1      33.444  20.708  24.015  1.00  0.00    -0.345 N 
ATOM     84  C   UNL A   1      33.656  19.403  24.323  1.00  0.00     0.279 C 
ATOM     85  H   UNL A   1      34.263  21.255  24.016  1.00  0.00     0.164 HD
ATOM     86  O   UNL A   1      34.813  19.109  24.652  1.00  0.00    -0.268 OA
BRANCH  84  87
ATOM     87  C   UNL A   1      32.541  18.337  24.384  1.00  0.00     0.283 C 
ATOM     88  C   UNL A   1      32.613  17.541  25.697  1.00  0.00     0.150 C 
ATOM     89  N   UNL A   1      32.529  17.356  23.270  1.00  0.00    -0.327 N 
ATOM     90  S   UNL A   1      33.534  16.025  25.291  1.00  0.00    -0.096 SA
ATOM     91  C   UNL A   1      33.609  16.409  23.539  1.00  0.00     0.333 C 
ATOM     92  H   UNL A   1      32.690  17.830  22.381  1.00  0.00     0.347 HD
ATOM     93  H   UNL A   1      31.629  16.880  23.206  1.00  0.00     0.347 HD
ENDBRANCH  84  87
ENDBRANCH  82  83
ENDBRANCH  75  78
ENDBRANCH  73  74
ENDBRANCH  72  73
ENDBRANCH   1  72
TORSDOF 16
ENDMDL
MODEL 3
REMARK VINA RESULT:     -11.7      2.800      4.319
REMARK SMILES O=C(NCCCCNC(=O)[C@H]1C=C[C@@H](NC(=O)[C@@H]2CSC[NH2+]2)C1)c1ccc(-c2c3nc(c(-c4cccc(S(=O)(=O)[O-])c4F)c4ccc([nH]4)c(-c4cccc(S(=O)(=O)[O-])c4F)c4nc(c(-c5cccc(S(=O)(=O)[O-])c5F)c5ccc2[nH]5)C=C4)C=C3)cc1
REMARK SMILES IDX 5 1 4 2 3 3 1 4 2 5 24 7 25 8 86 9 26 10 85 11 27 12 28 13
REMARK SMILES IDX 29 14 79 15 30 16 84 17 78 18 80 19 31 20 83 21 77 22 76 23
REMARK SMILES IDX 32 25 64 26 44 27 63 28 45 29 48 30 62 31 81 32 46 33 47 34
REMARK SMILES IDX 61 36 82 37 49 38 33 39 34 40 42 41 35 42 37 43 43 44 36 45
REMARK SMILES IDX 38 46 39 47 40 48 41 49 65 50 66 51 74 52 67 53 69 54 75 55
REMARK SMILES IDX 68 56 70 57 71 58 72 59 73 60 50 61 51 62 59 63 52 64 54 65
REMARK SMILES IDX 60 66 53 67 55 68 56 69 57 70 58 71 6 72 7 73 8 74 9 75
REMARK SMILES IDX 10 77 11 78 12 79 23 80 13 81 14 82 15 83 16 84 17 86 18 87
REMARK SMILES IDX 19 88 22 89 20 90 21 91
REMARK H PARENT 3 6 80 24 48 35 8 76 15 85 22 92 22 93
REMARK Flexibility Score: inf
ROOT
ATOM      1  C   UNL A   1      31.989  29.325  25.256  1.00  0.00     0.023 C 
ENDROOT
BRANCH   1   2
ATOM      2  C   UNL A   1      32.887  29.830  26.373  1.00  0.00     0.116 C 
BRANCH   2   3
ATOM      3  N   UNL A   1      32.630  31.210  26.757  1.00  0.00    -0.352 N 
ATOM      4  O   UNL A   1      33.063  33.172  27.791  1.00  0.00    -0.269 OA
ATOM      5  C   UNL A   1      33.449  32.055  27.476  1.00  0.00     0.251 C 
ATOM      6  H   UNL A   1      31.766  31.585  26.469  1.00  0.00     0.163 HD
BRANCH   5   7
ATOM      7  C   UNL A   1      34.775  31.556  27.899  1.00  0.00     0.039 A 
ATOM      8  C   UNL A   1      34.929  30.230  28.306  1.00  0.00     0.014 A 
ATOM      9  C   UNL A   1      35.845  32.450  27.976  1.00  0.00     0.014 A 
ATOM     10  C   UNL A   1      36.095  29.846  28.954  1.00  0.00     0.010 A 
ATOM     11  C   UNL A   1      37.051  32.034  28.546  1.00  0.00     0.010 A 
ATOM     12  C   UNL A   1      37.167  30.744  29.089  1.00  0.00    -0.014 A 
BRANCH  12  13
ATOM     13  C   UNL A   1      38.401  30.294  29.781  1.00  0.00     0.031 A 
ATOM     14  C   UNL A   1      38.712  30.727  31.188  1.00  0.00     0.074 A 
ATOM     15  C   UNL A   1      39.231  29.453  29.133  1.00  0.00     0.049 A 
ATOM     16  N   UNL A   1      39.709  30.366  31.956  1.00  0.00    -0.248 NA
ATOM     17  C   UNL A   1      37.797  31.695  31.817  1.00  0.00     0.031 C 
ATOM     18  C   UNL A   1      39.055  29.000  27.752  1.00  0.00     0.029 A 
ATOM     19  N   UNL A   1      40.372  28.817  29.549  1.00  0.00    -0.354 N 
ATOM     20  C   UNL A   1      39.574  31.096  33.132  1.00  0.00     0.074 A 
ATOM     21  C   UNL A   1      38.396  31.921  32.980  1.00  0.00     0.031 C 
ATOM     22  C   UNL A   1      40.023  28.124  27.449  1.00  0.00     0.029 A 
ATOM     23  C   UNL A   1      40.915  27.987  28.597  1.00  0.00     0.049 A 
ATOM     24  H   UNL A   1      40.765  28.942  30.443  1.00  0.00     0.167 HD
ATOM     25  C   UNL A   1      40.350  31.065  34.241  1.00  0.00     0.034 A 
ATOM     26  C   UNL A   1      42.005  27.199  28.639  1.00  0.00     0.034 A 
ATOM     27  C   UNL A   1      41.483  30.195  34.412  1.00  0.00     0.049 A 
ATOM     28  C   UNL A   1      42.804  27.135  29.908  1.00  0.00     0.074 A 
ATOM     29  C   UNL A   1      42.290  30.040  35.526  1.00  0.00     0.029 A 
ATOM     30  N   UNL A   1      41.969  29.328  33.445  1.00  0.00    -0.354 N 
ATOM     31  N   UNL A   1      42.583  27.737  31.052  1.00  0.00    -0.248 NA
ATOM     32  C   UNL A   1      43.987  26.264  29.904  1.00  0.00     0.031 C 
ATOM     33  C   UNL A   1      43.267  29.083  35.230  1.00  0.00     0.029 A 
ATOM     34  C   UNL A   1      43.065  28.637  33.934  1.00  0.00     0.049 A 
ATOM     35  H   UNL A   1      41.591  29.221  32.542  1.00  0.00     0.167 HD
ATOM     36  C   UNL A   1      43.584  27.301  31.909  1.00  0.00     0.074 A 
ATOM     37  C   UNL A   1      44.396  26.362  31.162  1.00  0.00     0.031 C 
ATOM     38  C   UNL A   1      43.825  27.664  33.193  1.00  0.00     0.034 A 
BRANCH  25  39
ATOM     39  C   UNL A   1      39.975  31.967  35.389  1.00  0.00     0.023 A 
ATOM     40  C   UNL A   1      40.539  33.256  35.471  1.00  0.00     0.012 A 
ATOM     41  C   UNL A   1      39.015  31.570  36.341  1.00  0.00     0.148 A 
ATOM     42  C   UNL A   1      40.170  34.128  36.495  1.00  0.00     0.002 A 
ATOM     43  C   UNL A   1      38.627  32.458  37.338  1.00  0.00     0.091 A 
ATOM     44  F   UNL A   1      38.509  30.331  36.263  1.00  0.00    -0.205 F 
ATOM     45  C   UNL A   1      39.207  33.735  37.421  1.00  0.00     0.022 A 
BRANCH  43  46
ATOM     46  S   UNL A   1      37.341  32.060  38.529  1.00  0.00     0.127 S 
ATOM     47  O   UNL A   1      37.950  32.503  39.781  1.00  0.00    -0.237 OA
ATOM     48  O   UNL A   1      36.222  32.886  38.071  1.00  0.00    -0.237 OA
ATOM     49  O   UNL A   1      37.119  30.626  38.404  1.00  0.00    -0.744 OA
ENDBRANCH  43  46
ENDBRANCH  25  39
BRANCH  26  50
ATOM     50  C   UNL A   1      42.343  26.350  27.464  1.00  0.00     0.023 A 
ATOM     51  C   UNL A   1      43.133  26.888  26.430  1.00  0.00     0.012 A 
ATOM     52  C   UNL A   1      41.950  24.999  27.398  1.00  0.00     0.148 A 
ATOM     53  C   UNL A   1      43.512  26.100  25.343  1.00  0.00     0.002 A 
ATOM     54  C   UNL A   1      42.382  24.205  26.342  1.00  0.00     0.091 A 
ATOM     55  F   UNL A   1      41.181  24.510  28.381  1.00  0.00    -0.205 F 
ATOM     56  C   UNL A   1      43.150  24.756  25.306  1.00  0.00     0.022 A 
BRANCH  54  57
ATOM     57  S   UNL A   1      42.085  22.433  26.313  1.00  0.00     0.127 S 
ATOM     58  O   UNL A   1      42.701  22.005  27.566  1.00  0.00    -0.237 OA
ATOM     59  O   UNL A   1      40.624  22.364  26.290  1.00  0.00    -0.237 OA
ATOM     60  O   UNL A   1      42.720  21.960  25.090  1.00  0.00    -0.744 OA
ENDBRANCH  54  57
ENDBRANCH  26  50
BRANCH  38  61
ATOM     61  C   UNL A   1      45.007  27.033  33.878  1.00  0.00     0.023 A 
ATOM     62  C   UNL A   1      46.272  27.647  33.782  1.00  0.00     0.012 A 
ATOM     63  C   UNL A   1      44.858  25.871  34.658  1.00  0.00     0.148 A 
ATOM     64  C   UNL A   1      47.376  27.097  34.430  1.00  0.00     0.002 A 
ATOM     65  C   UNL A   1      45.956  25.350  35.334  1.00  0.00     0.091 A 
ATOM     66  F   UNL A   1      43.652  25.286  34.716  1.00  0.00    -0.205 F 
ATOM     67  C   UNL A   1      47.217  25.956  35.214  1.00  0.00     0.022 A 
BRANCH  65  68
ATOM     68  S   UNL A   1      45.805  23.934  36.428  1.00  0.00     0.127 S 
ATOM     69  O   UNL A   1      45.381  22.884  35.504  1.00  0.00    -0.237 OA
ATOM     70  O   UNL A   1      47.166  23.781  36.941  1.00  0.00    -0.237 OA
ATOM     71  O   UNL A   1      44.828  24.324  37.436  1.00  0.00    -0.744 OA
ENDBRANCH  65  68
ENDBRANCH  38  61
ENDBRANCH  12  13
ENDBRANCH   5   7
ENDBRANCH   2   3
ENDBRANCH   1   2
BRANCH   1  72
ATOM     72  C   UNL A   1      31.946  27.808  25.093  1.00  0.00     0.023 C 
BRANCH  72  73
ATOM     73  C   UNL A   1      33.307  27.107  25.145  1.00  0.00     0.116 C 
BRANCH  73  74
ATOM     74  N   UNL A   1      33.672  26.565  23.856  1.00  0.00    -0.356 N 
ATOM     75  C   UNL A   1      33.491  25.344  23.294  1.00  0.00     0.227 C 
ATOM     76  H   UNL A   1      34.140  27.205  23.274  1.00  0.00     0.163 HD
ATOM     77  O   UNL A   1      33.959  25.213  22.155  1.00  0.00    -0.274 OA
BRANCH  75  78
ATOM     78  C   UNL A   1      32.688  24.191  23.929  1.00  0.00     0.103 C 
ATOM     79  C   UNL A   1      32.278  23.244  22.827  1.00  0.00    -0.016 C 
ATOM     80  C   UNL A   1      33.300  23.227  24.952  1.00  0.00     0.047 C 
ATOM     81  C   UNL A   1      32.376  21.962  23.185  1.00  0.00    -0.006 C 
ATOM     82  C   UNL A   1      32.831  21.813  24.595  1.00  0.00     0.106 C 
BRANCH  82  83
ATOM     83  N   UNL A   1      33.918  20.858  24.606  1.00  0.00    -0.345 N 
ATOM     84  C   UNL A   1      33.947  19.500  24.595  1.00  0.00     0.279 C 
ATOM     85  H   UNL A   1      34.811  21.273  24.626  1.00  0.00     0.164 HD
ATOM     86  O   UNL A   1      35.066  18.984  24.710  1.00  0.00    -0.268 OA
BRANCH  84  87
ATOM     87  C   UNL A   1      32.686  18.610  24.557  1.00  0.00     0.283 C 
ATOM     88  C   UNL A   1      32.626  17.692  25.789  1.00  0.00     0.150 C 
ATOM     89  N   UNL A   1      32.542  17.751  23.355  1.00  0.00    -0.327 N 
ATOM     90  S   UNL A   1      33.318  16.101  25.238  1.00  0.00    -0.096 SA
ATOM     91  C   UNL A   1      33.468  16.633  23.530  1.00  0.00     0.333 C 
ATOM     92  H   UNL A   1      32.781  18.277  22.515  1.00  0.00     0.347 HD
ATOM     93  H   UNL A   1      31.583  17.421  23.249  1.00  0.00     0.347 HD
ENDBRANCH  84  87
ENDBRANCH  82  83
ENDBRANCH  75  78
ENDBRANCH  73  74
ENDBRANCH  72  73
ENDBRANCH   1  72
TORSDOF 16
ENDMDL
