MODEL 1
REMARK VINA RESULT:     -11.8      0.000      0.000
REMARK SMILES Cc1nonc1C[C@@H](C(=O)NCCCCNC(=O)c1ccc(-c2c3nc(c(-c4cccc(S(=O)(=O)[O-])c4F)c4ccc([nH]4)c(-c4cccc(S(=O)(=O)[O-])c4F)c4nc(c(-c5cccc(S(=O)(=O)[O-])c5F)c5ccc2[nH]5)C=C4)C=C3)cc1)c1ccccc1Br
REMARK SMILES IDX 14 1 13 2 12 3 11 4 9 5 10 6 8 8 7 9 6 10 1 11 2 12 3 13
REMARK SMILES IDX 4 14 5 15 82 16 83 17 87 18 84 19 86 20 88 21 85 22 15 23
REMARK SMILES IDX 16 24 17 25 18 27 19 28 20 29 81 30 21 31 80 32 22 33 23 34
REMARK SMILES IDX 24 35 74 36 25 37 79 38 73 39 75 40 26 41 78 42 72 43 71 44
REMARK SMILES IDX 27 46 59 47 39 48 58 49 40 50 43 51 57 52 76 53 41 54 42 55
REMARK SMILES IDX 56 57 77 58 44 59 28 60 29 61 37 62 30 63 32 64 38 65 31 66
REMARK SMILES IDX 33 67 34 68 35 69 36 70 60 71 61 72 69 73 62 74 64 75 70 76
REMARK SMILES IDX 63 77 65 78 66 79 67 80 68 81 45 82 46 83 54 84 47 85 49 86
REMARK SMILES IDX 55 87 48 88 50 89 51 90 52 91 53 92
REMARK H PARENT 11 7 16 26 75 45 43 56
REMARK Flexibility Score: inf
ROOT
ATOM      1  C   UNL A   1      32.132  28.949  24.097  1.00  0.00     0.023 C 
ENDROOT
BRANCH   1   2
ATOM      2  C   UNL A   1      32.989  29.166  22.857  1.00  0.00     0.023 C 
BRANCH   2   3
ATOM      3  C   UNL A   1      33.884  27.985  22.478  1.00  0.00     0.116 C 
BRANCH   3   4
ATOM      4  N   UNL A   1      33.164  27.129  21.558  1.00  0.00    -0.356 N 
ATOM      5  C   UNL A   1      33.178  25.764  21.475  1.00  0.00     0.227 C 
ATOM      6  O   UNL A   1      32.964  25.252  20.374  1.00  0.00    -0.274 OA
ATOM      7  H   UNL A   1      32.587  27.589  20.906  1.00  0.00     0.163 HD
BRANCH   5   8
ATOM      8  C   UNL A   1      33.342  24.906  22.747  1.00  0.00     0.116 C 
BRANCH   8   9
ATOM      9  C   UNL A   1      33.441  23.420  22.312  1.00  0.00     0.080 C 
BRANCH   9  10
ATOM     10  C   UNL A   1      33.968  22.422  23.282  1.00  0.00     0.109 A 
ATOM     11  C   UNL A   1      36.508  23.021  23.546  1.00  0.00     0.073 C 
ATOM     12  C   UNL A   1      35.268  22.263  23.806  1.00  0.00     0.105 A 
ATOM     13  N   UNL A   1      35.265  21.287  24.717  1.00  0.00    -0.055 NA
ATOM     14  O   UNL A   1      33.937  20.887  24.810  1.00  0.00    -0.244 OA
ATOM     15  N   UNL A   1      33.134  21.626  23.951  1.00  0.00    -0.055 NA
ENDBRANCH   9  10
ENDBRANCH   8   9
BRANCH   8  16
ATOM     16  C   UNL A   1      32.131  25.155  23.705  1.00  0.00    -0.021 A 
ATOM     17  C   UNL A   1      30.816  25.267  23.195  1.00  0.00     0.006 A 
ATOM     18  C   UNL A   1      32.271  25.340  25.100  1.00  0.00     0.021 A 
ATOM     19  C   UNL A   1      29.737  25.668  23.987  1.00  0.00     0.000 A 
ATOM     20  C   UNL A   1      31.192  25.789  25.883  1.00  0.00     0.016 A 
ATOM     21  Br  UNL A   1      33.858  24.940  26.072  1.00  0.00    -0.051 Br
ATOM     22  C   UNL A   1      29.933  25.972  25.323  1.00  0.00     0.001 A 
ENDBRANCH   8  16
ENDBRANCH   5   8
ENDBRANCH   3   4
ENDBRANCH   2   3
ENDBRANCH   1   2
BRANCH   1  23
ATOM     23  C   UNL A   1      32.800  29.351  25.400  1.00  0.00     0.116 C 
BRANCH  23  24
ATOM     24  N   UNL A   1      32.259  30.579  25.972  1.00  0.00    -0.352 N 
ATOM     25  C   UNL A   1      32.793  31.408  26.933  1.00  0.00     0.251 C 
ATOM     26  H   UNL A   1      31.383  30.856  25.617  1.00  0.00     0.163 HD
ATOM     27  O   UNL A   1      32.149  32.344  27.375  1.00  0.00    -0.269 OA
BRANCH  25  28
ATOM     28  C   UNL A   1      34.151  31.122  27.443  1.00  0.00     0.039 A 
ATOM     29  C   UNL A   1      35.042  32.178  27.642  1.00  0.00     0.014 A 
ATOM     30  C   UNL A   1      34.505  29.820  27.798  1.00  0.00     0.014 A 
ATOM     31  C   UNL A   1      36.258  31.937  28.285  1.00  0.00     0.010 A 
ATOM     32  C   UNL A   1      35.658  29.605  28.538  1.00  0.00     0.010 A 
ATOM     33  C   UNL A   1      36.553  30.657  28.782  1.00  0.00    -0.014 A 
BRANCH  33  34
ATOM     34  C   UNL A   1      37.788  30.380  29.559  1.00  0.00     0.031 A 
ATOM     35  C   UNL A   1      38.848  29.482  28.978  1.00  0.00     0.074 A 
ATOM     36  C   UNL A   1      37.902  30.830  30.826  1.00  0.00     0.049 A 
ATOM     37  N   UNL A   1      39.935  29.019  29.536  1.00  0.00    -0.248 NA
ATOM     38  C   UNL A   1      38.633  29.000  27.602  1.00  0.00     0.031 C 
ATOM     39  C   UNL A   1      36.898  31.624  31.540  1.00  0.00     0.029 A 
ATOM     40  N   UNL A   1      38.902  30.659  31.750  1.00  0.00    -0.354 N 
ATOM     41  C   UNL A   1      40.497  28.151  28.607  1.00  0.00     0.074 A 
ATOM     42  C   UNL A   1      39.610  28.117  27.467  1.00  0.00     0.031 C 
ATOM     43  C   UNL A   1      37.339  31.882  32.782  1.00  0.00     0.029 A 
ATOM     44  C   UNL A   1      38.641  31.250  32.964  1.00  0.00     0.049 A 
ATOM     45  H   UNL A   1      39.729  30.160  31.561  1.00  0.00     0.167 HD
ATOM     46  C   UNL A   1      41.667  27.474  28.677  1.00  0.00     0.034 A 
ATOM     47  C   UNL A   1      39.371  31.277  34.098  1.00  0.00     0.034 A 
ATOM     48  C   UNL A   1      42.587  27.582  29.774  1.00  0.00     0.049 A 
ATOM     49  C   UNL A   1      40.712  30.594  34.114  1.00  0.00     0.074 A 
ATOM     50  C   UNL A   1      43.851  27.035  29.895  1.00  0.00     0.029 A 
ATOM     51  N   UNL A   1      42.343  28.295  30.939  1.00  0.00    -0.354 N 
ATOM     52  N   UNL A   1      41.303  29.915  33.162  1.00  0.00    -0.248 NA
ATOM     53  C   UNL A   1      41.503  30.711  35.348  1.00  0.00     0.031 C 
ATOM     54  C   UNL A   1      44.370  27.411  31.138  1.00  0.00     0.029 A 
ATOM     55  C   UNL A   1      43.434  28.203  31.784  1.00  0.00     0.049 A 
ATOM     56  H   UNL A   1      41.517  28.791  31.135  1.00  0.00     0.167 HD
ATOM     57  C   UNL A   1      42.548  29.555  33.665  1.00  0.00     0.074 A 
ATOM     58  C   UNL A   1      42.634  30.111  35.000  1.00  0.00     0.031 C 
ATOM     59  C   UNL A   1      43.526  28.817  33.084  1.00  0.00     0.034 A 
BRANCH  46  60
ATOM     60  C   UNL A   1      42.051  26.619  27.498  1.00  0.00     0.023 A 
ATOM     61  C   UNL A   1      42.711  27.207  26.399  1.00  0.00     0.012 A 
ATOM     62  C   UNL A   1      41.799  25.233  27.491  1.00  0.00     0.148 A 
ATOM     63  C   UNL A   1      43.079  26.439  25.295  1.00  0.00     0.002 A 
ATOM     64  C   UNL A   1      42.211  24.466  26.407  1.00  0.00     0.091 A 
ATOM     65  F   UNL A   1      41.150  24.694  28.533  1.00  0.00    -0.205 F 
ATOM     66  C   UNL A   1      42.838  25.069  25.304  1.00  0.00     0.022 A 
BRANCH  64  67
ATOM     67  S   UNL A   1      42.020  22.680  26.355  1.00  0.00     0.127 S 
ATOM     68  O   UNL A   1      42.667  22.351  25.086  1.00  0.00    -0.237 OA
ATOM     69  O   UNL A   1      42.759  22.257  27.545  1.00  0.00    -0.237 OA
ATOM     70  O   UNL A   1      40.586  22.429  26.410  1.00  0.00    -0.744 OA
ENDBRANCH  64  67
ENDBRANCH  46  60
BRANCH  47  71
ATOM     71  C   UNL A   1      38.893  32.055  35.276  1.00  0.00     0.023 A 
ATOM     72  C   UNL A   1      38.979  33.462  35.248  1.00  0.00     0.012 A 
ATOM     73  C   UNL A   1      38.335  31.425  36.405  1.00  0.00     0.148 A 
ATOM     74  C   UNL A   1      38.548  34.225  36.334  1.00  0.00     0.002 A 
ATOM     75  C   UNL A   1      37.860  32.194  37.462  1.00  0.00     0.091 A 
ATOM     76  F   UNL A   1      38.271  30.086  36.419  1.00  0.00    -0.205 F 
ATOM     77  C   UNL A   1      37.980  33.592  37.436  1.00  0.00     0.022 A 
BRANCH  75  78
ATOM     78  S   UNL A   1      37.001  31.474  38.866  1.00  0.00     0.127 S 
ATOM     79  O   UNL A   1      37.974  31.660  39.940  1.00  0.00    -0.237 OA
ATOM     80  O   UNL A   1      35.811  32.319  38.961  1.00  0.00    -0.237 OA
ATOM     81  O   UNL A   1      36.727  30.094  38.489  1.00  0.00    -0.744 OA
ENDBRANCH  75  78
ENDBRANCH  47  71
BRANCH  59  82
ATOM     82  C   UNL A   1      44.792  28.593  33.865  1.00  0.00     0.023 A 
ATOM     83  C   UNL A   1      45.845  29.523  33.767  1.00  0.00     0.012 A 
ATOM     84  C   UNL A   1      44.901  27.512  34.761  1.00  0.00     0.148 A 
ATOM     85  C   UNL A   1      47.001  29.365  34.531  1.00  0.00     0.002 A 
ATOM     86  C   UNL A   1      46.035  27.387  35.554  1.00  0.00     0.091 A 
ATOM     87  F   UNL A   1      43.894  26.628  34.824  1.00  0.00    -0.205 F 
ATOM     88  C   UNL A   1      47.091  28.306  35.432  1.00  0.00     0.022 A 
BRANCH  86  89
ATOM     89  S   UNL A   1      46.192  26.112  36.809  1.00  0.00     0.127 S 
ATOM     90  O   UNL A   1      46.368  24.911  35.995  1.00  0.00    -0.237 OA
ATOM     91  O   UNL A   1      47.390  26.537  37.537  1.00  0.00    -0.237 OA
ATOM     92  O   UNL A   1      44.964  26.167  37.590  1.00  0.00    -0.744 OA
ENDBRANCH  86  89
ENDBRANCH  59  82
ENDBRANCH  33  34
ENDBRANCH  25  28
ENDBRANCH  23  24
ENDBRANCH   1  23
TORSDOF 17
ENDMDL
MODEL 2
REMARK VINA RESULT:     -11.7      5.190      7.433
REMARK SMILES Cc1nonc1C[C@@H](C(=O)NCCCCNC(=O)c1ccc(-c2c3nc(c(-c4cccc(S(=O)(=O)[O-])c4F)c4ccc([nH]4)c(-c4cccc(S(=O)(=O)[O-])c4F)c4nc(c(-c5cccc(S(=O)(=O)[O-])c5F)c5ccc2[nH]5)C=C4)C=C3)cc1)c1ccccc1Br
REMARK SMILES IDX 14 1 13 2 12 3 11 4 9 5 10 6 8 8 7 9 6 10 1 11 2 12 3 13
REMARK SMILES IDX 4 14 5 15 82 16 83 17 87 18 84 19 86 20 88 21 85 22 15 23
REMARK SMILES IDX 16 24 17 25 18 27 19 28 20 29 81 30 21 31 80 32 22 33 23 34
REMARK SMILES IDX 24 35 74 36 25 37 79 38 73 39 75 40 26 41 78 42 72 43 71 44
REMARK SMILES IDX 27 46 59 47 39 48 58 49 40 50 43 51 57 52 76 53 41 54 42 55
REMARK SMILES IDX 56 57 77 58 44 59 28 60 29 61 37 62 30 63 32 64 38 65 31 66
REMARK SMILES IDX 33 67 34 68 35 69 36 70 60 71 61 72 69 73 62 74 64 75 70 76
REMARK SMILES IDX 63 77 65 78 66 79 67 80 68 81 45 82 46 83 54 84 47 85 49 86
REMARK SMILES IDX 55 87 48 88 50 89 51 90 52 91 53 92
REMARK H PARENT 11 7 16 26 75 45 43 56
REMARK Flexibility Score: inf
ROOT
ATOM      1  C   UNL A   1      35.794  21.691  24.856  1.00  0.00     0.023 C 
ENDROOT
BRANCH   1   2
ATOM      2  C   UNL A   1      34.925  22.225  25.987  1.00  0.00     0.023 C 
BRANCH   2   3
ATOM      3  C   UNL A   1      34.551  23.703  25.869  1.00  0.00     0.116 C 
BRANCH   3   4
ATOM      4  N   UNL A   1      33.157  23.862  26.230  1.00  0.00    -0.356 N 
ATOM      5  C   UNL A   1      32.369  24.974  26.120  1.00  0.00     0.227 C 
ATOM      6  O   UNL A   1      31.439  25.102  26.918  1.00  0.00    -0.274 OA
ATOM      7  H   UNL A   1      32.718  23.064  26.604  1.00  0.00     0.163 HD
BRANCH   5   8
ATOM      8  C   UNL A   1      32.578  25.967  24.957  1.00  0.00     0.116 C 
BRANCH   8   9
ATOM      9  C   UNL A   1      33.799  25.484  24.130  1.00  0.00     0.080 C 
BRANCH   9  10
ATOM     10  C   UNL A   1      33.615  25.189  22.684  1.00  0.00     0.109 A 
ATOM     11  C   UNL A   1      32.950  22.653  22.596  1.00  0.00     0.073 C 
ATOM     12  C   UNL A   1      33.248  23.988  22.041  1.00  0.00     0.105 A 
ATOM     13  N   UNL A   1      33.117  24.206  20.731  1.00  0.00    -0.055 NA
ATOM     14  O   UNL A   1      33.334  25.569  20.570  1.00  0.00    -0.244 OA
ATOM     15  N   UNL A   1      33.597  26.178  21.790  1.00  0.00    -0.055 NA
ENDBRANCH   9  10
ENDBRANCH   8   9
BRANCH   8  16
ATOM     16  C   UNL A   1      32.792  27.406  25.530  1.00  0.00    -0.021 A 
ATOM     17  C   UNL A   1      33.851  27.677  26.429  1.00  0.00     0.006 A 
ATOM     18  C   UNL A   1      31.932  28.491  25.244  1.00  0.00     0.021 A 
ATOM     19  C   UNL A   1      33.969  28.895  27.102  1.00  0.00     0.000 A 
ATOM     20  C   UNL A   1      32.026  29.698  25.958  1.00  0.00     0.016 A 
ATOM     21  Br  UNL A   1      30.637  28.482  23.848  1.00  0.00    -0.051 Br
ATOM     22  C   UNL A   1      33.030  29.892  26.901  1.00  0.00     0.001 A 
ENDBRANCH   8  16
ENDBRANCH   5   8
ENDBRANCH   3   4
ENDBRANCH   2   3
ENDBRANCH   1   2
BRANCH   1  23
ATOM     23  C   UNL A   1      37.247  22.126  24.921  1.00  0.00     0.116 C 
BRANCH  23  24
ATOM     24  N   UNL A   1      38.147  21.069  25.369  1.00  0.00    -0.352 N 
ATOM     25  C   UNL A   1      39.295  21.158  26.125  1.00  0.00     0.251 C 
ATOM     26  H   UNL A   1      37.896  20.158  25.092  1.00  0.00     0.163 HD
ATOM     27  O   UNL A   1      39.990  20.174  26.318  1.00  0.00    -0.269 OA
BRANCH  25  28
ATOM     28  C   UNL A   1      39.688  22.474  26.670  1.00  0.00     0.039 A 
ATOM     29  C   UNL A   1      40.733  22.547  27.593  1.00  0.00     0.014 A 
ATOM     30  C   UNL A   1      39.073  23.636  26.203  1.00  0.00     0.014 A 
ATOM     31  C   UNL A   1      41.222  23.797  27.977  1.00  0.00     0.010 A 
ATOM     32  C   UNL A   1      39.636  24.870  26.496  1.00  0.00     0.010 A 
ATOM     33  C   UNL A   1      40.709  24.967  27.393  1.00  0.00    -0.014 A 
BRANCH  33  34
ATOM     34  C   UNL A   1      41.268  26.309  27.698  1.00  0.00     0.031 A 
ATOM     35  C   UNL A   1      42.677  26.642  27.278  1.00  0.00     0.074 A 
ATOM     36  C   UNL A   1      40.563  27.177  28.452  1.00  0.00     0.049 A 
ATOM     37  N   UNL A   1      43.390  27.702  27.551  1.00  0.00    -0.248 NA
ATOM     38  C   UNL A   1      43.395  25.626  26.489  1.00  0.00     0.031 C 
ATOM     39  C   UNL A   1      39.229  26.932  29.008  1.00  0.00     0.029 A 
ATOM     40  N   UNL A   1      40.884  28.430  28.909  1.00  0.00    -0.354 N 
ATOM     41  C   UNL A   1      44.651  27.455  27.021  1.00  0.00     0.074 A 
ATOM     42  C   UNL A   1      44.619  26.129  26.449  1.00  0.00     0.031 C 
ATOM     43  C   UNL A   1      38.841  28.005  29.715  1.00  0.00     0.029 A 
ATOM     44  C   UNL A   1      39.906  29.002  29.691  1.00  0.00     0.049 A 
ATOM     45  H   UNL A   1      41.733  28.879  28.697  1.00  0.00     0.167 HD
ATOM     46  C   UNL A   1      45.728  28.274  26.975  1.00  0.00     0.034 A 
ATOM     47  C   UNL A   1      39.875  30.195  30.317  1.00  0.00     0.034 A 
ATOM     48  C   UNL A   1      45.725  29.623  27.466  1.00  0.00     0.049 A 
ATOM     49  C   UNL A   1      41.050  31.123  30.171  1.00  0.00     0.074 A 
ATOM     50  C   UNL A   1      46.721  30.577  27.365  1.00  0.00     0.029 A 
ATOM     51  N   UNL A   1      44.669  30.213  28.143  1.00  0.00    -0.354 N 
ATOM     52  N   UNL A   1      42.173  30.936  29.520  1.00  0.00    -0.248 NA
ATOM     53  C   UNL A   1      40.941  32.442  30.813  1.00  0.00     0.031 C 
ATOM     54  C   UNL A   1      46.268  31.745  27.989  1.00  0.00     0.029 A 
ATOM     55  C   UNL A   1      44.987  31.520  28.466  1.00  0.00     0.049 A 
ATOM     56  H   UNL A   1      43.819  29.768  28.362  1.00  0.00     0.167 HD
ATOM     57  C   UNL A   1      42.888  32.122  29.643  1.00  0.00     0.074 A 
ATOM     58  C   UNL A   1      42.060  33.030  30.411  1.00  0.00     0.031 C 
ATOM     59  C   UNL A   1      44.123  32.428  29.176  1.00  0.00     0.034 A 
BRANCH  46  60
ATOM     60  C   UNL A   1      46.973  27.755  26.304  1.00  0.00     0.023 A 
ATOM     61  C   UNL A   1      47.918  27.030  27.059  1.00  0.00     0.012 A 
ATOM     62  C   UNL A   1      47.190  27.945  24.926  1.00  0.00     0.148 A 
ATOM     63  C   UNL A   1      49.078  26.538  26.465  1.00  0.00     0.002 A 
ATOM     64  C   UNL A   1      48.327  27.410  24.330  1.00  0.00     0.091 A 
ATOM     65  F   UNL A   1      46.293  28.655  24.227  1.00  0.00    -0.205 F 
ATOM     66  C   UNL A   1      49.277  26.718  25.099  1.00  0.00     0.022 A 
BRANCH  64  67
ATOM     67  S   UNL A   1      48.637  27.518  22.563  1.00  0.00     0.127 S 
ATOM     68  O   UNL A   1      49.946  28.167  22.533  1.00  0.00    -0.237 OA
ATOM     69  O   UNL A   1      48.646  26.110  22.165  1.00  0.00    -0.237 OA
ATOM     70  O   UNL A   1      47.538  28.298  22.011  1.00  0.00    -0.744 OA
ENDBRANCH  64  67
ENDBRANCH  46  60
BRANCH  47  71
ATOM     71  C   UNL A   1      38.653  30.618  31.059  1.00  0.00     0.023 A 
ATOM     72  C   UNL A   1      38.579  30.385  32.447  1.00  0.00     0.012 A 
ATOM     73  C   UNL A   1      37.581  31.266  30.415  1.00  0.00     0.148 A 
ATOM     74  C   UNL A   1      37.448  30.761  33.174  1.00  0.00     0.002 A 
ATOM     75  C   UNL A   1      36.480  31.685  31.155  1.00  0.00     0.091 A 
ATOM     76  F   UNL A   1      37.663  31.470  29.093  1.00  0.00    -0.205 F 
ATOM     77  C   UNL A   1      36.404  31.418  32.531  1.00  0.00     0.022 A 
BRANCH  75  78
ATOM     78  S   UNL A   1      35.145  32.647  30.435  1.00  0.00     0.127 S 
ATOM     79  O   UNL A   1      34.216  32.758  31.556  1.00  0.00    -0.237 OA
ATOM     80  O   UNL A   1      35.828  33.891  30.075  1.00  0.00    -0.237 OA
ATOM     81  O   UNL A   1      34.677  31.871  29.295  1.00  0.00    -0.744 OA
ENDBRANCH  75  78
ENDBRANCH  47  71
BRANCH  59  82
ATOM     82  C   UNL A   1      44.651  33.811  29.448  1.00  0.00     0.023 A 
ATOM     83  C   UNL A   1      45.406  34.054  30.611  1.00  0.00     0.012 A 
ATOM     84  C   UNL A   1      44.473  34.844  28.508  1.00  0.00     0.148 A 
ATOM     85  C   UNL A   1      45.954  35.313  30.848  1.00  0.00     0.002 A 
ATOM     86  C   UNL A   1      45.063  36.083  28.727  1.00  0.00     0.091 A 
ATOM     87  F   UNL A   1      43.734  34.597  27.415  1.00  0.00    -0.205 F 
ATOM     88  C   UNL A   1      45.794  36.323  29.902  1.00  0.00     0.022 A 
BRANCH  86  89
ATOM     89  S   UNL A   1      44.990  37.408  27.515  1.00  0.00     0.127 S 
ATOM     90  O   UNL A   1      45.415  38.560  28.307  1.00  0.00    -0.237 OA
ATOM     91  O   UNL A   1      45.961  36.966  26.512  1.00  0.00    -0.237 OA
ATOM     92  O   UNL A   1      43.612  37.443  27.045  1.00  0.00    -0.744 OA
ENDBRANCH  86  89
ENDBRANCH  59  82
ENDBRANCH  33  34
ENDBRANCH  25  28
ENDBRANCH  23  24
ENDBRANCH   1  23
TORSDOF 17
ENDMDL
MODEL 3
REMARK VINA RESULT:     -11.6      1.504      2.342
REMARK SMILES Cc1nonc1C[C@@H](C(=O)NCCCCNC(=O)c1ccc(-c2c3nc(c(-c4cccc(S(=O)(=O)[O-])c4F)c4ccc([nH]4)c(-c4cccc(S(=O)(=O)[O-])c4F)c4nc(c(-c5cccc(S(=O)(=O)[O-])c5F)c5ccc2[nH]5)C=C4)C=C3)cc1)c1ccccc1Br
REMARK SMILES IDX 14 1 13 2 12 3 11 4 9 5 10 6 8 8 7 9 6 10 1 11 2 12 3 13
REMARK SMILES IDX 4 14 5 15 82 16 83 17 87 18 84 19 86 20 88 21 85 22 15 23
REMARK SMILES IDX 16 24 17 25 18 27 19 28 20 29 81 30 21 31 80 32 22 33 23 34
REMARK SMILES IDX 24 35 74 36 25 37 79 38 73 39 75 40 26 41 78 42 72 43 71 44
REMARK SMILES IDX 27 46 59 47 39 48 58 49 40 50 43 51 57 52 76 53 41 54 42 55
REMARK SMILES IDX 56 57 77 58 44 59 28 60 29 61 37 62 30 63 32 64 38 65 31 66
REMARK SMILES IDX 33 67 34 68 35 69 36 70 60 71 61 72 69 73 62 74 64 75 70 76
REMARK SMILES IDX 63 77 65 78 66 79 67 80 68 81 45 82 46 83 54 84 47 85 49 86
REMARK SMILES IDX 55 87 48 88 50 89 51 90 52 91 53 92
REMARK H PARENT 11 7 16 26 75 45 43 56
REMARK Flexibility Score: inf
ROOT
ATOM      1  C   UNL A   1      31.401  29.194  25.658  1.00  0.00     0.023 C 
ENDROOT
BRANCH   1   2
ATOM      2  C   UNL A   1      30.809  29.148  24.256  1.00  0.00     0.023 C 
BRANCH   2   3
ATOM      3  C   UNL A   1      30.892  27.787  23.565  1.00  0.00     0.116 C 
BRANCH   3   4
ATOM      4  N   UNL A   1      32.246  27.584  23.092  1.00  0.00    -0.356 N 
ATOM      5  C   UNL A   1      33.221  26.782  23.615  1.00  0.00     0.227 C 
ATOM      6  O   UNL A   1      34.395  27.113  23.442  1.00  0.00    -0.274 OA
ATOM      7  H   UNL A   1      32.499  28.093  22.288  1.00  0.00     0.163 HD
BRANCH   5   8
ATOM      8  C   UNL A   1      32.850  25.446  24.295  1.00  0.00     0.116 C 
BRANCH   8   9
ATOM      9  C   UNL A   1      32.314  25.765  25.716  1.00  0.00     0.080 C 
BRANCH   9  10
ATOM     10  C   UNL A   1      31.225  24.923  26.277  1.00  0.00     0.109 A 
ATOM     11  C   UNL A   1      32.409  22.704  27.025  1.00  0.00     0.073 C 
ATOM     12  C   UNL A   1      31.272  23.629  26.837  1.00  0.00     0.105 A 
ATOM     13  N   UNL A   1      30.064  23.296  27.295  1.00  0.00    -0.055 NA
ATOM     14  O   UNL A   1      29.277  24.422  27.083  1.00  0.00    -0.244 OA
ATOM     15  N   UNL A   1      30.015  25.440  26.493  1.00  0.00    -0.055 NA
ENDBRANCH   9  10
ENDBRANCH   8   9
BRANCH   8  16
ATOM     16  C   UNL A   1      34.107  24.516  24.339  1.00  0.00    -0.021 A 
ATOM     17  C   UNL A   1      35.056  24.631  25.383  1.00  0.00     0.006 A 
ATOM     18  C   UNL A   1      34.403  23.564  23.336  1.00  0.00     0.021 A 
ATOM     19  C   UNL A   1      36.276  23.951  25.363  1.00  0.00     0.000 A 
ATOM     20  C   UNL A   1      35.651  22.918  23.297  1.00  0.00     0.016 A 
ATOM     21  Br  UNL A   1      33.161  22.996  22.009  1.00  0.00    -0.051 Br
ATOM     22  C   UNL A   1      36.594  23.127  24.297  1.00  0.00     0.001 A 
ENDBRANCH   8  16
ENDBRANCH   5   8
ENDBRANCH   3   4
ENDBRANCH   2   3
ENDBRANCH   1   2
BRANCH   1  23
ATOM     23  C   UNL A   1      32.580  30.139  25.812  1.00  0.00     0.116 C 
BRANCH  23  24
ATOM     24  N   UNL A   1      32.202  31.459  26.302  1.00  0.00    -0.352 N 
ATOM     25  C   UNL A   1      32.858  32.285  27.189  1.00  0.00     0.251 C 
ATOM     26  H   UNL A   1      31.355  31.813  25.947  1.00  0.00     0.163 HD
ATOM     27  O   UNL A   1      32.340  33.320  27.574  1.00  0.00    -0.269 OA
BRANCH  25  28
ATOM     28  C   UNL A   1      34.187  31.877  27.692  1.00  0.00     0.039 A 
ATOM     29  C   UNL A   1      35.157  32.852  27.926  1.00  0.00     0.014 A 
ATOM     30  C   UNL A   1      34.435  30.540  28.005  1.00  0.00     0.014 A 
ATOM     31  C   UNL A   1      36.348  32.496  28.562  1.00  0.00     0.010 A 
ATOM     32  C   UNL A   1      35.566  30.211  28.738  1.00  0.00     0.010 A 
ATOM     33  C   UNL A   1      36.540  31.180  29.018  1.00  0.00    -0.014 A 
BRANCH  33  34
ATOM     34  C   UNL A   1      37.746  30.782  29.787  1.00  0.00     0.031 A 
ATOM     35  C   UNL A   1      38.745  29.839  29.169  1.00  0.00     0.074 A 
ATOM     36  C   UNL A   1      37.881  31.165  31.073  1.00  0.00     0.049 A 
ATOM     37  N   UNL A   1      39.792  29.276  29.711  1.00  0.00    -0.248 NA
ATOM     38  C   UNL A   1      38.507  29.437  27.771  1.00  0.00     0.031 C 
ATOM     39  C   UNL A   1      36.930  31.993  31.819  1.00  0.00     0.029 A 
ATOM     40  N   UNL A   1      38.859  30.881  31.993  1.00  0.00    -0.354 N 
ATOM     41  C   UNL A   1      40.300  28.414  28.745  1.00  0.00     0.074 A 
ATOM     42  C   UNL A   1      39.422  28.495  27.600  1.00  0.00     0.031 C 
ATOM     43  C   UNL A   1      37.378  32.163  33.073  1.00  0.00     0.029 A 
ATOM     44  C   UNL A   1      38.631  31.433  33.232  1.00  0.00     0.049 A 
ATOM     45  H   UNL A   1      39.651  30.334  31.785  1.00  0.00     0.167 HD
ATOM     46  C   UNL A   1      41.419  27.654  28.789  1.00  0.00     0.034 A 
ATOM     47  C   UNL A   1      39.352  31.357  34.369  1.00  0.00     0.034 A 
ATOM     48  C   UNL A   1      42.335  27.647  29.894  1.00  0.00     0.049 A 
ATOM     49  C   UNL A   1      40.642  30.581  34.360  1.00  0.00     0.074 A 
ATOM     50  C   UNL A   1      43.557  27.007  29.995  1.00  0.00     0.029 A 
ATOM     51  N   UNL A   1      42.133  28.321  31.089  1.00  0.00    -0.354 N 
ATOM     52  N   UNL A   1      41.192  29.906  33.380  1.00  0.00    -0.248 NA
ATOM     53  C   UNL A   1      41.430  30.586  35.602  1.00  0.00     0.031 C 
ATOM     54  C   UNL A   1      44.091  27.289  31.257  1.00  0.00     0.029 A 
ATOM     55  C   UNL A   1      43.208  28.113  31.935  1.00  0.00     0.049 A 
ATOM     56  H   UNL A   1      41.342  28.864  31.304  1.00  0.00     0.167 HD
ATOM     57  C   UNL A   1      42.404  29.437  33.872  1.00  0.00     0.074 A 
ATOM     58  C   UNL A   1      42.518  29.924  35.232  1.00  0.00     0.031 C 
ATOM     59  C   UNL A   1      43.332  28.660  33.262  1.00  0.00     0.034 A 
BRANCH  46  60
ATOM     60  C   UNL A   1      41.751  26.829  27.573  1.00  0.00     0.023 A 
ATOM     61  C   UNL A   1      42.332  27.450  26.449  1.00  0.00     0.012 A 
ATOM     62  C   UNL A   1      41.529  25.438  27.555  1.00  0.00     0.148 A 
ATOM     63  C   UNL A   1      42.650  26.711  25.311  1.00  0.00     0.002 A 
ATOM     64  C   UNL A   1      41.893  24.699  26.434  1.00  0.00     0.091 A 
ATOM     65  F   UNL A   1      40.955  24.865  28.623  1.00  0.00    -0.205 F 
ATOM     66  C   UNL A   1      42.441  25.336  25.308  1.00  0.00     0.022 A 
BRANCH  64  67
ATOM     67  S   UNL A   1      41.739  22.910  26.360  1.00  0.00     0.127 S 
ATOM     68  O   UNL A   1      42.442  22.605  25.116  1.00  0.00    -0.237 OA
ATOM     69  O   UNL A   1      42.438  22.490  27.575  1.00  0.00    -0.237 OA
ATOM     70  O   UNL A   1      40.309  22.632  26.356  1.00  0.00    -0.744 OA
ENDBRANCH  64  67
ENDBRANCH  46  60
BRANCH  47  71
ATOM     71  C   UNL A   1      38.921  32.113  35.579  1.00  0.00     0.023 A 
ATOM     72  C   UNL A   1      39.152  33.502  35.638  1.00  0.00     0.012 A 
ATOM     73  C   UNL A   1      38.266  31.481  36.654  1.00  0.00     0.148 A 
ATOM     74  C   UNL A   1      38.768  34.242  36.758  1.00  0.00     0.002 A 
ATOM     75  C   UNL A   1      37.840  32.233  37.744  1.00  0.00     0.091 A 
ATOM     76  F   UNL A   1      38.065  30.157  36.586  1.00  0.00    -0.205 F 
ATOM     77  C   UNL A   1      38.105  33.610  37.805  1.00  0.00     0.022 A 
BRANCH  75  78
ATOM     78  S   UNL A   1      36.869  31.528  39.081  1.00  0.00     0.127 S 
ATOM     79  O   UNL A   1      36.650  30.164  38.604  1.00  0.00    -0.237 OA
ATOM     80  O   UNL A   1      37.786  31.644  40.215  1.00  0.00    -0.237 OA
ATOM     81  O   UNL A   1      35.682  32.365  39.183  1.00  0.00    -0.744 OA
ENDBRANCH  75  78
ENDBRANCH  47  71
BRANCH  59  82
ATOM     82  C   UNL A   1      44.574  28.312  34.038  1.00  0.00     0.023 A 
ATOM     83  C   UNL A   1      45.687  29.174  33.995  1.00  0.00     0.012 A 
ATOM     84  C   UNL A   1      44.603  27.181  34.875  1.00  0.00     0.148 A 
ATOM     85  C   UNL A   1      46.822  28.900  34.756  1.00  0.00     0.002 A 
ATOM     86  C   UNL A   1      45.719  26.940  35.667  1.00  0.00     0.091 A 
ATOM     87  F   UNL A   1      43.539  26.363  34.885  1.00  0.00    -0.205 F 
ATOM     88  C   UNL A   1      46.834  27.792  35.600  1.00  0.00     0.022 A 
BRANCH  86  89
ATOM     89  S   UNL A   1      45.780  25.592  36.854  1.00  0.00     0.127 S 
ATOM     90  O   UNL A   1      45.264  24.476  36.065  1.00  0.00    -0.237 OA
ATOM     91  O   UNL A   1      47.209  25.513  37.161  1.00  0.00    -0.237 OA
ATOM     92  O   UNL A   1      44.946  26.008  37.974  1.00  0.00    -0.744 OA
ENDBRANCH  86  89
ENDBRANCH  59  82
ENDBRANCH  33  34
ENDBRANCH  25  28
ENDBRANCH  23  24
ENDBRANCH   1  23
TORSDOF 17
ENDMDL
