MODEL 1
REMARK VINA RESULT:     -10.4      0.000      0.000
REMARK SMILES O=C(CCCc1nc(-c2ccc(Cl)c(Cl)c2)c(-c2ccccc2)o1)NCCCCNC(=O)c1ccc(-c2c3nc(c(-c4cccc(S(=O)(=O)[O-])c4F)c4ccc([nH]4)c(-c4cccc(S(=O)(=O)[O-])c4F)c4nc(c(-c5cccc(S(=O)(=O)[O-])c5F)c5ccc2[nH]5)C=C4)C=C3)cc1
REMARK SMILES IDX 27 1 26 2 25 3 1 4 2 5 3 7 4 8 5 9 6 10 7 11 24 12 8 13
REMARK SMILES IDX 17 14 9 15 10 16 16 17 11 18 14 19 12 20 15 21 13 22 18 23
REMARK SMILES IDX 19 24 23 25 20 26 22 27 21 28 28 29 29 30 30 31 31 32 32 34
REMARK SMILES IDX 33 35 34 36 95 37 35 38 94 39 36 40 37 41 38 42 88 43 39 44
REMARK SMILES IDX 93 45 87 46 89 47 40 48 92 49 86 50 85 51 41 53 73 54 53 55
REMARK SMILES IDX 72 56 54 57 57 58 71 59 90 60 55 61 56 62 70 64 91 65 58 66
REMARK SMILES IDX 42 67 43 68 51 69 44 70 46 71 52 72 45 73 47 74 48 75 49 76
REMARK SMILES IDX 50 77 74 78 75 79 83 80 76 81 78 82 84 83 77 84 79 85 80 86
REMARK SMILES IDX 81 87 82 88 59 89 60 90 68 91 61 92 63 93 69 94 62 95 64 96
REMARK SMILES IDX 65 97 66 98 67 99
REMARK H PARENT 25 6 30 33 89 52 57 63
REMARK Flexibility Score: inf
ROOT
ATOM      1  C   UNL A   1      41.622  19.512  26.245  1.00  0.00     0.023 C 
ENDROOT
BRANCH   1   2
ATOM      2  C   UNL A   1      42.599  18.344  26.153  1.00  0.00     0.116 C 
BRANCH   2   3
ATOM      3  N   UNL A   1      43.976  18.782  26.238  1.00  0.00    -0.356 N 
ATOM      4  O   UNL A   1      44.518  18.287  24.061  1.00  0.00    -0.275 OA
ATOM      5  C   UNL A   1      44.832  18.721  25.165  1.00  0.00     0.220 C 
ATOM      6  H   UNL A   1      44.311  19.133  27.094  1.00  0.00     0.163 HD
BRANCH   5   7
ATOM      7  C   UNL A   1      46.225  19.233  25.455  1.00  0.00     0.100 C 
BRANCH   7   8
ATOM      8  C   UNL A   1      46.603  20.474  24.642  1.00  0.00     0.020 C 
BRANCH   8   9
ATOM      9  C   UNL A   1      45.454  21.358  24.149  1.00  0.00     0.098 C 
BRANCH   9  10
ATOM     10  C   UNL A   1      45.156  22.557  24.981  1.00  0.00     0.195 A 
ATOM     11  N   UNL A   1      44.873  23.775  24.562  1.00  0.00    -0.213 NA
ATOM     12  O   UNL A   1      45.147  22.410  26.343  1.00  0.00    -0.440 OA
ATOM     13  C   UNL A   1      44.755  24.499  25.727  1.00  0.00     0.117 A 
ATOM     14  C   UNL A   1      44.827  23.652  26.814  1.00  0.00     0.162 A 
BRANCH  13  15
ATOM     15  C   UNL A   1      44.786  25.946  25.784  1.00  0.00     0.006 A 
ATOM     16  C   UNL A   1      45.893  26.645  26.273  1.00  0.00     0.012 A 
ATOM     17  C   UNL A   1      43.615  26.650  25.464  1.00  0.00     0.032 A 
ATOM     18  C   UNL A   1      45.787  28.020  26.525  1.00  0.00     0.023 A 
ATOM     19  C   UNL A   1      43.507  28.015  25.719  1.00  0.00     0.060 A 
ATOM     20  C   UNL A   1      44.574  28.690  26.308  1.00  0.00     0.059 A 
ATOM     21  Cl  UNL A   1      41.993  28.769  25.360  1.00  0.00    -0.083 Cl
ATOM     22  Cl  UNL A   1      44.359  30.281  26.939  1.00  0.00    -0.083 Cl
ENDBRANCH  13  15
BRANCH  14  23
ATOM     23  C   UNL A   1      44.676  23.808  28.246  1.00  0.00     0.020 A 
ATOM     24  C   UNL A   1      43.596  23.244  28.933  1.00  0.00     0.012 A 
ATOM     25  C   UNL A   1      45.674  24.477  28.969  1.00  0.00     0.012 A 
ATOM     26  C   UNL A   1      43.534  23.324  30.326  1.00  0.00     0.001 A 
ATOM     27  C   UNL A   1      45.605  24.566  30.358  1.00  0.00     0.001 A 
ATOM     28  C   UNL A   1      44.539  23.983  31.037  1.00  0.00     0.000 A 
ENDBRANCH  14  23
ENDBRANCH   9  10
ENDBRANCH   8   9
ENDBRANCH   7   8
ENDBRANCH   5   7
ENDBRANCH   2   3
ENDBRANCH   1   2
BRANCH   1  29
ATOM     29  C   UNL A   1      42.242  20.900  26.056  1.00  0.00     0.023 C 
BRANCH  29  30
ATOM     30  C   UNL A   1      41.424  22.063  26.612  1.00  0.00     0.116 C 
BRANCH  30  31
ATOM     31  N   UNL A   1      40.035  22.026  26.176  1.00  0.00    -0.352 N 
ATOM     32  C   UNL A   1      39.035  22.950  26.353  1.00  0.00     0.251 C 
ATOM     33  H   UNL A   1      39.774  21.217  25.679  1.00  0.00     0.163 HD
ATOM     34  O   UNL A   1      37.878  22.659  26.049  1.00  0.00    -0.269 OA
BRANCH  32  35
ATOM     35  C   UNL A   1      39.332  24.281  26.929  1.00  0.00     0.039 A 
ATOM     36  C   UNL A   1      39.029  24.518  28.272  1.00  0.00     0.014 A 
ATOM     37  C   UNL A   1      39.898  25.297  26.153  1.00  0.00     0.014 A 
ATOM     38  C   UNL A   1      39.355  25.746  28.853  1.00  0.00     0.010 A 
ATOM     39  C   UNL A   1      40.299  26.489  26.755  1.00  0.00     0.010 A 
ATOM     40  C   UNL A   1      40.032  26.728  28.111  1.00  0.00    -0.014 A 
BRANCH  40  41
ATOM     41  C   UNL A   1      40.483  27.999  28.741  1.00  0.00     0.031 A 
ATOM     42  C   UNL A   1      41.890  28.128  29.260  1.00  0.00     0.074 A 
ATOM     43  C   UNL A   1      39.604  29.011  28.891  1.00  0.00     0.049 A 
ATOM     44  N   UNL A   1      42.450  29.131  29.884  1.00  0.00    -0.248 NA
ATOM     45  C   UNL A   1      42.783  26.972  29.066  1.00  0.00     0.031 C 
ATOM     46  C   UNL A   1      38.211  28.989  28.443  1.00  0.00     0.029 A 
ATOM     47  N   UNL A   1      39.742  30.253  29.464  1.00  0.00    -0.354 N 
ATOM     48  C   UNL A   1      43.745  28.718  30.186  1.00  0.00     0.074 A 
ATOM     49  C   UNL A   1      43.877  27.361  29.706  1.00  0.00     0.031 C 
ATOM     50  C   UNL A   1      37.638  30.170  28.719  1.00  0.00     0.029 A 
ATOM     51  C   UNL A   1      38.593  31.012  29.430  1.00  0.00     0.049 A 
ATOM     52  H   UNL A   1      40.585  30.571  29.861  1.00  0.00     0.167 HD
ATOM     53  C   UNL A   1      44.739  29.415  30.784  1.00  0.00     0.034 A 
ATOM     54  C   UNL A   1      38.334  32.239  29.930  1.00  0.00     0.034 A 
ATOM     55  C   UNL A   1      44.608  30.779  31.221  1.00  0.00     0.049 A 
ATOM     56  C   UNL A   1      39.456  32.959  30.653  1.00  0.00     0.074 A 
ATOM     57  C   UNL A   1      45.575  31.606  31.764  1.00  0.00     0.029 A 
ATOM     58  N   UNL A   1      43.432  31.514  31.177  1.00  0.00    -0.354 N 
ATOM     59  N   UNL A   1      40.714  32.608  30.795  1.00  0.00    -0.248 NA
ATOM     60  C   UNL A   1      39.131  34.256  31.266  1.00  0.00     0.031 C 
ATOM     61  C   UNL A   1      44.974  32.826  32.084  1.00  0.00     0.029 A 
ATOM     62  C   UNL A   1      43.642  32.777  31.702  1.00  0.00     0.049 A 
ATOM     63  H   UNL A   1      42.574  31.184  30.825  1.00  0.00     0.167 HD
ATOM     64  C   UNL A   1      41.340  33.669  31.445  1.00  0.00     0.074 A 
ATOM     65  C   UNL A   1      40.324  34.676  31.666  1.00  0.00     0.031 C 
ATOM     66  C   UNL A   1      42.636  33.800  31.831  1.00  0.00     0.034 A 
BRANCH  53  67
ATOM     67  C   UNL A   1      46.071  28.731  30.969  1.00  0.00     0.023 A 
ATOM     68  C   UNL A   1      46.274  27.877  32.072  1.00  0.00     0.012 A 
ATOM     69  C   UNL A   1      47.101  28.885  30.018  1.00  0.00     0.148 A 
ATOM     70  C   UNL A   1      47.491  27.218  32.249  1.00  0.00     0.002 A 
ATOM     71  C   UNL A   1      48.295  28.188  30.176  1.00  0.00     0.091 A 
ATOM     72  F   UNL A   1      46.899  29.713  28.985  1.00  0.00    -0.205 F 
ATOM     73  C   UNL A   1      48.495  27.366  31.296  1.00  0.00     0.022 A 
BRANCH  71  74
ATOM     74  S   UNL A   1      49.620  28.246  28.965  1.00  0.00     0.127 S 
ATOM     75  O   UNL A   1      50.006  29.656  29.019  1.00  0.00    -0.237 OA
ATOM     76  O   UNL A   1      50.601  27.324  29.539  1.00  0.00    -0.237 OA
ATOM     77  O   UNL A   1      49.036  27.807  27.706  1.00  0.00    -0.744 OA
ENDBRANCH  71  74
ENDBRANCH  53  67
BRANCH  54  78
ATOM     78  C   UNL A   1      36.991  32.889  29.763  1.00  0.00     0.023 A 
ATOM     79  C   UNL A   1      36.542  33.248  28.479  1.00  0.00     0.012 A 
ATOM     80  C   UNL A   1      36.164  33.196  30.863  1.00  0.00     0.148 A 
ATOM     81  C   UNL A   1      35.354  33.967  28.306  1.00  0.00     0.002 A 
ATOM     82  C   UNL A   1      34.978  33.902  30.692  1.00  0.00     0.091 A 
ATOM     83  F   UNL A   1      36.520  32.734  32.064  1.00  0.00    -0.205 F 
ATOM     84  C   UNL A   1      34.581  34.308  29.413  1.00  0.00     0.022 A 
BRANCH  82  85
ATOM     85  S   UNL A   1      33.891  34.319  32.064  1.00  0.00     0.127 S 
ATOM     86  O   UNL A   1      32.768  34.949  31.375  1.00  0.00    -0.237 OA
ATOM     87  O   UNL A   1      33.605  33.000  32.628  1.00  0.00    -0.237 OA
ATOM     88  O   UNL A   1      34.659  35.193  32.940  1.00  0.00    -0.744 OA
ENDBRANCH  82  85
ENDBRANCH  54  78
BRANCH  66  89
ATOM     89  C   UNL A   1      43.062  35.111  32.445  1.00  0.00     0.023 A 
ATOM     90  C   UNL A   1      43.057  35.277  33.844  1.00  0.00     0.012 A 
ATOM     91  C   UNL A   1      43.550  36.152  31.629  1.00  0.00     0.148 A 
ATOM     92  C   UNL A   1      43.498  36.470  34.417  1.00  0.00     0.002 A 
ATOM     93  C   UNL A   1      44.039  37.317  32.210  1.00  0.00     0.091 A 
ATOM     94  F   UNL A   1      43.534  35.983  30.299  1.00  0.00    -0.205 F 
ATOM     95  C   UNL A   1      44.000  37.483  33.603  1.00  0.00     0.022 A 
BRANCH  93  96
ATOM     96  S   UNL A   1      44.801  38.629  31.248  1.00  0.00     0.127 S 
ATOM     97  O   UNL A   1      45.471  39.409  32.286  1.00  0.00    -0.237 OA
ATOM     98  O   UNL A   1      45.702  37.884  30.368  1.00  0.00    -0.237 OA
ATOM     99  O   UNL A   1      43.712  39.309  30.561  1.00  0.00    -0.744 OA
ENDBRANCH  93  96
ENDBRANCH  66  89
ENDBRANCH  40  41
ENDBRANCH  32  35
ENDBRANCH  30  31
ENDBRANCH  29  30
ENDBRANCH   1  29
TORSDOF 19
ENDMDL
MODEL 2
REMARK VINA RESULT:     -10.3      6.337     11.416
REMARK SMILES O=C(CCCc1nc(-c2ccc(Cl)c(Cl)c2)c(-c2ccccc2)o1)NCCCCNC(=O)c1ccc(-c2c3nc(c(-c4cccc(S(=O)(=O)[O-])c4F)c4ccc([nH]4)c(-c4cccc(S(=O)(=O)[O-])c4F)c4nc(c(-c5cccc(S(=O)(=O)[O-])c5F)c5ccc2[nH]5)C=C4)C=C3)cc1
REMARK SMILES IDX 27 1 26 2 25 3 1 4 2 5 3 7 4 8 5 9 6 10 7 11 24 12 8 13
REMARK SMILES IDX 17 14 9 15 10 16 16 17 11 18 14 19 12 20 15 21 13 22 18 23
REMARK SMILES IDX 19 24 23 25 20 26 22 27 21 28 28 29 29 30 30 31 31 32 32 34
REMARK SMILES IDX 33 35 34 36 95 37 35 38 94 39 36 40 37 41 38 42 88 43 39 44
REMARK SMILES IDX 93 45 87 46 89 47 40 48 92 49 86 50 85 51 41 53 73 54 53 55
REMARK SMILES IDX 72 56 54 57 57 58 71 59 90 60 55 61 56 62 70 64 91 65 58 66
REMARK SMILES IDX 42 67 43 68 51 69 44 70 46 71 52 72 45 73 47 74 48 75 49 76
REMARK SMILES IDX 50 77 74 78 75 79 83 80 76 81 78 82 84 83 77 84 79 85 80 86
REMARK SMILES IDX 81 87 82 88 59 89 60 90 68 91 61 92 63 93 69 94 62 95 64 96
REMARK SMILES IDX 65 97 66 98 67 99
REMARK H PARENT 25 6 30 33 89 52 57 63
REMARK Flexibility Score: inf
ROOT
ATOM      1  C   UNL A   1      31.046  31.554  25.757  1.00  0.00     0.023 C 
ENDROOT
BRANCH   1   2
ATOM      2  C   UNL A   1      30.171  32.568  25.025  1.00  0.00     0.116 C 
BRANCH   2   3
ATOM      3  N   UNL A   1      29.415  31.959  23.953  1.00  0.00    -0.356 N 
ATOM      4  O   UNL A   1      28.640  33.928  23.059  1.00  0.00    -0.275 OA
ATOM      5  C   UNL A   1      28.706  32.703  23.040  1.00  0.00     0.220 C 
ATOM      6  H   UNL A   1      29.406  30.978  23.875  1.00  0.00     0.163 HD
BRANCH   5   7
ATOM      7  C   UNL A   1      27.991  31.880  21.993  1.00  0.00     0.100 C 
BRANCH   7   8
ATOM      8  C   UNL A   1      28.202  30.371  22.151  1.00  0.00     0.020 C 
BRANCH   8   9
ATOM      9  C   UNL A   1      29.428  29.766  21.460  1.00  0.00     0.098 C 
BRANCH   9  10
ATOM     10  C   UNL A   1      30.203  28.781  22.263  1.00  0.00     0.195 A 
ATOM     11  N   UNL A   1      30.452  27.521  21.967  1.00  0.00    -0.213 NA
ATOM     12  O   UNL A   1      30.755  29.204  23.444  1.00  0.00    -0.440 OA
ATOM     13  C   UNL A   1      31.138  27.058  23.067  1.00  0.00     0.117 A 
ATOM     14  C   UNL A   1      31.407  28.104  23.925  1.00  0.00     0.162 A 
BRANCH  13  15
ATOM     15  C   UNL A   1      31.331  25.654  23.365  1.00  0.00     0.006 A 
ATOM     16  C   UNL A   1      30.504  24.965  24.255  1.00  0.00     0.012 A 
ATOM     17  C   UNL A   1      32.466  25.013  22.845  1.00  0.00     0.032 A 
ATOM     18  C   UNL A   1      30.869  23.681  24.687  1.00  0.00     0.023 A 
ATOM     19  C   UNL A   1      32.832  23.741  23.278  1.00  0.00     0.060 A 
ATOM     20  C   UNL A   1      32.065  23.097  24.247  1.00  0.00     0.059 A 
ATOM     21  Cl  UNL A   1      34.291  23.075  22.631  1.00  0.00    -0.083 Cl
ATOM     22  Cl  UNL A   1      32.665  21.689  25.041  1.00  0.00    -0.083 Cl
ENDBRANCH  13  15
BRANCH  14  23
ATOM     23  C   UNL A   1      32.157  28.253  25.155  1.00  0.00     0.020 A 
ATOM     24  C   UNL A   1      33.470  28.735  25.158  1.00  0.00     0.012 A 
ATOM     25  C   UNL A   1      31.526  27.978  26.377  1.00  0.00     0.012 A 
ATOM     26  C   UNL A   1      34.129  28.965  26.368  1.00  0.00     0.001 A 
ATOM     27  C   UNL A   1      32.189  28.197  27.583  1.00  0.00     0.001 A 
ATOM     28  C   UNL A   1      33.487  28.698  27.578  1.00  0.00     0.000 A 
ENDBRANCH  14  23
ENDBRANCH   9  10
ENDBRANCH   8   9
ENDBRANCH   7   8
ENDBRANCH   5   7
ENDBRANCH   2   3
ENDBRANCH   1   2
BRANCH   1  29
ATOM     29  C   UNL A   1      31.452  31.947  27.180  1.00  0.00     0.023 C 
BRANCH  29  30
ATOM     30  C   UNL A   1      32.735  32.765  27.292  1.00  0.00     0.116 C 
BRANCH  30  31
ATOM     31  N   UNL A   1      32.480  34.160  27.623  1.00  0.00    -0.352 N 
ATOM     32  C   UNL A   1      33.058  34.954  28.583  1.00  0.00     0.251 C 
ATOM     33  H   UNL A   1      31.790  34.600  27.076  1.00  0.00     0.163 HD
ATOM     34  O   UNL A   1      32.586  36.067  28.815  1.00  0.00    -0.269 OA
BRANCH  32  35
ATOM     35  C   UNL A   1      34.225  34.473  29.357  1.00  0.00     0.039 A 
ATOM     36  C   UNL A   1      34.009  33.871  30.600  1.00  0.00     0.014 A 
ATOM     37  C   UNL A   1      35.527  34.618  28.871  1.00  0.00     0.014 A 
ATOM     38  C   UNL A   1      35.089  33.356  31.321  1.00  0.00     0.010 A 
ATOM     39  C   UNL A   1      36.592  34.029  29.551  1.00  0.00     0.010 A 
ATOM     40  C   UNL A   1      36.386  33.392  30.783  1.00  0.00    -0.014 A 
BRANCH  40  41
ATOM     41  C   UNL A   1      37.532  32.753  31.487  1.00  0.00     0.031 A 
ATOM     42  C   UNL A   1      38.249  31.588  30.860  1.00  0.00     0.074 A 
ATOM     43  C   UNL A   1      37.884  33.192  32.712  1.00  0.00     0.049 A 
ATOM     44  N   UNL A   1      39.231  30.869  31.338  1.00  0.00    -0.248 NA
ATOM     45  C   UNL A   1      37.796  31.163  29.523  1.00  0.00     0.031 C 
ATOM     46  C   UNL A   1      37.246  34.302  33.424  1.00  0.00     0.029 A 
ATOM     47  N   UNL A   1      38.857  32.764  33.583  1.00  0.00    -0.354 N 
ATOM     48  C   UNL A   1      39.490  29.891  30.383  1.00  0.00     0.074 A 
ATOM     49  C   UNL A   1      38.540  30.088  29.310  1.00  0.00     0.031 C 
ATOM     50  C   UNL A   1      37.868  34.492  34.597  1.00  0.00     0.029 A 
ATOM     51  C   UNL A   1      38.901  33.475  34.763  1.00  0.00     0.049 A 
ATOM     52  H   UNL A   1      39.467  32.018  33.382  1.00  0.00     0.167 HD
ATOM     53  C   UNL A   1      40.448  28.934  30.386  1.00  0.00     0.034 A 
ATOM     54  C   UNL A   1      39.673  33.315  35.858  1.00  0.00     0.034 A 
ATOM     55  C   UNL A   1      41.413  28.774  31.440  1.00  0.00     0.049 A 
ATOM     56  C   UNL A   1      40.689  32.188  35.849  1.00  0.00     0.074 A 
ATOM     57  C   UNL A   1      42.476  27.892  31.507  1.00  0.00     0.029 A 
ATOM     58  N   UNL A   1      41.425  29.506  32.619  1.00  0.00    -0.354 N 
ATOM     59  N   UNL A   1      41.015  31.370  34.874  1.00  0.00    -0.248 NA
ATOM     60  C   UNL A   1      41.459  31.975  37.083  1.00  0.00     0.031 C 
ATOM     61  C   UNL A   1      43.106  28.063  32.743  1.00  0.00     0.029 A 
ATOM     62  C   UNL A   1      42.463  29.082  33.429  1.00  0.00     0.049 A 
ATOM     63  H   UNL A   1      40.787  30.221  32.846  1.00  0.00     0.167 HD
ATOM     64  C   UNL A   1      42.072  30.601  35.353  1.00  0.00     0.074 A 
ATOM     65  C   UNL A   1      42.334  31.053  36.703  1.00  0.00     0.031 C 
ATOM     66  C   UNL A   1      42.763  29.607  34.737  1.00  0.00     0.034 A 
BRANCH  53  67
ATOM     67  C   UNL A   1      40.527  28.007  29.199  1.00  0.00     0.023 A 
ATOM     68  C   UNL A   1      39.647  26.910  29.105  1.00  0.00     0.012 A 
ATOM     69  C   UNL A   1      41.431  28.257  28.146  1.00  0.00     0.148 A 
ATOM     70  C   UNL A   1      39.689  26.055  28.005  1.00  0.00     0.002 A 
ATOM     71  C   UNL A   1      41.436  27.426  27.030  1.00  0.00     0.091 A 
ATOM     72  F   UNL A   1      42.273  29.293  28.258  1.00  0.00    -0.205 F 
ATOM     73  C   UNL A   1      40.575  26.318  26.964  1.00  0.00     0.022 A 
BRANCH  71  74
ATOM     74  S   UNL A   1      42.482  27.726  25.601  1.00  0.00     0.127 S 
ATOM     75  O   UNL A   1      41.924  28.976  25.085  1.00  0.00    -0.237 OA
ATOM     76  O   UNL A   1      43.806  27.856  26.211  1.00  0.00    -0.237 OA
ATOM     77  O   UNL A   1      42.322  26.567  24.734  1.00  0.00    -0.744 OA
ENDBRANCH  71  74
ENDBRANCH  53  67
BRANCH  54  78
ATOM     78  C   UNL A   1      39.556  34.229  37.043  1.00  0.00     0.023 A 
ATOM     79  C   UNL A   1      40.063  35.540  36.969  1.00  0.00     0.012 A 
ATOM     80  C   UNL A   1      38.984  33.809  38.262  1.00  0.00     0.148 A 
ATOM     81  C   UNL A   1      40.081  36.370  38.096  1.00  0.00     0.002 A 
ATOM     82  C   UNL A   1      38.993  34.636  39.379  1.00  0.00     0.091 A 
ATOM     83  F   UNL A   1      38.378  32.620  38.293  1.00  0.00    -0.205 F 
ATOM     84  C   UNL A   1      39.561  35.913  39.304  1.00  0.00     0.022 A 
BRANCH  82  85
ATOM     85  S   UNL A   1      38.278  34.144  40.956  1.00  0.00     0.127 S 
ATOM     86  O   UNL A   1      39.266  33.185  41.446  1.00  0.00    -0.237 OA
ATOM     87  O   UNL A   1      38.245  35.416  41.677  1.00  0.00    -0.237 OA
ATOM     88  O   UNL A   1      36.965  33.591  40.652  1.00  0.00    -0.744 OA
ENDBRANCH  82  85
ENDBRANCH  54  78
BRANCH  66  89
ATOM     89  C   UNL A   1      43.933  28.999  35.472  1.00  0.00     0.023 A 
ATOM     90  C   UNL A   1      45.209  29.590  35.393  1.00  0.00     0.012 A 
ATOM     91  C   UNL A   1      43.741  27.883  36.314  1.00  0.00     0.148 A 
ATOM     92  C   UNL A   1      46.281  29.059  36.111  1.00  0.00     0.002 A 
ATOM     93  C   UNL A   1      44.801  27.395  37.068  1.00  0.00     0.091 A 
ATOM     94  F   UNL A   1      42.523  27.325  36.367  1.00  0.00    -0.205 F 
ATOM     95  C   UNL A   1      46.075  27.972  36.957  1.00  0.00     0.022 A 
BRANCH  93  96
ATOM     96  S   UNL A   1      44.604  26.067  38.263  1.00  0.00     0.127 S 
ATOM     97  O   UNL A   1      45.951  25.502  38.306  1.00  0.00    -0.237 OA
ATOM     98  O   UNL A   1      44.208  26.793  39.470  1.00  0.00    -0.237 OA
ATOM     99  O   UNL A   1      43.575  25.188  37.722  1.00  0.00    -0.744 OA
ENDBRANCH  93  96
ENDBRANCH  66  89
ENDBRANCH  40  41
ENDBRANCH  32  35
ENDBRANCH  30  31
ENDBRANCH  29  30
ENDBRANCH   1  29
TORSDOF 19
ENDMDL
MODEL 3
REMARK VINA RESULT:     -10.2      6.139     10.627
REMARK SMILES O=C(CCCc1nc(-c2ccc(Cl)c(Cl)c2)c(-c2ccccc2)o1)NCCCCNC(=O)c1ccc(-c2c3nc(c(-c4cccc(S(=O)(=O)[O-])c4F)c4ccc([nH]4)c(-c4cccc(S(=O)(=O)[O-])c4F)c4nc(c(-c5cccc(S(=O)(=O)[O-])c5F)c5ccc2[nH]5)C=C4)C=C3)cc1
REMARK SMILES IDX 27 1 26 2 25 3 1 4 2 5 3 7 4 8 5 9 6 10 7 11 24 12 8 13
REMARK SMILES IDX 17 14 9 15 10 16 16 17 11 18 14 19 12 20 15 21 13 22 18 23
REMARK SMILES IDX 19 24 23 25 20 26 22 27 21 28 28 29 29 30 30 31 31 32 32 34
REMARK SMILES IDX 33 35 34 36 95 37 35 38 94 39 36 40 37 41 38 42 88 43 39 44
REMARK SMILES IDX 93 45 87 46 89 47 40 48 92 49 86 50 85 51 41 53 73 54 53 55
REMARK SMILES IDX 72 56 54 57 57 58 71 59 90 60 55 61 56 62 70 64 91 65 58 66
REMARK SMILES IDX 42 67 43 68 51 69 44 70 46 71 52 72 45 73 47 74 48 75 49 76
REMARK SMILES IDX 50 77 74 78 75 79 83 80 76 81 78 82 84 83 77 84 79 85 80 86
REMARK SMILES IDX 81 87 82 88 59 89 60 90 68 91 61 92 63 93 69 94 62 95 64 96
REMARK SMILES IDX 65 97 66 98 67 99
REMARK H PARENT 25 6 30 33 89 52 57 63
REMARK Flexibility Score: inf
ROOT
ATOM      1  C   UNL A   1      32.069  30.203  25.767  1.00  0.00     0.023 C 
ENDROOT
BRANCH   1   2
ATOM      2  C   UNL A   1      31.109  29.774  24.662  1.00  0.00     0.116 C 
BRANCH   2   3
ATOM      3  N   UNL A   1      30.864  28.348  24.679  1.00  0.00    -0.356 N 
ATOM      4  O   UNL A   1      30.319  28.174  22.454  1.00  0.00    -0.275 OA
ATOM      5  C   UNL A   1      30.490  27.655  23.552  1.00  0.00     0.220 C 
ATOM      6  H   UNL A   1      30.968  27.858  25.526  1.00  0.00     0.163 HD
BRANCH   5   7
ATOM      7  C   UNL A   1      30.291  26.173  23.776  1.00  0.00     0.100 C 
BRANCH   7   8
ATOM      8  C   UNL A   1      29.542  25.844  25.070  1.00  0.00     0.020 C 
BRANCH   8   9
ATOM      9  C   UNL A   1      30.300  25.030  26.124  1.00  0.00     0.098 C 
BRANCH   9  10
ATOM     10  C   UNL A   1      31.237  24.000  25.596  1.00  0.00     0.195 A 
ATOM     11  N   UNL A   1      30.930  22.833  25.063  1.00  0.00    -0.213 NA
ATOM     12  O   UNL A   1      32.579  24.270  25.633  1.00  0.00    -0.440 OA
ATOM     13  C   UNL A   1      32.156  22.259  24.813  1.00  0.00     0.117 A 
ATOM     14  C   UNL A   1      33.160  23.169  25.071  1.00  0.00     0.162 A 
BRANCH  13  15
ATOM     15  C   UNL A   1      32.346  20.848  24.546  1.00  0.00     0.006 A 
ATOM     16  C   UNL A   1      32.896  19.982  25.495  1.00  0.00     0.012 A 
ATOM     17  C   UNL A   1      32.093  20.376  23.249  1.00  0.00     0.032 A 
ATOM     18  C   UNL A   1      33.274  18.687  25.113  1.00  0.00     0.023 A 
ATOM     19  C   UNL A   1      32.474  19.092  22.868  1.00  0.00     0.060 A 
ATOM     20  C   UNL A   1      33.121  18.266  23.784  1.00  0.00     0.059 A 
ATOM     21  Cl  UNL A   1      32.188  18.638  21.224  1.00  0.00    -0.083 Cl
ATOM     22  Cl  UNL A   1      33.897  16.818  23.259  1.00  0.00    -0.083 Cl
ENDBRANCH  13  15
BRANCH  14  23
ATOM     23  C   UNL A   1      34.600  23.179  24.908  1.00  0.00     0.020 A 
ATOM     24  C   UNL A   1      35.200  22.842  23.690  1.00  0.00     0.012 A 
ATOM     25  C   UNL A   1      35.405  23.608  25.973  1.00  0.00     0.012 A 
ATOM     26  C   UNL A   1      36.583  22.962  23.534  1.00  0.00     0.001 A 
ATOM     27  C   UNL A   1      36.785  23.716  25.820  1.00  0.00     0.001 A 
ATOM     28  C   UNL A   1      37.373  23.400  24.598  1.00  0.00     0.000 A 
ENDBRANCH  14  23
ENDBRANCH   9  10
ENDBRANCH   8   9
ENDBRANCH   7   8
ENDBRANCH   5   7
ENDBRANCH   2   3
ENDBRANCH   1   2
BRANCH   1  29
ATOM     29  C   UNL A   1      31.696  31.501  26.490  1.00  0.00     0.023 C 
BRANCH  29  30
ATOM     30  C   UNL A   1      32.833  32.174  27.254  1.00  0.00     0.116 C 
BRANCH  30  31
ATOM     31  N   UNL A   1      32.562  33.577  27.534  1.00  0.00    -0.352 N 
ATOM     32  C   UNL A   1      33.122  34.408  28.472  1.00  0.00     0.251 C 
ATOM     33  H   UNL A   1      31.874  33.992  26.964  1.00  0.00     0.163 HD
ATOM     34  O   UNL A   1      32.638  35.524  28.661  1.00  0.00    -0.269 OA
BRANCH  32  35
ATOM     35  C   UNL A   1      34.284  33.965  29.275  1.00  0.00     0.039 A 
ATOM     36  C   UNL A   1      34.063  33.148  30.388  1.00  0.00     0.014 A 
ATOM     37  C   UNL A   1      35.585  34.354  28.944  1.00  0.00     0.014 A 
ATOM     38  C   UNL A   1      35.148  32.669  31.125  1.00  0.00     0.010 A 
ATOM     39  C   UNL A   1      36.669  33.807  29.629  1.00  0.00     0.010 A 
ATOM     40  C   UNL A   1      36.464  32.958  30.727  1.00  0.00    -0.014 A 
BRANCH  40  41
ATOM     41  C   UNL A   1      37.633  32.369  31.435  1.00  0.00     0.031 A 
ATOM     42  C   UNL A   1      38.399  31.231  30.814  1.00  0.00     0.074 A 
ATOM     43  C   UNL A   1      37.965  32.827  32.660  1.00  0.00     0.049 A 
ATOM     44  N   UNL A   1      39.407  30.555  31.298  1.00  0.00    -0.248 NA
ATOM     45  C   UNL A   1      37.965  30.784  29.479  1.00  0.00     0.031 C 
ATOM     46  C   UNL A   1      37.281  33.912  33.365  1.00  0.00     0.029 A 
ATOM     47  N   UNL A   1      38.952  32.442  33.534  1.00  0.00    -0.354 N 
ATOM     48  C   UNL A   1      39.707  29.584  30.347  1.00  0.00     0.074 A 
ATOM     49  C   UNL A   1      38.752  29.738  29.272  1.00  0.00     0.031 C 
ATOM     50  C   UNL A   1      37.893  34.132  34.539  1.00  0.00     0.029 A 
ATOM     51  C   UNL A   1      38.965  33.159  34.711  1.00  0.00     0.049 A 
ATOM     52  H   UNL A   1      39.593  31.720  33.337  1.00  0.00     0.167 HD
ATOM     53  C   UNL A   1      40.703  28.667  30.356  1.00  0.00     0.034 A 
ATOM     54  C   UNL A   1      39.741  33.034  35.808  1.00  0.00     0.034 A 
ATOM     55  C   UNL A   1      41.671  28.550  31.413  1.00  0.00     0.049 A 
ATOM     56  C   UNL A   1      40.801  31.949  35.806  1.00  0.00     0.074 A 
ATOM     57  C   UNL A   1      42.770  27.711  31.485  1.00  0.00     0.029 A 
ATOM     58  N   UNL A   1      41.651  29.286  32.589  1.00  0.00    -0.354 N 
ATOM     59  N   UNL A   1      41.162  31.141  34.835  1.00  0.00    -0.248 NA
ATOM     60  C   UNL A   1      41.577  31.772  37.043  1.00  0.00     0.031 C 
ATOM     61  C   UNL A   1      43.389  27.913  32.722  1.00  0.00     0.029 A 
ATOM     62  C   UNL A   1      42.705  28.907  33.403  1.00  0.00     0.049 A 
ATOM     63  H   UNL A   1      40.985  29.976  32.811  1.00  0.00     0.167 HD
ATOM     64  C   UNL A   1      42.249  30.417  35.319  1.00  0.00     0.074 A 
ATOM     65  C   UNL A   1      42.489  30.884  36.668  1.00  0.00     0.031 C 
ATOM     66  C   UNL A   1      42.980  29.449  34.709  1.00  0.00     0.034 A 
BRANCH  53  67
ATOM     67  C   UNL A   1      40.822  27.739  29.172  1.00  0.00     0.023 A 
ATOM     68  C   UNL A   1      40.036  26.570  29.115  1.00  0.00     0.012 A 
ATOM     69  C   UNL A   1      41.666  28.055  28.088  1.00  0.00     0.148 A 
ATOM     70  C   UNL A   1      40.116  25.711  28.020  1.00  0.00     0.002 A 
ATOM     71  C   UNL A   1      41.705  27.218  26.978  1.00  0.00     0.091 A 
ATOM     72  F   UNL A   1      42.419  29.161  28.165  1.00  0.00    -0.205 F 
ATOM     73  C   UNL A   1      40.941  26.040  26.948  1.00  0.00     0.022 A 
BRANCH  71  74
ATOM     74  S   UNL A   1      42.673  27.593  25.512  1.00  0.00     0.127 S 
ATOM     75  O   UNL A   1      44.025  27.676  26.066  1.00  0.00    -0.237 OA
ATOM     76  O   UNL A   1      42.429  26.419  24.673  1.00  0.00    -0.237 OA
ATOM     77  O   UNL A   1      42.139  28.840  24.984  1.00  0.00    -0.744 OA
ENDBRANCH  71  74
ENDBRANCH  53  67
BRANCH  54  78
ATOM     78  C   UNL A   1      39.584  33.948  36.990  1.00  0.00     0.023 A 
ATOM     79  C   UNL A   1      40.067  35.268  36.923  1.00  0.00     0.012 A 
ATOM     80  C   UNL A   1      38.999  33.518  38.198  1.00  0.00     0.148 A 
ATOM     81  C   UNL A   1      40.049  36.100  38.048  1.00  0.00     0.002 A 
ATOM     82  C   UNL A   1      38.971  34.346  39.315  1.00  0.00     0.091 A 
ATOM     83  F   UNL A   1      38.416  32.317  38.221  1.00  0.00    -0.205 F 
ATOM     84  C   UNL A   1      39.516  35.634  39.247  1.00  0.00     0.022 A 
BRANCH  82  85
ATOM     85  S   UNL A   1      38.238  33.843  40.879  1.00  0.00     0.127 S 
ATOM     86  O   UNL A   1      38.258  35.093  41.635  1.00  0.00    -0.237 OA
ATOM     87  O   UNL A   1      36.909  33.402  40.455  1.00  0.00    -0.237 OA
ATOM     88  O   UNL A   1      39.085  32.780  41.402  1.00  0.00    -0.744 OA
ENDBRANCH  82  85
ENDBRANCH  54  78
BRANCH  66  89
ATOM     89  C   UNL A   1      44.172  28.892  35.449  1.00  0.00     0.023 A 
ATOM     90  C   UNL A   1      45.441  29.487  35.307  1.00  0.00     0.012 A 
ATOM     91  C   UNL A   1      44.009  27.823  36.355  1.00  0.00     0.148 A 
ATOM     92  C   UNL A   1      46.534  29.006  36.028  1.00  0.00     0.002 A 
ATOM     93  C   UNL A   1      45.091  27.385  37.110  1.00  0.00     0.091 A 
ATOM     94  F   UNL A   1      42.798  27.259  36.467  1.00  0.00    -0.205 F 
ATOM     95  C   UNL A   1      46.357  27.965  36.937  1.00  0.00     0.022 A 
BRANCH  93  96
ATOM     96  S   UNL A   1      44.933  26.123  38.380  1.00  0.00     0.127 S 
ATOM     97  O   UNL A   1      46.232  26.205  39.044  1.00  0.00    -0.237 OA
ATOM     98  O   UNL A   1      43.809  26.622  39.173  1.00  0.00    -0.237 OA
ATOM     99  O   UNL A   1      44.668  24.875  37.677  1.00  0.00    -0.744 OA
ENDBRANCH  93  96
ENDBRANCH  66  89
ENDBRANCH  40  41
ENDBRANCH  32  35
ENDBRANCH  30  31
ENDBRANCH  29  30
ENDBRANCH   1  29
TORSDOF 19
ENDMDL
