MODEL 1
REMARK VINA RESULT:     -14.3      0.000      0.000
REMARK SMILES Cc1ccc(-c2cc(C(=O)NCCCCNC(=O)c3ccc(-c4c5nc(c(-c6cccc(S(=O)(=O)[O-])c6F)c6ccc([nH]6)c(-c6cccc(S(=O)(=O)[O-])c6F)c6nc(c(-c7cccc(S(=O)(=O)[O-])c7F)c7ccc4[nH]7)C=C6)C=C5)cc3)c3c(-c4cccc([N+](=O)[O-])c4)[nH]nc3n2)cc1
REMARK SMILES IDX 14 1 13 2 12 3 11 4 9 5 10 6 8 8 6 9 7 10 96 11 95 12 82 13
REMARK SMILES IDX 94 14 83 15 93 16 5 18 1 19 2 20 3 21 98 22 4 23 97 24 84 25
REMARK SMILES IDX 85 26 92 27 86 28 88 29 87 30 89 31 90 32 91 33 15 34 16 35
REMARK SMILES IDX 17 36 18 38 19 39 20 40 81 41 21 42 80 43 22 44 23 45 24 46
REMARK SMILES IDX 74 47 25 48 79 49 73 50 75 51 26 52 78 53 72 54 71 55 27 57
REMARK SMILES IDX 59 58 39 59 58 60 40 61 43 62 57 63 76 64 41 65 42 66 56 68
REMARK SMILES IDX 77 69 44 70 28 71 29 72 37 73 30 74 32 75 38 76 31 77 33 78
REMARK SMILES IDX 34 79 35 80 36 81 60 82 61 83 69 84 62 85 64 86 70 87 63 88
REMARK SMILES IDX 65 89 66 90 67 91 68 92 45 93 46 94 54 95 47 96 49 97 55 98
REMARK SMILES IDX 48 99 50 100 51 101 52 102 53 103
REMARK H PARENT 11 7 93 17 16 37 75 56 43 67
REMARK Flexibility Score: inf
ROOT
ATOM      1  C   UNL A   1      37.954  21.563  25.279  1.00  0.00     0.023 C 
ENDROOT
BRANCH   1   2
ATOM      2  C   UNL A   1      36.973  21.803  24.126  1.00  0.00     0.023 C 
BRANCH   2   3
ATOM      3  C   UNL A   1      35.595  22.327  24.557  1.00  0.00     0.116 C 
BRANCH   3   4
ATOM      4  N   UNL A   1      34.924  23.061  23.494  1.00  0.00    -0.352 N 
ATOM      5  C   UNL A   1      33.941  24.014  23.408  1.00  0.00     0.252 C 
ATOM      6  O   UNL A   1      33.740  24.422  22.267  1.00  0.00    -0.269 OA
ATOM      7  H   UNL A   1      35.263  22.807  22.606  1.00  0.00     0.163 HD
BRANCH   5   8
ATOM      8  C   UNL A   1      33.187  24.578  24.558  1.00  0.00     0.055 A 
ATOM      9  C   UNL A   1      32.647  26.490  26.066  1.00  0.00     0.074 A 
ATOM     10  C   UNL A   1      33.460  25.831  25.112  1.00  0.00     0.043 A 
ATOM     11  N   UNL A   1      31.553  25.966  26.668  1.00  0.00    -0.226 NA
ATOM     12  C   UNL A   1      31.277  24.711  26.230  1.00  0.00     0.182 A 
ATOM     13  C   UNL A   1      32.060  24.032  25.216  1.00  0.00     0.059 A 
ATOM     14  N   UNL A   1      30.263  23.962  26.663  1.00  0.00    -0.154 NA
ATOM     15  C   UNL A   1      31.455  22.788  25.098  1.00  0.00     0.076 A 
ATOM     16  N   UNL A   1      30.380  22.833  25.953  1.00  0.00    -0.275 N 
ATOM     17  H   UNL A   1      29.742  22.088  26.038  1.00  0.00     0.190 HD
BRANCH   9  18
ATOM     18  C   UNL A   1      32.994  27.887  26.371  1.00  0.00     0.000 A 
ATOM     19  C   UNL A   1      34.148  31.727  27.990  1.00  0.00     0.044 C 
ATOM     20  C   UNL A   1      33.753  30.416  27.377  1.00  0.00    -0.051 A 
ATOM     21  C   UNL A   1      32.400  30.089  27.207  1.00  0.00     0.004 A 
ATOM     22  C   UNL A   1      34.728  29.493  26.995  1.00  0.00     0.004 A 
ATOM     23  C   UNL A   1      32.023  28.837  26.704  1.00  0.00     0.010 A 
ATOM     24  C   UNL A   1      34.352  28.249  26.492  1.00  0.00     0.010 A 
ENDBRANCH   9  18
BRANCH  15  25
ATOM     25  C   UNL A   1      31.745  21.572  24.351  1.00  0.00     0.007 A 
ATOM     26  C   UNL A   1      31.695  21.573  22.950  1.00  0.00     0.011 A 
ATOM     27  C   UNL A   1      32.161  20.419  25.029  1.00  0.00     0.096 A 
ATOM     28  C   UNL A   1      32.113  20.452  22.225  1.00  0.00     0.008 A 
ATOM     29  C   UNL A   1      32.614  19.315  24.296  1.00  0.00     0.270 A 
ATOM     30  C   UNL A   1      32.589  19.324  22.895  1.00  0.00     0.085 A 
BRANCH  29  31
ATOM     31  N   UNL A   1      33.163  18.155  25.007  1.00  0.00     0.062 N 
ATOM     32  O   UNL A   1      34.303  17.776  24.704  1.00  0.00    -0.258 OA
ATOM     33  O   UNL A   1      32.441  17.596  25.848  1.00  0.00    -0.258 OA
ENDBRANCH  29  31
ENDBRANCH  15  25
ENDBRANCH   5   8
ENDBRANCH   3   4
ENDBRANCH   2   3
ENDBRANCH   1   2
BRANCH   1  34
ATOM     34  C   UNL A   1      38.236  22.798  26.120  1.00  0.00     0.116 C 
BRANCH  34  35
ATOM     35  N   UNL A   1      39.457  22.724  26.903  1.00  0.00    -0.352 N 
ATOM     36  C   UNL A   1      40.261  23.744  27.382  1.00  0.00     0.251 C 
ATOM     37  H   UNL A   1      39.757  21.813  27.127  1.00  0.00     0.163 HD
ATOM     38  O   UNL A   1      41.396  23.460  27.766  1.00  0.00    -0.269 OA
BRANCH  36  39
ATOM     39  C   UNL A   1      39.705  25.107  27.588  1.00  0.00     0.039 A 
ATOM     40  C   UNL A   1      40.251  26.142  26.816  1.00  0.00     0.014 A 
ATOM     41  C   UNL A   1      38.921  25.410  28.696  1.00  0.00     0.014 A 
ATOM     42  C   UNL A   1      40.289  27.435  27.328  1.00  0.00     0.010 A 
ATOM     43  C   UNL A   1      39.043  26.661  29.257  1.00  0.00     0.010 A 
ATOM     44  C   UNL A   1      39.806  27.641  28.612  1.00  0.00    -0.014 A 
BRANCH  44  45
ATOM     45  C   UNL A   1      40.061  28.821  29.415  1.00  0.00     0.031 A 
ATOM     46  C   UNL A   1      39.202  30.003  29.252  1.00  0.00     0.074 A 
ATOM     47  C   UNL A   1      40.903  28.698  30.466  1.00  0.00     0.049 A 
ATOM     48  N   UNL A   1      39.405  31.121  29.855  1.00  0.00    -0.248 NA
ATOM     49  C   UNL A   1      38.057  30.030  28.343  1.00  0.00     0.031 C 
ATOM     50  C   UNL A   1      40.939  29.509  31.678  1.00  0.00     0.029 A 
ATOM     51  N   UNL A   1      42.068  27.922  30.541  1.00  0.00    -0.354 N 
ATOM     52  C   UNL A   1      38.272  31.880  29.680  1.00  0.00     0.074 A 
ATOM     53  C   UNL A   1      37.543  31.233  28.621  1.00  0.00     0.031 C 
ATOM     54  C   UNL A   1      42.157  29.408  32.229  1.00  0.00     0.029 A 
ATOM     55  C   UNL A   1      42.989  28.693  31.278  1.00  0.00     0.049 A 
ATOM     56  H   UNL A   1      42.213  27.027  30.158  1.00  0.00     0.167 HD
ATOM     57  C   UNL A   1      38.018  32.871  30.575  1.00  0.00     0.034 A 
ATOM     58  C   UNL A   1      44.167  29.156  30.766  1.00  0.00     0.034 A 
ATOM     59  C   UNL A   1      39.214  33.159  31.378  1.00  0.00     0.049 A 
ATOM     60  C   UNL A   1      44.286  30.671  30.817  1.00  0.00     0.074 A 
ATOM     61  C   UNL A   1      39.589  32.868  32.677  1.00  0.00     0.029 A 
ATOM     62  N   UNL A   1      40.361  33.611  30.730  1.00  0.00    -0.354 N 
ATOM     63  N   UNL A   1      43.313  31.479  31.142  1.00  0.00    -0.248 NA
ATOM     64  C   UNL A   1      45.510  31.397  30.491  1.00  0.00     0.031 C 
ATOM     65  C   UNL A   1      41.003  33.030  32.766  1.00  0.00     0.029 A 
ATOM     66  C   UNL A   1      41.476  33.473  31.541  1.00  0.00     0.049 A 
ATOM     67  H   UNL A   1      40.378  33.979  29.817  1.00  0.00     0.167 HD
ATOM     68  C   UNL A   1      43.698  32.783  30.956  1.00  0.00     0.074 A 
ATOM     69  C   UNL A   1      45.110  32.673  30.630  1.00  0.00     0.031 C 
ATOM     70  C   UNL A   1      42.804  33.821  31.029  1.00  0.00     0.034 A 
BRANCH  57  71
ATOM     71  C   UNL A   1      36.653  33.472  30.866  1.00  0.00     0.023 A 
ATOM     72  C   UNL A   1      36.118  33.253  32.155  1.00  0.00     0.012 A 
ATOM     73  C   UNL A   1      35.796  34.128  29.945  1.00  0.00     0.148 A 
ATOM     74  C   UNL A   1      34.821  33.650  32.509  1.00  0.00     0.002 A 
ATOM     75  C   UNL A   1      34.529  34.589  30.319  1.00  0.00     0.091 A 
ATOM     76  F   UNL A   1      36.139  34.233  28.660  1.00  0.00    -0.205 F 
ATOM     77  C   UNL A   1      34.031  34.334  31.596  1.00  0.00     0.022 A 
BRANCH  75  78
ATOM     78  S   UNL A   1      33.477  35.530  29.195  1.00  0.00     0.127 S 
ATOM     79  O   UNL A   1      32.730  36.385  30.116  1.00  0.00    -0.237 OA
ATOM     80  O   UNL A   1      34.454  36.237  28.366  1.00  0.00    -0.237 OA
ATOM     81  O   UNL A   1      32.678  34.549  28.469  1.00  0.00    -0.744 OA
ENDBRANCH  75  78
ENDBRANCH  57  71
BRANCH  58  82
ATOM     82  C   UNL A   1      44.747  28.268  29.715  1.00  0.00     0.023 A 
ATOM     83  C   UNL A   1      45.126  26.966  30.124  1.00  0.00     0.012 A 
ATOM     84  C   UNL A   1      44.528  28.513  28.348  1.00  0.00     0.148 A 
ATOM     85  C   UNL A   1      45.128  25.903  29.221  1.00  0.00     0.002 A 
ATOM     86  C   UNL A   1      44.535  27.445  27.451  1.00  0.00     0.091 A 
ATOM     87  F   UNL A   1      44.228  29.759  27.961  1.00  0.00    -0.205 F 
ATOM     88  C   UNL A   1      44.791  26.136  27.893  1.00  0.00     0.022 A 
BRANCH  86  89
ATOM     89  S   UNL A   1      44.072  27.660  25.725  1.00  0.00     0.127 S 
ATOM     90  O   UNL A   1      43.661  26.309  25.363  1.00  0.00    -0.237 OA
ATOM     91  O   UNL A   1      42.984  28.633  25.812  1.00  0.00    -0.237 OA
ATOM     92  O   UNL A   1      45.274  28.167  25.079  1.00  0.00    -0.744 OA
ENDBRANCH  86  89
ENDBRANCH  58  82
BRANCH  70  93
ATOM     93  C   UNL A   1      43.071  35.264  30.603  1.00  0.00     0.023 A 
ATOM     94  C   UNL A   1      43.649  36.219  31.462  1.00  0.00     0.012 A 
ATOM     95  C   UNL A   1      42.870  35.680  29.257  1.00  0.00     0.148 A 
ATOM     96  C   UNL A   1      43.951  37.521  31.042  1.00  0.00     0.002 A 
ATOM     97  C   UNL A   1      43.285  36.935  28.814  1.00  0.00     0.091 A 
ATOM     98  F   UNL A   1      42.252  34.867  28.389  1.00  0.00    -0.205 F 
ATOM     99  C   UNL A   1      43.793  37.873  29.711  1.00  0.00     0.022 A 
BRANCH  97 100
ATOM    100  S   UNL A   1      43.333  37.330  27.058  1.00  0.00     0.127 S 
ATOM    101  O   UNL A   1      41.925  37.582  26.763  1.00  0.00    -0.237 OA
ATOM    102  O   UNL A   1      44.183  38.524  27.029  1.00  0.00    -0.237 OA
ATOM    103  O   UNL A   1      43.929  36.162  26.424  1.00  0.00    -0.744 OA
ENDBRANCH  97 100
ENDBRANCH  70  93
ENDBRANCH  44  45
ENDBRANCH  36  39
ENDBRANCH  34  35
ENDBRANCH   1  34
TORSDOF 17
ENDMDL
MODEL 2
REMARK VINA RESULT:     -14.0      4.384      9.968
REMARK SMILES Cc1ccc(-c2cc(C(=O)NCCCCNC(=O)c3ccc(-c4c5nc(c(-c6cccc(S(=O)(=O)[O-])c6F)c6ccc([nH]6)c(-c6cccc(S(=O)(=O)[O-])c6F)c6nc(c(-c7cccc(S(=O)(=O)[O-])c7F)c7ccc4[nH]7)C=C6)C=C5)cc3)c3c(-c4cccc([N+](=O)[O-])c4)[nH]nc3n2)cc1
REMARK SMILES IDX 14 1 13 2 12 3 11 4 9 5 10 6 8 8 6 9 7 10 96 11 95 12 82 13
REMARK SMILES IDX 94 14 83 15 93 16 5 18 1 19 2 20 3 21 98 22 4 23 97 24 84 25
REMARK SMILES IDX 85 26 92 27 86 28 88 29 87 30 89 31 90 32 91 33 15 34 16 35
REMARK SMILES IDX 17 36 18 38 19 39 20 40 81 41 21 42 80 43 22 44 23 45 24 46
REMARK SMILES IDX 74 47 25 48 79 49 73 50 75 51 26 52 78 53 72 54 71 55 27 57
REMARK SMILES IDX 59 58 39 59 58 60 40 61 43 62 57 63 76 64 41 65 42 66 56 68
REMARK SMILES IDX 77 69 44 70 28 71 29 72 37 73 30 74 32 75 38 76 31 77 33 78
REMARK SMILES IDX 34 79 35 80 36 81 60 82 61 83 69 84 62 85 64 86 70 87 63 88
REMARK SMILES IDX 65 89 66 90 67 91 68 92 45 93 46 94 54 95 47 96 49 97 55 98
REMARK SMILES IDX 48 99 50 100 51 101 52 102 53 103
REMARK H PARENT 11 7 93 17 16 37 75 56 43 67
REMARK Flexibility Score: inf
ROOT
ATOM      1  C   UNL A   1      32.820  31.446  26.932  1.00  0.00     0.023 C 
ENDROOT
BRANCH   1   2
ATOM      2  C   UNL A   1      31.854  30.413  26.343  1.00  0.00     0.023 C 
BRANCH   2   3
ATOM      3  C   UNL A   1      32.532  29.167  25.753  1.00  0.00     0.116 C 
BRANCH   3   4
ATOM      4  N   UNL A   1      31.831  27.939  26.099  1.00  0.00    -0.352 N 
ATOM      5  C   UNL A   1      31.900  26.616  25.739  1.00  0.00     0.252 C 
ATOM      6  O   UNL A   1      31.139  25.888  26.370  1.00  0.00    -0.269 OA
ATOM      7  H   UNL A   1      31.124  28.098  26.765  1.00  0.00     0.163 HD
BRANCH   5   8
ATOM      8  C   UNL A   1      32.823  26.049  24.723  1.00  0.00     0.055 A 
ATOM      9  C   UNL A   1      34.740  24.570  24.123  1.00  0.00     0.074 A 
ATOM     10  C   UNL A   1      33.952  25.293  25.051  1.00  0.00     0.043 A 
ATOM     11  N   UNL A   1      34.593  24.589  22.778  1.00  0.00    -0.226 NA
ATOM     12  C   UNL A   1      33.557  25.373  22.385  1.00  0.00     0.182 A 
ATOM     13  C   UNL A   1      32.700  26.084  23.314  1.00  0.00     0.059 A 
ATOM     14  N   UNL A   1      33.197  25.577  21.117  1.00  0.00    -0.154 NA
ATOM     15  C   UNL A   1      31.810  26.769  22.497  1.00  0.00     0.076 A 
ATOM     16  N   UNL A   1      32.140  26.392  21.217  1.00  0.00    -0.275 N 
ATOM     17  H   UNL A   1      31.634  26.699  20.431  1.00  0.00     0.190 HD
BRANCH   9  18
ATOM     18  C   UNL A   1      35.759  23.672  24.689  1.00  0.00     0.000 A 
ATOM     19  C   UNL A   1      39.266  21.500  25.984  1.00  0.00     0.044 C 
ATOM     20  C   UNL A   1      38.021  22.226  25.573  1.00  0.00    -0.051 A 
ATOM     21  C   UNL A   1      37.248  21.762  24.499  1.00  0.00     0.004 A 
ATOM     22  C   UNL A   1      37.630  23.390  26.238  1.00  0.00     0.004 A 
ATOM     23  C   UNL A   1      36.125  22.476  24.063  1.00  0.00     0.010 A 
ATOM     24  C   UNL A   1      36.510  24.098  25.804  1.00  0.00     0.010 A 
ENDBRANCH   9  18
BRANCH  15  25
ATOM     25  C   UNL A   1      30.745  27.735  22.725  1.00  0.00     0.007 A 
ATOM     26  C   UNL A   1      30.917  29.079  22.365  1.00  0.00     0.011 A 
ATOM     27  C   UNL A   1      29.509  27.305  23.227  1.00  0.00     0.096 A 
ATOM     28  C   UNL A   1      29.849  29.977  22.446  1.00  0.00     0.008 A 
ATOM     29  C   UNL A   1      28.434  28.202  23.270  1.00  0.00     0.270 A 
ATOM     30  C   UNL A   1      28.598  29.539  22.884  1.00  0.00     0.085 A 
BRANCH  29  31
ATOM     31  N   UNL A   1      27.111  27.720  23.680  1.00  0.00     0.062 N 
ATOM     32  O   UNL A   1      26.137  28.458  23.478  1.00  0.00    -0.258 OA
ATOM     33  O   UNL A   1      27.045  26.614  24.241  1.00  0.00    -0.258 OA
ENDBRANCH  29  31
ENDBRANCH  15  25
ENDBRANCH   5   8
ENDBRANCH   3   4
ENDBRANCH   2   3
ENDBRANCH   1   2
BRANCH   1  34
ATOM     34  C   UNL A   1      34.144  30.861  27.400  1.00  0.00     0.116 C 
BRANCH  34  35
ATOM     35  N   UNL A   1      35.158  31.851  27.718  1.00  0.00    -0.352 N 
ATOM     36  C   UNL A   1      36.405  31.682  28.295  1.00  0.00     0.251 C 
ATOM     37  H   UNL A   1      34.923  32.780  27.489  1.00  0.00     0.163 HD
ATOM     38  O   UNL A   1      36.979  32.674  28.743  1.00  0.00    -0.269 OA
BRANCH  36  39
ATOM     39  C   UNL A   1      37.101  30.371  28.213  1.00  0.00     0.039 A 
ATOM     40  C   UNL A   1      37.109  29.580  29.371  1.00  0.00     0.014 A 
ATOM     41  C   UNL A   1      37.966  30.073  27.166  1.00  0.00     0.014 A 
ATOM     42  C   UNL A   1      38.179  28.724  29.611  1.00  0.00     0.010 A 
ATOM     43  C   UNL A   1      39.079  29.310  27.438  1.00  0.00     0.010 A 
ATOM     44  C   UNL A   1      39.222  28.713  28.696  1.00  0.00    -0.014 A 
BRANCH  44  45
ATOM     45  C   UNL A   1      40.535  28.150  28.941  1.00  0.00     0.031 A 
ATOM     46  C   UNL A   1      40.754  26.712  28.727  1.00  0.00     0.074 A 
ATOM     47  C   UNL A   1      41.569  29.008  29.098  1.00  0.00     0.049 A 
ATOM     48  N   UNL A   1      41.857  26.109  29.002  1.00  0.00    -0.248 NA
ATOM     49  C   UNL A   1      39.711  25.819  28.224  1.00  0.00     0.031 C 
ATOM     50  C   UNL A   1      42.983  28.751  28.847  1.00  0.00     0.029 A 
ATOM     51  N   UNL A   1      41.558  30.251  29.743  1.00  0.00    -0.354 N 
ATOM     52  C   UNL A   1      41.786  24.865  28.422  1.00  0.00     0.074 A 
ATOM     53  C   UNL A   1      40.397  24.679  28.094  1.00  0.00     0.031 C 
ATOM     54  C   UNL A   1      43.713  29.631  29.550  1.00  0.00     0.029 A 
ATOM     55  C   UNL A   1      42.790  30.338  30.420  1.00  0.00     0.049 A 
ATOM     56  H   UNL A   1      40.838  30.923  29.728  1.00  0.00     0.167 HD
ATOM     57  C   UNL A   1      42.949  24.218  28.145  1.00  0.00     0.034 A 
ATOM     58  C   UNL A   1      42.902  30.418  31.779  1.00  0.00     0.034 A 
ATOM     59  C   UNL A   1      44.072  24.853  28.848  1.00  0.00     0.049 A 
ATOM     60  C   UNL A   1      43.720  29.284  32.379  1.00  0.00     0.074 A 
ATOM     61  C   UNL A   1      45.107  25.680  28.450  1.00  0.00     0.029 A 
ATOM     62  N   UNL A   1      44.058  24.883  30.240  1.00  0.00    -0.354 N 
ATOM     63  N   UNL A   1      44.130  28.237  31.715  1.00  0.00    -0.248 NA
ATOM     64  C   UNL A   1      44.127  29.235  33.780  1.00  0.00     0.031 C 
ATOM     65  C   UNL A   1      45.632  26.307  29.618  1.00  0.00     0.029 A 
ATOM     66  C   UNL A   1      44.957  25.819  30.725  1.00  0.00     0.049 A 
ATOM     67  H   UNL A   1      43.484  24.316  30.805  1.00  0.00     0.167 HD
ATOM     68  C   UNL A   1      44.717  27.336  32.568  1.00  0.00     0.074 A 
ATOM     69  C   UNL A   1      44.764  28.052  33.832  1.00  0.00     0.031 C 
ATOM     70  C   UNL A   1      45.052  26.067  32.165  1.00  0.00     0.034 A 
BRANCH  57  71
ATOM     71  C   UNL A   1      43.126  23.123  27.106  1.00  0.00     0.023 A 
ATOM     72  C   UNL A   1      43.630  23.512  25.844  1.00  0.00     0.012 A 
ATOM     73  C   UNL A   1      42.726  21.767  27.219  1.00  0.00     0.148 A 
ATOM     74  C   UNL A   1      43.727  22.622  24.766  1.00  0.00     0.002 A 
ATOM     75  C   UNL A   1      42.889  20.861  26.165  1.00  0.00     0.091 A 
ATOM     76  F   UNL A   1      42.084  21.340  28.308  1.00  0.00    -0.205 F 
ATOM     77  C   UNL A   1      43.373  21.291  24.930  1.00  0.00     0.022 A 
BRANCH  75  78
ATOM     78  S   UNL A   1      42.497  19.108  26.333  1.00  0.00     0.127 S 
ATOM     79  O   UNL A   1      41.163  19.032  25.741  1.00  0.00    -0.237 OA
ATOM     80  O   UNL A   1      43.550  18.472  25.540  1.00  0.00    -0.237 OA
ATOM     81  O   UNL A   1      42.564  18.812  27.759  1.00  0.00    -0.744 OA
ENDBRANCH  75  78
ENDBRANCH  57  71
BRANCH  58  82
ATOM     82  C   UNL A   1      41.746  31.102  32.431  1.00  0.00     0.023 A 
ATOM     83  C   UNL A   1      41.527  32.454  32.072  1.00  0.00     0.012 A 
ATOM     84  C   UNL A   1      40.689  30.370  32.998  1.00  0.00     0.148 A 
ATOM     85  C   UNL A   1      40.250  33.012  32.127  1.00  0.00     0.002 A 
ATOM     86  C   UNL A   1      39.415  30.936  33.053  1.00  0.00     0.091 A 
ATOM     87  F   UNL A   1      40.919  29.111  33.390  1.00  0.00    -0.205 F 
ATOM     88  C   UNL A   1      39.186  32.239  32.578  1.00  0.00     0.022 A 
BRANCH  86  89
ATOM     89  S   UNL A   1      37.983  29.987  33.588  1.00  0.00     0.127 S 
ATOM     90  O   UNL A   1      38.113  30.058  35.039  1.00  0.00    -0.237 OA
ATOM     91  O   UNL A   1      36.872  30.756  33.030  1.00  0.00    -0.237 OA
ATOM     92  O   UNL A   1      38.161  28.675  32.984  1.00  0.00    -0.744 OA
ENDBRANCH  86  89
ENDBRANCH  58  82
BRANCH  70  93
ATOM     93  C   UNL A   1      45.477  24.921  33.082  1.00  0.00     0.023 A 
ATOM     94  C   UNL A   1      44.656  23.805  33.339  1.00  0.00     0.012 A 
ATOM     95  C   UNL A   1      46.793  24.861  33.619  1.00  0.00     0.148 A 
ATOM     96  C   UNL A   1      45.080  22.728  34.128  1.00  0.00     0.002 A 
ATOM     97  C   UNL A   1      47.250  23.734  34.299  1.00  0.00     0.091 A 
ATOM     98  F   UNL A   1      47.617  25.911  33.494  1.00  0.00    -0.205 F 
ATOM     99  C   UNL A   1      46.387  22.679  34.588  1.00  0.00     0.022 A 
BRANCH  97 100
ATOM    100  S   UNL A   1      48.997  23.526  34.683  1.00  0.00     0.127 S 
ATOM    101  O   UNL A   1      49.198  24.515  35.739  1.00  0.00    -0.237 OA
ATOM    102  O   UNL A   1      49.056  22.134  35.136  1.00  0.00    -0.237 OA
ATOM    103  O   UNL A   1      49.692  23.770  33.427  1.00  0.00    -0.744 OA
ENDBRANCH  97 100
ENDBRANCH  70  93
ENDBRANCH  44  45
ENDBRANCH  36  39
ENDBRANCH  34  35
ENDBRANCH   1  34
TORSDOF 17
ENDMDL
MODEL 3
REMARK VINA RESULT:     -13.9      1.519      2.008
REMARK SMILES Cc1ccc(-c2cc(C(=O)NCCCCNC(=O)c3ccc(-c4c5nc(c(-c6cccc(S(=O)(=O)[O-])c6F)c6ccc([nH]6)c(-c6cccc(S(=O)(=O)[O-])c6F)c6nc(c(-c7cccc(S(=O)(=O)[O-])c7F)c7ccc4[nH]7)C=C6)C=C5)cc3)c3c(-c4cccc([N+](=O)[O-])c4)[nH]nc3n2)cc1
REMARK SMILES IDX 14 1 13 2 12 3 11 4 9 5 10 6 8 8 6 9 7 10 96 11 95 12 82 13
REMARK SMILES IDX 94 14 83 15 93 16 5 18 1 19 2 20 3 21 98 22 4 23 97 24 84 25
REMARK SMILES IDX 85 26 92 27 86 28 88 29 87 30 89 31 90 32 91 33 15 34 16 35
REMARK SMILES IDX 17 36 18 38 19 39 20 40 81 41 21 42 80 43 22 44 23 45 24 46
REMARK SMILES IDX 74 47 25 48 79 49 73 50 75 51 26 52 78 53 72 54 71 55 27 57
REMARK SMILES IDX 59 58 39 59 58 60 40 61 43 62 57 63 76 64 41 65 42 66 56 68
REMARK SMILES IDX 77 69 44 70 28 71 29 72 37 73 30 74 32 75 38 76 31 77 33 78
REMARK SMILES IDX 34 79 35 80 36 81 60 82 61 83 69 84 62 85 64 86 70 87 63 88
REMARK SMILES IDX 65 89 66 90 67 91 68 92 45 93 46 94 54 95 47 96 49 97 55 98
REMARK SMILES IDX 48 99 50 100 51 101 52 102 53 103
REMARK H PARENT 11 7 93 17 16 37 75 56 43 67
REMARK Flexibility Score: inf
ROOT
ATOM      1  C   UNL A   1      37.631  21.817  24.598  1.00  0.00     0.023 C 
ENDROOT
BRANCH   1   2
ATOM      2  C   UNL A   1      37.042  22.893  23.680  1.00  0.00     0.023 C 
BRANCH   2   3
ATOM      3  C   UNL A   1      35.612  23.326  24.037  1.00  0.00     0.116 C 
BRANCH   3   4
ATOM      4  N   UNL A   1      34.695  23.187  22.915  1.00  0.00    -0.352 N 
ATOM      5  C   UNL A   1      33.365  23.427  22.679  1.00  0.00     0.252 C 
ATOM      6  O   UNL A   1      33.021  23.233  21.517  1.00  0.00    -0.269 OA
ATOM      7  H   UNL A   1      35.147  22.829  22.117  1.00  0.00     0.163 HD
BRANCH   5   8
ATOM      8  C   UNL A   1      32.389  23.922  23.685  1.00  0.00     0.055 A 
ATOM      9  C   UNL A   1      30.834  25.692  24.505  1.00  0.00     0.074 A 
ATOM     10  C   UNL A   1      31.905  25.233  23.700  1.00  0.00     0.043 A 
ATOM     11  N   UNL A   1      30.196  24.970  25.456  1.00  0.00    -0.226 NA
ATOM     12  C   UNL A   1      30.675  23.703  25.549  1.00  0.00     0.182 A 
ATOM     13  C   UNL A   1      31.735  23.190  24.702  1.00  0.00     0.059 A 
ATOM     14  N   UNL A   1      30.233  22.785  26.409  1.00  0.00    -0.154 NA
ATOM     15  C   UNL A   1      31.924  21.889  25.149  1.00  0.00     0.076 A 
ATOM     16  N   UNL A   1      30.979  21.708  26.130  1.00  0.00    -0.275 N 
ATOM     17  H   UNL A   1      30.858  20.849  26.594  1.00  0.00     0.190 HD
BRANCH   9  18
ATOM     18  C   UNL A   1      30.339  27.049  24.227  1.00  0.00     0.000 A 
ATOM     19  C   UNL A   1      29.125  30.898  22.675  1.00  0.00     0.044 C 
ATOM     20  C   UNL A   1      29.515  29.573  23.258  1.00  0.00    -0.051 A 
ATOM     21  C   UNL A   1      30.711  29.436  23.977  1.00  0.00     0.004 A 
ATOM     22  C   UNL A   1      28.706  28.451  23.067  1.00  0.00     0.004 A 
ATOM     23  C   UNL A   1      31.118  28.187  24.462  1.00  0.00     0.010 A 
ATOM     24  C   UNL A   1      29.111  27.209  23.552  1.00  0.00     0.010 A 
ENDBRANCH   9  18
BRANCH  15  25
ATOM     25  C   UNL A   1      32.863  20.822  24.832  1.00  0.00     0.007 A 
ATOM     26  C   UNL A   1      34.077  20.716  25.526  1.00  0.00     0.011 A 
ATOM     27  C   UNL A   1      32.516  19.845  23.889  1.00  0.00     0.096 A 
ATOM     28  C   UNL A   1      34.913  19.613  25.327  1.00  0.00     0.008 A 
ATOM     29  C   UNL A   1      33.341  18.725  23.724  1.00  0.00     0.270 A 
ATOM     30  C   UNL A   1      34.541  18.605  24.437  1.00  0.00     0.085 A 
BRANCH  29  31
ATOM     31  N   UNL A   1      32.916  17.645  22.827  1.00  0.00     0.062 N 
ATOM     32  O   UNL A   1      32.064  17.909  21.966  1.00  0.00    -0.258 OA
ATOM     33  O   UNL A   1      33.406  16.518  23.002  1.00  0.00    -0.258 OA
ENDBRANCH  29  31
ENDBRANCH  15  25
ENDBRANCH   5   8
ENDBRANCH   3   4
ENDBRANCH   2   3
ENDBRANCH   1   2
BRANCH   1  34
ATOM     34  C   UNL A   1      37.804  22.261  26.043  1.00  0.00     0.116 C 
BRANCH  34  35
ATOM     35  N   UNL A   1      39.164  22.163  26.542  1.00  0.00    -0.352 N 
ATOM     36  C   UNL A   1      40.110  23.157  26.727  1.00  0.00     0.251 C 
ATOM     37  H   UNL A   1      39.457  21.254  26.784  1.00  0.00     0.163 HD
ATOM     38  O   UNL A   1      41.285  22.822  26.879  1.00  0.00    -0.269 OA
BRANCH  36  39
ATOM     39  C   UNL A   1      39.690  24.570  26.914  1.00  0.00     0.039 A 
ATOM     40  C   UNL A   1      40.459  25.554  26.277  1.00  0.00     0.014 A 
ATOM     41  C   UNL A   1      38.790  24.934  27.911  1.00  0.00     0.014 A 
ATOM     42  C   UNL A   1      40.569  26.817  26.847  1.00  0.00     0.010 A 
ATOM     43  C   UNL A   1      38.971  26.144  28.541  1.00  0.00     0.010 A 
ATOM     44  C   UNL A   1      39.928  27.043  28.057  1.00  0.00    -0.014 A 
BRANCH  44  45
ATOM     45  C   UNL A   1      40.195  28.161  28.941  1.00  0.00     0.031 A 
ATOM     46  C   UNL A   1      39.367  29.372  28.842  1.00  0.00     0.074 A 
ATOM     47  C   UNL A   1      41.014  27.947  29.997  1.00  0.00     0.049 A 
ATOM     48  N   UNL A   1      39.585  30.443  29.522  1.00  0.00    -0.248 NA
ATOM     49  C   UNL A   1      38.242  29.487  27.917  1.00  0.00     0.031 C 
ATOM     50  C   UNL A   1      41.045  28.675  31.260  1.00  0.00     0.029 A 
ATOM     51  N   UNL A   1      42.158  27.140  30.040  1.00  0.00    -0.354 N 
ATOM     52  C   UNL A   1      38.474  31.239  29.378  1.00  0.00     0.074 A 
ATOM     53  C   UNL A   1      37.751  30.682  28.266  1.00  0.00     0.031 C 
ATOM     54  C   UNL A   1      42.250  28.508  31.825  1.00  0.00     0.029 A 
ATOM     55  C   UNL A   1      43.082  27.837  30.843  1.00  0.00     0.049 A 
ATOM     56  H   UNL A   1      42.289  26.268  29.601  1.00  0.00     0.167 HD
ATOM     57  C   UNL A   1      38.227  32.175  30.333  1.00  0.00     0.034 A 
ATOM     58  C   UNL A   1      44.281  28.303  30.384  1.00  0.00     0.034 A 
ATOM     59  C   UNL A   1      39.413  32.379  31.174  1.00  0.00     0.049 A 
ATOM     60  C   UNL A   1      44.435  29.808  30.539  1.00  0.00     0.074 A 
ATOM     61  C   UNL A   1      39.756  31.993  32.457  1.00  0.00     0.029 A 
ATOM     62  N   UNL A   1      40.583  32.844  30.579  1.00  0.00    -0.354 N 
ATOM     63  N   UNL A   1      43.475  30.617  30.899  1.00  0.00    -0.248 NA
ATOM     64  C   UNL A   1      45.682  30.524  30.283  1.00  0.00     0.031 C 
ATOM     65  C   UNL A   1      41.172  32.114  32.582  1.00  0.00     0.029 A 
ATOM     66  C   UNL A   1      41.678  32.625  31.398  1.00  0.00     0.049 A 
ATOM     67  H   UNL A   1      40.626  33.271  29.692  1.00  0.00     0.167 HD
ATOM     68  C   UNL A   1      43.894  31.920  30.808  1.00  0.00     0.074 A 
ATOM     69  C   UNL A   1      45.310  31.797  30.500  1.00  0.00     0.031 C 
ATOM     70  C   UNL A   1      43.023  32.974  30.934  1.00  0.00     0.034 A 
BRANCH  57  71
ATOM     71  C   UNL A   1      36.871  32.789  30.639  1.00  0.00     0.023 A 
ATOM     72  C   UNL A   1      36.385  32.646  31.958  1.00  0.00     0.012 A 
ATOM     73  C   UNL A   1      35.977  33.387  29.714  1.00  0.00     0.148 A 
ATOM     74  C   UNL A   1      35.101  33.061  32.336  1.00  0.00     0.002 A 
ATOM     75  C   UNL A   1      34.723  33.866  30.107  1.00  0.00     0.091 A 
ATOM     76  F   UNL A   1      36.270  33.416  28.412  1.00  0.00    -0.205 F 
ATOM     77  C   UNL A   1      34.274  33.687  31.415  1.00  0.00     0.022 A 
BRANCH  75  78
ATOM     78  S   UNL A   1      33.625  34.736  28.970  1.00  0.00     0.127 S 
ATOM     79  O   UNL A   1      34.492  35.792  28.451  1.00  0.00    -0.237 OA
ATOM     80  O   UNL A   1      33.287  33.695  27.998  1.00  0.00    -0.237 OA
ATOM     81  O   UNL A   1      32.494  35.194  29.769  1.00  0.00    -0.744 OA
ENDBRANCH  75  78
ENDBRANCH  57  71
BRANCH  58  82
ATOM     82  C   UNL A   1      44.861  27.473  29.287  1.00  0.00     0.023 A 
ATOM     83  C   UNL A   1      45.245  26.153  29.627  1.00  0.00     0.012 A 
ATOM     84  C   UNL A   1      44.635  27.787  27.935  1.00  0.00     0.148 A 
ATOM     85  C   UNL A   1      45.247  25.138  28.670  1.00  0.00     0.002 A 
ATOM     86  C   UNL A   1      44.642  26.767  26.984  1.00  0.00     0.091 A 
ATOM     87  F   UNL A   1      44.330  29.050  27.613  1.00  0.00    -0.205 F 
ATOM     88  C   UNL A   1      44.904  25.438  27.357  1.00  0.00     0.022 A 
BRANCH  86  89
ATOM     89  S   UNL A   1      44.172  27.069  25.273  1.00  0.00     0.127 S 
ATOM     90  O   UNL A   1      45.474  27.268  24.645  1.00  0.00    -0.237 OA
ATOM     91  O   UNL A   1      43.497  25.825  24.910  1.00  0.00    -0.237 OA
ATOM     92  O   UNL A   1      43.295  28.229  25.329  1.00  0.00    -0.744 OA
ENDBRANCH  86  89
ENDBRANCH  58  82
BRANCH  70  93
ATOM     93  C   UNL A   1      43.333  34.434  30.610  1.00  0.00     0.023 A 
ATOM     94  C   UNL A   1      43.767  35.357  31.582  1.00  0.00     0.012 A 
ATOM     95  C   UNL A   1      43.327  34.904  29.267  1.00  0.00     0.148 A 
ATOM     96  C   UNL A   1      44.112  36.676  31.263  1.00  0.00     0.002 A 
ATOM     97  C   UNL A   1      43.787  36.179  28.940  1.00  0.00     0.091 A 
ATOM     98  F   UNL A   1      42.853  34.124  28.285  1.00  0.00    -0.205 F 
ATOM     99  C   UNL A   1      44.147  37.082  29.939  1.00  0.00     0.022 A 
BRANCH  97 100
ATOM    100  S   UNL A   1      44.088  36.647  27.228  1.00  0.00     0.127 S 
ATOM    101  O   UNL A   1      42.732  36.776  26.703  1.00  0.00    -0.237 OA
ATOM    102  O   UNL A   1      44.808  37.915  27.371  1.00  0.00    -0.237 OA
ATOM    103  O   UNL A   1      44.895  35.566  26.677  1.00  0.00    -0.744 OA
ENDBRANCH  97 100
ENDBRANCH  70  93
ENDBRANCH  44  45
ENDBRANCH  36  39
ENDBRANCH  34  35
ENDBRANCH   1  34
TORSDOF 17
ENDMDL
