MODEL 1
REMARK VINA RESULT:     -13.1      0.000      0.000
REMARK SMILES O=C(Cn1nnnc1Sc1ncnc2c1CCCC2)NCCCCNC(=O)c1ccc(-c2c3nc(c(-c4cccc(S(=O)(=O)[O-])c4F)c4ccc([nH]4)c(-c4cccc(S(=O)(=O)[O-])c4F)c4nc(c(-c5cccc(S(=O)(=O)[O-])c5F)c5ccc2[nH]5)C=C4)C=C3)cc1
REMARK SMILES IDX 22 1 21 2 20 3 1 4 2 5 3 7 4 8 5 9 8 10 6 11 7 12 9 13 10 14
REMARK SMILES IDX 11 15 15 16 12 17 14 18 16 19 13 20 19 21 17 22 18 23 23 24
REMARK SMILES IDX 24 25 25 26 26 27 27 29 28 30 29 31 90 32 30 33 89 34 31 35
REMARK SMILES IDX 32 36 33 37 83 38 34 39 88 40 82 41 84 42 35 43 87 44 81 45
REMARK SMILES IDX 80 46 36 48 68 49 48 50 67 51 49 52 52 53 66 54 85 55 50 56
REMARK SMILES IDX 51 57 65 59 86 60 53 61 37 62 38 63 46 64 39 65 41 66 47 67
REMARK SMILES IDX 40 68 42 69 43 70 44 71 45 72 69 73 70 74 78 75 71 76 73 77
REMARK SMILES IDX 79 78 72 79 74 80 75 81 76 82 77 83 54 84 55 85 63 86 56 87
REMARK SMILES IDX 58 88 64 89 57 90 59 91 60 92 61 93 62 94
REMARK H PARENT 20 6 25 28 84 47 52 58
REMARK Flexibility Score: inf
ROOT
ATOM      1  C   UNL A   1      37.067  22.004  23.873  1.00  0.00     0.023 C 
ENDROOT
BRANCH   1   2
ATOM      2  C   UNL A   1      35.787  23.154  24.129  1.00  0.00     0.116 C 
BRANCH   2   3
ATOM      3  N   UNL A   1      34.424  22.649  24.127  1.00  0.00    -0.354 N 
ATOM      4  O   UNL A   1      33.942  23.218  21.980  1.00  0.00    -0.273 OA
ATOM      5  C   UNL A   1      33.555  22.818  23.080  1.00  0.00     0.241 C 
ATOM      6  H   UNL A   1      34.108  22.158  24.919  1.00  0.00     0.163 HD
BRANCH   5   7
ATOM      7  C   UNL A   1      32.081  22.617  23.352  1.00  0.00     0.249 C 
BRANCH   7   8
ATOM      8  N   UNL A   1      31.394  23.688  24.027  1.00  0.00    -0.211 N 
ATOM      9  N   UNL A   1      30.807  23.372  25.198  1.00  0.00    -0.044 NA
ATOM     10  C   UNL A   1      31.098  24.988  23.712  1.00  0.00     0.216 A 
ATOM     11  N   UNL A   1      30.125  24.448  25.553  1.00  0.00    -0.023 NA
ATOM     12  N   UNL A   1      30.299  25.451  24.646  1.00  0.00    -0.101 NA
BRANCH  10  13
ATOM     13  S   UNL A   1      31.636  26.040  22.462  1.00  0.00    -0.028 SA
BRANCH  13  14
ATOM     14  C   UNL A   1      31.215  27.668  22.920  1.00  0.00     0.111 A 
ATOM     15  N   UNL A   1      30.192  28.254  22.249  1.00  0.00    -0.229 NA
ATOM     16  C   UNL A   1      31.735  28.300  24.017  1.00  0.00     0.006 A 
ATOM     17  C   UNL A   1      29.628  29.419  22.709  1.00  0.00     0.223 A 
ATOM     18  C   UNL A   1      30.902  29.654  24.527  1.00  0.00     0.048 A 
ATOM     19  C   UNL A   1      33.280  27.639  24.902  1.00  0.00     0.040 C 
ATOM     20  N   UNL A   1      29.889  30.146  23.820  1.00  0.00    -0.241 NA
ATOM     21  C   UNL A   1      31.542  30.787  25.878  1.00  0.00     0.056 C 
ATOM     22  C   UNL A   1      34.144  28.768  26.292  1.00  0.00     0.005 C 
ATOM     23  C   UNL A   1      33.119  30.313  26.936  1.00  0.00     0.007 C 
ENDBRANCH  13  14
ENDBRANCH  10  13
ENDBRANCH   7   8
ENDBRANCH   5   7
ENDBRANCH   2   3
ENDBRANCH   1   2
BRANCH   1  24
ATOM     24  C   UNL A   1      37.932  20.366  24.918  1.00  0.00     0.023 C 
BRANCH  24  25
ATOM     25  C   UNL A   1      39.209  20.076  26.101  1.00  0.00     0.116 C 
BRANCH  25  26
ATOM     26  N   UNL A   1      40.445  19.347  25.821  1.00  0.00    -0.352 N 
ATOM     27  C   UNL A   1      41.738  19.856  25.761  1.00  0.00     0.251 C 
ATOM     28  H   UNL A   1      40.350  18.381  25.654  1.00  0.00     0.163 HD
ATOM     29  O   UNL A   1      42.608  19.235  25.155  1.00  0.00    -0.269 OA
BRANCH  27  30
ATOM     30  C   UNL A   1      42.092  21.122  26.456  1.00  0.00     0.039 A 
ATOM     31  C   UNL A   1      42.237  22.317  25.745  1.00  0.00     0.014 A 
ATOM     32  C   UNL A   1      42.325  21.107  27.835  1.00  0.00     0.014 A 
ATOM     33  C   UNL A   1      42.529  23.491  26.443  1.00  0.00     0.010 A 
ATOM     34  C   UNL A   1      42.533  22.278  28.539  1.00  0.00     0.010 A 
ATOM     35  C   UNL A   1      42.645  23.474  27.847  1.00  0.00    -0.014 A 
BRANCH  35  36
ATOM     36  C   UNL A   1      42.628  24.735  28.588  1.00  0.00     0.031 A 
ATOM     37  C   UNL A   1      41.352  25.477  28.392  1.00  0.00     0.074 A 
ATOM     38  C   UNL A   1      43.554  25.158  29.476  1.00  0.00     0.049 A 
ATOM     39  N   UNL A   1      41.183  26.489  27.610  1.00  0.00    -0.248 NA
ATOM     40  C   UNL A   1      40.096  24.915  28.912  1.00  0.00     0.031 C 
ATOM     41  C   UNL A   1      44.708  24.432  30.009  1.00  0.00     0.029 A 
ATOM     42  N   UNL A   1      43.594  26.327  30.180  1.00  0.00    -0.354 N 
ATOM     43  C   UNL A   1      39.853  26.863  27.759  1.00  0.00     0.074 A 
ATOM     44  C   UNL A   1      39.196  25.735  28.361  1.00  0.00     0.031 C 
ATOM     45  C   UNL A   1      45.168  25.067  31.114  1.00  0.00     0.029 A 
ATOM     46  C   UNL A   1      44.443  26.314  31.285  1.00  0.00     0.049 A 
ATOM     47  H   UNL A   1      43.065  27.118  29.926  1.00  0.00     0.167 HD
ATOM     48  C   UNL A   1      39.494  28.171  27.629  1.00  0.00     0.034 A 
ATOM     49  C   UNL A   1      44.505  27.235  32.286  1.00  0.00     0.034 A 
ATOM     50  C   UNL A   1      40.567  28.937  27.033  1.00  0.00     0.049 A 
ATOM     51  C   UNL A   1      43.951  28.498  31.745  1.00  0.00     0.074 A 
ATOM     52  C   UNL A   1      41.302  28.842  25.866  1.00  0.00     0.029 A 
ATOM     53  N   UNL A   1      41.310  29.720  27.885  1.00  0.00    -0.354 N 
ATOM     54  N   UNL A   1      44.531  29.173  30.791  1.00  0.00    -0.248 NA
ATOM     55  C   UNL A   1      42.524  28.732  31.909  1.00  0.00     0.031 C 
ATOM     56  C   UNL A   1      42.640  29.141  26.258  1.00  0.00     0.029 A 
ATOM     57  C   UNL A   1      42.631  29.502  27.605  1.00  0.00     0.049 A 
ATOM     58  H   UNL A   1      40.956  30.329  28.573  1.00  0.00     0.167 HD
ATOM     59  C   UNL A   1      43.488  29.504  29.938  1.00  0.00     0.074 A 
ATOM     60  C   UNL A   1      42.268  29.288  30.721  1.00  0.00     0.031 C 
ATOM     61  C   UNL A   1      43.682  29.613  28.592  1.00  0.00     0.034 A 
BRANCH  48  62
ATOM     62  C   UNL A   1      38.394  28.866  28.407  1.00  0.00     0.023 A 
ATOM     63  C   UNL A   1      37.551  29.729  27.665  1.00  0.00     0.012 A 
ATOM     64  C   UNL A   1      38.329  28.969  29.814  1.00  0.00     0.148 A 
ATOM     65  C   UNL A   1      36.775  30.713  28.284  1.00  0.00     0.002 A 
ATOM     66  C   UNL A   1      37.499  29.900  30.428  1.00  0.00     0.091 A 
ATOM     67  F   UNL A   1      39.148  28.251  30.582  1.00  0.00    -0.205 F 
ATOM     68  C   UNL A   1      36.752  30.801  29.668  1.00  0.00     0.022 A 
BRANCH  66  69
ATOM     69  S   UNL A   1      37.381  30.031  32.218  1.00  0.00     0.127 S 
ATOM     70  O   UNL A   1      36.283  30.983  32.368  1.00  0.00    -0.237 OA
ATOM     71  O   UNL A   1      37.065  28.653  32.591  1.00  0.00    -0.237 OA
ATOM     72  O   UNL A   1      38.687  30.491  32.670  1.00  0.00    -0.744 OA
ENDBRANCH  66  69
ENDBRANCH  48  62
BRANCH  49  73
ATOM     73  C   UNL A   1      44.721  27.039  33.748  1.00  0.00     0.023 A 
ATOM     74  C   UNL A   1      45.879  27.548  34.379  1.00  0.00     0.012 A 
ATOM     75  C   UNL A   1      43.662  26.611  34.577  1.00  0.00     0.148 A 
ATOM     76  C   UNL A   1      45.960  27.656  35.778  1.00  0.00     0.002 A 
ATOM     77  C   UNL A   1      43.752  26.712  35.964  1.00  0.00     0.091 A 
ATOM     78  F   UNL A   1      42.525  26.196  34.008  1.00  0.00    -0.205 F 
ATOM     79  C   UNL A   1      44.893  27.247  36.571  1.00  0.00     0.022 A 
BRANCH  77  80
ATOM     80  S   UNL A   1      42.397  26.212  37.034  1.00  0.00     0.127 S 
ATOM     81  O   UNL A   1      42.169  24.830  36.607  1.00  0.00    -0.237 OA
ATOM     82  O   UNL A   1      42.999  26.352  38.357  1.00  0.00    -0.237 OA
ATOM     83  O   UNL A   1      41.304  27.120  36.713  1.00  0.00    -0.744 OA
ENDBRANCH  77  80
ENDBRANCH  49  73
BRANCH  61  84
ATOM     84  C   UNL A   1      45.088  29.608  28.045  1.00  0.00     0.023 A 
ATOM     85  C   UNL A   1      45.920  30.746  28.067  1.00  0.00     0.012 A 
ATOM     86  C   UNL A   1      45.652  28.359  27.731  1.00  0.00     0.148 A 
ATOM     87  C   UNL A   1      47.287  30.637  27.786  1.00  0.00     0.002 A 
ATOM     88  C   UNL A   1      47.017  28.246  27.510  1.00  0.00     0.091 A 
ATOM     89  F   UNL A   1      44.842  27.288  27.713  1.00  0.00    -0.205 F 
ATOM     90  C   UNL A   1      47.838  29.384  27.528  1.00  0.00     0.022 A 
BRANCH  88  91
ATOM     91  S   UNL A   1      47.805  26.644  27.325  1.00  0.00     0.127 S 
ATOM     92  O   UNL A   1      47.154  26.121  26.126  1.00  0.00    -0.237 OA
ATOM     93  O   UNL A   1      49.212  27.009  27.149  1.00  0.00    -0.237 OA
ATOM     94  O   UNL A   1      47.529  25.912  28.554  1.00  0.00    -0.744 OA
ENDBRANCH  88  91
ENDBRANCH  61  84
ENDBRANCH  35  36
ENDBRANCH  27  30
ENDBRANCH  25  26
ENDBRANCH  24  25
ENDBRANCH   1  24
TORSDOF 17
ENDMDL
MODEL 2
REMARK VINA RESULT:     -12.8      3.246      7.323
REMARK SMILES O=C(Cn1nnnc1Sc1ncnc2c1CCCC2)NCCCCNC(=O)c1ccc(-c2c3nc(c(-c4cccc(S(=O)(=O)[O-])c4F)c4ccc([nH]4)c(-c4cccc(S(=O)(=O)[O-])c4F)c4nc(c(-c5cccc(S(=O)(=O)[O-])c5F)c5ccc2[nH]5)C=C4)C=C3)cc1
REMARK SMILES IDX 22 1 21 2 20 3 1 4 2 5 3 7 4 8 5 9 8 10 6 11 7 12 9 13 10 14
REMARK SMILES IDX 11 15 15 16 12 17 14 18 16 19 13 20 19 21 17 22 18 23 23 24
REMARK SMILES IDX 24 25 25 26 26 27 27 29 28 30 29 31 90 32 30 33 89 34 31 35
REMARK SMILES IDX 32 36 33 37 83 38 34 39 88 40 82 41 84 42 35 43 87 44 81 45
REMARK SMILES IDX 80 46 36 48 68 49 48 50 67 51 49 52 52 53 66 54 85 55 50 56
REMARK SMILES IDX 51 57 65 59 86 60 53 61 37 62 38 63 46 64 39 65 41 66 47 67
REMARK SMILES IDX 40 68 42 69 43 70 44 71 45 72 69 73 70 74 78 75 71 76 73 77
REMARK SMILES IDX 79 78 72 79 74 80 75 81 76 82 77 83 54 84 55 85 63 86 56 87
REMARK SMILES IDX 58 88 64 89 57 90 59 91 60 92 61 93 62 94
REMARK H PARENT 20 6 25 28 84 47 52 58
REMARK Flexibility Score: inf
ROOT
ATOM      1  C   UNL A   1      38.023  21.674  25.389  1.00  0.00     0.023 C 
ENDROOT
BRANCH   1   2
ATOM      2  C   UNL A   1      36.322  21.310  25.435  1.00  0.00     0.116 C 
BRANCH   2   3
ATOM      3  N   UNL A   1      35.567  21.793  26.579  1.00  0.00    -0.354 N 
ATOM      4  O   UNL A   1      33.661  20.638  26.136  1.00  0.00    -0.273 OA
ATOM      5  C   UNL A   1      34.243  21.507  26.789  1.00  0.00     0.241 C 
ATOM      6  H   UNL A   1      36.031  22.356  27.240  1.00  0.00     0.163 HD
BRANCH   5   7
ATOM      7  C   UNL A   1      33.481  22.379  27.762  1.00  0.00     0.249 C 
BRANCH   7   8
ATOM      8  N   UNL A   1      32.461  23.231  27.208  1.00  0.00    -0.211 N 
ATOM      9  N   UNL A   1      31.199  22.991  27.615  1.00  0.00    -0.044 NA
ATOM     10  C   UNL A   1      32.445  24.213  26.253  1.00  0.00     0.216 A 
ATOM     11  N   UNL A   1      30.433  23.777  26.878  1.00  0.00    -0.023 NA
ATOM     12  N   UNL A   1      31.190  24.537  26.036  1.00  0.00    -0.101 NA
BRANCH  10  13
ATOM     13  S   UNL A   1      33.693  25.078  25.444  1.00  0.00    -0.028 SA
BRANCH  13  14
ATOM     14  C   UNL A   1      32.995  25.813  24.025  1.00  0.00     0.111 A 
ATOM     15  N   UNL A   1      33.052  25.102  22.871  1.00  0.00    -0.229 NA
ATOM     16  C   UNL A   1      32.254  26.962  24.059  1.00  0.00     0.006 A 
ATOM     17  C   UNL A   1      32.311  25.481  21.778  1.00  0.00     0.223 A 
ATOM     18  C   UNL A   1      31.328  27.260  22.703  1.00  0.00     0.048 A 
ATOM     19  C   UNL A   1      32.268  28.106  25.576  1.00  0.00     0.040 C 
ATOM     20  N   UNL A   1      31.425  26.493  21.620  1.00  0.00    -0.241 NA
ATOM     21  C   UNL A   1      30.394  28.866  22.446  1.00  0.00     0.056 C 
ATOM     22  C   UNL A   1      31.409  29.894  25.435  1.00  0.00     0.005 C 
ATOM     23  C   UNL A   1      30.261  30.200  23.872  1.00  0.00     0.007 C 
ENDBRANCH  13  14
ENDBRANCH  10  13
ENDBRANCH   7   8
ENDBRANCH   5   7
ENDBRANCH   2   3
ENDBRANCH   1   2
BRANCH   1  24
ATOM     24  C   UNL A   1      39.826  20.827  26.132  1.00  0.00     0.023 C 
BRANCH  24  25
ATOM     25  C   UNL A   1      41.432  21.360  26.633  1.00  0.00     0.116 C 
BRANCH  25  26
ATOM     26  N   UNL A   1      42.442  21.903  25.726  1.00  0.00    -0.352 N 
ATOM     27  C   UNL A   1      42.698  23.240  25.440  1.00  0.00     0.251 C 
ATOM     28  H   UNL A   1      43.009  21.243  25.263  1.00  0.00     0.163 HD
ATOM     29  O   UNL A   1      43.291  23.537  24.405  1.00  0.00    -0.269 OA
BRANCH  27  30
ATOM     30  C   UNL A   1      42.301  24.313  26.389  1.00  0.00     0.039 A 
ATOM     31  C   UNL A   1      42.969  24.480  27.606  1.00  0.00     0.014 A 
ATOM     32  C   UNL A   1      41.218  25.140  26.078  1.00  0.00     0.014 A 
ATOM     33  C   UNL A   1      42.591  25.528  28.449  1.00  0.00     0.010 A 
ATOM     34  C   UNL A   1      40.894  26.226  26.869  1.00  0.00     0.010 A 
ATOM     35  C   UNL A   1      41.573  26.421  28.062  1.00  0.00    -0.014 A 
BRANCH  35  36
ATOM     36  C   UNL A   1      41.405  27.682  28.784  1.00  0.00     0.031 A 
ATOM     37  C   UNL A   1      42.393  28.707  28.346  1.00  0.00     0.074 A 
ATOM     38  C   UNL A   1      40.407  27.993  29.639  1.00  0.00     0.049 A 
ATOM     39  N   UNL A   1      43.465  29.039  28.983  1.00  0.00    -0.248 NA
ATOM     40  C   UNL A   1      42.328  29.242  26.977  1.00  0.00     0.031 C 
ATOM     41  C   UNL A   1      39.201  27.226  29.954  1.00  0.00     0.029 A 
ATOM     42  N   UNL A   1      40.214  29.145  30.347  1.00  0.00    -0.354 N 
ATOM     43  C   UNL A   1      44.064  30.034  28.220  1.00  0.00     0.074 A 
ATOM     44  C   UNL A   1      43.468  29.936  26.914  1.00  0.00     0.031 C 
ATOM     45  C   UNL A   1      38.304  28.030  30.573  1.00  0.00     0.029 A 
ATOM     46  C   UNL A   1      38.919  29.321  30.830  1.00  0.00     0.049 A 
ATOM     47  H   UNL A   1      40.933  29.798  30.504  1.00  0.00     0.167 HD
ATOM     48  C   UNL A   1      44.784  31.018  28.826  1.00  0.00     0.034 A 
ATOM     49  C   UNL A   1      38.384  30.459  31.355  1.00  0.00     0.034 A 
ATOM     50  C   UNL A   1      45.064  30.669  30.202  1.00  0.00     0.049 A 
ATOM     51  C   UNL A   1      39.516  31.283  31.839  1.00  0.00     0.074 A 
ATOM     52  C   UNL A   1      45.667  29.598  30.834  1.00  0.00     0.029 A 
ATOM     53  N   UNL A   1      44.301  31.293  31.162  1.00  0.00    -0.354 N 
ATOM     54  N   UNL A   1      40.279  30.922  32.834  1.00  0.00    -0.248 NA
ATOM     55  C   UNL A   1      40.096  32.241  30.911  1.00  0.00     0.031 C 
ATOM     56  C   UNL A   1      44.852  29.347  31.977  1.00  0.00     0.029 A 
ATOM     57  C   UNL A   1      43.869  30.335  32.037  1.00  0.00     0.049 A 
ATOM     58  H   UNL A   1      44.103  32.256  31.211  1.00  0.00     0.167 HD
ATOM     59  C   UNL A   1      41.562  31.194  32.382  1.00  0.00     0.074 A 
ATOM     60  C   UNL A   1      41.384  32.087  31.234  1.00  0.00     0.031 C 
ATOM     61  C   UNL A   1      42.625  30.429  32.768  1.00  0.00     0.034 A 
BRANCH  48  62
ATOM     62  C   UNL A   1      44.874  32.460  28.366  1.00  0.00     0.023 A 
ATOM     63  C   UNL A   1      43.649  33.162  28.261  1.00  0.00     0.012 A 
ATOM     64  C   UNL A   1      46.000  33.053  27.756  1.00  0.00     0.148 A 
ATOM     65  C   UNL A   1      43.529  34.326  27.497  1.00  0.00     0.002 A 
ATOM     66  C   UNL A   1      45.892  34.252  27.059  1.00  0.00     0.091 A 
ATOM     67  F   UNL A   1      47.172  32.418  27.739  1.00  0.00    -0.205 F 
ATOM     68  C   UNL A   1      44.652  34.869  26.891  1.00  0.00     0.022 A 
BRANCH  66  69
ATOM     69  S   UNL A   1      47.318  35.038  26.295  1.00  0.00     0.127 S 
ATOM     70  O   UNL A   1      48.343  34.834  27.314  1.00  0.00    -0.237 OA
ATOM     71  O   UNL A   1      47.478  34.235  25.082  1.00  0.00    -0.237 OA
ATOM     72  O   UNL A   1      46.928  36.420  26.052  1.00  0.00    -0.744 OA
ENDBRANCH  66  69
ENDBRANCH  48  62
BRANCH  49  73
ATOM     73  C   UNL A   1      37.013  31.024  31.203  1.00  0.00     0.023 A 
ATOM     74  C   UNL A   1      36.317  31.534  32.322  1.00  0.00     0.012 A 
ATOM     75  C   UNL A   1      36.503  31.331  29.923  1.00  0.00     0.148 A 
ATOM     76  C   UNL A   1      35.179  32.344  32.167  1.00  0.00     0.002 A 
ATOM     77  C   UNL A   1      35.369  32.128  29.775  1.00  0.00     0.091 A 
ATOM     78  F   UNL A   1      37.183  30.927  28.844  1.00  0.00    -0.205 F 
ATOM     79  C   UNL A   1      34.711  32.650  30.894  1.00  0.00     0.022 A 
BRANCH  77  80
ATOM     80  S   UNL A   1      34.730  32.565  28.153  1.00  0.00     0.127 S 
ATOM     81  O   UNL A   1      35.849  33.317  27.581  1.00  0.00    -0.237 OA
ATOM     82  O   UNL A   1      34.510  31.249  27.559  1.00  0.00    -0.237 OA
ATOM     83  O   UNL A   1      33.546  33.371  28.416  1.00  0.00    -0.744 OA
ENDBRANCH  77  80
ENDBRANCH  49  73
BRANCH  61  84
ATOM     84  C   UNL A   1      42.448  29.425  33.879  1.00  0.00     0.023 A 
ATOM     85  C   UNL A   1      41.785  28.194  33.697  1.00  0.00     0.012 A 
ATOM     86  C   UNL A   1      43.186  29.632  35.057  1.00  0.00     0.148 A 
ATOM     87  C   UNL A   1      41.862  27.191  34.670  1.00  0.00     0.002 A 
ATOM     88  C   UNL A   1      43.307  28.615  35.993  1.00  0.00     0.091 A 
ATOM     89  F   UNL A   1      43.807  30.812  35.212  1.00  0.00    -0.205 F 
ATOM     90  C   UNL A   1      42.639  27.395  35.808  1.00  0.00     0.022 A 
BRANCH  88  91
ATOM     91  S   UNL A   1      44.414  28.763  37.398  1.00  0.00     0.127 S 
ATOM     92  O   UNL A   1      44.124  27.540  38.144  1.00  0.00    -0.237 OA
ATOM     93  O   UNL A   1      45.729  28.791  36.755  1.00  0.00    -0.237 OA
ATOM     94  O   UNL A   1      44.053  30.005  38.070  1.00  0.00    -0.744 OA
ENDBRANCH  88  91
ENDBRANCH  61  84
ENDBRANCH  35  36
ENDBRANCH  27  30
ENDBRANCH  25  26
ENDBRANCH  24  25
ENDBRANCH   1  24
TORSDOF 17
ENDMDL
MODEL 3
REMARK VINA RESULT:     -12.7      2.754      8.331
REMARK SMILES O=C(Cn1nnnc1Sc1ncnc2c1CCCC2)NCCCCNC(=O)c1ccc(-c2c3nc(c(-c4cccc(S(=O)(=O)[O-])c4F)c4ccc([nH]4)c(-c4cccc(S(=O)(=O)[O-])c4F)c4nc(c(-c5cccc(S(=O)(=O)[O-])c5F)c5ccc2[nH]5)C=C4)C=C3)cc1
REMARK SMILES IDX 22 1 21 2 20 3 1 4 2 5 3 7 4 8 5 9 8 10 6 11 7 12 9 13 10 14
REMARK SMILES IDX 11 15 15 16 12 17 14 18 16 19 13 20 19 21 17 22 18 23 23 24
REMARK SMILES IDX 24 25 25 26 26 27 27 29 28 30 29 31 90 32 30 33 89 34 31 35
REMARK SMILES IDX 32 36 33 37 83 38 34 39 88 40 82 41 84 42 35 43 87 44 81 45
REMARK SMILES IDX 80 46 36 48 68 49 48 50 67 51 49 52 52 53 66 54 85 55 50 56
REMARK SMILES IDX 51 57 65 59 86 60 53 61 37 62 38 63 46 64 39 65 41 66 47 67
REMARK SMILES IDX 40 68 42 69 43 70 44 71 45 72 69 73 70 74 78 75 71 76 73 77
REMARK SMILES IDX 79 78 72 79 74 80 75 81 76 82 77 83 54 84 55 85 63 86 56 87
REMARK SMILES IDX 58 88 64 89 57 90 59 91 60 92 61 93 62 94
REMARK H PARENT 20 6 25 28 84 47 52 58
REMARK Flexibility Score: inf
ROOT
ATOM      1  C   UNL A   1      32.343  29.620  26.586  1.00  0.00     0.023 C 
ENDROOT
BRANCH   1   2
ATOM      2  C   UNL A   1      31.512  29.200  25.116  1.00  0.00     0.116 C 
BRANCH   2   3
ATOM      3  N   UNL A   1      31.171  27.802  24.918  1.00  0.00    -0.354 N 
ATOM      4  O   UNL A   1      29.908  28.107  23.053  1.00  0.00    -0.273 OA
ATOM      5  C   UNL A   1      30.296  27.364  23.957  1.00  0.00     0.241 C 
ATOM      6  H   UNL A   1      31.591  27.132  25.504  1.00  0.00     0.163 HD
BRANCH   5   7
ATOM      7  C   UNL A   1      29.719  25.974  24.113  1.00  0.00     0.249 C 
BRANCH   7   8
ATOM      8  N   UNL A   1      30.349  25.116  25.083  1.00  0.00    -0.211 N 
ATOM      9  N   UNL A   1      30.208  25.475  26.375  1.00  0.00    -0.044 NA
ATOM     10  C   UNL A   1      31.173  24.024  25.008  1.00  0.00     0.216 A 
ATOM     11  N   UNL A   1      30.978  24.646  27.059  1.00  0.00    -0.023 NA
ATOM     12  N   UNL A   1      31.576  23.745  26.227  1.00  0.00    -0.101 NA
BRANCH  10  13
ATOM     13  S   UNL A   1      31.638  22.997  23.708  1.00  0.00    -0.028 SA
BRANCH  13  14
ATOM     14  C   UNL A   1      32.609  21.710  24.371  1.00  0.00     0.111 A 
ATOM     15  N   UNL A   1      31.976  20.545  24.660  1.00  0.00    -0.229 NA
ATOM     16  C   UNL A   1      33.974  21.757  24.444  1.00  0.00     0.006 A 
ATOM     17  C   UNL A   1      32.695  19.408  24.938  1.00  0.00     0.223 A 
ATOM     18  C   UNL A   1      34.731  20.290  24.695  1.00  0.00     0.048 A 
ATOM     19  C   UNL A   1      34.923  23.389  24.232  1.00  0.00     0.040 C 
ATOM     20  N   UNL A   1      34.030  19.187  24.944  1.00  0.00    -0.241 NA
ATOM     21  C   UNL A   1      36.572  20.144  25.027  1.00  0.00     0.056 C 
ATOM     22  C   UNL A   1      36.867  23.428  24.645  1.00  0.00     0.005 C 
ATOM     23  C   UNL A   1      37.757  21.692  24.862  1.00  0.00     0.007 C 
ENDBRANCH  13  14
ENDBRANCH  10  13
ENDBRANCH   7   8
ENDBRANCH   5   7
ENDBRANCH   2   3
ENDBRANCH   1   2
BRANCH   1  24
ATOM     24  C   UNL A   1      33.793  31.042  27.214  1.00  0.00     0.023 C 
BRANCH  24  25
ATOM     25  C   UNL A   1      34.993  31.233  28.494  1.00  0.00     0.116 C 
BRANCH  25  26
ATOM     26  N   UNL A   1      34.803  32.058  29.687  1.00  0.00    -0.352 N 
ATOM     27  C   UNL A   1      35.366  31.875  30.946  1.00  0.00     0.251 C 
ATOM     28  H   UNL A   1      34.206  32.835  29.586  1.00  0.00     0.163 HD
ATOM     29  O   UNL A   1      34.840  32.394  31.928  1.00  0.00    -0.269 OA
BRANCH  27  30
ATOM     30  C   UNL A   1      36.620  31.095  31.115  1.00  0.00     0.039 A 
ATOM     31  C   UNL A   1      36.583  29.721  31.372  1.00  0.00     0.014 A 
ATOM     32  C   UNL A   1      37.852  31.753  31.058  1.00  0.00     0.014 A 
ATOM     33  C   UNL A   1      37.785  29.018  31.482  1.00  0.00     0.010 A 
ATOM     34  C   UNL A   1      39.043  31.050  31.085  1.00  0.00     0.010 A 
ATOM     35  C   UNL A   1      39.016  29.681  31.305  1.00  0.00    -0.014 A 
BRANCH  35  36
ATOM     36  C   UNL A   1      40.235  28.899  31.102  1.00  0.00     0.031 A 
ATOM     37  C   UNL A   1      41.023  28.765  32.358  1.00  0.00     0.074 A 
ATOM     38  C   UNL A   1      40.583  28.228  29.983  1.00  0.00     0.049 A 
ATOM     39  N   UNL A   1      42.080  29.440  32.659  1.00  0.00    -0.248 NA
ATOM     40  C   UNL A   1      40.471  27.997  33.485  1.00  0.00     0.031 C 
ATOM     41  C   UNL A   1      39.796  28.006  28.768  1.00  0.00     0.029 A 
ATOM     42  N   UNL A   1      41.711  27.499  29.737  1.00  0.00    -0.354 N 
ATOM     43  C   UNL A   1      42.484  28.974  33.905  1.00  0.00     0.074 A 
ATOM     44  C   UNL A   1      41.345  28.289  34.453  1.00  0.00     0.031 C 
ATOM     45  C   UNL A   1      40.357  27.008  28.044  1.00  0.00     0.029 A 
ATOM     46  C   UNL A   1      41.613  26.620  28.661  1.00  0.00     0.049 A 
ATOM     47  H   UNL A   1      42.529  27.589  30.278  1.00  0.00     0.167 HD
ATOM     48  C   UNL A   1      43.807  28.958  34.231  1.00  0.00     0.034 A 
ATOM     49  C   UNL A   1      42.478  25.618  28.336  1.00  0.00     0.034 A 
ATOM     50  C   UNL A   1      44.572  29.748  33.291  1.00  0.00     0.049 A 
ATOM     51  C   UNL A   1      43.783  25.960  28.947  1.00  0.00     0.074 A 
ATOM     52  C   UNL A   1      44.519  31.055  32.844  1.00  0.00     0.029 A 
ATOM     53  N   UNL A   1      45.287  29.053  32.343  1.00  0.00    -0.354 N 
ATOM     54  N   UNL A   1      44.492  26.989  28.572  1.00  0.00    -0.248 NA
ATOM     55  C   UNL A   1      44.050  25.463  30.288  1.00  0.00     0.031 C 
ATOM     56  C   UNL A   1      44.757  30.967  31.441  1.00  0.00     0.029 A 
ATOM     57  C   UNL A   1      45.046  29.638  31.130  1.00  0.00     0.049 A 
ATOM     58  H   UNL A   1      45.868  28.276  32.507  1.00  0.00     0.167 HD
ATOM     59  C   UNL A   1      44.898  27.565  29.766  1.00  0.00     0.074 A 
ATOM     60  C   UNL A   1      44.676  26.534  30.784  1.00  0.00     0.031 C 
ATOM     61  C   UNL A   1      45.073  28.914  29.879  1.00  0.00     0.034 A 
BRANCH  48  62
ATOM     62  C   UNL A   1      44.491  27.919  35.096  1.00  0.00     0.023 A 
ATOM     63  C   UNL A   1      45.449  28.404  36.019  1.00  0.00     0.012 A 
ATOM     64  C   UNL A   1      44.485  26.527  34.859  1.00  0.00     0.148 A 
ATOM     65  C   UNL A   1      46.418  27.569  36.584  1.00  0.00     0.002 A 
ATOM     66  C   UNL A   1      45.404  25.688  35.481  1.00  0.00     0.091 A 
ATOM     67  F   UNL A   1      43.671  26.001  33.944  1.00  0.00    -0.205 F 
ATOM     68  C   UNL A   1      46.398  26.210  36.310  1.00  0.00     0.022 A 
BRANCH  66  69
ATOM     69  S   UNL A   1      45.399  23.910  35.212  1.00  0.00     0.127 S 
ATOM     70  O   UNL A   1      45.819  23.825  33.816  1.00  0.00    -0.237 OA
ATOM     71  O   UNL A   1      46.394  23.465  36.188  1.00  0.00    -0.237 OA
ATOM     72  O   UNL A   1      44.041  23.468  35.496  1.00  0.00    -0.744 OA
ENDBRANCH  66  69
ENDBRANCH  48  62
BRANCH  49  73
ATOM     73  C   UNL A   1      42.197  24.255  27.802  1.00  0.00     0.023 A 
ATOM     74  C   UNL A   1      40.902  23.697  27.894  1.00  0.00     0.012 A 
ATOM     75  C   UNL A   1      43.119  23.618  26.944  1.00  0.00     0.148 A 
ATOM     76  C   UNL A   1      40.534  22.573  27.135  1.00  0.00     0.002 A 
ATOM     77  C   UNL A   1      42.753  22.498  26.201  1.00  0.00     0.091 A 
ATOM     78  F   UNL A   1      44.329  24.166  26.778  1.00  0.00    -0.205 F 
ATOM     79  C   UNL A   1      41.456  21.979  26.282  1.00  0.00     0.022 A 
BRANCH  77  80
ATOM     80  S   UNL A   1      43.901  21.700  25.071  1.00  0.00     0.127 S 
ATOM     81  O   UNL A   1      45.165  21.801  25.805  1.00  0.00    -0.237 OA
ATOM     82  O   UNL A   1      43.346  20.352  24.990  1.00  0.00    -0.237 OA
ATOM     83  O   UNL A   1      43.856  22.501  23.855  1.00  0.00    -0.744 OA
ENDBRANCH  77  80
ENDBRANCH  49  73
BRANCH  61  84
ATOM     84  C   UNL A   1      45.056  29.767  28.635  1.00  0.00     0.023 A 
ATOM     85  C   UNL A   1      43.864  30.141  27.981  1.00  0.00     0.012 A 
ATOM     86  C   UNL A   1      46.257  30.402  28.273  1.00  0.00     0.148 A 
ATOM     87  C   UNL A   1      43.872  31.130  26.991  1.00  0.00     0.002 A 
ATOM     88  C   UNL A   1      46.252  31.421  27.333  1.00  0.00     0.091 A 
ATOM     89  F   UNL A   1      47.381  30.030  28.906  1.00  0.00    -0.205 F 
ATOM     90  C   UNL A   1      45.063  31.784  26.682  1.00  0.00     0.022 A 
BRANCH  88  91
ATOM     91  S   UNL A   1      47.720  32.401  27.006  1.00  0.00     0.127 S 
ATOM     92  O   UNL A   1      48.644  31.397  26.482  1.00  0.00    -0.237 OA
ATOM     93  O   UNL A   1      47.237  33.364  26.016  1.00  0.00    -0.237 OA
ATOM     94  O   UNL A   1      48.102  32.996  28.280  1.00  0.00    -0.744 OA
ENDBRANCH  88  91
ENDBRANCH  61  84
ENDBRANCH  35  36
ENDBRANCH  27  30
ENDBRANCH  25  26
ENDBRANCH  24  25
ENDBRANCH   1  24
TORSDOF 17
ENDMDL
