MODEL 1
REMARK VINA RESULT:     -10.0      0.000      0.000
REMARK SMILES O=C(CCCNc1ccccc1SC(F)F)NCCCCNC(=O)c1ccc(-c2c3nc(c(-c4cccc(S(=O)(=O)[O-])c4F)c4ccc([nH]4)c(-c4cccc(S(=O)(=O)[O-])c4F)c4nc(c(-c5cccc(S(=O)(=O)[O-])c5F)c5ccc2[nH]5)C=C4)C=C3)cc1
REMARK SMILES IDX 18 1 17 2 1 3 2 4 3 6 4 7 5 8 6 9 7 11 8 12 12 13 9 14 11 15
REMARK SMILES IDX 10 16 13 17 14 18 15 19 16 20 19 21 20 22 21 23 22 24 23 25
REMARK SMILES IDX 24 27 25 28 26 29 87 30 27 31 86 32 28 33 29 34 30 35 80 36
REMARK SMILES IDX 31 37 85 38 79 39 81 40 32 41 84 42 78 43 77 44 33 46 65 47
REMARK SMILES IDX 45 48 64 49 46 50 49 51 63 52 82 53 47 54 48 55 62 57 83 58
REMARK SMILES IDX 50 59 34 60 35 61 43 62 36 63 38 64 44 65 37 66 39 67 40 68
REMARK SMILES IDX 41 69 42 70 66 71 67 72 75 73 68 74 70 75 76 76 69 77 71 78
REMARK SMILES IDX 72 79 73 80 74 81 51 82 52 83 60 84 53 85 55 86 61 87 54 88
REMARK SMILES IDX 56 89 57 90 58 91 59 92
REMARK H PARENT 17 5 6 10 22 26 81 45 49 56
REMARK Flexibility Score: inf
ROOT
ATOM      1  C   UNL A   1      33.855  21.170  24.631  1.00  0.00     0.116 C 
ENDROOT
BRANCH   1   2
ATOM      2  N   UNL A   1      32.523  21.658  24.936  1.00  0.00    -0.356 N 
ATOM      3  O   UNL A   1      33.189  23.208  26.498  1.00  0.00    -0.275 OA
ATOM      4  C   UNL A   1      32.298  22.637  25.877  1.00  0.00     0.220 C 
ATOM      5  H   UNL A   1      31.754  21.276  24.452  1.00  0.00     0.163 HD
BRANCH   4   6
ATOM      6  C   UNL A   1      30.835  22.944  26.131  1.00  0.00     0.102 C 
BRANCH   6   7
ATOM      7  C   UNL A   1      30.510  24.434  26.253  1.00  0.00     0.031 C 
BRANCH   7   8
ATOM      8  C   UNL A   1      30.456  25.216  24.939  1.00  0.00     0.113 C 
BRANCH   8   9
ATOM      9  N   UNL A   1      30.435  26.643  25.187  1.00  0.00    -0.384 N 
ATOM     10  H   UNL A   1      29.571  27.109  25.114  1.00  0.00     0.160 HD
BRANCH   9  11
ATOM     11  C   UNL A   1      31.555  27.401  25.522  1.00  0.00     0.048 A 
ATOM     12  C   UNL A   1      31.631  27.758  26.893  1.00  0.00     0.027 A 
ATOM     13  C   UNL A   1      32.630  27.777  24.689  1.00  0.00     0.036 A 
ATOM     14  C   UNL A   1      32.703  28.466  27.433  1.00  0.00     0.002 A 
ATOM     15  C   UNL A   1      33.691  28.533  25.248  1.00  0.00     0.017 A 
ATOM     16  C   UNL A   1      33.730  28.872  26.602  1.00  0.00     0.001 A 
BRANCH  13  17
ATOM     17  S   UNL A   1      32.951  27.311  22.984  1.00  0.00    -0.053 SA
BRANCH  17  18
ATOM     18  C   UNL A   1      33.646  25.659  23.024  1.00  0.00     0.405 C 
ATOM     19  F   UNL A   1      34.071  25.377  24.288  1.00  0.00    -0.198 F 
ATOM     20  F   UNL A   1      32.793  24.671  22.669  1.00  0.00    -0.198 F 
ENDBRANCH  17  18
ENDBRANCH  13  17
ENDBRANCH   9  11
ENDBRANCH   8   9
ENDBRANCH   7   8
ENDBRANCH   6   7
ENDBRANCH   4   6
ENDBRANCH   1   2
BRANCH   1  21
ATOM     21  C   UNL A   1      34.656  22.146  23.768  1.00  0.00     0.023 C 
BRANCH  21  22
ATOM     22  C   UNL A   1      36.142  22.261  24.117  1.00  0.00     0.023 C 
BRANCH  22  23
ATOM     23  C   UNL A   1      36.514  21.815  25.528  1.00  0.00     0.116 C 
BRANCH  23  24
ATOM     24  N   UNL A   1      37.538  20.786  25.564  1.00  0.00    -0.352 N 
ATOM     25  C   UNL A   1      38.857  20.868  25.947  1.00  0.00     0.251 C 
ATOM     26  H   UNL A   1      37.244  19.894  25.269  1.00  0.00     0.163 HD
ATOM     27  O   UNL A   1      39.582  19.888  25.833  1.00  0.00    -0.269 OA
BRANCH  25  28
ATOM     28  C   UNL A   1      39.418  22.143  26.460  1.00  0.00     0.039 A 
ATOM     29  C   UNL A   1      40.483  22.082  27.363  1.00  0.00     0.014 A 
ATOM     30  C   UNL A   1      38.910  23.386  26.072  1.00  0.00     0.014 A 
ATOM     31  C   UNL A   1      41.081  23.261  27.820  1.00  0.00     0.010 A 
ATOM     32  C   UNL A   1      39.556  24.559  26.466  1.00  0.00     0.010 A 
ATOM     33  C   UNL A   1      40.649  24.510  27.345  1.00  0.00    -0.014 A 
BRANCH  33  34
ATOM     34  C   UNL A   1      41.348  25.764  27.740  1.00  0.00     0.031 A 
ATOM     35  C   UNL A   1      40.624  26.842  28.500  1.00  0.00     0.074 A 
ATOM     36  C   UNL A   1      42.625  25.965  27.351  1.00  0.00     0.049 A 
ATOM     37  N   UNL A   1      41.061  28.014  28.888  1.00  0.00    -0.248 NA
ATOM     38  C   UNL A   1      39.218  26.582  28.852  1.00  0.00     0.031 C 
ATOM     39  C   UNL A   1      43.420  25.034  26.548  1.00  0.00     0.029 A 
ATOM     40  N   UNL A   1      43.470  27.029  27.557  1.00  0.00    -0.354 N 
ATOM     41  C   UNL A   1      39.981  28.641  29.501  1.00  0.00     0.074 A 
ATOM     42  C   UNL A   1      38.859  27.733  29.402  1.00  0.00     0.031 C 
ATOM     43  C   UNL A   1      44.635  25.565  26.331  1.00  0.00     0.029 A 
ATOM     44  C   UNL A   1      44.695  26.887  26.947  1.00  0.00     0.049 A 
ATOM     45  H   UNL A   1      43.222  27.819  28.090  1.00  0.00     0.167 HD
ATOM     46  C   UNL A   1      39.934  29.847  30.115  1.00  0.00     0.034 A 
ATOM     47  C   UNL A   1      45.747  27.727  26.878  1.00  0.00     0.034 A 
ATOM     48  C   UNL A   1      41.058  30.737  30.240  1.00  0.00     0.049 A 
ATOM     49  C   UNL A   1      45.676  29.053  27.586  1.00  0.00     0.074 A 
ATOM     50  C   UNL A   1      41.127  31.946  30.911  1.00  0.00     0.029 A 
ATOM     51  N   UNL A   1      42.306  30.523  29.674  1.00  0.00    -0.354 N 
ATOM     52  N   UNL A   1      44.693  29.562  28.288  1.00  0.00    -0.248 NA
ATOM     53  C   UNL A   1      46.871  29.906  27.524  1.00  0.00     0.031 C 
ATOM     54  C   UNL A   1      42.406  32.479  30.722  1.00  0.00     0.029 A 
ATOM     55  C   UNL A   1      43.147  31.584  29.968  1.00  0.00     0.049 A 
ATOM     56  H   UNL A   1      42.556  29.735  29.142  1.00  0.00     0.167 HD
ATOM     57  C   UNL A   1      45.162  30.774  28.780  1.00  0.00     0.074 A 
ATOM     58  C   UNL A   1      46.526  30.913  28.314  1.00  0.00     0.031 C 
ATOM     59  C   UNL A   1      44.519  31.693  29.540  1.00  0.00     0.034 A 
BRANCH  46  60
ATOM     60  C   UNL A   1      38.627  30.263  30.742  1.00  0.00     0.023 A 
ATOM     61  C   UNL A   1      38.378  29.965  32.098  1.00  0.00     0.012 A 
ATOM     62  C   UNL A   1      37.674  31.000  30.012  1.00  0.00     0.148 A 
ATOM     63  C   UNL A   1      37.188  30.360  32.706  1.00  0.00     0.002 A 
ATOM     64  C   UNL A   1      36.510  31.431  30.639  1.00  0.00     0.091 A 
ATOM     65  F   UNL A   1      37.918  31.260  28.720  1.00  0.00    -0.205 F 
ATOM     66  C   UNL A   1      36.259  31.100  31.981  1.00  0.00     0.022 A 
BRANCH  64  67
ATOM     67  S   UNL A   1      35.289  32.460  29.817  1.00  0.00     0.127 S 
ATOM     68  O   UNL A   1      36.093  33.616  29.422  1.00  0.00    -0.237 OA
ATOM     69  O   UNL A   1      34.864  31.605  28.708  1.00  0.00    -0.237 OA
ATOM     70  O   UNL A   1      34.256  32.729  30.808  1.00  0.00    -0.744 OA
ENDBRANCH  64  67
ENDBRANCH  46  60
BRANCH  47  71
ATOM     71  C   UNL A   1      46.978  27.320  26.143  1.00  0.00     0.023 A 
ATOM     72  C   UNL A   1      47.113  27.639  24.777  1.00  0.00     0.012 A 
ATOM     73  C   UNL A   1      48.023  26.635  26.794  1.00  0.00     0.148 A 
ATOM     74  C   UNL A   1      48.249  27.252  24.066  1.00  0.00     0.002 A 
ATOM     75  C   UNL A   1      49.177  26.304  26.094  1.00  0.00     0.091 A 
ATOM     76  F   UNL A   1      47.870  26.332  28.091  1.00  0.00    -0.205 F 
ATOM     77  C   UNL A   1      49.284  26.593  24.725  1.00  0.00     0.022 A 
BRANCH  75  78
ATOM     78  S   UNL A   1      50.610  25.573  26.891  1.00  0.00     0.127 S 
ATOM     79  O   UNL A   1      51.514  25.378  25.760  1.00  0.00    -0.237 OA
ATOM     80  O   UNL A   1      51.007  26.629  27.823  1.00  0.00    -0.237 OA
ATOM     81  O   UNL A   1      50.130  24.356  27.531  1.00  0.00    -0.744 OA
ENDBRANCH  75  78
ENDBRANCH  47  71
BRANCH  59  82
ATOM     82  C   UNL A   1      45.287  32.920  29.959  1.00  0.00     0.023 A 
ATOM     83  C   UNL A   1      46.073  32.896  31.129  1.00  0.00     0.012 A 
ATOM     84  C   UNL A   1      45.286  34.075  29.152  1.00  0.00     0.148 A 
ATOM     85  C   UNL A   1      46.816  34.015  31.507  1.00  0.00     0.002 A 
ATOM     86  C   UNL A   1      46.070  35.167  29.507  1.00  0.00     0.091 A 
ATOM     87  F   UNL A   1      44.520  34.086  28.051  1.00  0.00    -0.205 F 
ATOM     88  C   UNL A   1      46.824  35.144  30.691  1.00  0.00     0.022 A 
BRANCH  86  89
ATOM     89  S   UNL A   1      46.221  36.625  28.469  1.00  0.00     0.127 S 
ATOM     90  O   UNL A   1      46.649  36.043  27.198  1.00  0.00    -0.237 OA
ATOM     91  O   UNL A   1      44.853  37.148  28.471  1.00  0.00    -0.237 OA
ATOM     92  O   UNL A   1      47.199  37.485  29.121  1.00  0.00    -0.744 OA
ENDBRANCH  86  89
ENDBRANCH  59  82
ENDBRANCH  33  34
ENDBRANCH  25  28
ENDBRANCH  23  24
ENDBRANCH  22  23
ENDBRANCH  21  22
ENDBRANCH   1  21
TORSDOF 20
ENDMDL
MODEL 2
REMARK VINA RESULT:      -9.9      2.723      8.371
REMARK SMILES O=C(CCCNc1ccccc1SC(F)F)NCCCCNC(=O)c1ccc(-c2c3nc(c(-c4cccc(S(=O)(=O)[O-])c4F)c4ccc([nH]4)c(-c4cccc(S(=O)(=O)[O-])c4F)c4nc(c(-c5cccc(S(=O)(=O)[O-])c5F)c5ccc2[nH]5)C=C4)C=C3)cc1
REMARK SMILES IDX 18 1 17 2 1 3 2 4 3 6 4 7 5 8 6 9 7 11 8 12 12 13 9 14 11 15
REMARK SMILES IDX 10 16 13 17 14 18 15 19 16 20 19 21 20 22 21 23 22 24 23 25
REMARK SMILES IDX 24 27 25 28 26 29 87 30 27 31 86 32 28 33 29 34 30 35 80 36
REMARK SMILES IDX 31 37 85 38 79 39 81 40 32 41 84 42 78 43 77 44 33 46 65 47
REMARK SMILES IDX 45 48 64 49 46 50 49 51 63 52 82 53 47 54 48 55 62 57 83 58
REMARK SMILES IDX 50 59 34 60 35 61 43 62 36 63 38 64 44 65 37 66 39 67 40 68
REMARK SMILES IDX 41 69 42 70 66 71 67 72 75 73 68 74 70 75 76 76 69 77 71 78
REMARK SMILES IDX 72 79 73 80 74 81 51 82 52 83 60 84 53 85 55 86 61 87 54 88
REMARK SMILES IDX 56 89 57 90 58 91 59 92
REMARK H PARENT 17 5 6 10 22 26 81 45 49 56
REMARK Flexibility Score: inf
ROOT
ATOM      1  C   UNL A   1      34.411  22.153  24.076  1.00  0.00     0.116 C 
ENDROOT
BRANCH   1   2
ATOM      2  N   UNL A   1      33.226  22.577  24.797  1.00  0.00    -0.356 N 
ATOM      3  O   UNL A   1      32.126  20.563  24.652  1.00  0.00    -0.275 OA
ATOM      4  C   UNL A   1      32.155  21.738  25.006  1.00  0.00     0.220 C 
ATOM      5  H   UNL A   1      33.186  23.497  25.148  1.00  0.00     0.163 HD
BRANCH   4   6
ATOM      6  C   UNL A   1      30.968  22.388  25.689  1.00  0.00     0.102 C 
BRANCH   6   7
ATOM      7  C   UNL A   1      31.316  23.603  26.551  1.00  0.00     0.031 C 
BRANCH   7   8
ATOM      8  C   UNL A   1      30.592  24.903  26.195  1.00  0.00     0.113 C 
BRANCH   8   9
ATOM      9  N   UNL A   1      31.392  25.711  25.299  1.00  0.00    -0.384 N 
ATOM     10  H   UNL A   1      31.817  25.263  24.532  1.00  0.00     0.160 HD
BRANCH   9  11
ATOM     11  C   UNL A   1      31.602  27.080  25.447  1.00  0.00     0.048 A 
ATOM     12  C   UNL A   1      32.350  27.435  26.600  1.00  0.00     0.027 A 
ATOM     13  C   UNL A   1      31.229  28.117  24.565  1.00  0.00     0.036 A 
ATOM     14  C   UNL A   1      32.710  28.749  26.892  1.00  0.00     0.002 A 
ATOM     15  C   UNL A   1      31.570  29.451  24.903  1.00  0.00     0.017 A 
ATOM     16  C   UNL A   1      32.302  29.765  26.049  1.00  0.00     0.001 A 
BRANCH  13  17
ATOM     17  S   UNL A   1      30.477  27.997  22.938  1.00  0.00    -0.053 SA
BRANCH  17  18
ATOM     18  C   UNL A   1      29.726  29.589  22.599  1.00  0.00     0.405 C 
ATOM     19  F   UNL A   1      30.165  30.049  21.394  1.00  0.00    -0.198 F 
ATOM     20  F   UNL A   1      28.375  29.584  22.546  1.00  0.00    -0.198 F 
ENDBRANCH  17  18
ENDBRANCH  13  17
ENDBRANCH   9  11
ENDBRANCH   8   9
ENDBRANCH   7   8
ENDBRANCH   6   7
ENDBRANCH   4   6
ENDBRANCH   1   2
BRANCH   1  21
ATOM     21  C   UNL A   1      35.278  23.331  23.626  1.00  0.00     0.023 C 
BRANCH  21  22
ATOM     22  C   UNL A   1      36.736  23.285  24.092  1.00  0.00     0.023 C 
BRANCH  22  23
ATOM     23  C   UNL A   1      36.933  23.160  25.599  1.00  0.00     0.116 C 
BRANCH  23  24
ATOM     24  N   UNL A   1      38.051  22.311  25.972  1.00  0.00    -0.352 N 
ATOM     25  C   UNL A   1      39.258  22.643  26.544  1.00  0.00     0.251 C 
ATOM     26  H   UNL A   1      37.926  21.352  25.789  1.00  0.00     0.163 HD
ATOM     27  O   UNL A   1      40.105  21.776  26.716  1.00  0.00    -0.269 OA
BRANCH  25  28
ATOM     28  C   UNL A   1      39.555  24.048  26.920  1.00  0.00     0.039 A 
ATOM     29  C   UNL A   1      39.298  24.451  28.233  1.00  0.00     0.014 A 
ATOM     30  C   UNL A   1      40.074  24.967  26.003  1.00  0.00     0.014 A 
ATOM     31  C   UNL A   1      39.624  25.747  28.644  1.00  0.00     0.010 A 
ATOM     32  C   UNL A   1      40.471  26.234  26.432  1.00  0.00     0.010 A 
ATOM     33  C   UNL A   1      40.251  26.639  27.758  1.00  0.00    -0.014 A 
BRANCH  33  34
ATOM     34  C   UNL A   1      40.701  27.983  28.214  1.00  0.00     0.031 A 
ATOM     35  C   UNL A   1      42.166  28.329  28.261  1.00  0.00     0.074 A 
ATOM     36  C   UNL A   1      39.791  28.875  28.657  1.00  0.00     0.049 A 
ATOM     37  N   UNL A   1      42.740  29.432  28.672  1.00  0.00    -0.248 NA
ATOM     38  C   UNL A   1      43.111  27.295  27.811  1.00  0.00     0.031 C 
ATOM     39  C   UNL A   1      38.348  28.641  28.735  1.00  0.00     0.029 A 
ATOM     40  N   UNL A   1      39.946  30.149  29.150  1.00  0.00    -0.354 N 
ATOM     41  C   UNL A   1      44.109  29.215  28.557  1.00  0.00     0.074 A 
ATOM     42  C   UNL A   1      44.280  27.863  28.073  1.00  0.00     0.031 C 
ATOM     43  C   UNL A   1      37.751  29.733  29.241  1.00  0.00     0.029 A 
ATOM     44  C   UNL A   1      38.768  30.730  29.558  1.00  0.00     0.049 A 
ATOM     45  H   UNL A   1      40.819  30.602  29.206  1.00  0.00     0.167 HD
ATOM     46  C   UNL A   1      45.130  30.071  28.805  1.00  0.00     0.034 A 
ATOM     47  C   UNL A   1      38.530  31.925  30.135  1.00  0.00     0.034 A 
ATOM     48  C   UNL A   1      44.959  31.426  29.258  1.00  0.00     0.049 A 
ATOM     49  C   UNL A   1      39.679  32.865  30.380  1.00  0.00     0.074 A 
ATOM     50  C   UNL A   1      45.928  32.393  29.462  1.00  0.00     0.029 A 
ATOM     51  N   UNL A   1      43.743  32.005  29.588  1.00  0.00    -0.354 N 
ATOM     52  N   UNL A   1      40.953  32.695  30.124  1.00  0.00    -0.248 NA
ATOM     53  C   UNL A   1      39.355  34.176  30.960  1.00  0.00     0.031 C 
ATOM     54  C   UNL A   1      45.302  33.545  29.949  1.00  0.00     0.029 A 
ATOM     55  C   UNL A   1      43.938  33.309  30.009  1.00  0.00     0.049 A 
ATOM     56  H   UNL A   1      42.870  31.555  29.533  1.00  0.00     0.167 HD
ATOM     57  C   UNL A   1      41.577  33.886  30.476  1.00  0.00     0.074 A 
ATOM     58  C   UNL A   1      40.536  34.779  30.944  1.00  0.00     0.031 C 
ATOM     59  C   UNL A   1      42.892  34.208  30.428  1.00  0.00     0.034 A 
BRANCH  46  60
ATOM     60  C   UNL A   1      46.532  29.581  28.548  1.00  0.00     0.023 A 
ATOM     61  C   UNL A   1      47.155  29.861  27.314  1.00  0.00     0.012 A 
ATOM     62  C   UNL A   1      47.256  28.898  29.546  1.00  0.00     0.148 A 
ATOM     63  C   UNL A   1      48.459  29.438  27.063  1.00  0.00     0.002 A 
ATOM     64  C   UNL A   1      48.573  28.522  29.305  1.00  0.00     0.091 A 
ATOM     65  F   UNL A   1      46.644  28.624  30.707  1.00  0.00    -0.205 F 
ATOM     66  C   UNL A   1      49.171  28.779  28.060  1.00  0.00     0.022 A 
BRANCH  64  67
ATOM     67  S   UNL A   1      49.603  27.740  30.552  1.00  0.00     0.127 S 
ATOM     68  O   UNL A   1      50.822  27.460  29.795  1.00  0.00    -0.237 OA
ATOM     69  O   UNL A   1      49.735  28.802  31.550  1.00  0.00    -0.237 OA
ATOM     70  O   UNL A   1      48.866  26.568  31.004  1.00  0.00    -0.744 OA
ENDBRANCH  64  67
ENDBRANCH  46  60
BRANCH  47  71
ATOM     71  C   UNL A   1      37.135  32.320  30.481  1.00  0.00     0.023 A 
ATOM     72  C   UNL A   1      36.651  32.100  31.787  1.00  0.00     0.012 A 
ATOM     73  C   UNL A   1      36.291  32.927  29.530  1.00  0.00     0.148 A 
ATOM     74  C   UNL A   1      35.343  32.446  32.128  1.00  0.00     0.002 A 
ATOM     75  C   UNL A   1      35.010  33.321  29.892  1.00  0.00     0.091 A 
ATOM     76  F   UNL A   1      36.767  33.116  28.291  1.00  0.00    -0.205 F 
ATOM     77  C   UNL A   1      34.526  33.064  31.185  1.00  0.00     0.022 A 
BRANCH  75  78
ATOM     78  S   UNL A   1      33.935  34.239  28.785  1.00  0.00     0.127 S 
ATOM     79  O   UNL A   1      34.818  35.308  28.328  1.00  0.00    -0.237 OA
ATOM     80  O   UNL A   1      33.613  33.230  27.775  1.00  0.00    -0.237 OA
ATOM     81  O   UNL A   1      32.800  34.661  29.595  1.00  0.00    -0.744 OA
ENDBRANCH  75  78
ENDBRANCH  47  71
BRANCH  59  82
ATOM     82  C   UNL A   1      43.291  35.599  30.850  1.00  0.00     0.023 A 
ATOM     83  C   UNL A   1      43.467  36.608  29.881  1.00  0.00     0.012 A 
ATOM     84  C   UNL A   1      43.420  35.923  32.215  1.00  0.00     0.148 A 
ATOM     85  C   UNL A   1      43.802  37.907  30.264  1.00  0.00     0.002 A 
ATOM     86  C   UNL A   1      43.701  37.231  32.591  1.00  0.00     0.091 A 
ATOM     87  F   UNL A   1      43.264  34.947  33.121  1.00  0.00    -0.205 F 
ATOM     88  C   UNL A   1      43.907  38.221  31.616  1.00  0.00     0.022 A 
BRANCH  86  89
ATOM     89  S   UNL A   1      43.758  37.750  34.310  1.00  0.00     0.127 S 
ATOM     90  O   UNL A   1      43.923  39.197  34.178  1.00  0.00    -0.237 OA
ATOM     91  O   UNL A   1      42.447  37.328  34.804  1.00  0.00    -0.237 OA
ATOM     92  O   UNL A   1      44.885  37.047  34.906  1.00  0.00    -0.744 OA
ENDBRANCH  86  89
ENDBRANCH  59  82
ENDBRANCH  33  34
ENDBRANCH  25  28
ENDBRANCH  23  24
ENDBRANCH  22  23
ENDBRANCH  21  22
ENDBRANCH   1  21
TORSDOF 20
ENDMDL
MODEL 3
REMARK VINA RESULT:      -9.9      2.743      8.347
REMARK SMILES O=C(CCCNc1ccccc1SC(F)F)NCCCCNC(=O)c1ccc(-c2c3nc(c(-c4cccc(S(=O)(=O)[O-])c4F)c4ccc([nH]4)c(-c4cccc(S(=O)(=O)[O-])c4F)c4nc(c(-c5cccc(S(=O)(=O)[O-])c5F)c5ccc2[nH]5)C=C4)C=C3)cc1
REMARK SMILES IDX 18 1 17 2 1 3 2 4 3 6 4 7 5 8 6 9 7 11 8 12 12 13 9 14 11 15
REMARK SMILES IDX 10 16 13 17 14 18 15 19 16 20 19 21 20 22 21 23 22 24 23 25
REMARK SMILES IDX 24 27 25 28 26 29 87 30 27 31 86 32 28 33 29 34 30 35 80 36
REMARK SMILES IDX 31 37 85 38 79 39 81 40 32 41 84 42 78 43 77 44 33 46 65 47
REMARK SMILES IDX 45 48 64 49 46 50 49 51 63 52 82 53 47 54 48 55 62 57 83 58
REMARK SMILES IDX 50 59 34 60 35 61 43 62 36 63 38 64 44 65 37 66 39 67 40 68
REMARK SMILES IDX 41 69 42 70 66 71 67 72 75 73 68 74 70 75 76 76 69 77 71 78
REMARK SMILES IDX 72 79 73 80 74 81 51 82 52 83 60 84 53 85 55 86 61 87 54 88
REMARK SMILES IDX 56 89 57 90 58 91 59 92
REMARK H PARENT 17 5 6 10 22 26 81 45 49 56
REMARK Flexibility Score: inf
ROOT
ATOM      1  C   UNL A   1      34.464  22.246  24.124  1.00  0.00     0.116 C 
ENDROOT
BRANCH   1   2
ATOM      2  N   UNL A   1      33.414  22.898  24.884  1.00  0.00    -0.356 N 
ATOM      3  O   UNL A   1      31.695  22.297  23.481  1.00  0.00    -0.275 OA
ATOM      4  C   UNL A   1      32.099  22.888  24.477  1.00  0.00     0.220 C 
ATOM      5  H   UNL A   1      33.651  23.364  25.719  1.00  0.00     0.163 HD
BRANCH   4   6
ATOM      6  C   UNL A   1      31.164  23.707  25.345  1.00  0.00     0.102 C 
BRANCH   6   7
ATOM      7  C   UNL A   1      31.839  24.402  26.529  1.00  0.00     0.031 C 
BRANCH   7   8
ATOM      8  C   UNL A   1      31.758  25.930  26.541  1.00  0.00     0.113 C 
BRANCH   8   9
ATOM      9  N   UNL A   1      31.404  26.439  25.232  1.00  0.00    -0.384 N 
ATOM     10  H   UNL A   1      30.496  26.256  24.899  1.00  0.00     0.160 HD
BRANCH   9  11
ATOM     11  C   UNL A   1      32.261  27.170  24.413  1.00  0.00     0.048 A 
ATOM     12  C   UNL A   1      32.788  26.438  23.317  1.00  0.00     0.027 A 
ATOM     13  C   UNL A   1      32.594  28.539  24.505  1.00  0.00     0.036 A 
ATOM     14  C   UNL A   1      33.618  27.010  22.355  1.00  0.00     0.002 A 
ATOM     15  C   UNL A   1      33.474  29.090  23.540  1.00  0.00     0.017 A 
ATOM     16  C   UNL A   1      33.978  28.338  22.477  1.00  0.00     0.001 A 
BRANCH  13  17
ATOM     17  S   UNL A   1      31.942  29.784  25.624  1.00  0.00    -0.053 SA
BRANCH  17  18
ATOM     18  C   UNL A   1      33.083  29.884  27.004  1.00  0.00     0.405 C 
ATOM     19  F   UNL A   1      33.419  28.626  27.405  1.00  0.00    -0.198 F 
ATOM     20  F   UNL A   1      34.241  30.532  26.742  1.00  0.00    -0.198 F 
ENDBRANCH  17  18
ENDBRANCH  13  17
ENDBRANCH   9  11
ENDBRANCH   8   9
ENDBRANCH   7   8
ENDBRANCH   6   7
ENDBRANCH   4   6
ENDBRANCH   1   2
BRANCH   1  21
ATOM     21  C   UNL A   1      35.402  23.243  23.441  1.00  0.00     0.023 C 
BRANCH  21  22
ATOM     22  C   UNL A   1      36.855  23.208  23.921  1.00  0.00     0.023 C 
BRANCH  22  23
ATOM     23  C   UNL A   1      37.038  23.120  25.433  1.00  0.00     0.116 C 
BRANCH  23  24
ATOM     24  N   UNL A   1      38.129  22.251  25.839  1.00  0.00    -0.352 N 
ATOM     25  C   UNL A   1      39.310  22.558  26.475  1.00  0.00     0.251 C 
ATOM     26  H   UNL A   1      38.004  21.298  25.627  1.00  0.00     0.163 HD
ATOM     27  O   UNL A   1      40.140  21.678  26.667  1.00  0.00    -0.269 OA
BRANCH  25  28
ATOM     28  C   UNL A   1      39.602  23.951  26.898  1.00  0.00     0.039 A 
ATOM     29  C   UNL A   1      39.312  24.317  28.215  1.00  0.00     0.014 A 
ATOM     30  C   UNL A   1      40.147  24.893  26.021  1.00  0.00     0.014 A 
ATOM     31  C   UNL A   1      39.632  25.600  28.670  1.00  0.00     0.010 A 
ATOM     32  C   UNL A   1      40.536  26.146  26.496  1.00  0.00     0.010 A 
ATOM     33  C   UNL A   1      40.284  26.515  27.827  1.00  0.00    -0.014 A 
BRANCH  33  34
ATOM     34  C   UNL A   1      40.726  27.843  28.332  1.00  0.00     0.031 A 
ATOM     35  C   UNL A   1      42.187  28.144  28.531  1.00  0.00     0.074 A 
ATOM     36  C   UNL A   1      39.803  28.763  28.683  1.00  0.00     0.049 A 
ATOM     37  N   UNL A   1      42.750  29.227  29.003  1.00  0.00    -0.248 NA
ATOM     38  C   UNL A   1      43.142  27.080  28.177  1.00  0.00     0.031 C 
ATOM     39  C   UNL A   1      38.353  28.574  28.610  1.00  0.00     0.029 A 
ATOM     40  N   UNL A   1      39.946  30.031  29.193  1.00  0.00    -0.354 N 
ATOM     41  C   UNL A   1      44.116  28.968  29.030  1.00  0.00     0.074 A 
ATOM     42  C   UNL A   1      44.294  27.611  28.560  1.00  0.00     0.031 C 
ATOM     43  C   UNL A   1      37.741  29.683  29.057  1.00  0.00     0.029 A 
ATOM     44  C   UNL A   1      38.750  30.648  29.481  1.00  0.00     0.049 A 
ATOM     45  H   UNL A   1      40.822  30.456  29.341  1.00  0.00     0.167 HD
ATOM     46  C   UNL A   1      45.132  29.791  29.384  1.00  0.00     0.034 A 
ATOM     47  C   UNL A   1      38.491  31.850  30.035  1.00  0.00     0.034 A 
ATOM     48  C   UNL A   1      44.958  31.150  29.823  1.00  0.00     0.049 A 
ATOM     49  C   UNL A   1      39.638  32.753  30.400  1.00  0.00     0.074 A 
ATOM     50  C   UNL A   1      45.930  32.086  30.129  1.00  0.00     0.029 A 
ATOM     51  N   UNL A   1      43.733  31.767  30.028  1.00  0.00    -0.354 N 
ATOM     52  N   UNL A   1      40.926  32.543  30.276  1.00  0.00    -0.248 NA
ATOM     53  C   UNL A   1      39.296  34.073  30.949  1.00  0.00     0.031 C 
ATOM     54  C   UNL A   1      45.293  33.257  30.554  1.00  0.00     0.029 A 
ATOM     55  C   UNL A   1      43.924  33.065  30.471  1.00  0.00     0.049 A 
ATOM     56  H   UNL A   1      42.857  31.344  29.881  1.00  0.00     0.167 HD
ATOM     57  C   UNL A   1      41.546  33.714  30.696  1.00  0.00     0.074 A 
ATOM     58  C   UNL A   1      40.491  34.639  31.057  1.00  0.00     0.031 C 
ATOM     59  C   UNL A   1      42.869  33.995  30.784  1.00  0.00     0.034 A 
BRANCH  46  60
ATOM     60  C   UNL A   1      46.538  29.257  29.272  1.00  0.00     0.023 A 
ATOM     61  C   UNL A   1      47.104  28.549  30.351  1.00  0.00     0.012 A 
ATOM     62  C   UNL A   1      47.275  29.402  28.079  1.00  0.00     0.148 A 
ATOM     63  C   UNL A   1      48.393  28.026  30.262  1.00  0.00     0.002 A 
ATOM     64  C   UNL A   1      48.542  28.837  27.981  1.00  0.00     0.091 A 
ATOM     65  F   UNL A   1      46.730  30.093  27.069  1.00  0.00    -0.205 F 
ATOM     66  C   UNL A   1      49.107  28.161  29.075  1.00  0.00     0.022 A 
BRANCH  64  67
ATOM     67  S   UNL A   1      49.511  28.884  26.469  1.00  0.00     0.127 S 
ATOM     68  O   UNL A   1      48.547  28.392  25.485  1.00  0.00    -0.237 OA
ATOM     69  O   UNL A   1      49.828  30.308  26.353  1.00  0.00    -0.237 OA
ATOM     70  O   UNL A   1      50.661  28.021  26.702  1.00  0.00    -0.744 OA
ENDBRANCH  64  67
ENDBRANCH  46  60
BRANCH  47  71
ATOM     71  C   UNL A   1      37.081  32.288  30.237  1.00  0.00     0.023 A 
ATOM     72  C   UNL A   1      36.447  32.050  31.472  1.00  0.00     0.012 A 
ATOM     73  C   UNL A   1      36.371  32.953  29.218  1.00  0.00     0.148 A 
ATOM     74  C   UNL A   1      35.122  32.436  31.677  1.00  0.00     0.002 A 
ATOM     75  C   UNL A   1      35.071  33.386  29.449  1.00  0.00     0.091 A 
ATOM     76  F   UNL A   1      36.989  33.160  28.046  1.00  0.00    -0.205 F 
ATOM     77  C   UNL A   1      34.437  33.111  30.670  1.00  0.00     0.022 A 
BRANCH  75  78
ATOM     78  S   UNL A   1      34.160  34.375  28.259  1.00  0.00     0.127 S 
ATOM     79  O   UNL A   1      33.891  35.590  29.023  1.00  0.00    -0.237 OA
ATOM     80  O   UNL A   1      35.138  34.527  27.182  1.00  0.00    -0.237 OA
ATOM     81  O   UNL A   1      32.990  33.584  27.900  1.00  0.00    -0.744 OA
ENDBRANCH  75  78
ENDBRANCH  47  71
BRANCH  59  82
ATOM     82  C   UNL A   1      43.265  35.373  31.250  1.00  0.00     0.023 A 
ATOM     83  C   UNL A   1      43.571  36.376  30.309  1.00  0.00     0.012 A 
ATOM     84  C   UNL A   1      43.263  35.691  32.623  1.00  0.00     0.148 A 
ATOM     85  C   UNL A   1      43.904  37.664  30.729  1.00  0.00     0.002 A 
ATOM     86  C   UNL A   1      43.544  36.990  33.031  1.00  0.00     0.091 A 
ATOM     87  F   UNL A   1      42.985  34.719  33.505  1.00  0.00    -0.205 F 
ATOM     88  C   UNL A   1      43.879  37.974  32.087  1.00  0.00     0.022 A 
BRANCH  86  89
ATOM     89  S   UNL A   1      43.441  37.505  34.749  1.00  0.00     0.127 S 
ATOM     90  O   UNL A   1      43.759  38.929  34.651  1.00  0.00    -0.237 OA
ATOM     91  O   UNL A   1      42.044  37.213  35.075  1.00  0.00    -0.237 OA
ATOM     92  O   UNL A   1      44.414  36.698  35.471  1.00  0.00    -0.744 OA
ENDBRANCH  86  89
ENDBRANCH  59  82
ENDBRANCH  33  34
ENDBRANCH  25  28
ENDBRANCH  23  24
ENDBRANCH  22  23
ENDBRANCH  21  22
ENDBRANCH   1  21
TORSDOF 20
ENDMDL
