MODEL 1
REMARK VINA RESULT:     -12.6      0.000      0.000
REMARK SMILES O=C(NCCCCNC(=O)[C@@H]1C=C[C@H](NC(=O)[C@@H]2Cc3ccccc3O2)C1)c1ccc(-c2c3nc(c(-c4cccc(S(=O)(=O)[O-])c4F)c4ccc([nH]4)c(-c4cccc(S(=O)(=O)[O-])c4F)c4nc(c(-c5cccc(S(=O)(=O)[O-])c5F)c5ccc2[nH]5)C=C4)C=C3)cc1
REMARK SMILES IDX 5 1 4 2 3 3 1 4 2 5 28 7 29 8 90 9 30 10 89 11 31 12 32 13
REMARK SMILES IDX 33 14 83 15 34 16 88 17 82 18 84 19 35 20 87 21 81 22 80 23
REMARK SMILES IDX 36 25 68 26 48 27 67 28 49 29 52 30 66 31 85 32 50 33 51 34
REMARK SMILES IDX 65 36 86 37 53 38 37 39 38 40 46 41 39 42 41 43 47 44 40 45
REMARK SMILES IDX 42 46 43 47 44 48 45 49 69 50 70 51 78 52 71 53 73 54 79 55
REMARK SMILES IDX 72 56 74 57 75 58 76 59 77 60 54 61 55 62 63 63 56 64 58 65
REMARK SMILES IDX 64 66 57 67 59 68 60 69 61 70 62 71 6 72 7 73 8 74 9 75
REMARK SMILES IDX 10 77 11 78 12 79 27 80 13 81 14 82 15 83 16 84 17 86 18 87
REMARK SMILES IDX 19 88 26 89 20 90 25 91 21 92 24 93 22 94 23 95
REMARK H PARENT 3 6 84 24 52 35 8 76 15 85
REMARK Flexibility Score: inf
ROOT
ATOM      1  C   UNL A   1      37.506  19.994  24.970  1.00  0.00     0.023 C 
ENDROOT
BRANCH   1   2
ATOM      2  C   UNL A   1      38.719  20.557  25.706  1.00  0.00     0.116 C 
BRANCH   2   3
ATOM      3  N   UNL A   1      39.779  19.575  25.865  1.00  0.00    -0.352 N 
ATOM      4  O   UNL A   1      41.888  18.828  26.088  1.00  0.00    -0.269 OA
ATOM      5  C   UNL A   1      41.105  19.771  26.163  1.00  0.00     0.251 C 
ATOM      6  H   UNL A   1      39.508  18.636  25.741  1.00  0.00     0.163 HD
BRANCH   5   7
ATOM      7  C   UNL A   1      41.586  21.117  26.545  1.00  0.00     0.039 A 
ATOM      8  C   UNL A   1      41.826  21.439  27.885  1.00  0.00     0.014 A 
ATOM      9  C   UNL A   1      41.807  22.065  25.544  1.00  0.00     0.014 A 
ATOM     10  C   UNL A   1      42.172  22.742  28.234  1.00  0.00     0.010 A 
ATOM     11  C   UNL A   1      42.221  23.353  25.891  1.00  0.00     0.010 A 
ATOM     12  C   UNL A   1      42.379  23.710  27.240  1.00  0.00    -0.014 A 
BRANCH  12  13
ATOM     13  C   UNL A   1      42.826  25.077  27.606  1.00  0.00     0.031 A 
ATOM     14  C   UNL A   1      41.871  26.061  28.220  1.00  0.00     0.074 A 
ATOM     15  C   UNL A   1      44.087  25.449  27.318  1.00  0.00     0.049 A 
ATOM     16  N   UNL A   1      42.066  27.319  28.522  1.00  0.00    -0.248 NA
ATOM     17  C   UNL A   1      40.516  25.574  28.523  1.00  0.00     0.031 C 
ATOM     18  C   UNL A   1      45.089  24.592  26.682  1.00  0.00     0.029 A 
ATOM     19  N   UNL A   1      44.730  26.650  27.485  1.00  0.00    -0.354 N 
ATOM     20  C   UNL A   1      40.852  27.788  29.005  1.00  0.00     0.074 A 
ATOM     21  C   UNL A   1      39.923  26.679  28.953  1.00  0.00     0.031 C 
ATOM     22  C   UNL A   1      46.213  25.299  26.492  1.00  0.00     0.029 A 
ATOM     23  C   UNL A   1      45.993  26.668  26.944  1.00  0.00     0.049 A 
ATOM     24  H   UNL A   1      44.326  27.420  27.946  1.00  0.00     0.167 HD
ATOM     25  C   UNL A   1      40.542  29.028  29.458  1.00  0.00     0.034 A 
ATOM     26  C   UNL A   1      46.867  27.682  26.787  1.00  0.00     0.034 A 
ATOM     27  C   UNL A   1      41.480  30.116  29.528  1.00  0.00     0.049 A 
ATOM     28  C   UNL A   1      46.509  29.044  27.304  1.00  0.00     0.074 A 
ATOM     29  C   UNL A   1      41.289  31.384  30.050  1.00  0.00     0.029 A 
ATOM     30  N   UNL A   1      42.779  30.076  29.042  1.00  0.00    -0.354 N 
ATOM     31  N   UNL A   1      45.403  29.434  27.891  1.00  0.00    -0.248 NA
ATOM     32  C   UNL A   1      47.524  30.098  27.172  1.00  0.00     0.031 C 
ATOM     33  C   UNL A   1      42.461  32.120  29.849  1.00  0.00     0.029 A 
ATOM     34  C   UNL A   1      43.396  31.302  29.233  1.00  0.00     0.049 A 
ATOM     35  H   UNL A   1      43.201  29.292  28.622  1.00  0.00     0.167 HD
ATOM     36  C   UNL A   1      45.598  30.768  28.226  1.00  0.00     0.074 A 
ATOM     37  C   UNL A   1      46.935  31.117  27.786  1.00  0.00     0.031 C 
ATOM     38  C   UNL A   1      44.744  31.624  28.836  1.00  0.00     0.034 A 
BRANCH  25  39
ATOM     39  C   UNL A   1      39.131  29.268  29.931  1.00  0.00     0.023 A 
ATOM     40  C   UNL A   1      38.763  28.915  31.245  1.00  0.00     0.012 A 
ATOM     41  C   UNL A   1      38.182  29.883  29.090  1.00  0.00     0.148 A 
ATOM     42  C   UNL A   1      37.462  29.130  31.701  1.00  0.00     0.002 A 
ATOM     43  C   UNL A   1      36.900  30.133  29.566  1.00  0.00     0.091 A 
ATOM     44  F   UNL A   1      38.541  30.194  27.837  1.00  0.00    -0.205 F 
ATOM     45  C   UNL A   1      36.534  29.746  30.865  1.00  0.00     0.022 A 
BRANCH  43  46
ATOM     46  S   UNL A   1      35.664  30.993  28.586  1.00  0.00     0.127 S 
ATOM     47  O   UNL A   1      36.484  31.962  27.860  1.00  0.00    -0.237 OA
ATOM     48  O   UNL A   1      35.117  29.917  27.758  1.00  0.00    -0.237 OA
ATOM     49  O   UNL A   1      34.721  31.554  29.543  1.00  0.00    -0.744 OA
ENDBRANCH  43  46
ENDBRANCH  25  39
BRANCH  26  50
ATOM     50  C   UNL A   1      48.172  27.411  26.124  1.00  0.00     0.023 A 
ATOM     51  C   UNL A   1      49.236  26.879  26.875  1.00  0.00     0.012 A 
ATOM     52  C   UNL A   1      48.325  27.583  24.733  1.00  0.00     0.148 A 
ATOM     53  C   UNL A   1      50.437  26.532  26.253  1.00  0.00     0.002 A 
ATOM     54  C   UNL A   1      49.501  27.183  24.112  1.00  0.00     0.091 A 
ATOM     55  F   UNL A   1      47.298  28.096  24.042  1.00  0.00    -0.205 F 
ATOM     56  C   UNL A   1      50.563  26.671  24.873  1.00  0.00     0.022 A 
BRANCH  54  57
ATOM     57  S   UNL A   1      49.700  27.184  22.328  1.00  0.00     0.127 S 
ATOM     58  O   UNL A   1      51.089  26.758  22.182  1.00  0.00    -0.237 OA
ATOM     59  O   UNL A   1      48.705  26.193  21.916  1.00  0.00    -0.237 OA
ATOM     60  O   UNL A   1      49.411  28.544  21.896  1.00  0.00    -0.744 OA
ENDBRANCH  54  57
ENDBRANCH  26  50
BRANCH  38  61
ATOM     61  C   UNL A   1      45.226  33.024  29.114  1.00  0.00     0.023 A 
ATOM     62  C   UNL A   1      45.890  33.311  30.321  1.00  0.00     0.012 A 
ATOM     63  C   UNL A   1      45.118  34.021  28.125  1.00  0.00     0.148 A 
ATOM     64  C   UNL A   1      46.429  34.578  30.546  1.00  0.00     0.002 A 
ATOM     65  C   UNL A   1      45.698  35.266  28.337  1.00  0.00     0.091 A 
ATOM     66  F   UNL A   1      44.464  33.729  26.991  1.00  0.00    -0.205 F 
ATOM     67  C   UNL A   1      46.346  35.549  29.550  1.00  0.00     0.022 A 
BRANCH  65  68
ATOM     68  S   UNL A   1      45.730  36.545  27.075  1.00  0.00     0.127 S 
ATOM     69  O   UNL A   1      44.314  36.895  26.971  1.00  0.00    -0.237 OA
ATOM     70  O   UNL A   1      46.569  37.569  27.695  1.00  0.00    -0.237 OA
ATOM     71  O   UNL A   1      46.303  35.926  25.888  1.00  0.00    -0.744 OA
ENDBRANCH  65  68
ENDBRANCH  38  61
ENDBRANCH  12  13
ENDBRANCH   5   7
ENDBRANCH   2   3
ENDBRANCH   1   2
BRANCH   1  72
ATOM     72  C   UNL A   1      36.194  20.749  25.199  1.00  0.00     0.023 C 
BRANCH  72  73
ATOM     73  C   UNL A   1      35.977  21.942  24.269  1.00  0.00     0.116 C 
BRANCH  73  74
ATOM     74  N   UNL A   1      34.592  22.046  23.846  1.00  0.00    -0.356 N 
ATOM     75  C   UNL A   1      33.781  23.148  23.805  1.00  0.00     0.227 C 
ATOM     76  H   UNL A   1      34.177  21.206  23.546  1.00  0.00     0.163 HD
ATOM     77  O   UNL A   1      32.611  23.005  23.452  1.00  0.00    -0.274 OA
BRANCH  75  78
ATOM     78  C   UNL A   1      34.389  24.511  24.148  1.00  0.00     0.103 C 
ATOM     79  C   UNL A   1      34.222  24.889  25.585  1.00  0.00    -0.016 C 
ATOM     80  C   UNL A   1      33.640  25.626  23.400  1.00  0.00     0.047 C 
ATOM     81  C   UNL A   1      33.387  25.921  25.742  1.00  0.00    -0.006 C 
ATOM     82  C   UNL A   1      32.826  26.406  24.446  1.00  0.00     0.106 C 
BRANCH  82  83
ATOM     83  N   UNL A   1      31.422  26.062  24.423  1.00  0.00    -0.347 N 
ATOM     84  C   UNL A   1      30.356  26.750  23.925  1.00  0.00     0.261 C 
ATOM     85  H   UNL A   1      31.201  25.192  24.830  1.00  0.00     0.164 HD
ATOM     86  O   UNL A   1      29.241  26.222  24.009  1.00  0.00    -0.271 OA
BRANCH  84  87
ATOM     87  C   UNL A   1      30.506  28.123  23.254  1.00  0.00     0.266 C 
ATOM     88  C   UNL A   1      30.475  29.293  24.247  1.00  0.00     0.095 C 
ATOM     89  O   UNL A   1      29.550  28.338  22.193  1.00  0.00    -0.480 OA
ATOM     90  C   UNL A   1      29.605  30.234  23.509  1.00  0.00    -0.002 A 
ATOM     91  C   UNL A   1      29.155  29.640  22.343  1.00  0.00     0.123 A 
ATOM     92  C   UNL A   1      29.221  31.522  23.842  1.00  0.00     0.008 A 
ATOM     93  C   UNL A   1      28.343  30.306  21.448  1.00  0.00     0.047 A 
ATOM     94  C   UNL A   1      28.393  32.214  22.953  1.00  0.00     0.001 A 
ATOM     95  C   UNL A   1      27.965  31.614  21.757  1.00  0.00     0.004 A 
ENDBRANCH  84  87
ENDBRANCH  82  83
ENDBRANCH  75  78
ENDBRANCH  73  74
ENDBRANCH  72  73
ENDBRANCH   1  72
TORSDOF 16
ENDMDL
MODEL 2
REMARK VINA RESULT:     -12.6      6.226     11.605
REMARK SMILES O=C(NCCCCNC(=O)[C@@H]1C=C[C@H](NC(=O)[C@@H]2Cc3ccccc3O2)C1)c1ccc(-c2c3nc(c(-c4cccc(S(=O)(=O)[O-])c4F)c4ccc([nH]4)c(-c4cccc(S(=O)(=O)[O-])c4F)c4nc(c(-c5cccc(S(=O)(=O)[O-])c5F)c5ccc2[nH]5)C=C4)C=C3)cc1
REMARK SMILES IDX 5 1 4 2 3 3 1 4 2 5 28 7 29 8 90 9 30 10 89 11 31 12 32 13
REMARK SMILES IDX 33 14 83 15 34 16 88 17 82 18 84 19 35 20 87 21 81 22 80 23
REMARK SMILES IDX 36 25 68 26 48 27 67 28 49 29 52 30 66 31 85 32 50 33 51 34
REMARK SMILES IDX 65 36 86 37 53 38 37 39 38 40 46 41 39 42 41 43 47 44 40 45
REMARK SMILES IDX 42 46 43 47 44 48 45 49 69 50 70 51 78 52 71 53 73 54 79 55
REMARK SMILES IDX 72 56 74 57 75 58 76 59 77 60 54 61 55 62 63 63 56 64 58 65
REMARK SMILES IDX 64 66 57 67 59 68 60 69 61 70 62 71 6 72 7 73 8 74 9 75
REMARK SMILES IDX 10 77 11 78 12 79 27 80 13 81 14 82 15 83 16 84 17 86 18 87
REMARK SMILES IDX 19 88 26 89 20 90 25 91 21 92 24 93 22 94 23 95
REMARK H PARENT 3 6 84 24 52 35 8 76 15 85
REMARK Flexibility Score: inf
ROOT
ATOM      1  C   UNL A   1      31.409  32.119  26.677  1.00  0.00     0.023 C 
ENDROOT
BRANCH   1   2
ATOM      2  C   UNL A   1      32.690  32.677  27.290  1.00  0.00     0.116 C 
BRANCH   2   3
ATOM      3  N   UNL A   1      32.532  34.042  27.763  1.00  0.00    -0.352 N 
ATOM      4  O   UNL A   1      32.827  35.804  29.129  1.00  0.00    -0.269 OA
ATOM      5  C   UNL A   1      33.218  34.701  28.754  1.00  0.00     0.251 C 
ATOM      6  H   UNL A   1      31.836  34.570  27.308  1.00  0.00     0.163 HD
BRANCH   5   7
ATOM      7  C   UNL A   1      34.399  34.070  29.381  1.00  0.00     0.039 A 
ATOM      8  C   UNL A   1      34.252  33.153  30.426  1.00  0.00     0.014 A 
ATOM      9  C   UNL A   1      35.671  34.396  28.907  1.00  0.00     0.014 A 
ATOM     10  C   UNL A   1      35.379  32.654  31.076  1.00  0.00     0.010 A 
ATOM     11  C   UNL A   1      36.799  33.841  29.514  1.00  0.00     0.010 A 
ATOM     12  C   UNL A   1      36.663  32.988  30.622  1.00  0.00    -0.014 A 
BRANCH  12  13
ATOM     13  C   UNL A   1      37.863  32.394  31.262  1.00  0.00     0.031 A 
ATOM     14  C   UNL A   1      38.581  31.237  30.628  1.00  0.00     0.074 A 
ATOM     15  C   UNL A   1      38.262  32.863  32.459  1.00  0.00     0.049 A 
ATOM     16  N   UNL A   1      39.589  30.542  31.088  1.00  0.00    -0.248 NA
ATOM     17  C   UNL A   1      38.098  30.795  29.310  1.00  0.00     0.031 C 
ATOM     18  C   UNL A   1      37.614  33.953  33.191  1.00  0.00     0.029 A 
ATOM     19  N   UNL A   1      39.279  32.460  33.288  1.00  0.00    -0.354 N 
ATOM     20  C   UNL A   1      39.832  29.552  30.144  1.00  0.00     0.074 A 
ATOM     21  C   UNL A   1      38.863  29.735  29.085  1.00  0.00     0.031 C 
ATOM     22  C   UNL A   1      38.234  34.119  34.368  1.00  0.00     0.029 A 
ATOM     23  C   UNL A   1      39.286  33.116  34.496  1.00  0.00     0.049 A 
ATOM     24  H   UNL A   1      39.937  31.771  33.042  1.00  0.00     0.167 HD
ATOM     25  C   UNL A   1      40.782  28.585  30.157  1.00  0.00     0.034 A 
ATOM     26  C   UNL A   1      40.025  32.910  35.604  1.00  0.00     0.034 A 
ATOM     27  C   UNL A   1      41.757  28.427  31.203  1.00  0.00     0.049 A 
ATOM     28  C   UNL A   1      41.078  31.842  35.592  1.00  0.00     0.074 A 
ATOM     29  C   UNL A   1      42.813  27.535  31.267  1.00  0.00     0.029 A 
ATOM     30  N   UNL A   1      41.783  29.163  32.379  1.00  0.00    -0.354 N 
ATOM     31  N   UNL A   1      41.389  31.006  34.630  1.00  0.00    -0.248 NA
ATOM     32  C   UNL A   1      41.904  31.705  36.799  1.00  0.00     0.031 C 
ATOM     33  C   UNL A   1      43.457  27.709  32.497  1.00  0.00     0.029 A 
ATOM     34  C   UNL A   1      42.825  28.733  33.185  1.00  0.00     0.049 A 
ATOM     35  H   UNL A   1      41.154  29.884  32.608  1.00  0.00     0.167 HD
ATOM     36  C   UNL A   1      42.466  30.265  35.102  1.00  0.00     0.074 A 
ATOM     37  C   UNL A   1      42.760  30.758  36.433  1.00  0.00     0.031 C 
ATOM     38  C   UNL A   1      43.141  29.264  34.488  1.00  0.00     0.034 A 
BRANCH  25  39
ATOM     39  C   UNL A   1      40.824  27.630  28.991  1.00  0.00     0.023 A 
ATOM     40  C   UNL A   1      39.919  26.550  28.937  1.00  0.00     0.012 A 
ATOM     41  C   UNL A   1      41.728  27.826  27.929  1.00  0.00     0.148 A 
ATOM     42  C   UNL A   1      39.942  25.656  27.866  1.00  0.00     0.002 A 
ATOM     43  C   UNL A   1      41.716  26.956  26.844  1.00  0.00     0.091 A 
ATOM     44  F   UNL A   1      42.596  28.844  28.004  1.00  0.00    -0.205 F 
ATOM     45  C   UNL A   1      40.834  25.864  26.817  1.00  0.00     0.022 A 
BRANCH  43  46
ATOM     46  S   UNL A   1      42.775  27.193  25.412  1.00  0.00     0.127 S 
ATOM     47  O   UNL A   1      44.086  27.358  26.038  1.00  0.00    -0.237 OA
ATOM     48  O   UNL A   1      42.602  25.935  24.684  1.00  0.00    -0.237 OA
ATOM     49  O   UNL A   1      42.251  28.363  24.722  1.00  0.00    -0.744 OA
ENDBRANCH  43  46
ENDBRANCH  25  39
BRANCH  26  50
ATOM     50  C   UNL A   1      39.789  33.768  36.796  1.00  0.00     0.023 A 
ATOM     51  C   UNL A   1      40.097  35.140  36.739  1.00  0.00     0.012 A 
ATOM     52  C   UNL A   1      39.164  33.247  37.948  1.00  0.00     0.148 A 
ATOM     53  C   UNL A   1      39.797  35.978  37.814  1.00  0.00     0.002 A 
ATOM     54  C   UNL A   1      38.817  34.097  38.990  1.00  0.00     0.091 A 
ATOM     55  F   UNL A   1      38.885  31.937  37.979  1.00  0.00    -0.205 F 
ATOM     56  C   UNL A   1      39.146  35.459  38.931  1.00  0.00     0.022 A 
BRANCH  54  57
ATOM     57  S   UNL A   1      37.846  33.551  40.399  1.00  0.00     0.127 S 
ATOM     58  O   UNL A   1      38.724  32.549  40.997  1.00  0.00    -0.237 OA
ATOM     59  O   UNL A   1      37.711  34.789  41.166  1.00  0.00    -0.237 OA
ATOM     60  O   UNL A   1      36.597  33.044  39.848  1.00  0.00    -0.744 OA
ENDBRANCH  54  57
ENDBRANCH  26  50
BRANCH  38  61
ATOM     61  C   UNL A   1      44.303  28.645  35.218  1.00  0.00     0.023 A 
ATOM     62  C   UNL A   1      45.597  29.175  35.056  1.00  0.00     0.012 A 
ATOM     63  C   UNL A   1      44.087  27.611  36.151  1.00  0.00     0.148 A 
ATOM     64  C   UNL A   1      46.664  28.675  35.804  1.00  0.00     0.002 A 
ATOM     65  C   UNL A   1      45.144  27.151  36.925  1.00  0.00     0.091 A 
ATOM     66  F   UNL A   1      42.850  27.110  36.273  1.00  0.00    -0.205 F 
ATOM     67  C   UNL A   1      46.435  27.676  36.747  1.00  0.00     0.022 A 
BRANCH  65  68
ATOM     68  S   UNL A   1      44.928  25.938  38.233  1.00  0.00     0.127 S 
ATOM     69  O   UNL A   1      46.260  25.911  38.837  1.00  0.00    -0.237 OA
ATOM     70  O   UNL A   1      43.895  26.558  39.062  1.00  0.00    -0.237 OA
ATOM     71  O   UNL A   1      44.521  24.704  37.576  1.00  0.00    -0.744 OA
ENDBRANCH  65  68
ENDBRANCH  38  61
ENDBRANCH  12  13
ENDBRANCH   5   7
ENDBRANCH   2   3
ENDBRANCH   1   2
BRANCH   1  72
ATOM     72  C   UNL A   1      31.570  30.803  25.910  1.00  0.00     0.023 C 
BRANCH  72  73
ATOM     73  C   UNL A   1      32.930  30.129  26.087  1.00  0.00     0.116 C 
BRANCH  73  74
ATOM     74  N   UNL A   1      33.361  29.466  24.869  1.00  0.00    -0.356 N 
ATOM     75  C   UNL A   1      33.211  28.157  24.497  1.00  0.00     0.227 C 
ATOM     76  H   UNL A   1      33.827  30.039  24.218  1.00  0.00     0.163 HD
ATOM     77  O   UNL A   1      33.698  27.789  23.429  1.00  0.00    -0.274 OA
BRANCH  75  78
ATOM     78  C   UNL A   1      32.397  27.232  25.407  1.00  0.00     0.103 C 
ATOM     79  C   UNL A   1      33.234  26.219  26.121  1.00  0.00    -0.016 C 
ATOM     80  C   UNL A   1      31.443  26.371  24.563  1.00  0.00     0.047 C 
ATOM     81  C   UNL A   1      32.996  24.975  25.692  1.00  0.00    -0.006 C 
ATOM     82  C   UNL A   1      31.980  24.931  24.599  1.00  0.00     0.106 C 
BRANCH  82  83
ATOM     83  N   UNL A   1      32.667  24.567  23.379  1.00  0.00    -0.347 N 
ATOM     84  C   UNL A   1      32.901  23.341  22.834  1.00  0.00     0.261 C 
ATOM     85  H   UNL A   1      33.020  25.327  22.860  1.00  0.00     0.164 HD
ATOM     86  O   UNL A   1      33.501  23.297  21.754  1.00  0.00    -0.271 OA
BRANCH  84  87
ATOM     87  C   UNL A   1      32.427  22.041  23.501  1.00  0.00     0.266 C 
ATOM     88  C   UNL A   1      33.428  21.476  24.517  1.00  0.00     0.095 C 
ATOM     89  O   UNL A   1      32.049  21.024  22.548  1.00  0.00    -0.480 OA
ATOM     90  C   UNL A   1      33.371  20.041  24.165  1.00  0.00    -0.002 A 
ATOM     91  C   UNL A   1      32.542  19.860  23.071  1.00  0.00     0.123 A 
ATOM     92  C   UNL A   1      34.011  18.965  24.754  1.00  0.00     0.008 A 
ATOM     93  C   UNL A   1      32.288  18.611  22.545  1.00  0.00     0.047 A 
ATOM     94  C   UNL A   1      33.773  17.689  24.233  1.00  0.00     0.001 A 
ATOM     95  C   UNL A   1      32.908  17.511  23.141  1.00  0.00     0.004 A 
ENDBRANCH  84  87
ENDBRANCH  82  83
ENDBRANCH  75  78
ENDBRANCH  73  74
ENDBRANCH  72  73
ENDBRANCH   1  72
TORSDOF 16
ENDMDL
MODEL 3
REMARK VINA RESULT:     -12.5      5.772     11.553
REMARK SMILES O=C(NCCCCNC(=O)[C@@H]1C=C[C@H](NC(=O)[C@@H]2Cc3ccccc3O2)C1)c1ccc(-c2c3nc(c(-c4cccc(S(=O)(=O)[O-])c4F)c4ccc([nH]4)c(-c4cccc(S(=O)(=O)[O-])c4F)c4nc(c(-c5cccc(S(=O)(=O)[O-])c5F)c5ccc2[nH]5)C=C4)C=C3)cc1
REMARK SMILES IDX 5 1 4 2 3 3 1 4 2 5 28 7 29 8 90 9 30 10 89 11 31 12 32 13
REMARK SMILES IDX 33 14 83 15 34 16 88 17 82 18 84 19 35 20 87 21 81 22 80 23
REMARK SMILES IDX 36 25 68 26 48 27 67 28 49 29 52 30 66 31 85 32 50 33 51 34
REMARK SMILES IDX 65 36 86 37 53 38 37 39 38 40 46 41 39 42 41 43 47 44 40 45
REMARK SMILES IDX 42 46 43 47 44 48 45 49 69 50 70 51 78 52 71 53 73 54 79 55
REMARK SMILES IDX 72 56 74 57 75 58 76 59 77 60 54 61 55 62 63 63 56 64 58 65
REMARK SMILES IDX 64 66 57 67 59 68 60 69 61 70 62 71 6 72 7 73 8 74 9 75
REMARK SMILES IDX 10 77 11 78 12 79 27 80 13 81 14 82 15 83 16 84 17 86 18 87
REMARK SMILES IDX 19 88 26 89 20 90 25 91 21 92 24 93 22 94 23 95
REMARK H PARENT 3 6 84 24 52 35 8 76 15 85
REMARK Flexibility Score: inf
ROOT
ATOM      1  C   UNL A   1      31.312  31.511  26.575  1.00  0.00     0.023 C 
ENDROOT
BRANCH   1   2
ATOM      2  C   UNL A   1      32.616  32.231  26.904  1.00  0.00     0.116 C 
BRANCH   2   3
ATOM      3  N   UNL A   1      32.400  33.594  27.363  1.00  0.00    -0.352 N 
ATOM      4  O   UNL A   1      32.624  35.383  28.706  1.00  0.00    -0.269 OA
ATOM      5  C   UNL A   1      33.062  34.295  28.341  1.00  0.00     0.251 C 
ATOM      6  H   UNL A   1      31.677  34.083  26.907  1.00  0.00     0.163 HD
BRANCH   5   7
ATOM      7  C   UNL A   1      34.276  33.726  28.965  1.00  0.00     0.039 A 
ATOM      8  C   UNL A   1      35.546  34.205  28.628  1.00  0.00     0.014 A 
ATOM      9  C   UNL A   1      34.137  32.706  29.908  1.00  0.00     0.014 A 
ATOM     10  C   UNL A   1      36.681  33.583  29.143  1.00  0.00     0.010 A 
ATOM     11  C   UNL A   1      35.275  32.130  30.476  1.00  0.00     0.010 A 
ATOM     12  C   UNL A   1      36.557  32.543  30.077  1.00  0.00    -0.014 A 
BRANCH  12  13
ATOM     13  C   UNL A   1      37.765  31.935  30.687  1.00  0.00     0.031 A 
ATOM     14  C   UNL A   1      38.541  30.871  29.964  1.00  0.00     0.074 A 
ATOM     15  C   UNL A   1      38.121  32.301  31.933  1.00  0.00     0.049 A 
ATOM     16  N   UNL A   1      39.565  30.173  30.381  1.00  0.00    -0.248 NA
ATOM     17  C   UNL A   1      38.102  30.540  28.599  1.00  0.00     0.031 C 
ATOM     18  C   UNL A   1      37.416  33.292  32.749  1.00  0.00     0.029 A 
ATOM     19  N   UNL A   1      39.135  31.859  32.744  1.00  0.00    -0.354 N 
ATOM     20  C   UNL A   1      39.866  29.287  29.354  1.00  0.00     0.074 A 
ATOM     21  C   UNL A   1      38.912  29.535  28.293  1.00  0.00     0.031 C 
ATOM     22  C   UNL A   1      38.004  33.367  33.951  1.00  0.00     0.029 A 
ATOM     23  C   UNL A   1      39.091  32.396  34.009  1.00  0.00     0.049 A 
ATOM     24  H   UNL A   1      39.824  31.221  32.450  1.00  0.00     0.167 HD
ATOM     25  C   UNL A   1      40.852  28.359  29.297  1.00  0.00     0.034 A 
ATOM     26  C   UNL A   1      39.815  32.113  35.110  1.00  0.00     0.034 A 
ATOM     27  C   UNL A   1      41.810  28.137  30.347  1.00  0.00     0.049 A 
ATOM     28  C   UNL A   1      40.908  31.089  35.022  1.00  0.00     0.074 A 
ATOM     29  C   UNL A   1      42.898  27.282  30.352  1.00  0.00     0.029 A 
ATOM     30  N   UNL A   1      41.783  28.757  31.588  1.00  0.00    -0.354 N 
ATOM     31  N   UNL A   1      41.271  30.361  33.994  1.00  0.00    -0.248 NA
ATOM     32  C   UNL A   1      41.714  30.868  36.231  1.00  0.00     0.031 C 
ATOM     33  C   UNL A   1      43.509  27.361  31.608  1.00  0.00     0.029 A 
ATOM     34  C   UNL A   1      42.824  28.291  32.375  1.00  0.00     0.049 A 
ATOM     35  H   UNL A   1      41.123  29.430  31.869  1.00  0.00     0.167 HD
ATOM     36  C   UNL A   1      42.366  29.618  34.419  1.00  0.00     0.074 A 
ATOM     37  C   UNL A   1      42.614  29.993  35.797  1.00  0.00     0.031 C 
ATOM     38  C   UNL A   1      43.092  28.706  33.729  1.00  0.00     0.034 A 
BRANCH  25  39
ATOM     39  C   UNL A   1      40.955  27.522  28.048  1.00  0.00     0.023 A 
ATOM     40  C   UNL A   1      41.564  28.057  26.894  1.00  0.00     0.012 A 
ATOM     41  C   UNL A   1      40.489  26.192  28.028  1.00  0.00     0.148 A 
ATOM     42  C   UNL A   1      41.668  27.298  25.728  1.00  0.00     0.002 A 
ATOM     43  C   UNL A   1      40.636  25.428  26.876  1.00  0.00     0.091 A 
ATOM     44  F   UNL A   1      39.894  25.704  29.125  1.00  0.00    -0.205 F 
ATOM     45  C   UNL A   1      41.213  25.982  25.722  1.00  0.00     0.022 A 
BRANCH  43  46
ATOM     46  S   UNL A   1      40.149  23.700  26.803  1.00  0.00     0.127 S 
ATOM     47  O   UNL A   1      41.221  23.124  25.992  1.00  0.00    -0.237 OA
ATOM     48  O   UNL A   1      40.174  23.308  28.213  1.00  0.00    -0.237 OA
ATOM     49  O   UNL A   1      38.823  23.688  26.200  1.00  0.00    -0.744 OA
ENDBRANCH  43  46
ENDBRANCH  25  39
BRANCH  26  50
ATOM     50  C   UNL A   1      39.521  32.843  36.372  1.00  0.00     0.023 A 
ATOM     51  C   UNL A   1      40.046  34.134  36.568  1.00  0.00     0.012 A 
ATOM     52  C   UNL A   1      38.639  32.302  37.330  1.00  0.00     0.148 A 
ATOM     53  C   UNL A   1      39.706  34.871  37.703  1.00  0.00     0.002 A 
ATOM     54  C   UNL A   1      38.261  33.063  38.429  1.00  0.00     0.091 A 
ATOM     55  F   UNL A   1      38.156  31.069  37.122  1.00  0.00    -0.205 F 
ATOM     56  C   UNL A   1      38.805  34.342  38.624  1.00  0.00     0.022 A 
BRANCH  54  57
ATOM     57  S   UNL A   1      36.995  32.528  39.585  1.00  0.00     0.127 S 
ATOM     58  O   UNL A   1      37.503  31.224  40.002  1.00  0.00    -0.237 OA
ATOM     59  O   UNL A   1      37.066  33.572  40.608  1.00  0.00    -0.237 OA
ATOM     60  O   UNL A   1      35.751  32.507  38.830  1.00  0.00    -0.744 OA
ENDBRANCH  54  57
ENDBRANCH  26  50
BRANCH  38  61
ATOM     61  C   UNL A   1      44.262  28.063  34.426  1.00  0.00     0.023 A 
ATOM     62  C   UNL A   1      45.506  28.722  34.464  1.00  0.00     0.012 A 
ATOM     63  C   UNL A   1      44.091  26.859  35.138  1.00  0.00     0.148 A 
ATOM     64  C   UNL A   1      46.568  28.184  35.191  1.00  0.00     0.002 A 
ATOM     65  C   UNL A   1      45.139  26.355  35.898  1.00  0.00     0.091 A 
ATOM     66  F   UNL A   1      42.904  26.241  35.071  1.00  0.00    -0.205 F 
ATOM     67  C   UNL A   1      46.381  27.011  35.918  1.00  0.00     0.022 A 
BRANCH  65  68
ATOM     68  S   UNL A   1      44.962  24.906  36.946  1.00  0.00     0.127 S 
ATOM     69  O   UNL A   1      46.211  24.934  37.706  1.00  0.00    -0.237 OA
ATOM     70  O   UNL A   1      43.767  25.231  37.723  1.00  0.00    -0.237 OA
ATOM     71  O   UNL A   1      44.811  23.772  36.045  1.00  0.00    -0.744 OA
ENDBRANCH  65  68
ENDBRANCH  38  61
ENDBRANCH  12  13
ENDBRANCH   5   7
ENDBRANCH   2   3
ENDBRANCH   1   2
BRANCH   1  72
ATOM     72  C   UNL A   1      31.409  30.456  25.469  1.00  0.00     0.023 C 
BRANCH  72  73
ATOM     73  C   UNL A   1      31.773  29.055  25.959  1.00  0.00     0.116 C 
BRANCH  73  74
ATOM     74  N   UNL A   1      31.048  28.028  25.233  1.00  0.00    -0.356 N 
ATOM     75  C   UNL A   1      31.251  26.675  25.216  1.00  0.00     0.227 C 
ATOM     76  H   UNL A   1      30.305  28.350  24.674  1.00  0.00     0.163 HD
ATOM     77  O   UNL A   1      30.542  25.982  24.487  1.00  0.00    -0.274 OA
BRANCH  75  78
ATOM     78  C   UNL A   1      32.315  26.088  26.148  1.00  0.00     0.103 C 
ATOM     79  C   UNL A   1      33.685  26.074  25.549  1.00  0.00    -0.016 C 
ATOM     80  C   UNL A   1      32.027  24.599  26.404  1.00  0.00     0.047 C 
ATOM     81  C   UNL A   1      34.115  24.834  25.299  1.00  0.00    -0.006 C 
ATOM     82  C   UNL A   1      33.106  23.795  25.661  1.00  0.00     0.106 C 
BRANCH  82  83
ATOM     83  N   UNL A   1      32.613  23.216  24.430  1.00  0.00    -0.347 N 
ATOM     84  C   UNL A   1      32.529  21.912  24.043  1.00  0.00     0.261 C 
ATOM     85  H   UNL A   1      32.288  23.868  23.767  1.00  0.00     0.164 HD
ATOM     86  O   UNL A   1      32.041  21.673  22.932  1.00  0.00    -0.271 OA
BRANCH  84  87
ATOM     87  C   UNL A   1      32.989  20.757  24.943  1.00  0.00     0.266 C 
ATOM     88  C   UNL A   1      34.402  20.255  24.617  1.00  0.00     0.095 C 
ATOM     89  O   UNL A   1      32.056  19.655  24.966  1.00  0.00    -0.480 OA
ATOM     90  C   UNL A   1      34.181  18.795  24.696  1.00  0.00    -0.002 A 
ATOM     91  C   UNL A   1      32.843  18.536  24.935  1.00  0.00     0.123 A 
ATOM     92  C   UNL A   1      35.090  17.760  24.555  1.00  0.00     0.008 A 
ATOM     93  C   UNL A   1      32.362  17.251  25.080  1.00  0.00     0.047 A 
ATOM     94  C   UNL A   1      34.623  16.449  24.692  1.00  0.00     0.001 A 
ATOM     95  C   UNL A   1      33.268  16.196  24.964  1.00  0.00     0.004 A 
ENDBRANCH  84  87
ENDBRANCH  82  83
ENDBRANCH  75  78
ENDBRANCH  73  74
ENDBRANCH  72  73
ENDBRANCH   1  72
TORSDOF 16
ENDMDL
