MODEL 1
REMARK VINA RESULT:     -10.5      0.000      0.000
REMARK SMILES CC[C@](C)(NC(=O)Cc1cccc(F)c1)C(=O)NCCCCNC(=O)c1ccc(-c2c3nc(c(-c4cccc(S(=O)(=O)[O-])c4F)c4ccc([nH]4)c(-c4cccc(S(=O)(=O)[O-])c4F)c4nc(c(-c5cccc(S(=O)(=O)[O-])c5F)c5ccc2[nH]5)C=C4)C=C3)cc1
REMARK SMILES IDX 20 1 19 2 18 3 16 4 17 5 3 7 4 8 2 9 1 10 5 11 6 12 7 14
REMARK SMILES IDX 8 15 9 16 10 17 15 18 11 19 13 20 12 21 14 22 21 23 22 24
REMARK SMILES IDX 23 25 24 26 25 28 26 29 27 30 88 31 28 32 87 33 29 34 30 35
REMARK SMILES IDX 31 36 81 37 32 38 86 39 80 40 82 41 33 42 85 43 79 44 78 45
REMARK SMILES IDX 34 47 66 48 46 49 65 50 47 51 50 52 64 53 83 54 48 55 49 56
REMARK SMILES IDX 63 58 84 59 51 60 35 61 36 62 44 63 37 64 39 65 45 66 38 67
REMARK SMILES IDX 40 68 41 69 42 70 43 71 67 72 68 73 76 74 69 75 71 76 77 77
REMARK SMILES IDX 70 78 72 79 73 80 74 81 75 82 52 83 53 84 61 85 54 86 56 87
REMARK SMILES IDX 62 88 55 89 57 90 58 91 59 92 60 93
REMARK H PARENT 18 6 5 13 23 27 82 46 50 57
REMARK Flexibility Score: inf
ROOT
ATOM      1  C   UNL A   1      31.915  28.284  26.300  1.00  0.00     0.023 C 
ENDROOT
BRANCH   1   2
ATOM      2  C   UNL A   1      31.115  27.113  25.735  1.00  0.00     0.116 C 
BRANCH   2   3
ATOM      3  N   UNL A   1      31.012  25.962  26.618  1.00  0.00    -0.354 N 
ATOM      4  C   UNL A   1      31.190  24.625  26.385  1.00  0.00     0.245 C 
ATOM      5  O   UNL A   1      31.236  23.888  27.373  1.00  0.00    -0.272 OA
ATOM      6  H   UNL A   1      30.772  26.185  27.547  1.00  0.00     0.163 HD
BRANCH   4   7
ATOM      7  C   UNL A   1      31.468  24.084  24.952  1.00  0.00     0.116 C 
ATOM      8  C   UNL A   1      30.357  24.377  23.920  1.00  0.00     0.045 C 
BRANCH   7   9
ATOM      9  C   UNL A   1      31.538  22.526  25.091  1.00  0.00     0.035 C 
ATOM     10  C   UNL A   1      32.278  21.828  23.944  1.00  0.00     0.007 C 
ENDBRANCH   7   9
BRANCH   7  11
ATOM     11  N   UNL A   1      32.733  24.632  24.403  1.00  0.00    -0.342 N 
ATOM     12  C   UNL A   1      33.935  24.834  25.044  1.00  0.00     0.225 C 
ATOM     13  H   UNL A   1      32.710  24.885  23.453  1.00  0.00     0.164 HD
ATOM     14  O   UNL A   1      34.627  25.770  24.630  1.00  0.00    -0.275 OA
BRANCH  12  15
ATOM     15  C   UNL A   1      34.475  23.875  26.108  1.00  0.00     0.135 C 
BRANCH  15  16
ATOM     16  C   UNL A   1      35.747  23.118  25.805  1.00  0.00    -0.036 A 
ATOM     17  C   UNL A   1      37.006  23.690  26.033  1.00  0.00     0.004 A 
ATOM     18  C   UNL A   1      35.706  21.774  25.410  1.00  0.00     0.043 A 
ATOM     19  C   UNL A   1      38.190  22.986  25.807  1.00  0.00     0.003 A 
ATOM     20  C   UNL A   1      36.890  21.060  25.226  1.00  0.00     0.123 A 
ATOM     21  C   UNL A   1      38.132  21.659  25.404  1.00  0.00     0.039 A 
ATOM     22  F   UNL A   1      36.835  19.766  24.886  1.00  0.00    -0.207 F 
ENDBRANCH  15  16
ENDBRANCH  12  15
ENDBRANCH   7  11
ENDBRANCH   4   7
ENDBRANCH   2   3
ENDBRANCH   1   2
BRANCH   1  23
ATOM     23  C   UNL A   1      33.303  27.946  26.834  1.00  0.00     0.023 C 
BRANCH  23  24
ATOM     24  C   UNL A   1      34.385  28.972  26.532  1.00  0.00     0.116 C 
BRANCH  24  25
ATOM     25  N   UNL A   1      34.041  30.314  26.976  1.00  0.00    -0.352 N 
ATOM     26  C   UNL A   1      34.697  31.124  27.872  1.00  0.00     0.251 C 
ATOM     27  H   UNL A   1      33.224  30.695  26.581  1.00  0.00     0.163 HD
ATOM     28  O   UNL A   1      34.207  32.194  28.207  1.00  0.00    -0.269 OA
BRANCH  26  29
ATOM     29  C   UNL A   1      35.981  30.673  28.449  1.00  0.00     0.039 A 
ATOM     30  C   UNL A   1      35.965  29.653  29.403  1.00  0.00     0.014 A 
ATOM     31  C   UNL A   1      37.190  31.228  28.022  1.00  0.00     0.014 A 
ATOM     32  C   UNL A   1      37.173  29.147  29.886  1.00  0.00     0.010 A 
ATOM     33  C   UNL A   1      38.391  30.669  28.445  1.00  0.00     0.010 A 
ATOM     34  C   UNL A   1      38.395  29.628  29.386  1.00  0.00    -0.014 A 
BRANCH  34  35
ATOM     35  C   UNL A   1      39.688  29.054  29.832  1.00  0.00     0.031 A 
ATOM     36  C   UNL A   1      40.457  29.710  30.946  1.00  0.00     0.074 A 
ATOM     37  C   UNL A   1      40.208  27.996  29.178  1.00  0.00     0.049 A 
ATOM     38  N   UNL A   1      41.628  29.394  31.432  1.00  0.00    -0.248 NA
ATOM     39  C   UNL A   1      39.845  30.889  31.580  1.00  0.00     0.031 C 
ATOM     40  C   UNL A   1      39.591  27.325  28.032  1.00  0.00     0.029 A 
ATOM     41  N   UNL A   1      41.382  27.313  29.368  1.00  0.00    -0.354 N 
ATOM     42  C   UNL A   1      41.909  30.352  32.398  1.00  0.00     0.074 A 
ATOM     43  C   UNL A   1      40.802  31.282  32.409  1.00  0.00     0.031 C 
ATOM     44  C   UNL A   1      40.385  26.321  27.630  1.00  0.00     0.029 A 
ATOM     45  C   UNL A   1      41.581  26.293  28.467  1.00  0.00     0.049 A 
ATOM     46  H   UNL A   1      42.023  27.533  30.082  1.00  0.00     0.167 HD
ATOM     47  C   UNL A   1      42.976  30.430  33.226  1.00  0.00     0.034 A 
ATOM     48  C   UNL A   1      42.610  25.432  28.329  1.00  0.00     0.034 A 
ATOM     49  C   UNL A   1      44.042  29.467  33.253  1.00  0.00     0.049 A 
ATOM     50  C   UNL A   1      43.759  25.510  29.297  1.00  0.00     0.074 A 
ATOM     51  C   UNL A   1      45.120  29.407  34.117  1.00  0.00     0.029 A 
ATOM     52  N   UNL A   1      44.165  28.397  32.380  1.00  0.00    -0.354 N 
ATOM     53  N   UNL A   1      43.934  26.334  30.302  1.00  0.00    -0.248 NA
ATOM     54  C   UNL A   1      44.836  24.522  29.138  1.00  0.00     0.031 C 
ATOM     55  C   UNL A   1      45.905  28.310  33.756  1.00  0.00     0.029 A 
ATOM     56  C   UNL A   1      45.305  27.673  32.682  1.00  0.00     0.049 A 
ATOM     57  H   UNL A   1      43.536  28.184  31.654  1.00  0.00     0.167 HD
ATOM     58  C   UNL A   1      45.120  25.946  30.913  1.00  0.00     0.074 A 
ATOM     59  C   UNL A   1      45.613  24.800  30.177  1.00  0.00     0.031 C 
ATOM     60  C   UNL A   1      45.752  26.499  31.977  1.00  0.00     0.034 A 
BRANCH  47  61
ATOM     61  C   UNL A   1      43.014  31.553  34.229  1.00  0.00     0.023 A 
ATOM     62  C   UNL A   1      43.620  32.775  33.874  1.00  0.00     0.012 A 
ATOM     63  C   UNL A   1      42.368  31.435  35.475  1.00  0.00     0.148 A 
ATOM     64  C   UNL A   1      43.602  33.857  34.752  1.00  0.00     0.002 A 
ATOM     65  C   UNL A   1      42.315  32.533  36.326  1.00  0.00     0.091 A 
ATOM     66  F   UNL A   1      41.815  30.259  35.801  1.00  0.00    -0.205 F 
ATOM     67  C   UNL A   1      42.939  33.740  35.971  1.00  0.00     0.022 A 
BRANCH  65  68
ATOM     68  S   UNL A   1      41.415  32.516  37.881  1.00  0.00     0.127 S 
ATOM     69  O   UNL A   1      40.082  32.099  37.445  1.00  0.00    -0.237 OA
ATOM     70  O   UNL A   1      42.149  31.508  38.647  1.00  0.00    -0.237 OA
ATOM     71  O   UNL A   1      41.501  33.868  38.412  1.00  0.00    -0.744 OA
ENDBRANCH  65  68
ENDBRANCH  47  61
BRANCH  48  72
ATOM     72  C   UNL A   1      42.549  24.372  27.283  1.00  0.00     0.023 A 
ATOM     73  C   UNL A   1      43.057  24.645  25.998  1.00  0.00     0.012 A 
ATOM     74  C   UNL A   1      42.054  23.084  27.566  1.00  0.00     0.148 A 
ATOM     75  C   UNL A   1      43.054  23.662  25.007  1.00  0.00     0.002 A 
ATOM     76  C   UNL A   1      42.107  22.094  26.593  1.00  0.00     0.091 A 
ATOM     77  F   UNL A   1      41.565  22.848  28.791  1.00  0.00    -0.205 F 
ATOM     78  C   UNL A   1      42.592  22.384  25.308  1.00  0.00     0.022 A 
BRANCH  76  79
ATOM     79  S   UNL A   1      41.667  20.385  26.931  1.00  0.00     0.127 S 
ATOM     80  O   UNL A   1      42.741  19.971  27.830  1.00  0.00    -0.237 OA
ATOM     81  O   UNL A   1      40.354  20.531  27.562  1.00  0.00    -0.237 OA
ATOM     82  O   UNL A   1      41.637  19.723  25.633  1.00  0.00    -0.744 OA
ENDBRANCH  76  79
ENDBRANCH  48  72
BRANCH  60  83
ATOM     83  C   UNL A   1      47.038  25.873  32.444  1.00  0.00     0.023 A 
ATOM     84  C   UNL A   1      48.267  26.365  31.962  1.00  0.00     0.012 A 
ATOM     85  C   UNL A   1      47.032  24.891  33.455  1.00  0.00     0.148 A 
ATOM     86  C   UNL A   1      49.471  25.878  32.468  1.00  0.00     0.002 A 
ATOM     87  C   UNL A   1      48.235  24.446  33.990  1.00  0.00     0.091 A 
ATOM     88  F   UNL A   1      45.852  24.426  33.888  1.00  0.00    -0.205 F 
ATOM     89  C   UNL A   1      49.456  24.932  33.492  1.00  0.00     0.022 A 
BRANCH  87  90
ATOM     90  S   UNL A   1      48.312  23.312  35.380  1.00  0.00     0.127 S 
ATOM     91  O   UNL A   1      49.681  23.512  35.852  1.00  0.00    -0.237 OA
ATOM     92  O   UNL A   1      47.277  23.840  36.270  1.00  0.00    -0.237 OA
ATOM     93  O   UNL A   1      48.028  21.991  34.838  1.00  0.00    -0.744 OA
ENDBRANCH  87  90
ENDBRANCH  60  83
ENDBRANCH  34  35
ENDBRANCH  26  29
ENDBRANCH  24  25
ENDBRANCH  23  24
ENDBRANCH   1  23
TORSDOF 18
ENDMDL
MODEL 2
REMARK VINA RESULT:     -10.5      5.496      8.721
REMARK SMILES CC[C@](C)(NC(=O)Cc1cccc(F)c1)C(=O)NCCCCNC(=O)c1ccc(-c2c3nc(c(-c4cccc(S(=O)(=O)[O-])c4F)c4ccc([nH]4)c(-c4cccc(S(=O)(=O)[O-])c4F)c4nc(c(-c5cccc(S(=O)(=O)[O-])c5F)c5ccc2[nH]5)C=C4)C=C3)cc1
REMARK SMILES IDX 20 1 19 2 18 3 16 4 17 5 3 7 4 8 2 9 1 10 5 11 6 12 7 14
REMARK SMILES IDX 8 15 9 16 10 17 15 18 11 19 13 20 12 21 14 22 21 23 22 24
REMARK SMILES IDX 23 25 24 26 25 28 26 29 27 30 88 31 28 32 87 33 29 34 30 35
REMARK SMILES IDX 31 36 81 37 32 38 86 39 80 40 82 41 33 42 85 43 79 44 78 45
REMARK SMILES IDX 34 47 66 48 46 49 65 50 47 51 50 52 64 53 83 54 48 55 49 56
REMARK SMILES IDX 63 58 84 59 51 60 35 61 36 62 44 63 37 64 39 65 45 66 38 67
REMARK SMILES IDX 40 68 41 69 42 70 43 71 67 72 68 73 76 74 69 75 71 76 77 77
REMARK SMILES IDX 70 78 72 79 73 80 74 81 75 82 52 83 53 84 61 85 54 86 56 87
REMARK SMILES IDX 62 88 55 89 57 90 58 91 59 92 60 93
REMARK H PARENT 18 6 5 13 23 27 82 46 50 57
REMARK Flexibility Score: inf
ROOT
ATOM      1  C   UNL A   1      36.751  20.918  25.034  1.00  0.00     0.023 C 
ENDROOT
BRANCH   1   2
ATOM      2  C   UNL A   1      36.862  22.295  24.382  1.00  0.00     0.116 C 
BRANCH   2   3
ATOM      3  N   UNL A   1      35.862  22.570  23.363  1.00  0.00    -0.354 N 
ATOM      4  C   UNL A   1      34.618  23.134  23.447  1.00  0.00     0.245 C 
ATOM      5  O   UNL A   1      34.068  23.431  22.383  1.00  0.00    -0.272 OA
ATOM      6  H   UNL A   1      36.128  22.304  22.453  1.00  0.00     0.163 HD
BRANCH   4   7
ATOM      7  C   UNL A   1      33.994  23.517  24.821  1.00  0.00     0.116 C 
ATOM      8  C   UNL A   1      32.481  23.827  24.783  1.00  0.00     0.045 C 
BRANCH   7   9
ATOM      9  C   UNL A   1      34.702  24.844  25.256  1.00  0.00     0.035 C 
ATOM     10  C   UNL A   1      33.891  26.112  24.961  1.00  0.00     0.007 C 
ENDBRANCH   7   9
BRANCH   7  11
ATOM     11  N   UNL A   1      34.199  22.445  25.825  1.00  0.00    -0.342 N 
ATOM     12  C   UNL A   1      33.413  21.344  26.083  1.00  0.00     0.225 C 
ATOM     13  H   UNL A   1      35.004  22.533  26.383  1.00  0.00     0.164 HD
ATOM     14  O   UNL A   1      33.416  20.928  27.247  1.00  0.00    -0.275 OA
BRANCH  12  15
ATOM     15  C   UNL A   1      32.691  20.568  24.979  1.00  0.00     0.135 C 
BRANCH  15  16
ATOM     16  C   UNL A   1      32.996  19.096  24.825  1.00  0.00    -0.036 A 
ATOM     17  C   UNL A   1      32.526  18.155  25.753  1.00  0.00     0.004 A 
ATOM     18  C   UNL A   1      33.646  18.612  23.682  1.00  0.00     0.043 A 
ATOM     19  C   UNL A   1      32.754  16.787  25.598  1.00  0.00     0.003 A 
ATOM     20  C   UNL A   1      33.836  17.241  23.510  1.00  0.00     0.123 A 
ATOM     21  C   UNL A   1      33.411  16.326  24.466  1.00  0.00     0.039 A 
ATOM     22  F   UNL A   1      34.425  16.792  22.395  1.00  0.00    -0.207 F 
ENDBRANCH  15  16
ENDBRANCH  12  15
ENDBRANCH   7  11
ENDBRANCH   4   7
ENDBRANCH   2   3
ENDBRANCH   1   2
BRANCH   1  23
ATOM     23  C   UNL A   1      37.988  20.031  24.930  1.00  0.00     0.023 C 
BRANCH  23  24
ATOM     24  C   UNL A   1      39.150  20.429  25.828  1.00  0.00     0.116 C 
BRANCH  24  25
ATOM     25  N   UNL A   1      40.174  19.400  25.928  1.00  0.00    -0.352 N 
ATOM     26  C   UNL A   1      41.521  19.540  26.165  1.00  0.00     0.251 C 
ATOM     27  H   UNL A   1      39.859  18.476  25.808  1.00  0.00     0.163 HD
ATOM     28  O   UNL A   1      42.258  18.564  26.116  1.00  0.00    -0.269 OA
BRANCH  26  29
ATOM     29  C   UNL A   1      42.070  20.883  26.445  1.00  0.00     0.039 A 
ATOM     30  C   UNL A   1      42.306  21.747  25.375  1.00  0.00     0.014 A 
ATOM     31  C   UNL A   1      42.316  21.294  27.758  1.00  0.00     0.014 A 
ATOM     32  C   UNL A   1      42.731  23.052  25.626  1.00  0.00     0.010 A 
ATOM     33  C   UNL A   1      42.662  22.617  28.010  1.00  0.00     0.010 A 
ATOM     34  C   UNL A   1      42.881  23.507  26.948  1.00  0.00    -0.014 A 
BRANCH  34  35
ATOM     35  C   UNL A   1      43.262  24.910  27.240  1.00  0.00     0.031 A 
ATOM     36  C   UNL A   1      42.268  25.842  27.878  1.00  0.00     0.074 A 
ATOM     37  C   UNL A   1      44.471  25.366  26.855  1.00  0.00     0.049 A 
ATOM     38  N   UNL A   1      42.394  27.113  28.153  1.00  0.00    -0.248 NA
ATOM     39  C   UNL A   1      40.952  25.281  28.228  1.00  0.00     0.031 C 
ATOM     40  C   UNL A   1      45.489  24.576  26.158  1.00  0.00     0.029 A 
ATOM     41  N   UNL A   1      45.041  26.608  26.975  1.00  0.00    -0.354 N 
ATOM     42  C   UNL A   1      41.168  27.511  28.672  1.00  0.00     0.074 A 
ATOM     43  C   UNL A   1      40.299  26.357  28.643  1.00  0.00     0.031 C 
ATOM     44  C   UNL A   1      46.561  25.349  25.924  1.00  0.00     0.029 A 
ATOM     45  C   UNL A   1      46.299  26.695  26.425  1.00  0.00     0.049 A 
ATOM     46  H   UNL A   1      44.592  27.367  27.414  1.00  0.00     0.167 HD
ATOM     47  C   UNL A   1      40.811  28.721  29.162  1.00  0.00     0.034 A 
ATOM     48  C   UNL A   1      47.146  27.740  26.334  1.00  0.00     0.034 A 
ATOM     49  C   UNL A   1      41.700  29.846  29.245  1.00  0.00     0.049 A 
ATOM     50  C   UNL A   1      46.741  29.060  26.932  1.00  0.00     0.074 A 
ATOM     51  C   UNL A   1      41.461  31.087  29.809  1.00  0.00     0.029 A 
ATOM     52  N   UNL A   1      42.996  29.870  28.755  1.00  0.00    -0.354 N 
ATOM     53  N   UNL A   1      45.631  29.376  27.554  1.00  0.00    -0.248 NA
ATOM     54  C   UNL A   1      47.716  30.158  26.851  1.00  0.00     0.031 C 
ATOM     55  C   UNL A   1      42.607  31.867  29.644  1.00  0.00     0.029 A 
ATOM     56  C   UNL A   1      43.568  31.106  28.998  1.00  0.00     0.049 A 
ATOM     57  H   UNL A   1      43.443  29.120  28.300  1.00  0.00     0.167 HD
ATOM     58  C   UNL A   1      45.784  30.694  27.964  1.00  0.00     0.074 A 
ATOM     59  C   UNL A   1      47.103  31.114  27.538  1.00  0.00     0.031 C 
ATOM     60  C   UNL A   1      44.904  31.491  28.620  1.00  0.00     0.034 A 
BRANCH  47  61
ATOM     61  C   UNL A   1      39.420  28.878  29.717  1.00  0.00     0.023 A 
ATOM     62  C   UNL A   1      39.139  28.411  31.017  1.00  0.00     0.012 A 
ATOM     63  C   UNL A   1      38.426  29.570  29.000  1.00  0.00     0.148 A 
ATOM     64  C   UNL A   1      37.884  28.612  31.587  1.00  0.00     0.002 A 
ATOM     65  C   UNL A   1      37.191  29.807  29.593  1.00  0.00     0.091 A 
ATOM     66  F   UNL A   1      38.707  29.989  27.758  1.00  0.00    -0.205 F 
ATOM     67  C   UNL A   1      36.915  29.320  30.882  1.00  0.00     0.022 A 
BRANCH  65  68
ATOM     68  S   UNL A   1      35.904  30.781  28.804  1.00  0.00     0.127 S 
ATOM     69  O   UNL A   1      35.107  29.742  28.151  1.00  0.00    -0.237 OA
ATOM     70  O   UNL A   1      35.255  31.416  29.951  1.00  0.00    -0.237 OA
ATOM     71  O   UNL A   1      36.586  31.699  27.904  1.00  0.00    -0.744 OA
ENDBRANCH  65  68
ENDBRANCH  47  61
BRANCH  48  72
ATOM     72  C   UNL A   1      48.492  27.547  25.724  1.00  0.00     0.023 A 
ATOM     73  C   UNL A   1      49.573  27.177  26.547  1.00  0.00     0.012 A 
ATOM     74  C   UNL A   1      48.696  27.665  24.335  1.00  0.00     0.148 A 
ATOM     75  C   UNL A   1      50.838  26.948  26.002  1.00  0.00     0.002 A 
ATOM     76  C   UNL A   1      49.943  27.380  23.792  1.00  0.00     0.091 A 
ATOM     77  F   UNL A   1      47.657  28.030  23.571  1.00  0.00    -0.205 F 
ATOM     78  C   UNL A   1      51.020  27.036  24.625  1.00  0.00     0.022 A 
BRANCH  76  79
ATOM     79  S   UNL A   1      50.235  27.329  22.020  1.00  0.00     0.127 S 
ATOM     80  O   UNL A   1      49.228  26.368  21.578  1.00  0.00    -0.237 OA
ATOM     81  O   UNL A   1      49.978  28.717  21.632  1.00  0.00    -0.237 OA
ATOM     82  O   UNL A   1      51.622  26.910  21.863  1.00  0.00    -0.744 OA
ENDBRANCH  76  79
ENDBRANCH  48  72
BRANCH  60  83
ATOM     83  C   UNL A   1      45.328  32.896  28.951  1.00  0.00     0.023 A 
ATOM     84  C   UNL A   1      45.993  33.154  30.165  1.00  0.00     0.012 A 
ATOM     85  C   UNL A   1      45.186  33.930  28.004  1.00  0.00     0.148 A 
ATOM     86  C   UNL A   1      46.497  34.425  30.440  1.00  0.00     0.002 A 
ATOM     87  C   UNL A   1      45.734  35.180  28.263  1.00  0.00     0.091 A 
ATOM     88  F   UNL A   1      44.536  33.665  26.862  1.00  0.00    -0.205 F 
ATOM     89  C   UNL A   1      46.382  35.432  29.484  1.00  0.00     0.022 A 
BRANCH  87  90
ATOM     90  S   UNL A   1      45.729  36.505  27.050  1.00  0.00     0.127 S 
ATOM     91  O   UNL A   1      46.371  35.862  25.905  1.00  0.00    -0.237 OA
ATOM     92  O   UNL A   1      44.300  36.766  26.881  1.00  0.00    -0.237 OA
ATOM     93  O   UNL A   1      46.478  37.602  27.649  1.00  0.00    -0.744 OA
ENDBRANCH  87  90
ENDBRANCH  60  83
ENDBRANCH  34  35
ENDBRANCH  26  29
ENDBRANCH  24  25
ENDBRANCH  23  24
ENDBRANCH   1  23
TORSDOF 18
ENDMDL
MODEL 3
REMARK VINA RESULT:     -10.3      5.338      9.807
REMARK SMILES CC[C@](C)(NC(=O)Cc1cccc(F)c1)C(=O)NCCCCNC(=O)c1ccc(-c2c3nc(c(-c4cccc(S(=O)(=O)[O-])c4F)c4ccc([nH]4)c(-c4cccc(S(=O)(=O)[O-])c4F)c4nc(c(-c5cccc(S(=O)(=O)[O-])c5F)c5ccc2[nH]5)C=C4)C=C3)cc1
REMARK SMILES IDX 20 1 19 2 18 3 16 4 17 5 3 7 4 8 2 9 1 10 5 11 6 12 7 14
REMARK SMILES IDX 8 15 9 16 10 17 15 18 11 19 13 20 12 21 14 22 21 23 22 24
REMARK SMILES IDX 23 25 24 26 25 28 26 29 27 30 88 31 28 32 87 33 29 34 30 35
REMARK SMILES IDX 31 36 81 37 32 38 86 39 80 40 82 41 33 42 85 43 79 44 78 45
REMARK SMILES IDX 34 47 66 48 46 49 65 50 47 51 50 52 64 53 83 54 48 55 49 56
REMARK SMILES IDX 63 58 84 59 51 60 35 61 36 62 44 63 37 64 39 65 45 66 38 67
REMARK SMILES IDX 40 68 41 69 42 70 43 71 67 72 68 73 76 74 69 75 71 76 77 77
REMARK SMILES IDX 70 78 72 79 73 80 74 81 75 82 52 83 53 84 61 85 54 86 56 87
REMARK SMILES IDX 62 88 55 89 57 90 58 91 59 92 60 93
REMARK H PARENT 18 6 5 13 23 27 82 46 50 57
REMARK Flexibility Score: inf
ROOT
ATOM      1  C   UNL A   1      36.909  20.808  25.055  1.00  0.00     0.023 C 
ENDROOT
BRANCH   1   2
ATOM      2  C   UNL A   1      36.923  22.247  24.543  1.00  0.00     0.116 C 
BRANCH   2   3
ATOM      3  N   UNL A   1      35.993  22.517  23.458  1.00  0.00    -0.354 N 
ATOM      4  C   UNL A   1      34.755  23.101  23.454  1.00  0.00     0.245 C 
ATOM      5  O   UNL A   1      34.277  23.386  22.353  1.00  0.00    -0.272 OA
ATOM      6  H   UNL A   1      36.311  22.230  22.571  1.00  0.00     0.163 HD
BRANCH   4   7
ATOM      7  C   UNL A   1      34.053  23.518  24.780  1.00  0.00     0.116 C 
ATOM      8  C   UNL A   1      32.540  23.801  24.653  1.00  0.00     0.045 C 
BRANCH   7   9
ATOM      9  C   UNL A   1      34.718  24.871  25.207  1.00  0.00     0.035 C 
ATOM     10  C   UNL A   1      33.728  25.912  25.743  1.00  0.00     0.007 C 
ENDBRANCH   7   9
BRANCH   7  11
ATOM     11  N   UNL A   1      34.220  22.483  25.829  1.00  0.00    -0.342 N 
ATOM     12  C   UNL A   1      33.419  21.398  26.105  1.00  0.00     0.225 C 
ATOM     13  H   UNL A   1      35.010  22.586  26.407  1.00  0.00     0.164 HD
ATOM     14  O   UNL A   1      33.384  21.026  27.283  1.00  0.00    -0.275 OA
BRANCH  12  15
ATOM     15  C   UNL A   1      32.723  20.587  25.010  1.00  0.00     0.135 C 
BRANCH  15  16
ATOM     16  C   UNL A   1      33.061  19.119  24.885  1.00  0.00    -0.036 A 
ATOM     17  C   UNL A   1      32.672  18.197  25.867  1.00  0.00     0.004 A 
ATOM     18  C   UNL A   1      33.661  18.617  23.723  1.00  0.00     0.043 A 
ATOM     19  C   UNL A   1      32.932  16.831  25.742  1.00  0.00     0.003 A 
ATOM     20  C   UNL A   1      33.881  17.246  23.583  1.00  0.00     0.123 A 
ATOM     21  C   UNL A   1      33.538  16.351  24.589  1.00  0.00     0.039 A 
ATOM     22  F   UNL A   1      34.419  16.777  22.450  1.00  0.00    -0.207 F 
ENDBRANCH  15  16
ENDBRANCH  12  15
ENDBRANCH   7  11
ENDBRANCH   4   7
ENDBRANCH   2   3
ENDBRANCH   1   2
BRANCH   1  23
ATOM     23  C   UNL A   1      38.213  20.033  24.896  1.00  0.00     0.023 C 
BRANCH  23  24
ATOM     24  C   UNL A   1      39.194  20.165  26.052  1.00  0.00     0.116 C 
BRANCH  24  25
ATOM     25  N   UNL A   1      40.291  19.212  25.984  1.00  0.00    -0.352 N 
ATOM     26  C   UNL A   1      41.642  19.438  26.099  1.00  0.00     0.251 C 
ATOM     27  H   UNL A   1      40.030  18.275  25.832  1.00  0.00     0.163 HD
ATOM     28  O   UNL A   1      42.436  18.526  25.913  1.00  0.00    -0.269 OA
BRANCH  26  29
ATOM     29  C   UNL A   1      42.123  20.800  26.415  1.00  0.00     0.039 A 
ATOM     30  C   UNL A   1      42.330  21.697  25.366  1.00  0.00     0.014 A 
ATOM     31  C   UNL A   1      42.331  21.194  27.739  1.00  0.00     0.014 A 
ATOM     32  C   UNL A   1      42.689  23.015  25.651  1.00  0.00     0.010 A 
ATOM     33  C   UNL A   1      42.610  22.526  28.024  1.00  0.00     0.010 A 
ATOM     34  C   UNL A   1      42.799  23.448  26.984  1.00  0.00    -0.014 A 
BRANCH  34  35
ATOM     35  C   UNL A   1      43.109  24.861  27.312  1.00  0.00     0.031 A 
ATOM     36  C   UNL A   1      44.503  25.391  27.115  1.00  0.00     0.074 A 
ATOM     37  C   UNL A   1      42.157  25.641  27.863  1.00  0.00     0.049 A 
ATOM     38  N   UNL A   1      44.979  26.574  27.401  1.00  0.00    -0.248 NA
ATOM     39  C   UNL A   1      45.499  24.465  26.551  1.00  0.00     0.031 C 
ATOM     40  C   UNL A   1      40.790  25.214  28.173  1.00  0.00     0.029 A 
ATOM     41  N   UNL A   1      42.198  26.947  28.281  1.00  0.00    -0.354 N 
ATOM     42  C   UNL A   1      46.332  26.523  27.087  1.00  0.00     0.074 A 
ATOM     43  C   UNL A   1      46.610  25.183  26.621  1.00  0.00     0.031 C 
ATOM     44  C   UNL A   1      40.122  26.242  28.719  1.00  0.00     0.029 A 
ATOM     45  C   UNL A   1      41.016  27.390  28.827  1.00  0.00     0.049 A 
ATOM     46  H   UNL A   1      42.999  27.514  28.198  1.00  0.00     0.167 HD
ATOM     47  C   UNL A   1      47.251  27.514  27.148  1.00  0.00     0.034 A 
ATOM     48  C   UNL A   1      40.689  28.587  29.357  1.00  0.00     0.034 A 
ATOM     49  C   UNL A   1      46.954  28.859  27.552  1.00  0.00     0.049 A 
ATOM     50  C   UNL A   1      41.717  29.685  29.364  1.00  0.00     0.074 A 
ATOM     51  C   UNL A   1      47.795  29.958  27.560  1.00  0.00     0.029 A 
ATOM     52  N   UNL A   1      45.722  29.293  28.018  1.00  0.00    -0.354 N 
ATOM     53  N   UNL A   1      42.952  29.660  28.924  1.00  0.00    -0.248 NA
ATOM     54  C   UNL A   1      41.301  30.986  29.908  1.00  0.00     0.031 C 
ATOM     55  C   UNL A   1      47.076  31.052  28.047  1.00  0.00     0.029 A 
ATOM     56  C   UNL A   1      45.782  30.641  28.322  1.00  0.00     0.049 A 
ATOM     57  H   UNL A   1      44.924  28.725  28.120  1.00  0.00     0.167 HD
ATOM     58  C   UNL A   1      43.449  30.944  29.106  1.00  0.00     0.074 A 
ATOM     59  C   UNL A   1      42.377  31.730  29.681  1.00  0.00     0.031 C 
ATOM     60  C   UNL A   1      44.689  31.425  28.838  1.00  0.00     0.034 A 
BRANCH  47  61
ATOM     61  C   UNL A   1      48.655  27.207  26.697  1.00  0.00     0.023 A 
ATOM     62  C   UNL A   1      49.521  26.508  27.563  1.00  0.00     0.012 A 
ATOM     63  C   UNL A   1      49.082  27.518  25.391  1.00  0.00     0.148 A 
ATOM     64  C   UNL A   1      50.798  26.142  27.144  1.00  0.00     0.002 A 
ATOM     65  C   UNL A   1      50.341  27.108  24.966  1.00  0.00     0.091 A 
ATOM     66  F   UNL A   1      48.251  28.199  24.591  1.00  0.00    -0.205 F 
ATOM     67  C   UNL A   1      51.203  26.430  25.844  1.00  0.00     0.022 A 
BRANCH  65  68
ATOM     68  S   UNL A   1      50.928  27.355  23.286  1.00  0.00     0.127 S 
ATOM     69  O   UNL A   1      52.205  26.642  23.312  1.00  0.00    -0.237 OA
ATOM     70  O   UNL A   1      49.881  26.703  22.498  1.00  0.00    -0.237 OA
ATOM     71  O   UNL A   1      51.024  28.795  23.099  1.00  0.00    -0.744 OA
ENDBRANCH  65  68
ENDBRANCH  47  61
BRANCH  48  72
ATOM     72  C   UNL A   1      39.300  28.823  29.841  1.00  0.00     0.023 A 
ATOM     73  C   UNL A   1      38.959  28.453  31.157  1.00  0.00     0.012 A 
ATOM     74  C   UNL A   1      38.338  29.465  29.037  1.00  0.00     0.148 A 
ATOM     75  C   UNL A   1      37.678  28.699  31.656  1.00  0.00     0.002 A 
ATOM     76  C   UNL A   1      37.083  29.757  29.559  1.00  0.00     0.091 A 
ATOM     77  F   UNL A   1      38.678  29.798  27.785  1.00  0.00    -0.205 F 
ATOM     78  C   UNL A   1      36.746  29.362  30.864  1.00  0.00     0.022 A 
BRANCH  76  79
ATOM     79  S   UNL A   1      35.869  30.732  28.664  1.00  0.00     0.127 S 
ATOM     80  O   UNL A   1      36.719  31.612  27.866  1.00  0.00    -0.237 OA
ATOM     81  O   UNL A   1      35.158  29.703  27.903  1.00  0.00    -0.237 OA
ATOM     82  O   UNL A   1      35.061  31.388  29.685  1.00  0.00    -0.744 OA
ENDBRANCH  76  79
ENDBRANCH  48  72
BRANCH  60  83
ATOM     83  C   UNL A   1      44.968  32.874  29.132  1.00  0.00     0.023 A 
ATOM     84  C   UNL A   1      45.511  33.238  30.380  1.00  0.00     0.012 A 
ATOM     85  C   UNL A   1      44.817  33.851  28.129  1.00  0.00     0.148 A 
ATOM     86  C   UNL A   1      45.885  34.558  30.630  1.00  0.00     0.002 A 
ATOM     87  C   UNL A   1      45.237  35.154  28.368  1.00  0.00     0.091 A 
ATOM     88  F   UNL A   1      44.284  33.485  26.954  1.00  0.00    -0.205 F 
ATOM     89  C   UNL A   1      45.763  35.511  29.621  1.00  0.00     0.022 A 
BRANCH  87  90
ATOM     90  S   UNL A   1      45.220  36.422  27.096  1.00  0.00     0.127 S 
ATOM     91  O   UNL A   1      45.909  35.750  25.996  1.00  0.00    -0.237 OA
ATOM     92  O   UNL A   1      43.787  36.628  26.883  1.00  0.00    -0.237 OA
ATOM     93  O   UNL A   1      45.919  37.568  27.660  1.00  0.00    -0.744 OA
ENDBRANCH  87  90
ENDBRANCH  60  83
ENDBRANCH  34  35
ENDBRANCH  26  29
ENDBRANCH  24  25
ENDBRANCH  23  24
ENDBRANCH   1  23
TORSDOF 18
ENDMDL
