MODEL 1
REMARK VINA RESULT:     -10.4      0.000      0.000
REMARK SMILES CCCOc1ccccc1C(=O)NCCCCNC(=O)c1ccc(-c2c3nc(c(-c4cccc(S(=O)(=O)[O-])c4F)c4ccc([nH]4)c(-c4cccc(S(=O)(=O)[O-])c4F)c4nc(c(-c5cccc(S(=O)(=O)[O-])c5F)c5ccc2[nH]5)C=C4)C=C3)cc1
REMARK SMILES IDX 15 1 14 2 13 3 11 4 12 5 10 7 5 8 6 9 7 10 9 11 8 12 4 13
REMARK SMILES IDX 3 14 2 15 1 16 16 17 17 18 18 19 19 20 20 22 21 23 22 24
REMARK SMILES IDX 83 25 23 26 82 27 24 28 25 29 26 30 76 31 27 32 81 33 75 34
REMARK SMILES IDX 77 35 28 36 80 37 74 38 73 39 29 41 61 42 41 43 60 44 42 45
REMARK SMILES IDX 45 46 59 47 78 48 43 49 44 50 58 52 79 53 46 54 30 55 31 56
REMARK SMILES IDX 39 57 32 58 34 59 40 60 33 61 35 62 36 63 37 64 38 65 62 66
REMARK SMILES IDX 63 67 71 68 64 69 66 70 72 71 65 72 67 73 68 74 69 75 70 76
REMARK SMILES IDX 47 77 48 78 56 79 49 80 51 81 57 82 50 83 52 84 53 85 54 86
REMARK SMILES IDX 55 87
REMARK H PARENT 13 6 18 21 77 40 45 51
REMARK Flexibility Score: inf
ROOT
ATOM      1  C   UNL A   1      31.232  30.026  25.015  1.00  0.00     0.023 C 
ENDROOT
BRANCH   1   2
ATOM      2  C   UNL A   1      30.366  29.779  23.783  1.00  0.00     0.116 C 
BRANCH   2   3
ATOM      3  N   UNL A   1      29.519  28.605  23.872  1.00  0.00    -0.352 N 
ATOM      4  C   UNL A   1      29.819  27.272  23.699  1.00  0.00     0.255 C 
ATOM      5  O   UNL A   1      28.904  26.454  23.807  1.00  0.00    -0.269 OA
ATOM      6  H   UNL A   1      28.577  28.790  24.089  1.00  0.00     0.163 HD
BRANCH   4   7
ATOM      7  C   UNL A   1      31.172  26.766  23.329  1.00  0.00     0.081 A 
ATOM      8  C   UNL A   1      32.246  26.550  24.200  1.00  0.00     0.132 A 
ATOM      9  C   UNL A   1      33.501  26.182  23.696  1.00  0.00     0.047 A 
ATOM     10  C   UNL A   1      33.667  25.899  22.342  1.00  0.00     0.004 A 
ATOM     11  C   UNL A   1      31.338  26.404  21.976  1.00  0.00     0.018 A 
ATOM     12  C   UNL A   1      32.572  25.968  21.487  1.00  0.00     0.001 A 
BRANCH   8  13
ATOM     13  O   UNL A   1      32.165  26.744  25.546  1.00  0.00    -0.493 OA
BRANCH  13  14
ATOM     14  C   UNL A   1      33.428  26.948  26.197  1.00  0.00     0.229 C 
BRANCH  14  15
ATOM     15  C   UNL A   1      33.473  28.229  27.035  1.00  0.00     0.038 C 
ATOM     16  C   UNL A   1      34.773  29.000  26.872  1.00  0.00     0.007 C 
ENDBRANCH  14  15
ENDBRANCH  13  14
ENDBRANCH   8  13
ENDBRANCH   4   7
ENDBRANCH   2   3
ENDBRANCH   1   2
BRANCH   1  17
ATOM     17  C   UNL A   1      31.005  31.374  25.714  1.00  0.00     0.023 C 
BRANCH  17  18
ATOM     18  C   UNL A   1      31.899  31.691  26.915  1.00  0.00     0.116 C 
BRANCH  18  19
ATOM     19  N   UNL A   1      32.039  33.114  27.195  1.00  0.00    -0.352 N 
ATOM     20  C   UNL A   1      33.041  33.805  27.839  1.00  0.00     0.251 C 
ATOM     21  H   UNL A   1      31.296  33.672  26.870  1.00  0.00     0.163 HD
ATOM     22  O   UNL A   1      32.916  35.007  28.045  1.00  0.00    -0.269 OA
BRANCH  20  23
ATOM     23  C   UNL A   1      34.250  33.100  28.324  1.00  0.00     0.039 A 
ATOM     24  C   UNL A   1      35.504  33.656  28.051  1.00  0.00     0.014 A 
ATOM     25  C   UNL A   1      34.161  31.905  29.040  1.00  0.00     0.014 A 
ATOM     26  C   UNL A   1      36.658  33.071  28.584  1.00  0.00     0.010 A 
ATOM     27  C   UNL A   1      35.304  31.363  29.630  1.00  0.00     0.010 A 
ATOM     28  C   UNL A   1      36.563  31.950  29.425  1.00  0.00    -0.014 A 
BRANCH  28  29
ATOM     29  C   UNL A   1      37.754  31.416  30.143  1.00  0.00     0.031 A 
ATOM     30  C   UNL A   1      38.621  30.356  29.518  1.00  0.00     0.074 A 
ATOM     31  C   UNL A   1      37.998  31.815  31.408  1.00  0.00     0.049 A 
ATOM     32  N   UNL A   1      39.641  29.717  30.031  1.00  0.00    -0.248 NA
ATOM     33  C   UNL A   1      38.285  29.944  28.146  1.00  0.00     0.031 C 
ATOM     34  C   UNL A   1      37.198  32.785  32.159  1.00  0.00     0.029 A 
ATOM     35  N   UNL A   1      38.970  31.431  32.302  1.00  0.00    -0.354 N 
ATOM     36  C   UNL A   1      40.046  28.804  29.065  1.00  0.00     0.074 A 
ATOM     37  C   UNL A   1      39.145  28.956  27.942  1.00  0.00     0.031 C 
ATOM     38  C   UNL A   1      37.707  32.918  33.394  1.00  0.00     0.029 A 
ATOM     39  C   UNL A   1      38.844  32.014  33.541  1.00  0.00     0.049 A 
ATOM     40  H   UNL A   1      39.689  30.796  32.076  1.00  0.00     0.167 HD
ATOM     41  C   UNL A   1      41.085  27.935  29.097  1.00  0.00     0.034 A 
ATOM     42  C   UNL A   1      39.547  31.832  34.678  1.00  0.00     0.034 A 
ATOM     43  C   UNL A   1      42.000  27.805  30.201  1.00  0.00     0.049 A 
ATOM     44  C   UNL A   1      40.702  30.869  34.682  1.00  0.00     0.074 A 
ATOM     45  C   UNL A   1      43.131  27.012  30.290  1.00  0.00     0.029 A 
ATOM     46  N   UNL A   1      41.882  28.469  31.412  1.00  0.00    -0.354 N 
ATOM     47  N   UNL A   1      41.162  30.128  33.705  1.00  0.00    -0.248 NA
ATOM     48  C   UNL A   1      41.458  30.740  35.938  1.00  0.00     0.031 C 
ATOM     49  C   UNL A   1      43.678  27.169  31.567  1.00  0.00     0.029 A 
ATOM     50  C   UNL A   1      42.911  28.092  32.261  1.00  0.00     0.049 A 
ATOM     51  H   UNL A   1      41.173  29.113  31.636  1.00  0.00     0.167 HD
ATOM     52  C   UNL A   1      42.281  29.476  34.213  1.00  0.00     0.074 A 
ATOM     53  C   UNL A   1      42.440  29.924  35.580  1.00  0.00     0.031 C 
ATOM     54  C   UNL A   1      43.096  28.581  33.602  1.00  0.00     0.034 A 
BRANCH  41  55
ATOM     55  C   UNL A   1      41.319  27.074  27.882  1.00  0.00     0.023 A 
ATOM     56  C   UNL A   1      41.992  27.611  26.765  1.00  0.00     0.012 A 
ATOM     57  C   UNL A   1      40.936  25.717  27.870  1.00  0.00     0.148 A 
ATOM     58  C   UNL A   1      42.246  26.825  25.642  1.00  0.00     0.002 A 
ATOM     59  C   UNL A   1      41.235  24.928  26.766  1.00  0.00     0.091 A 
ATOM     60  F   UNL A   1      40.284  25.228  28.934  1.00  0.00    -0.205 F 
ATOM     61  C   UNL A   1      41.877  25.483  25.646  1.00  0.00     0.022 A 
BRANCH  59  62
ATOM     62  S   UNL A   1      40.878  23.169  26.704  1.00  0.00     0.127 S 
ATOM     63  O   UNL A   1      41.738  22.730  25.607  1.00  0.00    -0.237 OA
ATOM     64  O   UNL A   1      41.304  22.721  28.030  1.00  0.00    -0.237 OA
ATOM     65  O   UNL A   1      39.445  23.058  26.456  1.00  0.00    -0.744 OA
ENDBRANCH  59  62
ENDBRANCH  41  55
BRANCH  42  66
ATOM     66  C   UNL A   1      39.204  32.614  35.900  1.00  0.00     0.023 A 
ATOM     67  C   UNL A   1      39.687  33.930  36.039  1.00  0.00     0.012 A 
ATOM     68  C   UNL A   1      38.394  32.070  36.916  1.00  0.00     0.148 A 
ATOM     69  C   UNL A   1      39.400  34.677  37.182  1.00  0.00     0.002 A 
ATOM     70  C   UNL A   1      38.062  32.841  38.024  1.00  0.00     0.091 A 
ATOM     71  F   UNL A   1      37.952  30.813  36.770  1.00  0.00    -0.205 F 
ATOM     72  C   UNL A   1      38.580  34.137  38.170  1.00  0.00     0.022 A 
BRANCH  70  73
ATOM     73  S   UNL A   1      36.911  32.277  39.282  1.00  0.00     0.127 S 
ATOM     74  O   UNL A   1      37.275  33.116  40.420  1.00  0.00    -0.237 OA
ATOM     75  O   UNL A   1      35.620  32.593  38.669  1.00  0.00    -0.237 OA
ATOM     76  O   UNL A   1      37.168  30.851  39.441  1.00  0.00    -0.744 OA
ENDBRANCH  70  73
ENDBRANCH  42  66
BRANCH  54  77
ATOM     77  C   UNL A   1      44.272  28.052  34.383  1.00  0.00     0.023 A 
ATOM     78  C   UNL A   1      45.497  28.749  34.375  1.00  0.00     0.012 A 
ATOM     79  C   UNL A   1      44.134  26.906  35.191  1.00  0.00     0.148 A 
ATOM     80  C   UNL A   1      46.574  28.296  35.138  1.00  0.00     0.002 A 
ATOM     81  C   UNL A   1      45.194  26.491  35.987  1.00  0.00     0.091 A 
ATOM     82  F   UNL A   1      42.966  26.247  35.170  1.00  0.00    -0.205 F 
ATOM     83  C   UNL A   1      46.419  27.177  35.952  1.00  0.00     0.022 A 
BRANCH  81  84
ATOM     84  S   UNL A   1      45.058  25.120  37.142  1.00  0.00     0.127 S 
ATOM     85  O   UNL A   1      46.419  25.037  37.668  1.00  0.00    -0.237 OA
ATOM     86  O   UNL A   1      44.064  25.618  38.095  1.00  0.00    -0.237 OA
ATOM     87  O   UNL A   1      44.622  23.973  36.357  1.00  0.00    -0.744 OA
ENDBRANCH  81  84
ENDBRANCH  54  77
ENDBRANCH  28  29
ENDBRANCH  20  23
ENDBRANCH  18  19
ENDBRANCH  17  18
ENDBRANCH   1  17
TORSDOF 17
ENDMDL
MODEL 2
REMARK VINA RESULT:     -10.3      1.240      8.009
REMARK SMILES CCCOc1ccccc1C(=O)NCCCCNC(=O)c1ccc(-c2c3nc(c(-c4cccc(S(=O)(=O)[O-])c4F)c4ccc([nH]4)c(-c4cccc(S(=O)(=O)[O-])c4F)c4nc(c(-c5cccc(S(=O)(=O)[O-])c5F)c5ccc2[nH]5)C=C4)C=C3)cc1
REMARK SMILES IDX 15 1 14 2 13 3 11 4 12 5 10 7 5 8 6 9 7 10 9 11 8 12 4 13
REMARK SMILES IDX 3 14 2 15 1 16 16 17 17 18 18 19 19 20 20 22 21 23 22 24
REMARK SMILES IDX 83 25 23 26 82 27 24 28 25 29 26 30 76 31 27 32 81 33 75 34
REMARK SMILES IDX 77 35 28 36 80 37 74 38 73 39 29 41 61 42 41 43 60 44 42 45
REMARK SMILES IDX 45 46 59 47 78 48 43 49 44 50 58 52 79 53 46 54 30 55 31 56
REMARK SMILES IDX 39 57 32 58 34 59 40 60 33 61 35 62 36 63 37 64 38 65 62 66
REMARK SMILES IDX 63 67 71 68 64 69 66 70 72 71 65 72 67 73 68 74 69 75 70 76
REMARK SMILES IDX 47 77 48 78 56 79 49 80 51 81 57 82 50 83 52 84 53 85 54 86
REMARK SMILES IDX 55 87
REMARK H PARENT 13 6 18 21 77 40 45 51
REMARK Flexibility Score: inf
ROOT
ATOM      1  C   UNL A   1      31.398  30.387  25.444  1.00  0.00     0.023 C 
ENDROOT
BRANCH   1   2
ATOM      2  C   UNL A   1      32.791  29.765  25.404  1.00  0.00     0.116 C 
BRANCH   2   3
ATOM      3  N   UNL A   1      33.195  29.284  24.096  1.00  0.00    -0.352 N 
ATOM      4  C   UNL A   1      33.327  28.000  23.618  1.00  0.00     0.255 C 
ATOM      5  O   UNL A   1      33.715  27.850  22.459  1.00  0.00    -0.269 OA
ATOM      6  H   UNL A   1      33.412  29.991  23.445  1.00  0.00     0.163 HD
BRANCH   4   7
ATOM      7  C   UNL A   1      33.088  26.778  24.440  1.00  0.00     0.081 A 
ATOM      8  C   UNL A   1      31.890  26.421  25.069  1.00  0.00     0.132 A 
ATOM      9  C   UNL A   1      31.840  25.301  25.910  1.00  0.00     0.047 A 
ATOM     10  C   UNL A   1      32.940  24.454  26.030  1.00  0.00     0.004 A 
ATOM     11  C   UNL A   1      34.166  25.873  24.514  1.00  0.00     0.018 A 
ATOM     12  C   UNL A   1      34.093  24.718  25.296  1.00  0.00     0.001 A 
BRANCH   8  13
ATOM     13  O   UNL A   1      30.745  27.152  24.965  1.00  0.00    -0.493 OA
BRANCH  13  14
ATOM     14  C   UNL A   1      29.937  26.839  23.821  1.00  0.00     0.229 C 
BRANCH  14  15
ATOM     15  C   UNL A   1      29.791  28.013  22.848  1.00  0.00     0.038 C 
ATOM     16  C   UNL A   1      28.476  28.759  23.011  1.00  0.00     0.007 C 
ENDBRANCH  14  15
ENDBRANCH  13  14
ENDBRANCH   8  13
ENDBRANCH   4   7
ENDBRANCH   2   3
ENDBRANCH   1   2
BRANCH   1  17
ATOM     17  C   UNL A   1      31.303  31.732  26.180  1.00  0.00     0.023 C 
BRANCH  17  18
ATOM     18  C   UNL A   1      32.323  31.985  27.293  1.00  0.00     0.116 C 
BRANCH  18  19
ATOM     19  N   UNL A   1      32.744  33.374  27.409  1.00  0.00    -0.352 N 
ATOM     20  C   UNL A   1      33.913  33.917  27.893  1.00  0.00     0.251 C 
ATOM     21  H   UNL A   1      32.086  34.033  27.089  1.00  0.00     0.163 HD
ATOM     22  O   UNL A   1      34.029  35.135  27.981  1.00  0.00    -0.269 OA
BRANCH  20  23
ATOM     23  C   UNL A   1      35.018  33.041  28.350  1.00  0.00     0.039 A 
ATOM     24  C   UNL A   1      36.333  33.499  28.222  1.00  0.00     0.014 A 
ATOM     25  C   UNL A   1      34.771  31.782  28.900  1.00  0.00     0.014 A 
ATOM     26  C   UNL A   1      37.389  32.741  28.738  1.00  0.00     0.010 A 
ATOM     27  C   UNL A   1      35.817  31.061  29.478  1.00  0.00     0.010 A 
ATOM     28  C   UNL A   1      37.136  31.540  29.421  1.00  0.00    -0.014 A 
BRANCH  28  29
ATOM     29  C   UNL A   1      38.222  30.807  30.129  1.00  0.00     0.031 A 
ATOM     30  C   UNL A   1      38.577  31.141  31.553  1.00  0.00     0.074 A 
ATOM     31  C   UNL A   1      38.960  29.903  29.452  1.00  0.00     0.049 A 
ATOM     32  N   UNL A   1      39.547  30.667  32.293  1.00  0.00    -0.248 NA
ATOM     33  C   UNL A   1      37.751  32.154  32.226  1.00  0.00     0.031 C 
ATOM     34  C   UNL A   1      38.768  29.534  28.049  1.00  0.00     0.029 A 
ATOM     35  N   UNL A   1      40.045  29.154  29.843  1.00  0.00    -0.354 N 
ATOM     36  C   UNL A   1      39.472  31.348  33.502  1.00  0.00     0.074 A 
ATOM     37  C   UNL A   1      38.376  32.286  33.387  1.00  0.00     0.031 C 
ATOM     38  C   UNL A   1      39.700  28.634  27.696  1.00  0.00     0.029 A 
ATOM     39  C   UNL A   1      40.583  28.390  28.832  1.00  0.00     0.049 A 
ATOM     40  H   UNL A   1      40.404  29.163  30.761  1.00  0.00     0.167 HD
ATOM     41  C   UNL A   1      40.230  31.193  34.615  1.00  0.00     0.034 A 
ATOM     42  C   UNL A   1      41.674  27.599  28.810  1.00  0.00     0.034 A 
ATOM     43  C   UNL A   1      41.300  30.239  34.740  1.00  0.00     0.049 A 
ATOM     44  C   UNL A   1      42.492  27.436  30.063  1.00  0.00     0.074 A 
ATOM     45  C   UNL A   1      42.068  29.951  35.855  1.00  0.00     0.029 A 
ATOM     46  N   UNL A   1      41.767  29.430  33.716  1.00  0.00    -0.354 N 
ATOM     47  N   UNL A   1      42.309  27.976  31.242  1.00  0.00    -0.248 NA
ATOM     48  C   UNL A   1      43.648  26.530  29.991  1.00  0.00     0.031 C 
ATOM     49  C   UNL A   1      43.023  28.995  35.497  1.00  0.00     0.029 A 
ATOM     50  C   UNL A   1      42.824  28.655  34.168  1.00  0.00     0.049 A 
ATOM     51  H   UNL A   1      41.402  29.409  32.802  1.00  0.00     0.167 HD
ATOM     52  C   UNL A   1      43.300  27.445  32.062  1.00  0.00     0.074 A 
ATOM     53  C   UNL A   1      44.069  26.528  31.249  1.00  0.00     0.031 C 
ATOM     54  C   UNL A   1      43.552  27.704  33.369  1.00  0.00     0.034 A 
BRANCH  41  55
ATOM     55  C   UNL A   1      39.906  32.050  35.812  1.00  0.00     0.023 A 
ATOM     56  C   UNL A   1      40.628  33.241  36.034  1.00  0.00     0.012 A 
ATOM     57  C   UNL A   1      38.843  31.717  36.676  1.00  0.00     0.148 A 
ATOM     58  C   UNL A   1      40.326  34.065  37.117  1.00  0.00     0.002 A 
ATOM     59  C   UNL A   1      38.516  32.568  37.725  1.00  0.00     0.091 A 
ATOM     60  F   UNL A   1      38.177  30.574  36.459  1.00  0.00    -0.205 F 
ATOM     61  C   UNL A   1      39.265  33.735  37.955  1.00  0.00     0.022 A 
BRANCH  59  62
ATOM     62  S   UNL A   1      37.117  32.277  38.813  1.00  0.00     0.127 S 
ATOM     63  O   UNL A   1      37.545  32.956  40.034  1.00  0.00    -0.237 OA
ATOM     64  O   UNL A   1      36.027  32.939  38.097  1.00  0.00    -0.237 OA
ATOM     65  O   UNL A   1      36.985  30.829  38.919  1.00  0.00    -0.744 OA
ENDBRANCH  59  62
ENDBRANCH  41  55
BRANCH  42  66
ATOM     66  C   UNL A   1      42.036  26.862  27.565  1.00  0.00     0.023 A 
ATOM     67  C   UNL A   1      42.594  27.566  26.481  1.00  0.00     0.012 A 
ATOM     68  C   UNL A   1      41.845  25.471  27.455  1.00  0.00     0.148 A 
ATOM     69  C   UNL A   1      42.923  26.905  25.296  1.00  0.00     0.002 A 
ATOM     70  C   UNL A   1      42.229  24.809  26.294  1.00  0.00     0.091 A 
ATOM     71  F   UNL A   1      41.303  24.820  28.494  1.00  0.00    -0.205 F 
ATOM     72  C   UNL A   1      42.749  25.527  25.206  1.00  0.00     0.022 A 
BRANCH  70  73
ATOM     73  S   UNL A   1      42.163  23.021  26.136  1.00  0.00     0.127 S 
ATOM     74  O   UNL A   1      42.762  22.814  24.820  1.00  0.00    -0.237 OA
ATOM     75  O   UNL A   1      42.989  22.591  27.265  1.00  0.00    -0.237 OA
ATOM     76  O   UNL A   1      40.754  22.667  26.253  1.00  0.00    -0.744 OA
ENDBRANCH  70  73
ENDBRANCH  42  66
BRANCH  54  77
ATOM     77  C   UNL A   1      44.679  26.953  34.031  1.00  0.00     0.023 A 
ATOM     78  C   UNL A   1      46.005  27.412  33.903  1.00  0.00     0.012 A 
ATOM     79  C   UNL A   1      44.409  25.838  34.850  1.00  0.00     0.148 A 
ATOM     80  C   UNL A   1      47.049  26.755  34.557  1.00  0.00     0.002 A 
ATOM     81  C   UNL A   1      45.446  25.222  35.539  1.00  0.00     0.091 A 
ATOM     82  F   UNL A   1      43.143  25.407  34.945  1.00  0.00    -0.205 F 
ATOM     83  C   UNL A   1      46.768  25.670  35.384  1.00  0.00     0.022 A 
BRANCH  81  84
ATOM     84  S   UNL A   1      45.170  23.880  36.703  1.00  0.00     0.127 S 
ATOM     85  O   UNL A   1      44.639  22.834  35.831  1.00  0.00    -0.237 OA
ATOM     86  O   UNL A   1      46.520  23.627  37.207  1.00  0.00    -0.237 OA
ATOM     87  O   UNL A   1      44.238  24.394  37.697  1.00  0.00    -0.744 OA
ENDBRANCH  81  84
ENDBRANCH  54  77
ENDBRANCH  28  29
ENDBRANCH  20  23
ENDBRANCH  18  19
ENDBRANCH  17  18
ENDBRANCH   1  17
TORSDOF 17
ENDMDL
MODEL 3
REMARK VINA RESULT:     -10.3      1.883      2.535
REMARK SMILES CCCOc1ccccc1C(=O)NCCCCNC(=O)c1ccc(-c2c3nc(c(-c4cccc(S(=O)(=O)[O-])c4F)c4ccc([nH]4)c(-c4cccc(S(=O)(=O)[O-])c4F)c4nc(c(-c5cccc(S(=O)(=O)[O-])c5F)c5ccc2[nH]5)C=C4)C=C3)cc1
REMARK SMILES IDX 15 1 14 2 13 3 11 4 12 5 10 7 5 8 6 9 7 10 9 11 8 12 4 13
REMARK SMILES IDX 3 14 2 15 1 16 16 17 17 18 18 19 19 20 20 22 21 23 22 24
REMARK SMILES IDX 83 25 23 26 82 27 24 28 25 29 26 30 76 31 27 32 81 33 75 34
REMARK SMILES IDX 77 35 28 36 80 37 74 38 73 39 29 41 61 42 41 43 60 44 42 45
REMARK SMILES IDX 45 46 59 47 78 48 43 49 44 50 58 52 79 53 46 54 30 55 31 56
REMARK SMILES IDX 39 57 32 58 34 59 40 60 33 61 35 62 36 63 37 64 38 65 62 66
REMARK SMILES IDX 63 67 71 68 64 69 66 70 72 71 65 72 67 73 68 74 69 75 70 76
REMARK SMILES IDX 47 77 48 78 56 79 49 80 51 81 57 82 50 83 52 84 53 85 54 86
REMARK SMILES IDX 55 87
REMARK H PARENT 13 6 18 21 77 40 45 51
REMARK Flexibility Score: inf
ROOT
ATOM      1  C   UNL A   1      32.902  28.988  23.797  1.00  0.00     0.023 C 
ENDROOT
BRANCH   1   2
ATOM      2  C   UNL A   1      33.980  28.686  22.760  1.00  0.00     0.116 C 
BRANCH   2   3
ATOM      3  N   UNL A   1      33.653  27.600  21.855  1.00  0.00    -0.352 N 
ATOM      4  C   UNL A   1      33.283  26.300  22.117  1.00  0.00     0.255 C 
ATOM      5  O   UNL A   1      33.078  25.552  21.160  1.00  0.00    -0.269 OA
ATOM      6  H   UNL A   1      33.706  27.829  20.899  1.00  0.00     0.163 HD
BRANCH   4   7
ATOM      7  C   UNL A   1      33.176  25.727  23.490  1.00  0.00     0.081 A 
ATOM      8  C   UNL A   1      31.994  25.485  24.200  1.00  0.00     0.132 A 
ATOM      9  C   UNL A   1      32.046  25.051  25.532  1.00  0.00     0.047 A 
ATOM     10  C   UNL A   1      33.264  24.729  26.126  1.00  0.00     0.004 A 
ATOM     11  C   UNL A   1      34.392  25.327  24.080  1.00  0.00     0.018 A 
ATOM     12  C   UNL A   1      34.437  24.826  25.384  1.00  0.00     0.001 A 
BRANCH   8  13
ATOM     13  O   UNL A   1      30.754  25.713  23.685  1.00  0.00    -0.493 OA
BRANCH  13  14
ATOM     14  C   UNL A   1      29.982  26.691  24.396  1.00  0.00     0.229 C 
BRANCH  14  15
ATOM     15  C   UNL A   1      28.994  27.446  23.501  1.00  0.00     0.038 C 
ATOM     16  C   UNL A   1      29.659  28.524  22.659  1.00  0.00     0.007 C 
ENDBRANCH  14  15
ENDBRANCH  13  14
ENDBRANCH   8  13
ENDBRANCH   4   7
ENDBRANCH   2   3
ENDBRANCH   1   2
BRANCH   1  17
ATOM     17  C   UNL A   1      33.397  29.073  25.249  1.00  0.00     0.023 C 
BRANCH  17  18
ATOM     18  C   UNL A   1      32.354  29.408  26.318  1.00  0.00     0.116 C 
BRANCH  18  19
ATOM     19  N   UNL A   1      32.193  30.833  26.567  1.00  0.00    -0.352 N 
ATOM     20  C   UNL A   1      33.024  31.730  27.200  1.00  0.00     0.251 C 
ATOM     21  H   UNL A   1      31.353  31.219  26.227  1.00  0.00     0.163 HD
ATOM     22  O   UNL A   1      32.651  32.885  27.379  1.00  0.00    -0.269 OA
BRANCH  20  23
ATOM     23  C   UNL A   1      34.349  31.302  27.706  1.00  0.00     0.039 A 
ATOM     24  C   UNL A   1      35.375  32.250  27.782  1.00  0.00     0.014 A 
ATOM     25  C   UNL A   1      34.589  29.985  28.102  1.00  0.00     0.014 A 
ATOM     26  C   UNL A   1      36.605  31.902  28.352  1.00  0.00     0.010 A 
ATOM     27  C   UNL A   1      35.789  29.659  28.735  1.00  0.00     0.010 A 
ATOM     28  C   UNL A   1      36.804  30.618  28.884  1.00  0.00    -0.014 A 
BRANCH  28  29
ATOM     29  C   UNL A   1      38.037  30.278  29.649  1.00  0.00     0.031 A 
ATOM     30  C   UNL A   1      39.032  29.287  29.108  1.00  0.00     0.074 A 
ATOM     31  C   UNL A   1      38.210  30.789  30.885  1.00  0.00     0.049 A 
ATOM     32  N   UNL A   1      40.110  28.809  29.675  1.00  0.00    -0.248 NA
ATOM     33  C   UNL A   1      38.771  28.746  27.765  1.00  0.00     0.031 C 
ATOM     34  C   UNL A   1      37.289  31.707  31.559  1.00  0.00     0.029 A 
ATOM     35  N   UNL A   1      39.205  30.583  31.813  1.00  0.00    -0.354 N 
ATOM     36  C   UNL A   1      40.636  27.886  28.778  1.00  0.00     0.074 A 
ATOM     37  C   UNL A   1      39.744  27.853  27.639  1.00  0.00     0.031 C 
ATOM     38  C   UNL A   1      37.757  31.983  32.786  1.00  0.00     0.029 A 
ATOM     39  C   UNL A   1      38.989  31.232  33.007  1.00  0.00     0.049 A 
ATOM     40  H   UNL A   1      39.996  30.023  31.639  1.00  0.00     0.167 HD
ATOM     41  C   UNL A   1      41.769  27.149  28.881  1.00  0.00     0.034 A 
ATOM     42  C   UNL A   1      39.688  31.212  34.160  1.00  0.00     0.034 A 
ATOM     43  C   UNL A   1      42.673  27.204  30.000  1.00  0.00     0.049 A 
ATOM     44  C   UNL A   1      40.948  30.393  34.243  1.00  0.00     0.074 A 
ATOM     45  C   UNL A   1      43.887  26.557  30.155  1.00  0.00     0.029 A 
ATOM     46  N   UNL A   1      42.457  27.930  31.160  1.00  0.00    -0.354 N 
ATOM     47  N   UNL A   1      41.508  29.646  33.324  1.00  0.00    -0.248 NA
ATOM     48  C   UNL A   1      41.691  30.441  35.512  1.00  0.00     0.031 C 
ATOM     49  C   UNL A   1      44.389  26.865  31.423  1.00  0.00     0.029 A 
ATOM     50  C   UNL A   1      43.508  27.736  32.043  1.00  0.00     0.049 A 
ATOM     51  H   UNL A   1      41.674  28.501  31.332  1.00  0.00     0.167 HD
ATOM     52  C   UNL A   1      42.686  29.167  33.888  1.00  0.00     0.074 A 
ATOM     53  C   UNL A   1      42.768  29.723  35.221  1.00  0.00     0.031 C 
ATOM     54  C   UNL A   1      43.610  28.334  33.349  1.00  0.00     0.034 A 
BRANCH  41  55
ATOM     55  C   UNL A   1      42.123  26.241  27.731  1.00  0.00     0.023 A 
ATOM     56  C   UNL A   1      42.961  26.713  26.701  1.00  0.00     0.012 A 
ATOM     57  C   UNL A   1      41.685  24.901  27.705  1.00  0.00     0.148 A 
ATOM     58  C   UNL A   1      43.326  25.882  25.643  1.00  0.00     0.002 A 
ATOM     59  C   UNL A   1      42.093  24.064  26.672  1.00  0.00     0.091 A 
ATOM     60  F   UNL A   1      40.877  24.473  28.685  1.00  0.00    -0.205 F 
ATOM     61  C   UNL A   1      42.901  24.556  25.634  1.00  0.00     0.022 A 
BRANCH  59  62
ATOM     62  S   UNL A   1      41.669  22.320  26.610  1.00  0.00     0.127 S 
ATOM     63  O   UNL A   1      42.326  21.899  25.375  1.00  0.00    -0.237 OA
ATOM     64  O   UNL A   1      42.286  21.810  27.834  1.00  0.00    -0.237 OA
ATOM     65  O   UNL A   1      40.212  22.261  26.593  1.00  0.00    -0.744 OA
ENDBRANCH  59  62
ENDBRANCH  41  55
BRANCH  42  66
ATOM     66  C   UNL A   1      39.235  32.029  35.322  1.00  0.00     0.023 A 
ATOM     67  C   UNL A   1      38.318  31.480  36.240  1.00  0.00     0.012 A 
ATOM     68  C   UNL A   1      39.715  33.337  35.531  1.00  0.00     0.148 A 
ATOM     69  C   UNL A   1      37.861  32.230  37.324  1.00  0.00     0.002 A 
ATOM     70  C   UNL A   1      39.301  34.056  36.645  1.00  0.00     0.091 A 
ATOM     71  F   UNL A   1      40.579  33.845  34.641  1.00  0.00    -0.205 F 
ATOM     72  C   UNL A   1      38.359  33.513  37.533  1.00  0.00     0.022 A 
BRANCH  70  73
ATOM     73  S   UNL A   1      39.984  35.664  37.065  1.00  0.00     0.127 S 
ATOM     74  O   UNL A   1      41.402  35.355  37.223  1.00  0.00    -0.237 OA
ATOM     75  O   UNL A   1      39.651  36.449  35.875  1.00  0.00    -0.237 OA
ATOM     76  O   UNL A   1      39.289  36.083  38.275  1.00  0.00    -0.744 OA
ENDBRANCH  70  73
ENDBRANCH  42  66
BRANCH  54  77
ATOM     77  C   UNL A   1      44.827  28.002  34.176  1.00  0.00     0.023 A 
ATOM     78  C   UNL A   1      45.950  28.852  34.154  1.00  0.00     0.012 A 
ATOM     79  C   UNL A   1      44.819  26.887  35.038  1.00  0.00     0.148 A 
ATOM     80  C   UNL A   1      47.059  28.581  34.958  1.00  0.00     0.002 A 
ATOM     81  C   UNL A   1      45.905  26.654  35.873  1.00  0.00     0.091 A 
ATOM     82  F   UNL A   1      43.748  26.081  35.031  1.00  0.00    -0.205 F 
ATOM     83  C   UNL A   1      47.031  27.492  35.825  1.00  0.00     0.022 A 
BRANCH  81  84
ATOM     84  S   UNL A   1      45.920  25.334  37.093  1.00  0.00     0.127 S 
ATOM     85  O   UNL A   1      46.256  24.173  36.271  1.00  0.00    -0.237 OA
ATOM     86  O   UNL A   1      46.982  25.767  38.002  1.00  0.00    -0.237 OA
ATOM     87  O   UNL A   1      44.588  25.314  37.683  1.00  0.00    -0.744 OA
ENDBRANCH  81  84
ENDBRANCH  54  77
ENDBRANCH  28  29
ENDBRANCH  20  23
ENDBRANCH  18  19
ENDBRANCH  17  18
ENDBRANCH   1  17
TORSDOF 17
ENDMDL
