MODEL 1
REMARK VINA RESULT:     -11.5      0.000      0.000
REMARK SMILES COc1cc([C@@H]2CC[NH2+][C@@H]2C(=O)NCCCCNC(=O)c2ccc(-c3c4nc(c(-c5cccc(S(=O)(=O)[O-])c5F)c5ccc([nH]5)c(-c5cccc(S(=O)(=O)[O-])c5F)c5nc(c(-c6cccc(S(=O)(=O)[O-])c6F)c6ccc3[nH]6)C=C5)C=C4)cc2)cc(OC)c1OC
REMARK SMILES IDX 16 1 15 2 14 3 13 4 11 5 12 6 10 8 6 9 7 10 8 11 9 12 5 15
REMARK SMILES IDX 3 16 4 17 88 18 85 19 84 20 2 21 1 22 89 23 90 24 86 25
REMARK SMILES IDX 87 26 17 27 18 28 19 29 20 31 21 32 22 33 83 34 23 35 82 36
REMARK SMILES IDX 24 37 25 38 26 39 76 40 27 41 81 42 75 43 77 44 28 45 80 46
REMARK SMILES IDX 74 47 73 48 29 50 61 51 41 52 60 53 42 54 45 55 59 56 78 57
REMARK SMILES IDX 43 58 44 59 58 61 79 62 46 63 30 64 31 65 39 66 32 67 34 68
REMARK SMILES IDX 40 69 33 70 35 71 36 72 37 73 38 74 62 75 63 76 71 77 64 78
REMARK SMILES IDX 66 79 72 80 65 81 67 82 68 83 69 84 70 85 47 86 48 87 56 88
REMARK SMILES IDX 49 89 51 90 57 91 50 92 52 93 53 94 54 95 55 96
REMARK H PARENT 13 7 9 13 9 14 18 30 77 49 45 60
REMARK Flexibility Score: inf
ROOT
ATOM      1  C   UNL A   1      35.419  21.846  26.442  1.00  0.00     0.023 C 
ENDROOT
BRANCH   1   2
ATOM      2  C   UNL A   1      34.029  22.117  25.864  1.00  0.00     0.023 C 
BRANCH   2   3
ATOM      3  C   UNL A   1      33.492  23.522  26.127  1.00  0.00     0.116 C 
BRANCH   3   4
ATOM      4  N   UNL A   1      32.206  23.743  25.492  1.00  0.00    -0.351 N 
ATOM      5  C   UNL A   1      31.855  24.201  24.261  1.00  0.00     0.278 C 
ATOM      6  O   UNL A   1      30.641  24.232  24.014  1.00  0.00    -0.268 OA
ATOM      7  H   UNL A   1      31.438  23.516  26.065  1.00  0.00     0.163 HD
BRANCH   5   8
ATOM      8  C   UNL A   1      32.835  24.653  23.167  1.00  0.00     0.280 C 
ATOM      9  C   UNL A   1      33.486  26.042  23.353  1.00  0.00     0.093 C 
ATOM     10  C   UNL A   1      33.545  26.592  21.923  1.00  0.00     0.076 C 
ATOM     11  C   UNL A   1      32.407  25.902  21.205  1.00  0.00     0.262 C 
ATOM     12  N   UNL A   1      32.365  24.546  21.758  1.00  0.00    -0.335 N 
ATOM     13  H   UNL A   1      32.981  23.930  21.228  1.00  0.00     0.346 HD
ATOM     14  H   UNL A   1      31.425  24.156  21.710  1.00  0.00     0.346 HD
BRANCH   9  15
ATOM     15  C   UNL A   1      32.876  27.058  24.303  1.00  0.00    -0.031 A 
ATOM     16  C   UNL A   1      33.009  28.295  26.410  1.00  0.00     0.164 A 
ATOM     17  C   UNL A   1      33.470  27.282  25.551  1.00  0.00     0.055 A 
ATOM     18  C   UNL A   1      31.944  29.134  26.033  1.00  0.00     0.203 A 
ATOM     19  C   UNL A   1      31.313  28.885  24.801  1.00  0.00     0.164 A 
ATOM     20  C   UNL A   1      31.792  27.867  23.954  1.00  0.00     0.055 A 
BRANCH  16  21
ATOM     21  O   UNL A   1      33.726  28.521  27.559  1.00  0.00    -0.493 OA
ATOM     22  C   UNL A   1      34.996  29.113  27.275  1.00  0.00     0.278 C 
ENDBRANCH  16  21
BRANCH  18  23
ATOM     23  O   UNL A   1      31.530  30.240  26.726  1.00  0.00    -0.490 OA
ATOM     24  C   UNL A   1      32.286  31.438  26.640  1.00  0.00     0.278 C 
ENDBRANCH  18  23
BRANCH  19  25
ATOM     25  O   UNL A   1      30.254  29.556  24.236  1.00  0.00    -0.493 OA
ATOM     26  C   UNL A   1      29.764  29.111  22.979  1.00  0.00     0.278 C 
ENDBRANCH  19  25
ENDBRANCH   9  15
ENDBRANCH   5   8
ENDBRANCH   3   4
ENDBRANCH   2   3
ENDBRANCH   1   2
BRANCH   1  27
ATOM     27  C   UNL A   1      36.582  22.032  25.471  1.00  0.00     0.116 C 
BRANCH  27  28
ATOM     28  N   UNL A   1      37.600  20.995  25.581  1.00  0.00    -0.352 N 
ATOM     29  C   UNL A   1      38.900  21.108  26.014  1.00  0.00     0.251 C 
ATOM     30  H   UNL A   1      37.319  20.092  25.309  1.00  0.00     0.163 HD
ATOM     31  O   UNL A   1      39.662  20.146  25.946  1.00  0.00    -0.269 OA
BRANCH  29  32
ATOM     32  C   UNL A   1      39.385  22.405  26.527  1.00  0.00     0.039 A 
ATOM     33  C   UNL A   1      40.526  22.431  27.332  1.00  0.00     0.014 A 
ATOM     34  C   UNL A   1      38.741  23.594  26.175  1.00  0.00     0.014 A 
ATOM     35  C   UNL A   1      41.069  23.659  27.719  1.00  0.00     0.010 A 
ATOM     36  C   UNL A   1      39.322  24.814  26.504  1.00  0.00     0.010 A 
ATOM     37  C   UNL A   1      40.494  24.861  27.276  1.00  0.00    -0.014 A 
BRANCH  37  38
ATOM     38  C   UNL A   1      41.114  26.176  27.580  1.00  0.00     0.031 A 
ATOM     39  C   UNL A   1      42.528  26.463  27.151  1.00  0.00     0.074 A 
ATOM     40  C   UNL A   1      40.444  27.068  28.340  1.00  0.00     0.049 A 
ATOM     41  N   UNL A   1      43.259  27.521  27.386  1.00  0.00    -0.248 NA
ATOM     42  C   UNL A   1      43.221  25.414  26.385  1.00  0.00     0.031 C 
ATOM     43  C   UNL A   1      39.103  26.869  28.896  1.00  0.00     0.029 A 
ATOM     44  N   UNL A   1      40.812  28.307  28.803  1.00  0.00    -0.354 N 
ATOM     45  C   UNL A   1      44.510  27.246  26.845  1.00  0.00     0.074 A 
ATOM     46  C   UNL A   1      44.445  25.915  26.285  1.00  0.00     0.031 C 
ATOM     47  C   UNL A   1      38.764  27.946  29.623  1.00  0.00     0.029 A 
ATOM     48  C   UNL A   1      39.867  28.901  29.607  1.00  0.00     0.049 A 
ATOM     49  H   UNL A   1      41.673  28.730  28.579  1.00  0.00     0.167 HD
ATOM     50  C   UNL A   1      45.604  28.042  26.795  1.00  0.00     0.034 A 
ATOM     51  C   UNL A   1      39.889  30.080  30.260  1.00  0.00     0.034 A 
ATOM     52  C   UNL A   1      45.641  29.392  27.283  1.00  0.00     0.049 A 
ATOM     53  C   UNL A   1      41.095  30.971  30.120  1.00  0.00     0.074 A 
ATOM     54  C   UNL A   1      46.657  30.323  27.158  1.00  0.00     0.029 A 
ATOM     55  N   UNL A   1      44.622  30.004  27.994  1.00  0.00    -0.354 N 
ATOM     56  N   UNL A   1      42.192  30.772  29.431  1.00  0.00    -0.248 NA
ATOM     57  C   UNL A   1      41.050  32.267  30.815  1.00  0.00     0.031 C 
ATOM     58  C   UNL A   1      46.259  31.494  27.810  1.00  0.00     0.029 A 
ATOM     59  C   UNL A   1      44.988  31.297  28.326  1.00  0.00     0.049 A 
ATOM     60  H   UNL A   1      43.764  29.583  28.228  1.00  0.00     0.167 HD
ATOM     61  C   UNL A   1      42.948  31.930  29.576  1.00  0.00     0.074 A 
ATOM     62  C   UNL A   1      42.174  32.835  30.401  1.00  0.00     0.031 C 
ATOM     63  C   UNL A   1      44.180  32.212  29.086  1.00  0.00     0.034 A 
BRANCH  50  64
ATOM     64  C   UNL A   1      46.842  27.501  26.131  1.00  0.00     0.023 A 
ATOM     65  C   UNL A   1      47.662  26.591  26.828  1.00  0.00     0.012 A 
ATOM     66  C   UNL A   1      47.143  27.821  24.793  1.00  0.00     0.148 A 
ATOM     67  C   UNL A   1      48.777  26.024  26.211  1.00  0.00     0.002 A 
ATOM     68  C   UNL A   1      48.232  27.221  24.171  1.00  0.00     0.091 A 
ATOM     69  F   UNL A   1      46.362  28.704  24.155  1.00  0.00    -0.205 F 
ATOM     70  C   UNL A   1      49.054  26.329  24.881  1.00  0.00     0.022 A 
BRANCH  68  71
ATOM     71  S   UNL A   1      48.630  27.487  22.440  1.00  0.00     0.127 S 
ATOM     72  O   UNL A   1      48.681  26.116  21.934  1.00  0.00    -0.237 OA
ATOM     73  O   UNL A   1      47.479  28.264  21.976  1.00  0.00    -0.237 OA
ATOM     74  O   UNL A   1      49.895  28.206  22.423  1.00  0.00    -0.744 OA
ENDBRANCH  68  71
ENDBRANCH  50  64
BRANCH  51  75
ATOM     75  C   UNL A   1      38.703  30.529  31.045  1.00  0.00     0.023 A 
ATOM     76  C   UNL A   1      38.643  30.244  32.423  1.00  0.00     0.012 A 
ATOM     77  C   UNL A   1      37.642  31.232  30.444  1.00  0.00     0.148 A 
ATOM     78  C   UNL A   1      37.532  30.613  33.181  1.00  0.00     0.002 A 
ATOM     79  C   UNL A   1      36.561  31.645  31.217  1.00  0.00     0.091 A 
ATOM     80  F   UNL A   1      37.704  31.482  29.129  1.00  0.00    -0.205 F 
ATOM     81  C   UNL A   1      36.495  31.321  32.581  1.00  0.00     0.022 A 
BRANCH  79  82
ATOM     82  S   UNL A   1      35.249  32.671  30.544  1.00  0.00     0.127 S 
ATOM     83  O   UNL A   1      34.798  31.876  29.406  1.00  0.00    -0.237 OA
ATOM     84  O   UNL A   1      34.304  32.738  31.661  1.00  0.00    -0.237 OA
ATOM     85  O   UNL A   1      35.883  33.944  30.227  1.00  0.00    -0.744 OA
ENDBRANCH  79  82
ENDBRANCH  51  75
BRANCH  63  86
ATOM     86  C   UNL A   1      44.761  33.568  29.387  1.00  0.00     0.023 A 
ATOM     87  C   UNL A   1      45.501  33.765  30.569  1.00  0.00     0.012 A 
ATOM     88  C   UNL A   1      44.646  34.621  28.458  1.00  0.00     0.148 A 
ATOM     89  C   UNL A   1      46.093  34.998  30.837  1.00  0.00     0.002 A 
ATOM     90  C   UNL A   1      45.279  35.833  28.709  1.00  0.00     0.091 A 
ATOM     91  F   UNL A   1      43.921  34.421  27.348  1.00  0.00    -0.205 F 
ATOM     92  C   UNL A   1      45.994  36.026  29.903  1.00  0.00     0.022 A 
BRANCH  90  93
ATOM     93  S   UNL A   1      45.286  37.176  27.516  1.00  0.00     0.127 S 
ATOM     94  O   UNL A   1      46.030  38.209  28.234  1.00  0.00    -0.237 OA
ATOM     95  O   UNL A   1      45.999  36.586  26.383  1.00  0.00    -0.237 OA
ATOM     96  O   UNL A   1      43.886  37.480  27.251  1.00  0.00    -0.744 OA
ENDBRANCH  90  93
ENDBRANCH  63  86
ENDBRANCH  37  38
ENDBRANCH  29  32
ENDBRANCH  27  28
ENDBRANCH   1  27
TORSDOF 18
ENDMDL
MODEL 2
REMARK VINA RESULT:     -11.4      5.084     10.275
REMARK SMILES COc1cc([C@@H]2CC[NH2+][C@@H]2C(=O)NCCCCNC(=O)c2ccc(-c3c4nc(c(-c5cccc(S(=O)(=O)[O-])c5F)c5ccc([nH]5)c(-c5cccc(S(=O)(=O)[O-])c5F)c5nc(c(-c6cccc(S(=O)(=O)[O-])c6F)c6ccc3[nH]6)C=C5)C=C4)cc2)cc(OC)c1OC
REMARK SMILES IDX 16 1 15 2 14 3 13 4 11 5 12 6 10 8 6 9 7 10 8 11 9 12 5 15
REMARK SMILES IDX 3 16 4 17 88 18 85 19 84 20 2 21 1 22 89 23 90 24 86 25
REMARK SMILES IDX 87 26 17 27 18 28 19 29 20 31 21 32 22 33 83 34 23 35 82 36
REMARK SMILES IDX 24 37 25 38 26 39 76 40 27 41 81 42 75 43 77 44 28 45 80 46
REMARK SMILES IDX 74 47 73 48 29 50 61 51 41 52 60 53 42 54 45 55 59 56 78 57
REMARK SMILES IDX 43 58 44 59 58 61 79 62 46 63 30 64 31 65 39 66 32 67 34 68
REMARK SMILES IDX 40 69 33 70 35 71 36 72 37 73 38 74 62 75 63 76 71 77 64 78
REMARK SMILES IDX 66 79 72 80 65 81 67 82 68 83 69 84 70 85 47 86 48 87 56 88
REMARK SMILES IDX 49 89 51 90 57 91 50 92 52 93 53 94 54 95 55 96
REMARK H PARENT 13 7 9 13 9 14 18 30 77 49 45 60
REMARK Flexibility Score: inf
ROOT
ATOM      1  C   UNL A   1      31.740  29.747  26.736  1.00  0.00     0.023 C 
ENDROOT
BRANCH   1   2
ATOM      2  C   UNL A   1      32.057  28.486  27.542  1.00  0.00     0.023 C 
BRANCH   2   3
ATOM      3  C   UNL A   1      32.192  27.214  26.708  1.00  0.00     0.116 C 
BRANCH   3   4
ATOM      4  N   UNL A   1      31.031  26.353  26.832  1.00  0.00    -0.351 N 
ATOM      5  C   UNL A   1      30.124  25.898  25.927  1.00  0.00     0.278 C 
ATOM      6  O   UNL A   1      29.255  25.127  26.362  1.00  0.00    -0.268 OA
ATOM      7  H   UNL A   1      30.868  26.037  27.750  1.00  0.00     0.163 HD
BRANCH   5   8
ATOM      8  C   UNL A   1      30.109  26.243  24.430  1.00  0.00     0.280 C 
ATOM      9  C   UNL A   1      30.823  25.250  23.485  1.00  0.00     0.093 C 
ATOM     10  C   UNL A   1      31.469  26.169  22.440  1.00  0.00     0.076 C 
ATOM     11  C   UNL A   1      31.682  27.477  23.168  1.00  0.00     0.262 C 
ATOM     12  N   UNL A   1      30.524  27.621  24.053  1.00  0.00    -0.335 N 
ATOM     13  H   UNL A   1      29.765  28.097  23.566  1.00  0.00     0.346 HD
ATOM     14  H   UNL A   1      30.756  28.176  24.877  1.00  0.00     0.346 HD
BRANCH   9  15
ATOM     15  C   UNL A   1      31.832  24.255  24.032  1.00  0.00    -0.031 A 
ATOM     16  C   UNL A   1      34.060  23.823  24.946  1.00  0.00     0.164 A 
ATOM     17  C   UNL A   1      33.132  24.681  24.329  1.00  0.00     0.055 A 
ATOM     18  C   UNL A   1      33.705  22.510  25.304  1.00  0.00     0.203 A 
ATOM     19  C   UNL A   1      32.415  22.060  24.966  1.00  0.00     0.164 A 
ATOM     20  C   UNL A   1      31.500  22.935  24.350  1.00  0.00     0.055 A 
BRANCH  16  21
ATOM     21  O   UNL A   1      35.270  24.362  25.310  1.00  0.00    -0.493 OA
ATOM     22  C   UNL A   1      36.357  23.682  24.678  1.00  0.00     0.278 C 
ENDBRANCH  16  21
BRANCH  18  23
ATOM     23  O   UNL A   1      34.481  21.658  26.044  1.00  0.00    -0.490 OA
ATOM     24  C   UNL A   1      34.349  21.647  27.457  1.00  0.00     0.278 C 
ENDBRANCH  18  23
BRANCH  19  25
ATOM     25  O   UNL A   1      31.857  20.826  25.198  1.00  0.00    -0.493 OA
ATOM     26  C   UNL A   1      32.248  19.739  24.369  1.00  0.00     0.278 C 
ENDBRANCH  19  25
ENDBRANCH   9  15
ENDBRANCH   5   8
ENDBRANCH   3   4
ENDBRANCH   2   3
ENDBRANCH   1   2
BRANCH   1  27
ATOM     27  C   UNL A   1      32.947  30.596  26.342  1.00  0.00     0.116 C 
BRANCH  27  28
ATOM     28  N   UNL A   1      32.874  31.967  26.830  1.00  0.00    -0.352 N 
ATOM     29  C   UNL A   1      33.730  32.624  27.683  1.00  0.00     0.251 C 
ATOM     30  H   UNL A   1      32.108  32.493  26.507  1.00  0.00     0.163 HD
ATOM     31  O   UNL A   1      33.464  33.756  28.078  1.00  0.00    -0.269 OA
BRANCH  29  32
ATOM     32  C   UNL A   1      34.956  31.943  28.147  1.00  0.00     0.039 A 
ATOM     33  C   UNL A   1      36.148  32.668  28.218  1.00  0.00     0.014 A 
ATOM     34  C   UNL A   1      34.915  30.608  28.556  1.00  0.00     0.014 A 
ATOM     35  C   UNL A   1      37.283  32.075  28.775  1.00  0.00     0.010 A 
ATOM     36  C   UNL A   1      36.027  30.044  29.173  1.00  0.00     0.010 A 
ATOM     37  C   UNL A   1      37.222  30.771  29.293  1.00  0.00    -0.014 A 
BRANCH  37  38
ATOM     38  C   UNL A   1      38.382  30.158  29.989  1.00  0.00     0.031 A 
ATOM     39  C   UNL A   1      38.741  30.591  31.386  1.00  0.00     0.074 A 
ATOM     40  C   UNL A   1      39.177  29.295  29.324  1.00  0.00     0.049 A 
ATOM     41  N   UNL A   1      39.755  30.223  32.125  1.00  0.00    -0.248 NA
ATOM     42  C   UNL A   1      37.867  31.590  32.023  1.00  0.00     0.031 C 
ATOM     43  C   UNL A   1      38.989  28.866  27.935  1.00  0.00     0.029 A 
ATOM     44  N   UNL A   1      40.322  28.646  29.716  1.00  0.00    -0.354 N 
ATOM     45  C   UNL A   1      39.671  30.979  33.289  1.00  0.00     0.074 A 
ATOM     46  C   UNL A   1      38.517  31.840  33.150  1.00  0.00     0.031 C 
ATOM     47  C   UNL A   1      39.981  28.029  27.594  1.00  0.00     0.029 A 
ATOM     48  C   UNL A   1      40.890  27.878  28.726  1.00  0.00     0.049 A 
ATOM     49  H   UNL A   1      40.701  28.724  30.621  1.00  0.00     0.167 HD
ATOM     50  C   UNL A   1      40.466  30.939  34.383  1.00  0.00     0.034 A 
ATOM     51  C   UNL A   1      42.017  27.139  28.728  1.00  0.00     0.034 A 
ATOM     52  C   UNL A   1      41.564  30.028  34.548  1.00  0.00     0.049 A 
ATOM     53  C   UNL A   1      42.837  27.061  29.990  1.00  0.00     0.074 A 
ATOM     54  C   UNL A   1      42.344  29.818  35.671  1.00  0.00     0.029 A 
ATOM     55  N   UNL A   1      42.042  29.180  33.564  1.00  0.00    -0.354 N 
ATOM     56  N   UNL A   1      42.623  27.632  31.149  1.00  0.00    -0.248 NA
ATOM     57  C   UNL A   1      44.032  26.204  29.955  1.00  0.00     0.031 C 
ATOM     58  C   UNL A   1      43.308  28.854  35.360  1.00  0.00     0.029 A 
ATOM     59  C   UNL A   1      43.116  28.452  34.048  1.00  0.00     0.049 A 
ATOM     60  H   UNL A   1      41.674  29.105  32.654  1.00  0.00     0.167 HD
ATOM     61  C   UNL A   1      43.630  27.174  31.991  1.00  0.00     0.074 A 
ATOM     62  C   UNL A   1      44.442  26.261  31.214  1.00  0.00     0.031 C 
ATOM     63  C   UNL A   1      43.872  27.494  33.286  1.00  0.00     0.034 A 
BRANCH  50  64
ATOM     64  C   UNL A   1      40.144  31.865  35.525  1.00  0.00     0.023 A 
ATOM     65  C   UNL A   1      40.857  33.073  35.663  1.00  0.00     0.012 A 
ATOM     66  C   UNL A   1      39.080  31.584  36.405  1.00  0.00     0.148 A 
ATOM     67  C   UNL A   1      40.531  33.978  36.672  1.00  0.00     0.002 A 
ATOM     68  C   UNL A   1      38.735  32.510  37.383  1.00  0.00     0.091 A 
ATOM     69  F   UNL A   1      38.429  30.420  36.270  1.00  0.00    -0.205 F 
ATOM     70  C   UNL A   1      39.464  33.702  37.523  1.00  0.00     0.022 A 
BRANCH  68  71
ATOM     71  S   UNL A   1      37.330  32.285  38.479  1.00  0.00     0.127 S 
ATOM     72  O   UNL A   1      36.273  32.988  37.753  1.00  0.00    -0.237 OA
ATOM     73  O   UNL A   1      37.187  30.829  38.502  1.00  0.00    -0.237 OA
ATOM     74  O   UNL A   1      37.712  32.879  39.752  1.00  0.00    -0.744 OA
ENDBRANCH  68  71
ENDBRANCH  50  64
BRANCH  51  75
ATOM     75  C   UNL A   1      42.403  26.349  27.525  1.00  0.00     0.023 A 
ATOM     76  C   UNL A   1      43.118  26.980  26.488  1.00  0.00     0.012 A 
ATOM     77  C   UNL A   1      42.073  24.986  27.397  1.00  0.00     0.148 A 
ATOM     78  C   UNL A   1      43.461  26.282  25.330  1.00  0.00     0.002 A 
ATOM     79  C   UNL A   1      42.465  24.282  26.263  1.00  0.00     0.091 A 
ATOM     80  F   UNL A   1      41.377  24.402  28.384  1.00  0.00    -0.205 F 
ATOM     81  C   UNL A   1      43.143  24.932  25.221  1.00  0.00     0.022 A 
BRANCH  79  82
ATOM     82  S   UNL A   1      42.205  22.511  26.107  1.00  0.00     0.127 S 
ATOM     83  O   UNL A   1      42.896  22.215  24.856  1.00  0.00    -0.237 OA
ATOM     84  O   UNL A   1      42.861  21.995  27.310  1.00  0.00    -0.237 OA
ATOM     85  O   UNL A   1      40.759  22.336  26.099  1.00  0.00    -0.744 OA
ENDBRANCH  79  82
ENDBRANCH  51  75
BRANCH  63  86
ATOM     86  C   UNL A   1      45.036  26.826  33.968  1.00  0.00     0.023 A 
ATOM     87  C   UNL A   1      46.291  27.465  33.995  1.00  0.00     0.012 A 
ATOM     88  C   UNL A   1      44.863  25.608  34.656  1.00  0.00     0.148 A 
ATOM     89  C   UNL A   1      47.365  26.887  34.670  1.00  0.00     0.002 A 
ATOM     90  C   UNL A   1      45.926  25.063  35.366  1.00  0.00     0.091 A 
ATOM     91  F   UNL A   1      43.667  25.006  34.603  1.00  0.00    -0.205 F 
ATOM     92  C   UNL A   1      47.179  25.696  35.365  1.00  0.00     0.022 A 
BRANCH  90  93
ATOM     93  S   UNL A   1      45.748  23.584  36.371  1.00  0.00     0.127 S 
ATOM     94  O   UNL A   1      47.114  23.065  36.382  1.00  0.00    -0.237 OA
ATOM     95  O   UNL A   1      45.291  24.127  37.650  1.00  0.00    -0.237 OA
ATOM     96  O   UNL A   1      44.766  22.753  35.686  1.00  0.00    -0.744 OA
ENDBRANCH  90  93
ENDBRANCH  63  86
ENDBRANCH  37  38
ENDBRANCH  29  32
ENDBRANCH  27  28
ENDBRANCH   1  27
TORSDOF 18
ENDMDL
MODEL 3
REMARK VINA RESULT:     -11.4      5.126      9.713
REMARK SMILES COc1cc([C@@H]2CC[NH2+][C@@H]2C(=O)NCCCCNC(=O)c2ccc(-c3c4nc(c(-c5cccc(S(=O)(=O)[O-])c5F)c5ccc([nH]5)c(-c5cccc(S(=O)(=O)[O-])c5F)c5nc(c(-c6cccc(S(=O)(=O)[O-])c6F)c6ccc3[nH]6)C=C5)C=C4)cc2)cc(OC)c1OC
REMARK SMILES IDX 16 1 15 2 14 3 13 4 11 5 12 6 10 8 6 9 7 10 8 11 9 12 5 15
REMARK SMILES IDX 3 16 4 17 88 18 85 19 84 20 2 21 1 22 89 23 90 24 86 25
REMARK SMILES IDX 87 26 17 27 18 28 19 29 20 31 21 32 22 33 83 34 23 35 82 36
REMARK SMILES IDX 24 37 25 38 26 39 76 40 27 41 81 42 75 43 77 44 28 45 80 46
REMARK SMILES IDX 74 47 73 48 29 50 61 51 41 52 60 53 42 54 45 55 59 56 78 57
REMARK SMILES IDX 43 58 44 59 58 61 79 62 46 63 30 64 31 65 39 66 32 67 34 68
REMARK SMILES IDX 40 69 33 70 35 71 36 72 37 73 38 74 62 75 63 76 71 77 64 78
REMARK SMILES IDX 66 79 72 80 65 81 67 82 68 83 69 84 70 85 47 86 48 87 56 88
REMARK SMILES IDX 49 89 51 90 57 91 50 92 52 93 53 94 54 95 55 96
REMARK H PARENT 13 7 9 13 9 14 18 30 77 49 45 60
REMARK Flexibility Score: inf
ROOT
ATOM      1  C   UNL A   1      32.537  28.545  27.558  1.00  0.00     0.023 C 
ENDROOT
BRANCH   1   2
ATOM      2  C   UNL A   1      31.470  27.827  26.730  1.00  0.00     0.023 C 
BRANCH   2   3
ATOM      3  C   UNL A   1      31.925  26.510  26.107  1.00  0.00     0.116 C 
BRANCH   3   4
ATOM      4  N   UNL A   1      30.889  25.904  25.292  1.00  0.00    -0.351 N 
ATOM      5  C   UNL A   1      30.648  25.915  23.954  1.00  0.00     0.278 C 
ATOM      6  O   UNL A   1      29.678  25.247  23.566  1.00  0.00    -0.268 OA
ATOM      7  H   UNL A   1      30.233  25.382  25.809  1.00  0.00     0.163 HD
BRANCH   5   8
ATOM      8  C   UNL A   1      31.485  26.663  22.904  1.00  0.00     0.280 C 
ATOM      9  C   UNL A   1      32.706  25.909  22.330  1.00  0.00     0.093 C 
ATOM     10  C   UNL A   1      33.755  27.017  22.172  1.00  0.00     0.076 C 
ATOM     11  C   UNL A   1      33.378  28.046  23.215  1.00  0.00     0.262 C 
ATOM     12  N   UNL A   1      31.914  28.046  23.247  1.00  0.00    -0.335 N 
ATOM     13  H   UNL A   1      31.546  28.708  22.563  1.00  0.00     0.346 HD
ATOM     14  H   UNL A   1      31.564  28.326  24.163  1.00  0.00     0.346 HD
BRANCH   9  15
ATOM     15  C   UNL A   1      33.286  24.711  23.060  1.00  0.00    -0.031 A 
ATOM     16  C   UNL A   1      34.812  23.835  24.760  1.00  0.00     0.164 A 
ATOM     17  C   UNL A   1      34.327  24.898  23.977  1.00  0.00     0.055 A 
ATOM     18  C   UNL A   1      34.252  22.548  24.662  1.00  0.00     0.203 A 
ATOM     19  C   UNL A   1      33.236  22.343  23.709  1.00  0.00     0.164 A 
ATOM     20  C   UNL A   1      32.763  23.421  22.937  1.00  0.00     0.055 A 
BRANCH  16  21
ATOM     21  O   UNL A   1      35.750  24.135  25.717  1.00  0.00    -0.493 OA
ATOM     22  C   UNL A   1      37.061  23.739  25.308  1.00  0.00     0.278 C 
ENDBRANCH  16  21
BRANCH  18  23
ATOM     23  O   UNL A   1      34.546  21.496  25.487  1.00  0.00    -0.490 OA
ATOM     24  C   UNL A   1      35.388  20.456  25.014  1.00  0.00     0.278 C 
ENDBRANCH  18  23
BRANCH  19  25
ATOM     25  O   UNL A   1      32.558  21.181  23.426  1.00  0.00    -0.493 OA
ATOM     26  C   UNL A   1      31.958  21.043  22.145  1.00  0.00     0.278 C 
ENDBRANCH  19  25
ENDBRANCH   9  15
ENDBRANCH   5   8
ENDBRANCH   3   4
ENDBRANCH   2   3
ENDBRANCH   1   2
BRANCH   1  27
ATOM     27  C   UNL A   1      33.481  29.450  26.770  1.00  0.00     0.116 C 
BRANCH  27  28
ATOM     28  N   UNL A   1      33.527  30.817  27.275  1.00  0.00    -0.352 N 
ATOM     29  C   UNL A   1      34.486  31.412  28.060  1.00  0.00     0.251 C 
ATOM     30  H   UNL A   1      32.770  31.391  27.019  1.00  0.00     0.163 HD
ATOM     31  O   UNL A   1      34.318  32.553  28.486  1.00  0.00    -0.269 OA
BRANCH  29  32
ATOM     32  C   UNL A   1      35.703  30.656  28.418  1.00  0.00     0.039 A 
ATOM     33  C   UNL A   1      36.849  30.806  27.632  1.00  0.00     0.014 A 
ATOM     34  C   UNL A   1      35.726  29.842  29.553  1.00  0.00     0.014 A 
ATOM     35  C   UNL A   1      38.042  30.199  28.030  1.00  0.00     0.010 A 
ATOM     36  C   UNL A   1      36.931  29.297  29.984  1.00  0.00     0.010 A 
ATOM     37  C   UNL A   1      38.103  29.472  29.230  1.00  0.00    -0.014 A 
BRANCH  37  38
ATOM     38  C   UNL A   1      39.383  28.910  29.733  1.00  0.00     0.031 A 
ATOM     39  C   UNL A   1      40.119  29.591  30.856  1.00  0.00     0.074 A 
ATOM     40  C   UNL A   1      39.938  27.853  29.104  1.00  0.00     0.049 A 
ATOM     41  N   UNL A   1      41.279  29.292  31.379  1.00  0.00    -0.248 NA
ATOM     42  C   UNL A   1      39.485  30.782  31.447  1.00  0.00     0.031 C 
ATOM     43  C   UNL A   1      39.369  27.161  27.945  1.00  0.00     0.029 A 
ATOM     44  N   UNL A   1      41.121  27.194  29.332  1.00  0.00    -0.354 N 
ATOM     45  C   UNL A   1      41.537  30.281  32.321  1.00  0.00     0.074 A 
ATOM     46  C   UNL A   1      40.422  31.201  32.285  1.00  0.00     0.031 C 
ATOM     47  C   UNL A   1      40.202  26.179  27.565  1.00  0.00     0.029 A 
ATOM     48  C   UNL A   1      41.375  26.184  28.434  1.00  0.00     0.049 A 
ATOM     49  H   UNL A   1      41.731  27.425  30.070  1.00  0.00     0.167 HD
ATOM     50  C   UNL A   1      42.594  30.396  33.159  1.00  0.00     0.034 A 
ATOM     51  C   UNL A   1      42.433  25.356  28.321  1.00  0.00     0.034 A 
ATOM     52  C   UNL A   1      43.662  29.439  33.245  1.00  0.00     0.049 A 
ATOM     53  C   UNL A   1      43.556  25.467  29.318  1.00  0.00     0.074 A 
ATOM     54  C   UNL A   1      44.705  29.396  34.152  1.00  0.00     0.029 A 
ATOM     55  N   UNL A   1      43.827  28.360  32.393  1.00  0.00    -0.354 N 
ATOM     56  N   UNL A   1      43.682  26.289  30.332  1.00  0.00    -0.248 NA
ATOM     57  C   UNL A   1      44.666  24.511  29.180  1.00  0.00     0.031 C 
ATOM     58  C   UNL A   1      45.514  28.299  33.837  1.00  0.00     0.029 A 
ATOM     59  C   UNL A   1      44.963  27.650  32.744  1.00  0.00     0.049 A 
ATOM     60  H   UNL A   1      43.226  28.130  31.648  1.00  0.00     0.167 HD
ATOM     61  C   UNL A   1      44.860  25.923  30.974  1.00  0.00     0.074 A 
ATOM     62  C   UNL A   1      45.400  24.793  30.248  1.00  0.00     0.031 C 
ATOM     63  C   UNL A   1      45.451  26.484  32.057  1.00  0.00     0.034 A 
BRANCH  50  64
ATOM     64  C   UNL A   1      42.625  31.568  34.102  1.00  0.00     0.023 A 
ATOM     65  C   UNL A   1      43.129  32.807  33.655  1.00  0.00     0.012 A 
ATOM     66  C   UNL A   1      42.073  31.471  35.394  1.00  0.00     0.148 A 
ATOM     67  C   UNL A   1      43.105  33.925  34.488  1.00  0.00     0.002 A 
ATOM     68  C   UNL A   1      42.015  32.599  36.204  1.00  0.00     0.091 A 
ATOM     69  F   UNL A   1      41.617  30.279  35.807  1.00  0.00    -0.205 F 
ATOM     70  C   UNL A   1      42.538  33.824  35.756  1.00  0.00     0.022 A 
BRANCH  68  71
ATOM     71  S   UNL A   1      41.236  32.594  37.822  1.00  0.00     0.127 S 
ATOM     72  O   UNL A   1      39.877  32.164  37.495  1.00  0.00    -0.237 OA
ATOM     73  O   UNL A   1      42.032  31.600  38.544  1.00  0.00    -0.237 OA
ATOM     74  O   UNL A   1      41.354  33.952  38.331  1.00  0.00    -0.744 OA
ENDBRANCH  68  71
ENDBRANCH  50  64
BRANCH  51  75
ATOM     75  C   UNL A   1      42.453  24.296  27.274  1.00  0.00     0.023 A 
ATOM     76  C   UNL A   1      43.292  24.452  26.154  1.00  0.00     0.012 A 
ATOM     77  C   UNL A   1      41.654  23.140  27.375  1.00  0.00     0.148 A 
ATOM     78  C   UNL A   1      43.307  23.500  25.134  1.00  0.00     0.002 A 
ATOM     79  C   UNL A   1      41.714  22.169  26.381  1.00  0.00     0.091 A 
ATOM     80  F   UNL A   1      40.848  23.013  28.438  1.00  0.00    -0.205 F 
ATOM     81  C   UNL A   1      42.526  22.354  25.252  1.00  0.00     0.022 A 
BRANCH  79  82
ATOM     82  S   UNL A   1      40.836  20.608  26.524  1.00  0.00     0.127 S 
ATOM     83  O   UNL A   1      39.494  20.977  26.081  1.00  0.00    -0.237 OA
ATOM     84  O   UNL A   1      41.576  19.751  25.596  1.00  0.00    -0.237 OA
ATOM     85  O   UNL A   1      40.967  20.222  27.922  1.00  0.00    -0.744 OA
ENDBRANCH  79  82
ENDBRANCH  51  75
BRANCH  63  86
ATOM     86  C   UNL A   1      46.729  25.866  32.558  1.00  0.00     0.023 A 
ATOM     87  C   UNL A   1      47.968  26.357  32.102  1.00  0.00     0.012 A 
ATOM     88  C   UNL A   1      46.702  24.859  33.543  1.00  0.00     0.148 A 
ATOM     89  C   UNL A   1      49.162  25.835  32.597  1.00  0.00     0.002 A 
ATOM     90  C   UNL A   1      47.896  24.377  34.067  1.00  0.00     0.091 A 
ATOM     91  F   UNL A   1      45.514  24.392  33.950  1.00  0.00    -0.205 F 
ATOM     92  C   UNL A   1      49.126  24.856  33.587  1.00  0.00     0.022 A 
BRANCH  90  93
ATOM     93  S   UNL A   1      47.941  23.189  35.413  1.00  0.00     0.127 S 
ATOM     94  O   UNL A   1      47.269  22.036  34.817  1.00  0.00    -0.237 OA
ATOM     95  O   UNL A   1      49.378  23.013  35.628  1.00  0.00    -0.237 OA
ATOM     96  O   UNL A   1      47.241  23.819  36.524  1.00  0.00    -0.744 OA
ENDBRANCH  90  93
ENDBRANCH  63  86
ENDBRANCH  37  38
ENDBRANCH  29  32
ENDBRANCH  27  28
ENDBRANCH   1  27
TORSDOF 18
ENDMDL
