MODEL 1
REMARK VINA RESULT:     -11.4      0.000      0.000
REMARK SMILES CCCc1cc(-n2ccc(C(=O)NCCCCNC(=O)c3ccc(-c4c5nc(c(-c6cccc(S(=O)(=O)[O-])c6F)c6ccc([nH]6)c(-c6cccc(S(=O)(=O)[O-])c6F)c6nc(c(-c7cccc(S(=O)(=O)[O-])c7F)c7ccc4[nH]7)C=C6)C=C5)cc3)n2)nc(C(C)C)n1
REMARK SMILES IDX 15 1 14 2 13 3 11 4 12 5 10 7 7 8 8 9 84 10 9 11 6 12 4 13
REMARK SMILES IDX 5 14 90 15 86 16 85 17 3 18 2 19 1 20 87 21 88 22 89 23
REMARK SMILES IDX 16 24 17 25 18 26 19 27 20 29 21 30 22 31 83 32 23 33 82 34
REMARK SMILES IDX 24 35 25 36 26 37 76 38 27 39 81 40 75 41 77 42 28 43 80 44
REMARK SMILES IDX 74 45 73 46 29 48 61 49 41 50 60 51 42 52 45 53 59 54 78 55
REMARK SMILES IDX 43 56 44 57 58 59 79 60 46 61 30 62 31 63 39 64 32 65 34 66
REMARK SMILES IDX 40 67 33 68 35 69 36 70 37 71 38 72 62 73 63 74 71 75 64 76
REMARK SMILES IDX 66 77 72 78 65 79 67 80 68 81 69 82 70 83 47 84 48 85 56 86
REMARK SMILES IDX 49 87 51 88 57 89 50 90 52 91 53 92 54 93 55 94
REMARK H PARENT 13 6 18 28 77 47 45 58
REMARK Flexibility Score: inf
ROOT
ATOM      1  C   UNL A   1      36.635  20.848  24.799  1.00  0.00     0.023 C 
ENDROOT
BRANCH   1   2
ATOM      2  C   UNL A   1      36.543  21.979  25.828  1.00  0.00     0.116 C 
BRANCH   2   3
ATOM      3  N   UNL A   1      35.492  21.749  26.806  1.00  0.00    -0.351 N 
ATOM      4  C   UNL A   1      34.208  22.241  26.899  1.00  0.00     0.271 C 
ATOM      5  O   UNL A   1      33.579  21.983  27.928  1.00  0.00    -0.267 OA
ATOM      6  H   UNL A   1      35.743  21.132  27.531  1.00  0.00     0.163 HD
BRANCH   4   7
ATOM      7  C   UNL A   1      33.624  23.113  25.864  1.00  0.00     0.150 A 
ATOM      8  N   UNL A   1      32.794  24.829  24.879  1.00  0.00    -0.222 N 
ATOM      9  C   UNL A   1      32.496  23.765  24.057  1.00  0.00     0.118 A 
ATOM     10  N   UNL A   1      33.570  24.454  25.920  1.00  0.00    -0.161 NA
ATOM     11  C   UNL A   1      33.049  22.655  24.645  1.00  0.00     0.056 A 
BRANCH   8  12
ATOM     12  C   UNL A   1      32.257  26.148  24.820  1.00  0.00     0.157 A 
ATOM     13  C   UNL A   1      32.294  28.368  25.570  1.00  0.00     0.046 A 
ATOM     14  C   UNL A   1      32.642  27.052  25.793  1.00  0.00     0.073 A 
ATOM     15  N   UNL A   1      31.472  28.726  24.560  1.00  0.00    -0.238 NA
ATOM     16  C   UNL A   1      31.075  27.762  23.705  1.00  0.00     0.133 A 
ATOM     17  N   UNL A   1      31.491  26.491  23.762  1.00  0.00    -0.213 NA
BRANCH  13  18
ATOM     18  C   UNL A   1      32.817  29.495  26.427  1.00  0.00     0.056 C 
BRANCH  18  19
ATOM     19  C   UNL A   1      31.766  30.383  27.111  1.00  0.00     0.003 C 
ATOM     20  C   UNL A   1      31.541  31.721  26.419  1.00  0.00     0.004 C 
ENDBRANCH  18  19
ENDBRANCH  13  18
BRANCH  16  21
ATOM     21  C   UNL A   1      30.034  28.103  22.662  1.00  0.00     0.051 C 
ATOM     22  C   UNL A   1      28.628  27.959  23.250  1.00  0.00     0.016 C 
ATOM     23  C   UNL A   1      30.251  29.502  22.090  1.00  0.00     0.016 C 
ENDBRANCH  16  21
ENDBRANCH   8  12
ENDBRANCH   4   7
ENDBRANCH   2   3
ENDBRANCH   1   2
BRANCH   1  24
ATOM     24  C   UNL A   1      37.720  19.793  25.057  1.00  0.00     0.023 C 
BRANCH  24  25
ATOM     25  C   UNL A   1      39.035  20.349  25.596  1.00  0.00     0.116 C 
BRANCH  25  26
ATOM     26  N   UNL A   1      40.078  19.333  25.687  1.00  0.00    -0.352 N 
ATOM     27  C   UNL A   1      41.420  19.516  25.954  1.00  0.00     0.251 C 
ATOM     28  H   UNL A   1      39.789  18.403  25.542  1.00  0.00     0.163 HD
ATOM     29  O   UNL A   1      42.234  18.658  25.645  1.00  0.00    -0.269 OA
BRANCH  27  30
ATOM     30  C   UNL A   1      41.863  20.765  26.605  1.00  0.00     0.039 A 
ATOM     31  C   UNL A   1      42.284  21.846  25.823  1.00  0.00     0.014 A 
ATOM     32  C   UNL A   1      41.860  20.853  27.998  1.00  0.00     0.014 A 
ATOM     33  C   UNL A   1      42.617  23.044  26.449  1.00  0.00     0.010 A 
ATOM     34  C   UNL A   1      42.114  22.062  28.614  1.00  0.00     0.010 A 
ATOM     35  C   UNL A   1      42.504  23.157  27.845  1.00  0.00    -0.014 A 
BRANCH  35  36
ATOM     36  C   UNL A   1      42.588  24.481  28.466  1.00  0.00     0.031 A 
ATOM     37  C   UNL A   1      41.397  25.342  28.204  1.00  0.00     0.074 A 
ATOM     38  C   UNL A   1      43.520  24.826  29.381  1.00  0.00     0.049 A 
ATOM     39  N   UNL A   1      41.351  26.456  27.549  1.00  0.00    -0.248 NA
ATOM     40  C   UNL A   1      40.072  24.821  28.580  1.00  0.00     0.031 C 
ATOM     41  C   UNL A   1      44.543  23.957  29.972  1.00  0.00     0.029 A 
ATOM     42  N   UNL A   1      43.658  25.985  30.090  1.00  0.00    -0.354 N 
ATOM     43  C   UNL A   1      40.028  26.897  27.646  1.00  0.00     0.074 A 
ATOM     44  C   UNL A   1      39.266  25.762  28.086  1.00  0.00     0.031 C 
ATOM     45  C   UNL A   1      45.012  24.525  31.105  1.00  0.00     0.029 A 
ATOM     46  C   UNL A   1      44.442  25.852  31.237  1.00  0.00     0.049 A 
ATOM     47  H   UNL A   1      43.243  26.835  29.818  1.00  0.00     0.167 HD
ATOM     48  C   UNL A   1      39.726  28.225  27.615  1.00  0.00     0.034 A 
ATOM     49  C   UNL A   1      44.571  26.743  32.252  1.00  0.00     0.034 A 
ATOM     50  C   UNL A   1      40.843  28.989  27.114  1.00  0.00     0.049 A 
ATOM     51  C   UNL A   1      44.130  28.056  31.740  1.00  0.00     0.074 A 
ATOM     52  C   UNL A   1      41.577  29.025  25.947  1.00  0.00     0.029 A 
ATOM     53  N   UNL A   1      41.588  29.647  28.062  1.00  0.00    -0.354 N 
ATOM     54  N   UNL A   1      44.779  28.736  30.838  1.00  0.00    -0.248 NA
ATOM     55  C   UNL A   1      42.753  28.461  31.963  1.00  0.00     0.031 C 
ATOM     56  C   UNL A   1      42.909  29.328  26.358  1.00  0.00     0.029 A 
ATOM     57  C   UNL A   1      42.908  29.526  27.741  1.00  0.00     0.049 A 
ATOM     58  H   UNL A   1      41.229  30.126  28.844  1.00  0.00     0.167 HD
ATOM     59  C   UNL A   1      43.780  29.306  30.064  1.00  0.00     0.074 A 
ATOM     60  C   UNL A   1      42.575  29.230  30.886  1.00  0.00     0.031 C 
ATOM     61  C   UNL A   1      43.966  29.501  28.726  1.00  0.00     0.034 A 
BRANCH  48  62
ATOM     62  C   UNL A   1      38.629  28.907  28.426  1.00  0.00     0.023 A 
ATOM     63  C   UNL A   1      37.802  29.822  27.726  1.00  0.00     0.012 A 
ATOM     64  C   UNL A   1      38.551  28.946  29.836  1.00  0.00     0.148 A 
ATOM     65  C   UNL A   1      37.041  30.793  28.387  1.00  0.00     0.002 A 
ATOM     66  C   UNL A   1      37.739  29.868  30.491  1.00  0.00     0.091 A 
ATOM     67  F   UNL A   1      39.340  28.171  30.579  1.00  0.00    -0.205 F 
ATOM     68  C   UNL A   1      37.014  30.820  29.773  1.00  0.00     0.022 A 
BRANCH  66  69
ATOM     69  S   UNL A   1      37.621  29.922  32.286  1.00  0.00     0.127 S 
ATOM     70  O   UNL A   1      39.020  30.095  32.664  1.00  0.00    -0.237 OA
ATOM     71  O   UNL A   1      36.772  31.095  32.492  1.00  0.00    -0.237 OA
ATOM     72  O   UNL A   1      37.005  28.661  32.683  1.00  0.00    -0.744 OA
ENDBRANCH  66  69
ENDBRANCH  48  62
BRANCH  49  73
ATOM     73  C   UNL A   1      44.862  26.543  33.692  1.00  0.00     0.023 A 
ATOM     74  C   UNL A   1      46.154  26.821  34.185  1.00  0.00     0.012 A 
ATOM     75  C   UNL A   1      43.818  26.367  34.625  1.00  0.00     0.148 A 
ATOM     76  C   UNL A   1      46.391  26.964  35.557  1.00  0.00     0.002 A 
ATOM     77  C   UNL A   1      44.059  26.503  35.990  1.00  0.00     0.091 A 
ATOM     78  F   UNL A   1      42.575  26.163  34.171  1.00  0.00    -0.205 F 
ATOM     79  C   UNL A   1      45.342  26.816  36.459  1.00  0.00     0.022 A 
BRANCH  77  80
ATOM     80  S   UNL A   1      42.750  26.357  37.213  1.00  0.00     0.127 S 
ATOM     81  O   UNL A   1      43.488  26.517  38.467  1.00  0.00    -0.237 OA
ATOM     82  O   UNL A   1      41.886  27.482  36.864  1.00  0.00    -0.237 OA
ATOM     83  O   UNL A   1      42.175  25.033  37.021  1.00  0.00    -0.744 OA
ENDBRANCH  77  80
ENDBRANCH  49  73
BRANCH  61  84
ATOM     84  C   UNL A   1      45.371  29.444  28.188  1.00  0.00     0.023 A 
ATOM     85  C   UNL A   1      46.245  30.550  28.201  1.00  0.00     0.012 A 
ATOM     86  C   UNL A   1      45.870  28.185  27.816  1.00  0.00     0.148 A 
ATOM     87  C   UNL A   1      47.586  30.402  27.835  1.00  0.00     0.002 A 
ATOM     88  C   UNL A   1      47.214  28.031  27.508  1.00  0.00     0.091 A 
ATOM     89  F   UNL A   1      45.021  27.145  27.800  1.00  0.00    -0.205 F 
ATOM     90  C   UNL A   1      48.074  29.139  27.506  1.00  0.00     0.022 A 
BRANCH  88  91
ATOM     91  S   UNL A   1      47.919  26.407  27.219  1.00  0.00     0.127 S 
ATOM     92  O   UNL A   1      47.480  25.668  28.400  1.00  0.00    -0.237 OA
ATOM     93  O   UNL A   1      47.275  26.002  25.968  1.00  0.00    -0.237 OA
ATOM     94  O   UNL A   1      49.358  26.612  27.103  1.00  0.00    -0.744 OA
ENDBRANCH  88  91
ENDBRANCH  61  84
ENDBRANCH  35  36
ENDBRANCH  27  30
ENDBRANCH  25  26
ENDBRANCH  24  25
ENDBRANCH   1  24
TORSDOF 18
ENDMDL
MODEL 2
REMARK VINA RESULT:     -11.2      3.146      8.194
REMARK SMILES CCCc1cc(-n2ccc(C(=O)NCCCCNC(=O)c3ccc(-c4c5nc(c(-c6cccc(S(=O)(=O)[O-])c6F)c6ccc([nH]6)c(-c6cccc(S(=O)(=O)[O-])c6F)c6nc(c(-c7cccc(S(=O)(=O)[O-])c7F)c7ccc4[nH]7)C=C6)C=C5)cc3)n2)nc(C(C)C)n1
REMARK SMILES IDX 15 1 14 2 13 3 11 4 12 5 10 7 7 8 8 9 84 10 9 11 6 12 4 13
REMARK SMILES IDX 5 14 90 15 86 16 85 17 3 18 2 19 1 20 87 21 88 22 89 23
REMARK SMILES IDX 16 24 17 25 18 26 19 27 20 29 21 30 22 31 83 32 23 33 82 34
REMARK SMILES IDX 24 35 25 36 26 37 76 38 27 39 81 40 75 41 77 42 28 43 80 44
REMARK SMILES IDX 74 45 73 46 29 48 61 49 41 50 60 51 42 52 45 53 59 54 78 55
REMARK SMILES IDX 43 56 44 57 58 59 79 60 46 61 30 62 31 63 39 64 32 65 34 66
REMARK SMILES IDX 40 67 33 68 35 69 36 70 37 71 38 72 62 73 63 74 71 75 64 76
REMARK SMILES IDX 66 77 72 78 65 79 67 80 68 81 69 82 70 83 47 84 48 85 56 86
REMARK SMILES IDX 49 87 51 88 57 89 50 90 52 91 53 92 54 93 55 94
REMARK H PARENT 13 6 18 28 77 47 45 58
REMARK Flexibility Score: inf
ROOT
ATOM      1  C   UNL A   1      31.912  28.727  27.489  1.00  0.00     0.023 C 
ENDROOT
BRANCH   1   2
ATOM      2  C   UNL A   1      31.615  27.509  26.609  1.00  0.00     0.116 C 
BRANCH   2   3
ATOM      3  N   UNL A   1      31.517  27.857  25.200  1.00  0.00    -0.351 N 
ATOM      4  C   UNL A   1      31.514  27.076  24.065  1.00  0.00     0.271 C 
ATOM      5  O   UNL A   1      31.564  27.658  22.980  1.00  0.00    -0.267 OA
ATOM      6  H   UNL A   1      31.440  28.822  25.027  1.00  0.00     0.163 HD
BRANCH   4   7
ATOM      7  C   UNL A   1      31.539  25.602  24.125  1.00  0.00     0.150 A 
ATOM      8  N   UNL A   1      32.230  23.587  24.377  1.00  0.00    -0.222 N 
ATOM      9  C   UNL A   1      31.029  23.473  23.715  1.00  0.00     0.118 A 
ATOM     10  N   UNL A   1      32.491  24.867  24.724  1.00  0.00    -0.161 NA
ATOM     11  C   UNL A   1      30.543  24.749  23.571  1.00  0.00     0.056 A 
BRANCH   8  12
ATOM     12  C   UNL A   1      33.217  22.576  24.563  1.00  0.00     0.157 A 
ATOM     13  C   UNL A   1      33.755  20.303  24.762  1.00  0.00     0.046 A 
ATOM     14  C   UNL A   1      32.789  21.287  24.824  1.00  0.00     0.073 A 
ATOM     15  N   UNL A   1      35.066  20.599  24.638  1.00  0.00    -0.238 NA
ATOM     16  C   UNL A   1      35.403  21.894  24.473  1.00  0.00     0.133 A 
ATOM     17  N   UNL A   1      34.516  22.892  24.367  1.00  0.00    -0.213 NA
BRANCH  13  18
ATOM     18  C   UNL A   1      33.411  18.835  24.817  1.00  0.00     0.056 C 
BRANCH  18  19
ATOM     19  C   UNL A   1      34.503  17.855  24.362  1.00  0.00     0.003 C 
ATOM     20  C   UNL A   1      34.043  16.864  23.300  1.00  0.00     0.004 C 
ENDBRANCH  18  19
ENDBRANCH  13  18
BRANCH  16  21
ATOM     21  C   UNL A   1      36.868  22.270  24.488  1.00  0.00     0.051 C 
ATOM     22  C   UNL A   1      37.076  23.561  25.281  1.00  0.00     0.016 C 
ATOM     23  C   UNL A   1      37.731  21.138  25.042  1.00  0.00     0.016 C 
ENDBRANCH  16  21
ENDBRANCH   8  12
ENDBRANCH   4   7
ENDBRANCH   2   3
ENDBRANCH   1   2
BRANCH   1  24
ATOM     24  C   UNL A   1      32.753  29.836  26.839  1.00  0.00     0.023 C 
BRANCH  24  25
ATOM     25  C   UNL A   1      34.049  30.167  27.574  1.00  0.00     0.116 C 
BRANCH  25  26
ATOM     26  N   UNL A   1      34.534  31.510  27.277  1.00  0.00    -0.352 N 
ATOM     27  C   UNL A   1      35.682  32.120  27.742  1.00  0.00     0.251 C 
ATOM     28  H   UNL A   1      33.975  32.046  26.669  1.00  0.00     0.163 HD
ATOM     29  O   UNL A   1      35.786  33.337  27.722  1.00  0.00    -0.269 OA
BRANCH  27  30
ATOM     30  C   UNL A   1      36.777  31.286  28.277  1.00  0.00     0.039 A 
ATOM     31  C   UNL A   1      36.969  29.991  27.787  1.00  0.00     0.014 A 
ATOM     32  C   UNL A   1      37.609  31.801  29.273  1.00  0.00     0.014 A 
ATOM     33  C   UNL A   1      38.057  29.250  28.241  1.00  0.00     0.010 A 
ATOM     34  C   UNL A   1      38.730  31.099  29.666  1.00  0.00     0.010 A 
ATOM     35  C   UNL A   1      38.953  29.819  29.161  1.00  0.00    -0.014 A 
BRANCH  35  36
ATOM     36  C   UNL A   1      40.230  29.152  29.424  1.00  0.00     0.031 A 
ATOM     37  C   UNL A   1      40.429  28.784  30.858  1.00  0.00     0.074 A 
ATOM     38  C   UNL A   1      41.053  28.691  28.457  1.00  0.00     0.049 A 
ATOM     39  N   UNL A   1      41.326  29.230  31.675  1.00  0.00    -0.248 NA
ATOM     40  C   UNL A   1      39.410  27.938  31.501  1.00  0.00     0.031 C 
ATOM     41  C   UNL A   1      40.807  28.693  27.012  1.00  0.00     0.029 A 
ATOM     42  N   UNL A   1      42.218  27.986  28.567  1.00  0.00    -0.354 N 
ATOM     43  C   UNL A   1      41.130  28.530  32.869  1.00  0.00     0.074 A 
ATOM     44  C   UNL A   1      39.828  27.934  32.767  1.00  0.00     0.031 C 
ATOM     45  C   UNL A   1      41.642  27.814  26.414  1.00  0.00     0.029 A 
ATOM     46  C   UNL A   1      42.575  27.306  27.402  1.00  0.00     0.049 A 
ATOM     47  H   UNL A   1      42.755  27.961  29.391  1.00  0.00     0.167 HD
ATOM     48  C   UNL A   1      42.168  28.283  33.717  1.00  0.00     0.034 A 
ATOM     49  C   UNL A   1      43.531  26.353  27.268  1.00  0.00     0.034 A 
ATOM     50  C   UNL A   1      43.296  29.125  33.399  1.00  0.00     0.049 A 
ATOM     51  C   UNL A   1      44.442  26.480  28.423  1.00  0.00     0.074 A 
ATOM     52  C   UNL A   1      43.534  30.482  33.339  1.00  0.00     0.029 A 
ATOM     53  N   UNL A   1      44.315  28.521  32.705  1.00  0.00    -0.354 N 
ATOM     54  N   UNL A   1      45.242  27.492  28.606  1.00  0.00    -0.248 NA
ATOM     55  C   UNL A   1      44.203  25.647  29.589  1.00  0.00     0.031 C 
ATOM     56  C   UNL A   1      44.446  30.650  32.256  1.00  0.00     0.029 A 
ATOM     57  C   UNL A   1      44.769  29.386  31.754  1.00  0.00     0.049 A 
ATOM     58  H   UNL A   1      44.661  27.614  32.867  1.00  0.00     0.167 HD
ATOM     59  C   UNL A   1      45.213  27.698  29.977  1.00  0.00     0.074 A 
ATOM     60  C   UNL A   1      44.690  26.454  30.535  1.00  0.00     0.031 C 
ATOM     61  C   UNL A   1      45.328  28.957  30.491  1.00  0.00     0.034 A 
BRANCH  48  62
ATOM     62  C   UNL A   1      42.364  27.012  34.536  1.00  0.00     0.023 A 
ATOM     63  C   UNL A   1      42.052  27.095  35.917  1.00  0.00     0.012 A 
ATOM     64  C   UNL A   1      43.097  25.875  34.129  1.00  0.00     0.148 A 
ATOM     65  C   UNL A   1      42.541  26.172  36.848  1.00  0.00     0.002 A 
ATOM     66  C   UNL A   1      43.523  24.920  35.049  1.00  0.00     0.091 A 
ATOM     67  F   UNL A   1      43.494  25.743  32.864  1.00  0.00    -0.205 F 
ATOM     68  C   UNL A   1      43.283  25.085  36.413  1.00  0.00     0.022 A 
BRANCH  66  69
ATOM     69  S   UNL A   1      44.446  23.461  34.542  1.00  0.00     0.127 S 
ATOM     70  O   UNL A   1      43.550  22.879  33.548  1.00  0.00    -0.237 OA
ATOM     71  O   UNL A   1      45.669  24.057  34.004  1.00  0.00    -0.237 OA
ATOM     72  O   UNL A   1      44.648  22.676  35.755  1.00  0.00    -0.744 OA
ENDBRANCH  66  69
ENDBRANCH  48  62
BRANCH  49  73
ATOM     73  C   UNL A   1      43.638  25.207  26.334  1.00  0.00     0.023 A 
ATOM     74  C   UNL A   1      44.705  25.158  25.412  1.00  0.00     0.012 A 
ATOM     75  C   UNL A   1      42.881  24.033  26.535  1.00  0.00     0.148 A 
ATOM     76  C   UNL A   1      45.036  23.971  24.748  1.00  0.00     0.002 A 
ATOM     77  C   UNL A   1      43.209  22.856  25.867  1.00  0.00     0.091 A 
ATOM     78  F   UNL A   1      41.903  24.046  27.451  1.00  0.00    -0.205 F 
ATOM     79  C   UNL A   1      44.295  22.818  24.984  1.00  0.00     0.022 A 
BRANCH  77  80
ATOM     80  S   UNL A   1      42.319  21.318  26.144  1.00  0.00     0.127 S 
ATOM     81  O   UNL A   1      43.149  20.354  25.420  1.00  0.00    -0.237 OA
ATOM     82  O   UNL A   1      42.369  21.199  27.598  1.00  0.00    -0.237 OA
ATOM     83  O   UNL A   1      40.996  21.519  25.569  1.00  0.00    -0.744 OA
ENDBRANCH  77  80
ENDBRANCH  49  73
BRANCH  61  84
ATOM     84  C   UNL A   1      45.854  30.046  29.595  1.00  0.00     0.023 A 
ATOM     85  C   UNL A   1      47.225  30.353  29.481  1.00  0.00     0.012 A 
ATOM     86  C   UNL A   1      44.943  30.657  28.718  1.00  0.00     0.148 A 
ATOM     87  C   UNL A   1      47.673  31.264  28.520  1.00  0.00     0.002 A 
ATOM     88  C   UNL A   1      45.398  31.517  27.729  1.00  0.00     0.091 A 
ATOM     89  F   UNL A   1      43.641  30.360  28.848  1.00  0.00    -0.205 F 
ATOM     90  C   UNL A   1      46.761  31.832  27.633  1.00  0.00     0.022 A 
BRANCH  88  91
ATOM     91  S   UNL A   1      44.285  32.160  26.477  1.00  0.00     0.127 S 
ATOM     92  O   UNL A   1      45.203  32.479  25.386  1.00  0.00    -0.237 OA
ATOM     93  O   UNL A   1      43.403  31.019  26.222  1.00  0.00    -0.237 OA
ATOM     94  O   UNL A   1      43.614  33.301  27.089  1.00  0.00    -0.744 OA
ENDBRANCH  88  91
ENDBRANCH  61  84
ENDBRANCH  35  36
ENDBRANCH  27  30
ENDBRANCH  25  26
ENDBRANCH  24  25
ENDBRANCH   1  24
TORSDOF 18
ENDMDL
MODEL 3
REMARK VINA RESULT:     -10.9      2.820      8.047
REMARK SMILES CCCc1cc(-n2ccc(C(=O)NCCCCNC(=O)c3ccc(-c4c5nc(c(-c6cccc(S(=O)(=O)[O-])c6F)c6ccc([nH]6)c(-c6cccc(S(=O)(=O)[O-])c6F)c6nc(c(-c7cccc(S(=O)(=O)[O-])c7F)c7ccc4[nH]7)C=C6)C=C5)cc3)n2)nc(C(C)C)n1
REMARK SMILES IDX 15 1 14 2 13 3 11 4 12 5 10 7 7 8 8 9 84 10 9 11 6 12 4 13
REMARK SMILES IDX 5 14 90 15 86 16 85 17 3 18 2 19 1 20 87 21 88 22 89 23
REMARK SMILES IDX 16 24 17 25 18 26 19 27 20 29 21 30 22 31 83 32 23 33 82 34
REMARK SMILES IDX 24 35 25 36 26 37 76 38 27 39 81 40 75 41 77 42 28 43 80 44
REMARK SMILES IDX 74 45 73 46 29 48 61 49 41 50 60 51 42 52 45 53 59 54 78 55
REMARK SMILES IDX 43 56 44 57 58 59 79 60 46 61 30 62 31 63 39 64 32 65 34 66
REMARK SMILES IDX 40 67 33 68 35 69 36 70 37 71 38 72 62 73 63 74 71 75 64 76
REMARK SMILES IDX 66 77 72 78 65 79 67 80 68 81 69 82 70 83 47 84 48 85 56 86
REMARK SMILES IDX 49 87 51 88 57 89 50 90 52 91 53 92 54 93 55 94
REMARK H PARENT 13 6 18 28 77 47 45 58
REMARK Flexibility Score: inf
ROOT
ATOM      1  C   UNL A   1      31.756  28.323  27.621  1.00  0.00     0.023 C 
ENDROOT
BRANCH   1   2
ATOM      2  C   UNL A   1      31.909  27.116  26.690  1.00  0.00     0.116 C 
BRANCH   2   3
ATOM      3  N   UNL A   1      31.842  27.491  25.287  1.00  0.00    -0.351 N 
ATOM      4  C   UNL A   1      31.801  26.728  24.140  1.00  0.00     0.271 C 
ATOM      5  O   UNL A   1      31.893  27.323  23.063  1.00  0.00    -0.267 OA
ATOM      6  H   UNL A   1      31.823  28.462  25.128  1.00  0.00     0.163 HD
BRANCH   4   7
ATOM      7  C   UNL A   1      31.738  25.255  24.177  1.00  0.00     0.150 A 
ATOM      8  N   UNL A   1      32.293  23.201  24.447  1.00  0.00    -0.222 N 
ATOM      9  C   UNL A   1      31.142  23.165  23.692  1.00  0.00     0.118 A 
ATOM     10  N   UNL A   1      32.597  24.459  24.834  1.00  0.00    -0.161 NA
ATOM     11  C   UNL A   1      30.742  24.468  23.533  1.00  0.00     0.056 A 
BRANCH   8  12
ATOM     12  C   UNL A   1      33.204  22.133  24.692  1.00  0.00     0.157 A 
ATOM     13  C   UNL A   1      33.572  19.844  25.040  1.00  0.00     0.046 A 
ATOM     14  C   UNL A   1      32.684  20.900  25.044  1.00  0.00     0.073 A 
ATOM     15  N   UNL A   1      34.900  20.031  24.882  1.00  0.00    -0.238 NA
ATOM     16  C   UNL A   1      35.330  21.283  24.627  1.00  0.00     0.133 A 
ATOM     17  N   UNL A   1      34.519  22.335  24.462  1.00  0.00    -0.213 NA
BRANCH  13  18
ATOM     18  C   UNL A   1      33.120  18.413  25.197  1.00  0.00     0.056 C 
BRANCH  18  19
ATOM     19  C   UNL A   1      32.225  17.848  24.083  1.00  0.00     0.003 C 
ATOM     20  C   UNL A   1      32.876  17.848  22.706  1.00  0.00     0.004 C 
ENDBRANCH  18  19
ENDBRANCH  13  18
BRANCH  16  21
ATOM     21  C   UNL A   1      36.820  21.546  24.602  1.00  0.00     0.051 C 
ATOM     22  C   UNL A   1      37.178  22.654  25.594  1.00  0.00     0.016 C 
ATOM     23  C   UNL A   1      37.618  20.275  24.884  1.00  0.00     0.016 C 
ENDBRANCH  16  21
ENDBRANCH   8  12
ENDBRANCH   4   7
ENDBRANCH   2   3
ENDBRANCH   1   2
BRANCH   1  24
ATOM     24  C   UNL A   1      32.326  29.650  27.099  1.00  0.00     0.023 C 
BRANCH  24  25
ATOM     25  C   UNL A   1      33.723  29.989  27.612  1.00  0.00     0.116 C 
BRANCH  25  26
ATOM     26  N   UNL A   1      34.099  31.372  27.339  1.00  0.00    -0.352 N 
ATOM     27  C   UNL A   1      35.241  32.036  27.740  1.00  0.00     0.251 C 
ATOM     28  H   UNL A   1      33.461  31.895  26.802  1.00  0.00     0.163 HD
ATOM     29  O   UNL A   1      35.268  33.258  27.767  1.00  0.00    -0.269 OA
BRANCH  27  30
ATOM     30  C   UNL A   1      36.425  31.254  28.150  1.00  0.00     0.039 A 
ATOM     31  C   UNL A   1      36.713  30.042  27.514  1.00  0.00     0.014 A 
ATOM     32  C   UNL A   1      37.244  31.733  29.173  1.00  0.00     0.014 A 
ATOM     33  C   UNL A   1      37.879  29.361  27.853  1.00  0.00     0.010 A 
ATOM     34  C   UNL A   1      38.438  31.100  29.455  1.00  0.00     0.010 A 
ATOM     35  C   UNL A   1      38.754  29.908  28.805  1.00  0.00    -0.014 A 
BRANCH  35  36
ATOM     36  C   UNL A   1      40.095  29.337  28.958  1.00  0.00     0.031 A 
ATOM     37  C   UNL A   1      40.518  29.176  30.381  1.00  0.00     0.074 A 
ATOM     38  C   UNL A   1      40.798  28.785  27.946  1.00  0.00     0.049 A 
ATOM     39  N   UNL A   1      41.493  29.766  30.991  1.00  0.00    -0.248 NA
ATOM     40  C   UNL A   1      39.655  28.383  31.272  1.00  0.00     0.031 C 
ATOM     41  C   UNL A   1      40.349  28.579  26.565  1.00  0.00     0.029 A 
ATOM     42  N   UNL A   1      42.008  28.150  27.970  1.00  0.00    -0.354 N 
ATOM     43  C   UNL A   1      41.513  29.228  32.280  1.00  0.00     0.074 A 
ATOM     44  C   UNL A   1      40.248  28.568  32.452  1.00  0.00     0.031 C 
ATOM     45  C   UNL A   1      41.143  27.663  25.968  1.00  0.00     0.029 A 
ATOM     46  C   UNL A   1      42.237  27.334  26.862  1.00  0.00     0.049 A 
ATOM     47  H   UNL A   1      42.658  28.260  28.701  1.00  0.00     0.167 HD
ATOM     48  C   UNL A   1      42.674  29.142  32.988  1.00  0.00     0.034 A 
ATOM     49  C   UNL A   1      43.220  26.413  26.709  1.00  0.00     0.034 A 
ATOM     50  C   UNL A   1      43.691  29.980  32.400  1.00  0.00     0.049 A 
ATOM     51  C   UNL A   1      44.277  26.734  27.689  1.00  0.00     0.074 A 
ATOM     52  C   UNL A   1      43.835  31.325  32.132  1.00  0.00     0.029 A 
ATOM     53  N   UNL A   1      44.637  29.331  31.645  1.00  0.00    -0.354 N 
ATOM     54  N   UNL A   1      45.031  27.794  27.620  1.00  0.00    -0.248 NA
ATOM     55  C   UNL A   1      44.259  26.058  28.975  1.00  0.00     0.031 C 
ATOM     56  C   UNL A   1      44.571  31.382  30.912  1.00  0.00     0.029 A 
ATOM     57  C   UNL A   1      44.896  30.077  30.533  1.00  0.00     0.049 A 
ATOM     58  H   UNL A   1      45.057  28.469  31.869  1.00  0.00     0.167 HD
ATOM     59  C   UNL A   1      45.186  28.183  28.941  1.00  0.00     0.074 A 
ATOM     60  C   UNL A   1      44.825  27.005  29.727  1.00  0.00     0.031 C 
ATOM     61  C   UNL A   1      45.295  29.504  29.267  1.00  0.00     0.034 A 
BRANCH  48  62
ATOM     62  C   UNL A   1      43.063  28.004  33.926  1.00  0.00     0.023 A 
ATOM     63  C   UNL A   1      43.922  27.010  33.391  1.00  0.00     0.012 A 
ATOM     64  C   UNL A   1      42.426  27.688  35.146  1.00  0.00     0.148 A 
ATOM     65  C   UNL A   1      44.043  25.741  33.969  1.00  0.00     0.002 A 
ATOM     66  C   UNL A   1      42.603  26.448  35.756  1.00  0.00     0.091 A 
ATOM     67  F   UNL A   1      41.550  28.531  35.690  1.00  0.00    -0.205 F 
ATOM     68  C   UNL A   1      43.377  25.458  35.151  1.00  0.00     0.022 A 
BRANCH  66  69
ATOM     69  S   UNL A   1      41.806  26.037  37.316  1.00  0.00     0.127 S 
ATOM     70  O   UNL A   1      41.519  24.618  37.132  1.00  0.00    -0.237 OA
ATOM     71  O   UNL A   1      42.868  26.336  38.278  1.00  0.00    -0.237 OA
ATOM     72  O   UNL A   1      40.646  26.915  37.415  1.00  0.00    -0.744 OA
ENDBRANCH  66  69
ENDBRANCH  48  62
BRANCH  49  73
ATOM     73  C   UNL A   1      43.264  25.156  25.924  1.00  0.00     0.023 A 
ATOM     74  C   UNL A   1      44.270  24.977  24.953  1.00  0.00     0.012 A 
ATOM     75  C   UNL A   1      42.516  24.027  26.321  1.00  0.00     0.148 A 
ATOM     76  C   UNL A   1      44.553  23.711  24.426  1.00  0.00     0.002 A 
ATOM     77  C   UNL A   1      42.796  22.770  25.790  1.00  0.00     0.091 A 
ATOM     78  F   UNL A   1      41.598  24.168  27.286  1.00  0.00    -0.205 F 
ATOM     79  C   UNL A   1      43.824  22.606  24.853  1.00  0.00     0.022 A 
BRANCH  77  80
ATOM     80  S   UNL A   1      41.919  21.291  26.315  1.00  0.00     0.127 S 
ATOM     81  O   UNL A   1      42.278  21.214  27.732  1.00  0.00    -0.237 OA
ATOM     82  O   UNL A   1      40.529  21.657  26.055  1.00  0.00    -0.237 OA
ATOM     83  O   UNL A   1      42.452  20.206  25.502  1.00  0.00    -0.744 OA
ENDBRANCH  77  80
ENDBRANCH  49  73
BRANCH  61  84
ATOM     84  C   UNL A   1      45.619  30.482  28.171  1.00  0.00     0.023 A 
ATOM     85  C   UNL A   1      44.630  31.155  27.423  1.00  0.00     0.012 A 
ATOM     86  C   UNL A   1      46.964  30.855  28.014  1.00  0.00     0.148 A 
ATOM     87  C   UNL A   1      44.982  32.168  26.527  1.00  0.00     0.002 A 
ATOM     88  C   UNL A   1      47.303  31.899  27.165  1.00  0.00     0.091 A 
ATOM     89  F   UNL A   1      47.892  30.198  28.726  1.00  0.00    -0.205 F 
ATOM     90  C   UNL A   1      46.317  32.552  26.411  1.00  0.00     0.022 A 
BRANCH  88  91
ATOM     91  S   UNL A   1      48.983  32.523  27.090  1.00  0.00     0.127 S 
ATOM     92  O   UNL A   1      49.732  31.338  26.679  1.00  0.00    -0.237 OA
ATOM     93  O   UNL A   1      48.886  33.571  26.072  1.00  0.00    -0.237 OA
ATOM     94  O   UNL A   1      49.282  33.025  28.427  1.00  0.00    -0.744 OA
ENDBRANCH  88  91
ENDBRANCH  61  84
ENDBRANCH  35  36
ENDBRANCH  27  30
ENDBRANCH  25  26
ENDBRANCH  24  25
ENDBRANCH   1  24
TORSDOF 18
ENDMDL
