MODEL 1
REMARK VINA RESULT:     -13.4      0.000      0.000
REMARK SMILES CC(=O)NS(=O)(=O)c1cc(-c2ccn(C(F)F)c(=O)c2)ccc1C(=O)NCCCCNC(=O)c1ccc(-c2c3nc(c(-c4cccc(S(=O)(=O)[O-])c4F)c4ccc([nH]4)c(-c4cccc(S(=O)(=O)[O-])c4F)c4nc(c(-c5cccc(S(=O)(=O)[O-])c5F)c5ccc2[nH]5)C=C4)C=C3)cc1
REMARK SMILES IDX 29 1 28 2 27 3 26 4 24 5 25 6 23 8 8 9 9 10 10 11 22 12
REMARK SMILES IDX 21 13 5 14 6 15 7 16 4 17 1 18 2 19 3 20 11 22 12 23 20 24
REMARK SMILES IDX 13 25 18 26 14 27 19 28 15 29 16 30 17 31 30 32 31 33 32 34
REMARK SMILES IDX 33 36 34 37 35 38 96 39 36 40 95 41 37 42 38 43 39 44 89 45
REMARK SMILES IDX 40 46 94 47 88 48 90 49 41 50 93 51 87 52 86 53 42 55 74 56
REMARK SMILES IDX 54 57 73 58 55 59 58 60 72 61 91 62 56 63 57 64 71 66 92 67
REMARK SMILES IDX 59 68 43 69 44 70 52 71 45 72 47 73 53 74 46 75 48 76 49 77
REMARK SMILES IDX 50 78 51 79 75 80 76 81 84 82 77 83 79 84 85 85 78 86 80 87
REMARK SMILES IDX 81 88 82 89 83 90 60 91 61 92 69 93 62 94 64 95 70 96 63 97
REMARK SMILES IDX 65 98 66 99 67 100 68 101
REMARK H PARENT 26 7 4 21 31 35 90 54 58 65
REMARK Flexibility Score: inf
ROOT
ATOM      1  C   UNL A   1      36.048  21.145  25.372  1.00  0.00     0.023 C 
ENDROOT
BRANCH   1   2
ATOM      2  C   UNL A   1      35.383  22.286  26.135  1.00  0.00     0.023 C 
BRANCH   2   3
ATOM      3  C   UNL A   1      35.787  23.695  25.681  1.00  0.00     0.116 C 
BRANCH   3   4
ATOM      4  N   UNL A   1      35.468  23.840  24.273  1.00  0.00    -0.352 N 
ATOM      5  C   UNL A   1      34.414  24.387  23.608  1.00  0.00     0.252 C 
ATOM      6  O   UNL A   1      34.330  24.214  22.390  1.00  0.00    -0.269 OA
ATOM      7  H   UNL A   1      36.155  23.465  23.675  1.00  0.00     0.163 HD
BRANCH   5   8
ATOM      8  C   UNL A   1      33.406  25.291  24.207  1.00  0.00     0.060 A 
ATOM      9  C   UNL A   1      32.030  25.056  24.305  1.00  0.00     0.101 A 
ATOM     10  C   UNL A   1      31.147  26.136  24.482  1.00  0.00     0.031 A 
ATOM     11  C   UNL A   1      31.615  27.454  24.475  1.00  0.00    -0.017 A 
ATOM     12  C   UNL A   1      33.873  26.616  24.355  1.00  0.00     0.016 A 
ATOM     13  C   UNL A   1      32.987  27.693  24.472  1.00  0.00     0.009 A 
BRANCH   9  14
ATOM     14  S   UNL A   1      31.326  23.461  24.058  1.00  0.00     0.264 S 
ATOM     15  O   UNL A   1      32.400  22.515  24.235  1.00  0.00    -0.201 OA
ATOM     16  O   UNL A   1      30.482  23.490  22.887  1.00  0.00    -0.201 OA
BRANCH  14  17
ATOM     17  N   UNL A   1      30.338  23.198  25.371  1.00  0.00    -0.249 N 
ATOM     18  C   UNL A   1      32.020  23.007  27.210  1.00  0.00     0.115 C 
ATOM     19  C   UNL A   1      30.658  23.406  26.719  1.00  0.00     0.230 C 
ATOM     20  O   UNL A   1      29.763  23.727  27.490  1.00  0.00    -0.274 OA
ATOM     21  H   UNL A   1      29.433  22.861  25.180  1.00  0.00     0.183 HD
ENDBRANCH  14  17
ENDBRANCH   9  14
BRANCH  11  22
ATOM     22  C   UNL A   1      30.652  28.523  24.152  1.00  0.00    -0.011 A 
ATOM     23  C   UNL A   1      30.784  29.827  24.782  1.00  0.00     0.027 A 
ATOM     24  C   UNL A   1      29.756  28.359  23.166  1.00  0.00     0.080 A 
ATOM     25  C   UNL A   1      30.086  30.873  24.335  1.00  0.00     0.095 A 
ATOM     26  C   UNL A   1      28.931  29.510  22.692  1.00  0.00     0.255 A 
ATOM     27  N   UNL A   1      29.189  30.734  23.295  1.00  0.00    -0.258 N 
ATOM     28  O   UNL A   1      28.118  29.319  21.794  1.00  0.00    -0.269 OA
BRANCH  27  29
ATOM     29  C   UNL A   1      28.485  31.883  22.788  1.00  0.00     0.451 C 
ATOM     30  F   UNL A   1      27.249  31.978  23.337  1.00  0.00    -0.185 F 
ATOM     31  F   UNL A   1      29.154  33.028  23.057  1.00  0.00    -0.185 F 
ENDBRANCH  27  29
ENDBRANCH  11  22
ENDBRANCH   5   8
ENDBRANCH   3   4
ENDBRANCH   2   3
ENDBRANCH   1   2
BRANCH   1  32
ATOM     32  C   UNL A   1      37.489  21.425  24.962  1.00  0.00     0.116 C 
BRANCH  32  33
ATOM     33  N   UNL A   1      38.432  20.431  25.468  1.00  0.00    -0.352 N 
ATOM     34  C   UNL A   1      39.582  20.611  26.197  1.00  0.00     0.251 C 
ATOM     35  H   UNL A   1      38.211  19.496  25.254  1.00  0.00     0.163 HD
ATOM     36  O   UNL A   1      40.315  19.657  26.441  1.00  0.00    -0.269 OA
BRANCH  34  37
ATOM     37  C   UNL A   1      39.949  21.965  26.659  1.00  0.00     0.039 A 
ATOM     38  C   UNL A   1      40.943  22.096  27.632  1.00  0.00     0.014 A 
ATOM     39  C   UNL A   1      39.341  23.096  26.108  1.00  0.00     0.014 A 
ATOM     40  C   UNL A   1      41.393  23.369  27.988  1.00  0.00     0.010 A 
ATOM     41  C   UNL A   1      39.831  24.359  26.419  1.00  0.00     0.010 A 
ATOM     42  C   UNL A   1      40.869  24.504  27.350  1.00  0.00    -0.014 A 
BRANCH  42  43
ATOM     43  C   UNL A   1      41.416  25.857  27.608  1.00  0.00     0.031 A 
ATOM     44  C   UNL A   1      42.788  26.220  27.123  1.00  0.00     0.074 A 
ATOM     45  C   UNL A   1      40.718  26.714  28.378  1.00  0.00     0.049 A 
ATOM     46  N   UNL A   1      43.480  27.304  27.355  1.00  0.00    -0.248 NA
ATOM     47  C   UNL A   1      43.485  25.223  26.294  1.00  0.00     0.031 C 
ATOM     48  C   UNL A   1      39.409  26.442  28.978  1.00  0.00     0.029 A 
ATOM     49  N   UNL A   1      41.022  27.980  28.806  1.00  0.00    -0.354 N 
ATOM     50  C   UNL A   1      44.716  27.093  26.761  1.00  0.00     0.074 A 
ATOM     51  C   UNL A   1      44.677  25.784  26.144  1.00  0.00     0.031 C 
ATOM     52  C   UNL A   1      39.014  27.516  29.680  1.00  0.00     0.029 A 
ATOM     53  C   UNL A   1      40.048  28.544  29.594  1.00  0.00     0.049 A 
ATOM     54  H   UNL A   1      41.859  28.442  28.569  1.00  0.00     0.167 HD
ATOM     55  C   UNL A   1      45.783  27.923  26.718  1.00  0.00     0.034 A 
ATOM     56  C   UNL A   1      39.989  29.759  30.174  1.00  0.00     0.034 A 
ATOM     57  C   UNL A   1      45.791  29.258  27.244  1.00  0.00     0.049 A 
ATOM     58  C   UNL A   1      41.127  30.719  29.978  1.00  0.00     0.074 A 
ATOM     59  C   UNL A   1      46.799  30.204  27.186  1.00  0.00     0.029 A 
ATOM     60  N   UNL A   1      44.725  29.848  27.904  1.00  0.00    -0.354 N 
ATOM     61  N   UNL A   1      42.245  30.542  29.318  1.00  0.00    -0.248 NA
ATOM     62  C   UNL A   1      40.985  32.052  30.580  1.00  0.00     0.031 C 
ATOM     63  C   UNL A   1      46.328  31.381  27.781  1.00  0.00     0.029 A 
ATOM     64  C   UNL A   1      45.037  31.155  28.234  1.00  0.00     0.049 A 
ATOM     65  H   UNL A   1      43.870  29.403  28.109  1.00  0.00     0.167 HD
ATOM     66  C   UNL A   1      42.934  31.744  29.409  1.00  0.00     0.074 A 
ATOM     67  C   UNL A   1      42.099  32.649  30.172  1.00  0.00     0.031 C 
ATOM     68  C   UNL A   1      44.161  32.060  28.928  1.00  0.00     0.034 A 
BRANCH  55  69
ATOM     69  C   UNL A   1      47.004  27.425  26.005  1.00  0.00     0.023 A 
ATOM     70  C   UNL A   1      47.954  26.673  26.723  1.00  0.00     0.012 A 
ATOM     71  C   UNL A   1      47.214  27.686  24.640  1.00  0.00     0.148 A 
ATOM     72  C   UNL A   1      49.104  26.200  26.092  1.00  0.00     0.002 A 
ATOM     73  C   UNL A   1      48.359  27.198  24.015  1.00  0.00     0.091 A 
ATOM     74  F   UNL A   1      46.316  28.425  23.971  1.00  0.00    -0.205 F 
ATOM     75  C   UNL A   1      49.306  26.457  24.737  1.00  0.00     0.022 A 
BRANCH  73  76
ATOM     76  S   UNL A   1      48.627  27.517  22.269  1.00  0.00     0.127 S 
ATOM     77  O   UNL A   1      49.806  28.378  22.285  1.00  0.00    -0.237 OA
ATOM     78  O   UNL A   1      48.863  26.182  21.717  1.00  0.00    -0.237 OA
ATOM     79  O   UNL A   1      47.377  28.129  21.833  1.00  0.00    -0.744 OA
ENDBRANCH  73  76
ENDBRANCH  55  69
BRANCH  56  80
ATOM     80  C   UNL A   1      38.752  30.165  30.889  1.00  0.00     0.023 A 
ATOM     81  C   UNL A   1      38.634  29.865  32.259  1.00  0.00     0.012 A 
ATOM     82  C   UNL A   1      37.734  30.900  30.258  1.00  0.00     0.148 A 
ATOM     83  C   UNL A   1      37.518  30.281  32.985  1.00  0.00     0.002 A 
ATOM     84  C   UNL A   1      36.639  31.340  30.995  1.00  0.00     0.091 A 
ATOM     85  F   UNL A   1      37.854  31.183  28.952  1.00  0.00    -0.205 F 
ATOM     86  C   UNL A   1      36.522  31.026  32.357  1.00  0.00     0.022 A 
BRANCH  84  87
ATOM     87  S   UNL A   1      35.406  32.386  30.216  1.00  0.00     0.127 S 
ATOM     88  O   UNL A   1      34.402  32.529  31.265  1.00  0.00    -0.237 OA
ATOM     89  O   UNL A   1      36.148  33.611  29.913  1.00  0.00    -0.237 OA
ATOM     90  O   UNL A   1      35.018  31.619  29.036  1.00  0.00    -0.744 OA
ENDBRANCH  84  87
ENDBRANCH  56  80
BRANCH  68  91
ATOM     91  C   UNL A   1      44.672  33.443  29.200  1.00  0.00     0.023 A 
ATOM     92  C   UNL A   1      45.359  33.690  30.402  1.00  0.00     0.012 A 
ATOM     93  C   UNL A   1      44.546  34.468  28.248  1.00  0.00     0.148 A 
ATOM     94  C   UNL A   1      45.912  34.945  30.655  1.00  0.00     0.002 A 
ATOM     95  C   UNL A   1      45.113  35.714  28.501  1.00  0.00     0.091 A 
ATOM     96  F   UNL A   1      43.876  34.225  27.111  1.00  0.00    -0.205 F 
ATOM     97  C   UNL A   1      45.795  35.956  29.703  1.00  0.00     0.022 A 
BRANCH  95  98
ATOM     98  S   UNL A   1      45.002  37.010  27.265  1.00  0.00     0.127 S 
ATOM     99  O   UNL A   1      43.621  36.894  26.807  1.00  0.00    -0.237 OA
ATOM    100  O   UNL A   1      45.284  38.228  28.028  1.00  0.00    -0.237 OA
ATOM    101  O   UNL A   1      46.039  36.661  26.300  1.00  0.00    -0.744 OA
ENDBRANCH  95  98
ENDBRANCH  68  91
ENDBRANCH  42  43
ENDBRANCH  34  37
ENDBRANCH  32  33
ENDBRANCH   1  32
TORSDOF 18
ENDMDL
MODEL 2
REMARK VINA RESULT:     -13.0      2.479      3.355
REMARK SMILES CC(=O)NS(=O)(=O)c1cc(-c2ccn(C(F)F)c(=O)c2)ccc1C(=O)NCCCCNC(=O)c1ccc(-c2c3nc(c(-c4cccc(S(=O)(=O)[O-])c4F)c4ccc([nH]4)c(-c4cccc(S(=O)(=O)[O-])c4F)c4nc(c(-c5cccc(S(=O)(=O)[O-])c5F)c5ccc2[nH]5)C=C4)C=C3)cc1
REMARK SMILES IDX 29 1 28 2 27 3 26 4 24 5 25 6 23 8 8 9 9 10 10 11 22 12
REMARK SMILES IDX 21 13 5 14 6 15 7 16 4 17 1 18 2 19 3 20 11 22 12 23 20 24
REMARK SMILES IDX 13 25 18 26 14 27 19 28 15 29 16 30 17 31 30 32 31 33 32 34
REMARK SMILES IDX 33 36 34 37 35 38 96 39 36 40 95 41 37 42 38 43 39 44 89 45
REMARK SMILES IDX 40 46 94 47 88 48 90 49 41 50 93 51 87 52 86 53 42 55 74 56
REMARK SMILES IDX 54 57 73 58 55 59 58 60 72 61 91 62 56 63 57 64 71 66 92 67
REMARK SMILES IDX 59 68 43 69 44 70 52 71 45 72 47 73 53 74 46 75 48 76 49 77
REMARK SMILES IDX 50 78 51 79 75 80 76 81 84 82 77 83 79 84 85 85 78 86 80 87
REMARK SMILES IDX 81 88 82 89 83 90 60 91 61 92 69 93 62 94 64 95 70 96 63 97
REMARK SMILES IDX 65 98 66 99 67 100 68 101
REMARK H PARENT 26 7 4 21 31 35 90 54 58 65
REMARK Flexibility Score: inf
ROOT
ATOM      1  C   UNL A   1      36.084  22.036  24.407  1.00  0.00     0.023 C 
ENDROOT
BRANCH   1   2
ATOM      2  C   UNL A   1      34.730  21.602  24.959  1.00  0.00     0.023 C 
BRANCH   2   3
ATOM      3  C   UNL A   1      33.537  21.860  24.029  1.00  0.00     0.116 C 
BRANCH   3   4
ATOM      4  N   UNL A   1      33.896  22.903  23.087  1.00  0.00    -0.352 N 
ATOM      5  C   UNL A   1      33.689  24.248  23.063  1.00  0.00     0.252 C 
ATOM      6  O   UNL A   1      33.965  24.870  22.034  1.00  0.00    -0.269 OA
ATOM      7  H   UNL A   1      34.391  22.570  22.304  1.00  0.00     0.163 HD
BRANCH   5   8
ATOM      8  C   UNL A   1      33.270  25.066  24.224  1.00  0.00     0.060 A 
ATOM      9  C   UNL A   1      32.160  25.915  24.287  1.00  0.00     0.101 A 
ATOM     10  C   UNL A   1      32.117  26.940  25.248  1.00  0.00     0.031 A 
ATOM     11  C   UNL A   1      33.208  27.182  26.088  1.00  0.00    -0.017 A 
ATOM     12  C   UNL A   1      34.296  25.231  25.181  1.00  0.00     0.016 A 
ATOM     13  C   UNL A   1      34.276  26.288  26.097  1.00  0.00     0.009 A 
BRANCH   9  14
ATOM     14  S   UNL A   1      30.860  25.856  23.100  1.00  0.00     0.264 S 
ATOM     15  O   UNL A   1      30.254  24.555  23.231  1.00  0.00    -0.201 OA
ATOM     16  O   UNL A   1      31.339  26.384  21.844  1.00  0.00    -0.201 OA
BRANCH  14  17
ATOM     17  N   UNL A   1      29.693  26.903  23.660  1.00  0.00    -0.249 N 
ATOM     18  C   UNL A   1      30.486  29.068  22.693  1.00  0.00     0.115 C 
ATOM     19  C   UNL A   1      29.372  28.162  23.136  1.00  0.00     0.230 C 
ATOM     20  O   UNL A   1      28.217  28.557  23.227  1.00  0.00    -0.274 OA
ATOM     21  H   UNL A   1      29.174  26.607  24.441  1.00  0.00     0.183 HD
ENDBRANCH  14  17
ENDBRANCH   9  14
BRANCH  11  22
ATOM     22  C   UNL A   1      33.330  28.523  26.690  1.00  0.00    -0.011 A 
ATOM     23  C   UNL A   1      34.599  28.949  27.254  1.00  0.00     0.027 A 
ATOM     24  C   UNL A   1      32.330  29.414  26.577  1.00  0.00     0.080 A 
ATOM     25  C   UNL A   1      34.805  30.226  27.582  1.00  0.00     0.095 A 
ATOM     26  C   UNL A   1      32.532  30.835  26.990  1.00  0.00     0.255 A 
ATOM     27  N   UNL A   1      33.804  31.165  27.435  1.00  0.00    -0.258 N 
ATOM     28  O   UNL A   1      31.593  31.616  26.878  1.00  0.00    -0.269 OA
BRANCH  27  29
ATOM     29  C   UNL A   1      34.059  32.549  27.741  1.00  0.00     0.451 C 
ATOM     30  F   UNL A   1      33.738  32.831  29.027  1.00  0.00    -0.185 F 
ATOM     31  F   UNL A   1      35.363  32.861  27.554  1.00  0.00    -0.185 F 
ENDBRANCH  27  29
ENDBRANCH  11  22
ENDBRANCH   5   8
ENDBRANCH   3   4
ENDBRANCH   2   3
ENDBRANCH   1   2
BRANCH   1  32
ATOM     32  C   UNL A   1      37.094  22.438  25.476  1.00  0.00     0.116 C 
BRANCH  32  33
ATOM     33  N   UNL A   1      38.084  21.399  25.747  1.00  0.00    -0.352 N 
ATOM     34  C   UNL A   1      39.361  21.518  26.240  1.00  0.00     0.251 C 
ATOM     35  H   UNL A   1      37.794  20.481  25.548  1.00  0.00     0.163 HD
ATOM     36  O   UNL A   1      40.095  20.536  26.299  1.00  0.00    -0.269 OA
BRANCH  34  37
ATOM     37  C   UNL A   1      39.857  22.841  26.670  1.00  0.00     0.039 A 
ATOM     38  C   UNL A   1      40.792  22.905  27.707  1.00  0.00     0.014 A 
ATOM     39  C   UNL A   1      39.429  24.006  26.028  1.00  0.00     0.014 A 
ATOM     40  C   UNL A   1      41.367  24.132  28.040  1.00  0.00     0.010 A 
ATOM     41  C   UNL A   1      40.047  25.217  26.319  1.00  0.00     0.010 A 
ATOM     42  C   UNL A   1      41.029  25.287  27.317  1.00  0.00    -0.014 A 
BRANCH  42  43
ATOM     43  C   UNL A   1      41.717  26.577  27.557  1.00  0.00     0.031 A 
ATOM     44  C   UNL A   1      43.133  26.771  27.102  1.00  0.00     0.074 A 
ATOM     45  C   UNL A   1      41.100  27.528  28.284  1.00  0.00     0.049 A 
ATOM     46  N   UNL A   1      43.936  27.777  27.326  1.00  0.00    -0.248 NA
ATOM     47  C   UNL A   1      43.736  25.679  26.319  1.00  0.00     0.031 C 
ATOM     48  C   UNL A   1      39.754  27.420  28.852  1.00  0.00     0.029 A 
ATOM     49  N   UNL A   1      41.533  28.764  28.688  1.00  0.00    -0.354 N 
ATOM     50  C   UNL A   1      45.156  27.414  26.774  1.00  0.00     0.074 A 
ATOM     51  C   UNL A   1      44.986  26.101  26.189  1.00  0.00     0.031 C 
ATOM     52  C   UNL A   1      39.464  28.551  29.516  1.00  0.00     0.029 A 
ATOM     53  C   UNL A   1      40.608  29.455  29.434  1.00  0.00     0.049 A 
ATOM     54  H   UNL A   1      42.422  29.123  28.464  1.00  0.00     0.167 HD
ATOM     55  C   UNL A   1      46.310  28.118  26.741  1.00  0.00     0.034 A 
ATOM     56  C   UNL A   1      40.671  30.685  29.980  1.00  0.00     0.034 A 
ATOM     57  C   UNL A   1      46.454  29.459  27.232  1.00  0.00     0.049 A 
ATOM     58  C   UNL A   1      41.914  31.507  29.793  1.00  0.00     0.074 A 
ATOM     59  C   UNL A   1      47.562  30.285  27.179  1.00  0.00     0.029 A 
ATOM     60  N   UNL A   1      45.444  30.182  27.846  1.00  0.00    -0.354 N 
ATOM     61  N   UNL A   1      43.022  31.187  29.170  1.00  0.00    -0.248 NA
ATOM     62  C   UNL A   1      41.906  32.864  30.357  1.00  0.00     0.031 C 
ATOM     63  C   UNL A   1      47.211  31.523  27.730  1.00  0.00     0.029 A 
ATOM     64  C   UNL A   1      45.892  31.455  28.152  1.00  0.00     0.049 A 
ATOM     65  H   UNL A   1      44.540  29.841  28.037  1.00  0.00     0.167 HD
ATOM     66  C   UNL A   1      43.838  32.308  29.250  1.00  0.00     0.074 A 
ATOM     67  C   UNL A   1      43.090  33.321  29.967  1.00  0.00     0.031 C 
ATOM     68  C   UNL A   1      45.104  32.471  28.797  1.00  0.00     0.034 A 
BRANCH  55  69
ATOM     69  C   UNL A   1      47.485  27.467  26.076  1.00  0.00     0.023 A 
ATOM     70  C   UNL A   1      47.618  27.566  24.678  1.00  0.00     0.012 A 
ATOM     71  C   UNL A   1      48.455  26.770  26.817  1.00  0.00     0.148 A 
ATOM     72  C   UNL A   1      48.696  26.968  24.026  1.00  0.00     0.002 A 
ATOM     73  C   UNL A   1      49.535  26.187  26.159  1.00  0.00     0.091 A 
ATOM     74  F   UNL A   1      48.305  26.659  28.146  1.00  0.00    -0.205 F 
ATOM     75  C   UNL A   1      49.658  26.282  24.766  1.00  0.00     0.022 A 
BRANCH  73  76
ATOM     76  S   UNL A   1      50.784  25.307  27.102  1.00  0.00     0.127 S 
ATOM     77  O   UNL A   1      51.699  24.851  26.059  1.00  0.00    -0.237 OA
ATOM     78  O   UNL A   1      51.336  26.343  27.977  1.00  0.00    -0.237 OA
ATOM     79  O   UNL A   1      50.027  24.276  27.802  1.00  0.00    -0.744 OA
ENDBRANCH  73  76
ENDBRANCH  55  69
BRANCH  56  80
ATOM     80  C   UNL A   1      39.468  31.246  30.649  1.00  0.00     0.023 A 
ATOM     81  C   UNL A   1      38.397  31.690  29.852  1.00  0.00     0.012 A 
ATOM     82  C   UNL A   1      39.342  31.279  32.048  1.00  0.00     0.148 A 
ATOM     83  C   UNL A   1      37.224  32.167  30.437  1.00  0.00     0.002 A 
ATOM     84  C   UNL A   1      38.157  31.725  32.626  1.00  0.00     0.091 A 
ATOM     85  F   UNL A   1      40.367  30.853  32.802  1.00  0.00    -0.205 F 
ATOM     86  C   UNL A   1      37.098  32.178  31.825  1.00  0.00     0.022 A 
BRANCH  84  87
ATOM     87  S   UNL A   1      37.952  31.645  34.407  1.00  0.00     0.127 S 
ATOM     88  O   UNL A   1      37.882  30.208  34.654  1.00  0.00    -0.237 OA
ATOM     89  O   UNL A   1      39.164  32.291  34.914  1.00  0.00    -0.237 OA
ATOM     90  O   UNL A   1      36.730  32.410  34.635  1.00  0.00    -0.744 OA
ENDBRANCH  84  87
ENDBRANCH  56  80
BRANCH  68  91
ATOM     91  C   UNL A   1      45.760  33.796  29.048  1.00  0.00     0.023 A 
ATOM     92  C   UNL A   1      46.529  33.964  30.215  1.00  0.00     0.012 A 
ATOM     93  C   UNL A   1      45.685  34.838  28.109  1.00  0.00     0.148 A 
ATOM     94  C   UNL A   1      47.212  35.158  30.445  1.00  0.00     0.002 A 
ATOM     95  C   UNL A   1      46.382  36.020  28.338  1.00  0.00     0.091 A 
ATOM     96  F   UNL A   1      44.937  34.671  27.008  1.00  0.00    -0.205 F 
ATOM     97  C   UNL A   1      47.145  36.184  29.504  1.00  0.00     0.022 A 
BRANCH  95  98
ATOM     98  S   UNL A   1      46.333  37.333  27.116  1.00  0.00     0.127 S 
ATOM     99  O   UNL A   1      47.231  38.332  27.688  1.00  0.00    -0.237 OA
ATOM    100  O   UNL A   1      46.844  36.686  25.905  1.00  0.00    -0.237 OA
ATOM    101  O   UNL A   1      44.921  37.692  27.046  1.00  0.00    -0.744 OA
ENDBRANCH  95  98
ENDBRANCH  68  91
ENDBRANCH  42  43
ENDBRANCH  34  37
ENDBRANCH  32  33
ENDBRANCH   1  32
TORSDOF 18
ENDMDL
MODEL 3
REMARK VINA RESULT:     -12.9      0.875      7.264
REMARK SMILES CC(=O)NS(=O)(=O)c1cc(-c2ccn(C(F)F)c(=O)c2)ccc1C(=O)NCCCCNC(=O)c1ccc(-c2c3nc(c(-c4cccc(S(=O)(=O)[O-])c4F)c4ccc([nH]4)c(-c4cccc(S(=O)(=O)[O-])c4F)c4nc(c(-c5cccc(S(=O)(=O)[O-])c5F)c5ccc2[nH]5)C=C4)C=C3)cc1
REMARK SMILES IDX 29 1 28 2 27 3 26 4 24 5 25 6 23 8 8 9 9 10 10 11 22 12
REMARK SMILES IDX 21 13 5 14 6 15 7 16 4 17 1 18 2 19 3 20 11 22 12 23 20 24
REMARK SMILES IDX 13 25 18 26 14 27 19 28 15 29 16 30 17 31 30 32 31 33 32 34
REMARK SMILES IDX 33 36 34 37 35 38 96 39 36 40 95 41 37 42 38 43 39 44 89 45
REMARK SMILES IDX 40 46 94 47 88 48 90 49 41 50 93 51 87 52 86 53 42 55 74 56
REMARK SMILES IDX 54 57 73 58 55 59 58 60 72 61 91 62 56 63 57 64 71 66 92 67
REMARK SMILES IDX 59 68 43 69 44 70 52 71 45 72 47 73 53 74 46 75 48 76 49 77
REMARK SMILES IDX 50 78 51 79 75 80 76 81 84 82 77 83 79 84 85 85 78 86 80 87
REMARK SMILES IDX 81 88 82 89 83 90 60 91 61 92 69 93 62 94 64 95 70 96 63 97
REMARK SMILES IDX 65 98 66 99 67 100 68 101
REMARK H PARENT 26 7 4 21 31 35 90 54 58 65
REMARK Flexibility Score: inf
ROOT
ATOM      1  C   UNL A   1      36.854  20.859  25.055  1.00  0.00     0.023 C 
ENDROOT
BRANCH   1   2
ATOM      2  C   UNL A   1      35.710  21.425  25.892  1.00  0.00     0.023 C 
BRANCH   2   3
ATOM      3  C   UNL A   1      35.432  22.920  25.687  1.00  0.00     0.116 C 
BRANCH   3   4
ATOM      4  N   UNL A   1      35.313  23.182  24.265  1.00  0.00    -0.352 N 
ATOM      5  C   UNL A   1      34.438  23.916  23.524  1.00  0.00     0.252 C 
ATOM      6  O   UNL A   1      34.480  23.819  22.295  1.00  0.00    -0.269 OA
ATOM      7  H   UNL A   1      36.006  22.737  23.725  1.00  0.00     0.163 HD
BRANCH   5   8
ATOM      8  C   UNL A   1      33.507  24.932  24.065  1.00  0.00     0.060 A 
ATOM      9  C   UNL A   1      32.116  24.820  24.159  1.00  0.00     0.101 A 
ATOM     10  C   UNL A   1      31.327  25.978  24.271  1.00  0.00     0.031 A 
ATOM     11  C   UNL A   1      31.905  27.249  24.201  1.00  0.00    -0.017 A 
ATOM     12  C   UNL A   1      34.084  26.219  24.149  1.00  0.00     0.016 A 
ATOM     13  C   UNL A   1      33.292  27.371  24.201  1.00  0.00     0.009 A 
BRANCH   9  14
ATOM     14  S   UNL A   1      31.281  23.279  23.987  1.00  0.00     0.264 S 
ATOM     15  O   UNL A   1      32.274  22.256  24.200  1.00  0.00    -0.201 OA
ATOM     16  O   UNL A   1      30.432  23.326  22.820  1.00  0.00    -0.201 OA
BRANCH  14  17
ATOM     17  N   UNL A   1      30.284  23.157  25.315  1.00  0.00    -0.249 N 
ATOM     18  C   UNL A   1      31.961  23.087  27.169  1.00  0.00     0.115 C 
ATOM     19  C   UNL A   1      30.608  23.474  26.641  1.00  0.00     0.230 C 
ATOM     20  O   UNL A   1      29.721  23.884  27.377  1.00  0.00    -0.274 OA
ATOM     21  H   UNL A   1      29.372  22.827  25.152  1.00  0.00     0.183 HD
ENDBRANCH  14  17
ENDBRANCH   9  14
BRANCH  11  22
ATOM     22  C   UNL A   1      31.039  28.378  23.814  1.00  0.00    -0.011 A 
ATOM     23  C   UNL A   1      30.034  28.195  22.780  1.00  0.00     0.027 A 
ATOM     24  C   UNL A   1      31.056  29.523  24.515  1.00  0.00     0.080 A 
ATOM     25  C   UNL A   1      29.086  29.114  22.579  1.00  0.00     0.095 A 
ATOM     26  C   UNL A   1      30.033  30.582  24.265  1.00  0.00     0.255 A 
ATOM     27  N   UNL A   1      29.063  30.279  23.318  1.00  0.00    -0.258 N 
ATOM     28  O   UNL A   1      30.086  31.617  24.920  1.00  0.00    -0.269 OA
BRANCH  27  29
ATOM     29  C   UNL A   1      28.002  31.235  23.129  1.00  0.00     0.451 C 
ATOM     30  F   UNL A   1      27.305  30.971  21.997  1.00  0.00    -0.185 F 
ATOM     31  F   UNL A   1      27.137  31.221  24.170  1.00  0.00    -0.185 F 
ENDBRANCH  27  29
ENDBRANCH  11  22
ENDBRANCH   5   8
ENDBRANCH   3   4
ENDBRANCH   2   3
ENDBRANCH   1   2
BRANCH   1  32
ATOM     32  C   UNL A   1      38.217  21.464  25.372  1.00  0.00     0.116 C 
BRANCH  32  33
ATOM     33  N   UNL A   1      39.172  20.486  25.885  1.00  0.00    -0.352 N 
ATOM     34  C   UNL A   1      40.313  20.685  26.622  1.00  0.00     0.251 C 
ATOM     35  H   UNL A   1      38.967  19.548  25.671  1.00  0.00     0.163 HD
ATOM     36  O   UNL A   1      41.060  19.743  26.872  1.00  0.00    -0.269 OA
BRANCH  34  37
ATOM     37  C   UNL A   1      40.656  22.045  27.084  1.00  0.00     0.039 A 
ATOM     38  C   UNL A   1      41.520  22.188  28.173  1.00  0.00     0.014 A 
ATOM     39  C   UNL A   1      40.156  23.170  26.423  1.00  0.00     0.014 A 
ATOM     40  C   UNL A   1      41.955  23.461  28.544  1.00  0.00     0.010 A 
ATOM     41  C   UNL A   1      40.637  24.432  26.754  1.00  0.00     0.010 A 
ATOM     42  C   UNL A   1      41.550  24.585  27.807  1.00  0.00    -0.014 A 
BRANCH  42  43
ATOM     43  C   UNL A   1      42.097  25.932  28.091  1.00  0.00     0.031 A 
ATOM     44  C   UNL A   1      41.245  26.965  28.766  1.00  0.00     0.074 A 
ATOM     45  C   UNL A   1      43.324  26.254  27.637  1.00  0.00     0.049 A 
ATOM     46  N   UNL A   1      41.505  28.227  28.987  1.00  0.00    -0.248 NA
ATOM     47  C   UNL A   1      39.915  26.533  29.225  1.00  0.00     0.031 C 
ATOM     48  C   UNL A   1      44.214  25.359  26.892  1.00  0.00     0.029 A 
ATOM     49  N   UNL A   1      44.025  27.429  27.714  1.00  0.00    -0.354 N 
ATOM     50  C   UNL A   1      40.351  28.755  29.547  1.00  0.00     0.074 A 
ATOM     51  C   UNL A   1      39.391  27.676  29.647  1.00  0.00     0.031 C 
ATOM     52  C   UNL A   1      45.350  26.012  26.599  1.00  0.00     0.029 A 
ATOM     53  C   UNL A   1      45.262  27.374  27.118  1.00  0.00     0.049 A 
ATOM     54  H   UNL A   1      43.676  28.236  28.157  1.00  0.00     0.167 HD
ATOM     55  C   UNL A   1      40.116  30.022  29.957  1.00  0.00     0.034 A 
ATOM     56  C   UNL A   1      46.222  28.313  27.013  1.00  0.00     0.034 A 
ATOM     57  C   UNL A   1      41.097  31.070  29.949  1.00  0.00     0.049 A 
ATOM     58  C   UNL A   1      45.992  29.668  27.617  1.00  0.00     0.074 A 
ATOM     59  C   UNL A   1      40.979  32.368  30.412  1.00  0.00     0.029 A 
ATOM     60  N   UNL A   1      42.392  30.929  29.476  1.00  0.00    -0.354 N 
ATOM     61  N   UNL A   1      44.931  30.116  28.242  1.00  0.00    -0.248 NA
ATOM     62  C   UNL A   1      47.095  30.634  27.527  1.00  0.00     0.031 C 
ATOM     63  C   UNL A   1      42.216  33.003  30.250  1.00  0.00     0.029 A 
ATOM     64  C   UNL A   1      43.094  32.107  29.660  1.00  0.00     0.049 A 
ATOM     65  H   UNL A   1      42.759  30.111  29.067  1.00  0.00     0.167 HD
ATOM     66  C   UNL A   1      45.244  31.411  28.637  1.00  0.00     0.074 A 
ATOM     67  C   UNL A   1      46.600  31.668  28.196  1.00  0.00     0.031 C 
ATOM     68  C   UNL A   1      44.466  32.314  29.281  1.00  0.00     0.034 A 
BRANCH  55  69
ATOM     69  C   UNL A   1      38.759  30.313  30.524  1.00  0.00     0.023 A 
ATOM     70  C   UNL A   1      38.463  29.891  31.834  1.00  0.00     0.012 A 
ATOM     71  C   UNL A   1      37.786  31.002  29.780  1.00  0.00     0.148 A 
ATOM     72  C   UNL A   1      37.209  30.140  32.390  1.00  0.00     0.002 A 
ATOM     73  C   UNL A   1      36.540  31.258  30.348  1.00  0.00     0.091 A 
ATOM     74  F   UNL A   1      38.069  31.377  28.523  1.00  0.00    -0.205 F 
ATOM     75  C   UNL A   1      36.248  30.828  31.650  1.00  0.00     0.022 A 
BRANCH  73  76
ATOM     76  S   UNL A   1      35.297  32.149  29.409  1.00  0.00     0.127 S 
ATOM     77  O   UNL A   1      34.319  32.498  30.435  1.00  0.00    -0.237 OA
ATOM     78  O   UNL A   1      36.038  33.290  28.869  1.00  0.00    -0.237 OA
ATOM     79  O   UNL A   1      34.869  31.186  28.400  1.00  0.00    -0.744 OA
ENDBRANCH  73  76
ENDBRANCH  55  69
BRANCH  56  80
ATOM     80  C   UNL A   1      47.531  27.950  26.410  1.00  0.00     0.023 A 
ATOM     81  C   UNL A   1      48.592  27.591  27.262  1.00  0.00     0.012 A 
ATOM     82  C   UNL A   1      47.718  27.884  25.019  1.00  0.00     0.148 A 
ATOM     83  C   UNL A   1      49.820  27.184  26.740  1.00  0.00     0.002 A 
ATOM     84  C   UNL A   1      48.934  27.446  24.503  1.00  0.00     0.091 A 
ATOM     85  F   UNL A   1      46.702  28.226  24.212  1.00  0.00    -0.205 F 
ATOM     86  C   UNL A   1      49.991  27.102  25.359  1.00  0.00     0.022 A 
BRANCH  84  87
ATOM     87  S   UNL A   1      49.125  27.241  22.731  1.00  0.00     0.127 S 
ATOM     88  O   UNL A   1      48.329  26.048  22.461  1.00  0.00    -0.237 OA
ATOM     89  O   UNL A   1      48.566  28.480  22.187  1.00  0.00    -0.237 OA
ATOM     90  O   UNL A   1      50.570  27.117  22.565  1.00  0.00    -0.744 OA
ENDBRANCH  84  87
ENDBRANCH  56  80
BRANCH  68  91
ATOM     91  C   UNL A   1      45.063  33.661  29.561  1.00  0.00     0.023 A 
ATOM     92  C   UNL A   1      45.728  33.870  30.783  1.00  0.00     0.012 A 
ATOM     93  C   UNL A   1      45.039  34.685  28.599  1.00  0.00     0.148 A 
ATOM     94  C   UNL A   1      46.358  35.085  31.046  1.00  0.00     0.002 A 
ATOM     95  C   UNL A   1      45.683  35.890  28.863  1.00  0.00     0.091 A 
ATOM     96  F   UNL A   1      44.390  34.479  27.443  1.00  0.00    -0.205 F 
ATOM     97  C   UNL A   1      46.342  36.094  30.085  1.00  0.00     0.022 A 
BRANCH  95  98
ATOM     98  S   UNL A   1      45.701  37.181  27.616  1.00  0.00     0.127 S 
ATOM     99  O   UNL A   1      46.751  38.073  28.100  1.00  0.00    -0.237 OA
ATOM    100  O   UNL A   1      46.041  36.459  26.388  1.00  0.00    -0.237 OA
ATOM    101  O   UNL A   1      44.340  37.706  27.638  1.00  0.00    -0.744 OA
ENDBRANCH  95  98
ENDBRANCH  68  91
ENDBRANCH  42  43
ENDBRANCH  34  37
ENDBRANCH  32  33
ENDBRANCH   1  32
TORSDOF 18
ENDMDL
