MODEL 1
REMARK VINA RESULT:     -12.2      0.000      0.000
REMARK SMILES COCC[C@]1(C(=O)NCCCCNC(=O)c2ccc(-c3c4nc(c(-c5cccc(S(=O)(=O)[O-])c5F)c5ccc([nH]5)c(-c5cccc(S(=O)(=O)[O-])c5F)c5nc(c(-c6cccc(S(=O)(=O)[O-])c6F)c6ccc3[nH]6)C=C5)C=C4)cc2)CCCN(C(=O)c2ccc(=O)[nH]c2)C1
REMARK SMILES IDX 10 1 9 2 8 3 6 4 7 5 5 7 79 8 92 9 80 10 82 11 81 12 4 13
REMARK SMILES IDX 3 14 2 15 1 16 83 17 84 18 85 19 86 20 91 21 87 22 90 23
REMARK SMILES IDX 88 24 89 26 11 27 12 28 13 29 14 30 15 32 16 33 17 34 78 35
REMARK SMILES IDX 18 36 77 37 19 38 20 39 21 40 71 41 22 42 76 43 70 44 72 45
REMARK SMILES IDX 23 46 75 47 69 48 68 49 24 51 56 52 36 53 55 54 37 55 40 56
REMARK SMILES IDX 54 57 73 58 38 59 39 60 53 62 74 63 41 64 25 65 26 66 34 67
REMARK SMILES IDX 27 68 29 69 35 70 28 71 30 72 31 73 32 74 33 75 57 76 58 77
REMARK SMILES IDX 66 78 59 79 61 80 67 81 60 82 62 83 63 84 64 85 65 86 42 87
REMARK SMILES IDX 43 88 51 89 44 90 46 91 52 92 45 93 47 94 48 95 49 96 50 97
REMARK H PARENT 8 6 90 25 13 31 72 50 40 61
REMARK Flexibility Score: inf
ROOT
ATOM      1  C   UNL A   1      31.895  27.623  24.984  1.00  0.00     0.023 C 
ENDROOT
BRANCH   1   2
ATOM      2  C   UNL A   1      32.557  26.591  25.898  1.00  0.00     0.116 C 
BRANCH   2   3
ATOM      3  N   UNL A   1      31.585  25.759  26.579  1.00  0.00    -0.356 N 
ATOM      4  C   UNL A   1      31.244  24.451  26.454  1.00  0.00     0.228 C 
ATOM      5  O   UNL A   1      30.071  24.215  26.758  1.00  0.00    -0.274 OA
ATOM      6  H   UNL A   1      31.070  26.238  27.269  1.00  0.00     0.163 HD
BRANCH   4   7
ATOM      7  C   UNL A   1      32.156  23.358  25.845  1.00  0.00     0.069 C 
ATOM      8  C   UNL A   1      33.552  23.621  26.515  1.00  0.00     0.021 C 
ATOM      9  C   UNL A   1      31.665  21.894  26.049  1.00  0.00     0.136 C 
ATOM     10  C   UNL A   1      34.530  22.453  26.598  1.00  0.00     0.023 C 
ATOM     11  N   UNL A   1      32.786  20.942  25.976  1.00  0.00    -0.338 N 
ATOM     12  C   UNL A   1      33.808  21.177  26.983  1.00  0.00     0.120 C 
BRANCH   7  13
ATOM     13  C   UNL A   1      32.298  23.614  24.299  1.00  0.00     0.047 C 
BRANCH  13  14
ATOM     14  C   UNL A   1      31.023  23.977  23.500  1.00  0.00     0.161 C 
BRANCH  14  15
ATOM     15  O   UNL A   1      31.269  24.978  22.521  1.00  0.00    -0.385 OA
ATOM     16  C   UNL A   1      32.644  25.236  22.271  1.00  0.00     0.194 C 
ENDBRANCH  14  15
ENDBRANCH  13  14
ENDBRANCH   7  13
BRANCH  11  17
ATOM     17  C   UNL A   1      32.994  20.194  24.818  1.00  0.00     0.255 C 
ATOM     18  O   UNL A   1      32.974  20.671  23.686  1.00  0.00    -0.269 OA
BRANCH  17  19
ATOM     19  C   UNL A   1      33.353  18.754  25.005  1.00  0.00     0.056 A 
ATOM     20  C   UNL A   1      34.422  18.117  24.260  1.00  0.00     0.021 A 
ATOM     21  C   UNL A   1      32.605  18.023  25.847  1.00  0.00     0.099 A 
ATOM     22  C   UNL A   1      34.622  16.792  24.350  1.00  0.00     0.072 A 
ATOM     23  N   UNL A   1      32.815  16.667  25.962  1.00  0.00    -0.328 N 
ATOM     24  C   UNL A   1      33.764  15.974  25.248  1.00  0.00     0.247 A 
ATOM     25  H   UNL A   1      32.251  16.163  26.593  1.00  0.00     0.169 HD
ATOM     26  O   UNL A   1      33.908  14.760  25.332  1.00  0.00    -0.270 OA
ENDBRANCH  17  19
ENDBRANCH  11  17
ENDBRANCH   4   7
ENDBRANCH   2   3
ENDBRANCH   1   2
BRANCH   1  27
ATOM     27  C   UNL A   1      31.642  28.991  25.610  1.00  0.00     0.023 C 
BRANCH  27  28
ATOM     28  C   UNL A   1      32.871  29.873  25.741  1.00  0.00     0.116 C 
BRANCH  28  29
ATOM     29  N   UNL A   1      32.554  31.216  26.200  1.00  0.00    -0.352 N 
ATOM     30  C   UNL A   1      33.173  31.974  27.162  1.00  0.00     0.251 C 
ATOM     31  H   UNL A   1      31.784  31.643  25.758  1.00  0.00     0.163 HD
ATOM     32  O   UNL A   1      32.672  33.038  27.513  1.00  0.00    -0.269 OA
BRANCH  30  33
ATOM     33  C   UNL A   1      34.423  31.491  27.783  1.00  0.00     0.039 A 
ATOM     34  C   UNL A   1      35.495  32.376  27.913  1.00  0.00     0.014 A 
ATOM     35  C   UNL A   1      34.533  30.176  28.242  1.00  0.00     0.014 A 
ATOM     36  C   UNL A   1      36.661  31.952  28.549  1.00  0.00     0.010 A 
ATOM     37  C   UNL A   1      35.659  29.785  28.957  1.00  0.00     0.010 A 
ATOM     38  C   UNL A   1      36.743  30.661  29.100  1.00  0.00    -0.014 A 
BRANCH  38  39
ATOM     39  C   UNL A   1      37.961  30.214  29.816  1.00  0.00     0.031 A 
ATOM     40  C   UNL A   1      38.249  30.712  31.207  1.00  0.00     0.074 A 
ATOM     41  C   UNL A   1      38.840  29.405  29.190  1.00  0.00     0.049 A 
ATOM     42  N   UNL A   1      39.257  30.430  31.991  1.00  0.00    -0.248 NA
ATOM     43  C   UNL A   1      37.299  31.679  31.783  1.00  0.00     0.031 C 
ATOM     44  C   UNL A   1      38.718  28.931  27.809  1.00  0.00     0.029 A 
ATOM     45  N   UNL A   1      40.016  28.853  29.627  1.00  0.00    -0.354 N 
ATOM     46  C   UNL A   1      39.079  31.201  33.133  1.00  0.00     0.074 A 
ATOM     47  C   UNL A   1      37.893  32.000  32.923  1.00  0.00     0.031 C 
ATOM     48  C   UNL A   1      39.766  28.145  27.520  1.00  0.00     0.029 A 
ATOM     49  C   UNL A   1      40.648  28.078  28.682  1.00  0.00     0.049 A 
ATOM     50  H   UNL A   1      40.376  28.998  30.532  1.00  0.00     0.167 HD
ATOM     51  C   UNL A   1      39.815  31.218  34.269  1.00  0.00     0.034 A 
ATOM     52  C   UNL A   1      41.802  27.388  28.748  1.00  0.00     0.034 A 
ATOM     53  C   UNL A   1      40.970  30.391  34.487  1.00  0.00     0.049 A 
ATOM     54  C   UNL A   1      42.569  27.378  30.042  1.00  0.00     0.074 A 
ATOM     55  C   UNL A   1      41.737  30.268  35.632  1.00  0.00     0.029 A 
ATOM     56  N   UNL A   1      41.528  29.549  33.538  1.00  0.00    -0.354 N 
ATOM     57  N   UNL A   1      42.294  27.987  31.169  1.00  0.00    -0.248 NA
ATOM     58  C   UNL A   1      43.782  26.550  30.087  1.00  0.00     0.031 C 
ATOM     59  C   UNL A   1      42.775  29.369  35.365  1.00  0.00     0.029 A 
ATOM     60  C   UNL A   1      42.633  28.905  34.068  1.00  0.00     0.049 A 
ATOM     61  H   UNL A   1      41.190  29.427  32.622  1.00  0.00     0.167 HD
ATOM     62  C   UNL A   1      43.274  27.584  32.070  1.00  0.00     0.074 A 
ATOM     63  C   UNL A   1      44.137  26.662  31.360  1.00  0.00     0.031 C 
ATOM     64  C   UNL A   1      43.451  27.950  33.363  1.00  0.00     0.034 A 
BRANCH  51  65
ATOM     65  C   UNL A   1      39.358  32.124  35.384  1.00  0.00     0.023 A 
ATOM     66  C   UNL A   1      38.493  31.622  36.379  1.00  0.00     0.012 A 
ATOM     67  C   UNL A   1      39.821  33.450  35.480  1.00  0.00     0.148 A 
ATOM     68  C   UNL A   1      38.066  32.434  37.427  1.00  0.00     0.002 A 
ATOM     69  C   UNL A   1      39.429  34.240  36.554  1.00  0.00     0.091 A 
ATOM     70  F   UNL A   1      40.625  33.918  34.515  1.00  0.00    -0.205 F 
ATOM     71  C   UNL A   1      38.542  33.739  37.521  1.00  0.00     0.022 A 
BRANCH  69  72
ATOM     72  S   UNL A   1      40.050  35.906  36.811  1.00  0.00     0.127 S 
ATOM     73  O   UNL A   1      41.475  35.659  37.022  1.00  0.00    -0.237 OA
ATOM     74  O   UNL A   1      39.725  36.555  35.541  1.00  0.00    -0.237 OA
ATOM     75  O   UNL A   1      39.329  36.430  37.963  1.00  0.00    -0.744 OA
ENDBRANCH  69  72
ENDBRANCH  51  65
BRANCH  52  76
ATOM     76  C   UNL A   1      42.255  26.582  27.579  1.00  0.00     0.023 A 
ATOM     77  C   UNL A   1      43.046  27.188  26.584  1.00  0.00     0.012 A 
ATOM     78  C   UNL A   1      41.930  25.217  27.461  1.00  0.00     0.148 A 
ATOM     79  C   UNL A   1      43.476  26.460  25.474  1.00  0.00     0.002 A 
ATOM     80  C   UNL A   1      42.408  24.484  26.382  1.00  0.00     0.091 A 
ATOM     81  F   UNL A   1      41.169  24.660  28.414  1.00  0.00    -0.205 F 
ATOM     82  C   UNL A   1      43.165  25.107  25.378  1.00  0.00     0.022 A 
BRANCH  80  83
ATOM     83  S   UNL A   1      42.171  22.708  26.244  1.00  0.00     0.127 S 
ATOM     84  O   UNL A   1      42.886  22.219  27.420  1.00  0.00    -0.237 OA
ATOM     85  O   UNL A   1      40.714  22.593  26.315  1.00  0.00    -0.237 OA
ATOM     86  O   UNL A   1      42.739  22.335  24.956  1.00  0.00    -0.744 OA
ENDBRANCH  80  83
ENDBRANCH  52  76
BRANCH  64  87
ATOM     87  C   UNL A   1      44.591  27.318  34.118  1.00  0.00     0.023 A 
ATOM     88  C   UNL A   1      45.841  27.965  34.179  1.00  0.00     0.012 A 
ATOM     89  C   UNL A   1      44.401  26.111  34.818  1.00  0.00     0.148 A 
ATOM     90  C   UNL A   1      46.897  27.399  34.893  1.00  0.00     0.002 A 
ATOM     91  C   UNL A   1      45.441  25.580  35.569  1.00  0.00     0.091 A 
ATOM     92  F   UNL A   1      43.210  25.500  34.731  1.00  0.00    -0.205 F 
ATOM     93  C   UNL A   1      46.694  26.214  35.596  1.00  0.00     0.022 A 
BRANCH  91  94
ATOM     94  S   UNL A   1      45.237  24.113  36.587  1.00  0.00     0.127 S 
ATOM     95  O   UNL A   1      44.268  23.343  35.809  1.00  0.00    -0.237 OA
ATOM     96  O   UNL A   1      46.589  23.555  36.604  1.00  0.00    -0.237 OA
ATOM     97  O   UNL A   1      44.766  24.589  37.882  1.00  0.00    -0.744 OA
ENDBRANCH  91  94
ENDBRANCH  64  87
ENDBRANCH  38  39
ENDBRANCH  30  33
ENDBRANCH  28  29
ENDBRANCH  27  28
ENDBRANCH   1  27
TORSDOF 19
ENDMDL
MODEL 2
REMARK VINA RESULT:     -11.9      5.356      9.087
REMARK SMILES COCC[C@]1(C(=O)NCCCCNC(=O)c2ccc(-c3c4nc(c(-c5cccc(S(=O)(=O)[O-])c5F)c5ccc([nH]5)c(-c5cccc(S(=O)(=O)[O-])c5F)c5nc(c(-c6cccc(S(=O)(=O)[O-])c6F)c6ccc3[nH]6)C=C5)C=C4)cc2)CCCN(C(=O)c2ccc(=O)[nH]c2)C1
REMARK SMILES IDX 10 1 9 2 8 3 6 4 7 5 5 7 79 8 92 9 80 10 82 11 81 12 4 13
REMARK SMILES IDX 3 14 2 15 1 16 83 17 84 18 85 19 86 20 91 21 87 22 90 23
REMARK SMILES IDX 88 24 89 26 11 27 12 28 13 29 14 30 15 32 16 33 17 34 78 35
REMARK SMILES IDX 18 36 77 37 19 38 20 39 21 40 71 41 22 42 76 43 70 44 72 45
REMARK SMILES IDX 23 46 75 47 69 48 68 49 24 51 56 52 36 53 55 54 37 55 40 56
REMARK SMILES IDX 54 57 73 58 38 59 39 60 53 62 74 63 41 64 25 65 26 66 34 67
REMARK SMILES IDX 27 68 29 69 35 70 28 71 30 72 31 73 32 74 33 75 57 76 58 77
REMARK SMILES IDX 66 78 59 79 61 80 67 81 60 82 62 83 63 84 64 85 65 86 42 87
REMARK SMILES IDX 43 88 51 89 44 90 46 91 52 92 45 93 47 94 48 95 49 96 50 97
REMARK H PARENT 8 6 90 25 13 31 72 50 40 61
REMARK Flexibility Score: inf
ROOT
ATOM      1  C   UNL A   1      36.760  20.753  24.584  1.00  0.00     0.023 C 
ENDROOT
BRANCH   1   2
ATOM      2  C   UNL A   1      36.661  21.965  25.513  1.00  0.00     0.116 C 
BRANCH   2   3
ATOM      3  N   UNL A   1      35.624  21.804  26.513  1.00  0.00    -0.356 N 
ATOM      4  C   UNL A   1      34.516  22.528  26.814  1.00  0.00     0.228 C 
ATOM      5  O   UNL A   1      34.182  22.452  28.000  1.00  0.00    -0.274 OA
ATOM      6  H   UNL A   1      35.748  21.014  27.087  1.00  0.00     0.163 HD
BRANCH   4   7
ATOM      7  C   UNL A   1      33.801  23.492  25.835  1.00  0.00     0.069 C 
ATOM      8  C   UNL A   1      32.678  24.151  26.712  1.00  0.00     0.021 C 
ATOM      9  C   UNL A   1      34.721  24.551  25.156  1.00  0.00     0.136 C 
ATOM     10  C   UNL A   1      32.146  25.514  26.279  1.00  0.00     0.023 C 
ATOM     11  N   UNL A   1      33.950  25.728  24.726  1.00  0.00    -0.338 N 
ATOM     12  C   UNL A   1      33.280  26.410  25.823  1.00  0.00     0.120 C 
BRANCH   7  13
ATOM     13  C   UNL A   1      33.108  22.650  24.701  1.00  0.00     0.047 C 
BRANCH  13  14
ATOM     14  C   UNL A   1      31.751  21.977  25.019  1.00  0.00     0.161 C 
BRANCH  14  15
ATOM     15  O   UNL A   1      31.789  20.570  24.817  1.00  0.00    -0.385 OA
ATOM     16  C   UNL A   1      33.081  20.045  24.547  1.00  0.00     0.194 C 
ENDBRANCH  14  15
ENDBRANCH  13  14
ENDBRANCH   7  13
BRANCH  11  17
ATOM     17  C   UNL A   1      33.601  25.886  23.385  1.00  0.00     0.255 C 
ATOM     18  O   UNL A   1      34.029  25.172  22.482  1.00  0.00    -0.269 OA
BRANCH  17  19
ATOM     19  C   UNL A   1      32.575  26.930  23.077  1.00  0.00     0.056 A 
ATOM     20  C   UNL A   1      31.157  26.630  23.010  1.00  0.00     0.021 A 
ATOM     21  C   UNL A   1      33.005  28.169  22.788  1.00  0.00     0.099 A 
ATOM     22  C   UNL A   1      30.282  27.558  22.592  1.00  0.00     0.072 A 
ATOM     23  N   UNL A   1      32.113  29.134  22.378  1.00  0.00    -0.328 N 
ATOM     24  C   UNL A   1      30.763  28.918  22.228  1.00  0.00     0.247 A 
ATOM     25  H   UNL A   1      32.462  30.033  22.179  1.00  0.00     0.169 HD
ATOM     26  O   UNL A   1      29.990  29.777  21.820  1.00  0.00    -0.270 OA
ENDBRANCH  17  19
ENDBRANCH  11  17
ENDBRANCH   4   7
ENDBRANCH   2   3
ENDBRANCH   1   2
BRANCH   1  27
ATOM     27  C   UNL A   1      37.786  19.698  24.985  1.00  0.00     0.023 C 
BRANCH  27  28
ATOM     28  C   UNL A   1      38.965  20.222  25.785  1.00  0.00     0.116 C 
BRANCH  28  29
ATOM     29  N   UNL A   1      40.012  19.228  25.964  1.00  0.00    -0.352 N 
ATOM     30  C   UNL A   1      41.353  19.409  26.191  1.00  0.00     0.251 C 
ATOM     31  H   UNL A   1      39.716  18.290  25.913  1.00  0.00     0.163 HD
ATOM     32  O   UNL A   1      42.108  18.443  26.174  1.00  0.00    -0.269 OA
BRANCH  30  33
ATOM     33  C   UNL A   1      41.878  20.769  26.430  1.00  0.00     0.039 A 
ATOM     34  C   UNL A   1      42.104  21.605  25.335  1.00  0.00     0.014 A 
ATOM     35  C   UNL A   1      42.134  21.220  27.728  1.00  0.00     0.014 A 
ATOM     36  C   UNL A   1      42.543  22.911  25.548  1.00  0.00     0.010 A 
ATOM     37  C   UNL A   1      42.482  22.548  27.942  1.00  0.00     0.010 A 
ATOM     38  C   UNL A   1      42.711  23.402  26.854  1.00  0.00    -0.014 A 
BRANCH  38  39
ATOM     39  C   UNL A   1      43.136  24.802  27.094  1.00  0.00     0.031 A 
ATOM     40  C   UNL A   1      42.194  25.779  27.745  1.00  0.00     0.074 A 
ATOM     41  C   UNL A   1      44.349  25.209  26.669  1.00  0.00     0.049 A 
ATOM     42  N   UNL A   1      42.389  27.038  28.040  1.00  0.00    -0.248 NA
ATOM     43  C   UNL A   1      40.847  25.289  28.082  1.00  0.00     0.031 C 
ATOM     44  C   UNL A   1      45.313  24.379  25.941  1.00  0.00     0.029 A 
ATOM     45  N   UNL A   1      44.971  26.426  26.773  1.00  0.00    -0.354 N 
ATOM     46  C   UNL A   1      41.187  27.496  28.566  1.00  0.00     0.074 A 
ATOM     47  C   UNL A   1      40.253  26.394  28.508  1.00  0.00     0.031 C 
ATOM     48  C   UNL A   1      46.411  25.106  25.682  1.00  0.00     0.029 A 
ATOM     49  C   UNL A   1      46.222  26.458  26.200  1.00  0.00     0.049 A 
ATOM     50  H   UNL A   1      44.562  27.205  27.215  1.00  0.00     0.167 HD
ATOM     51  C   UNL A   1      40.896  28.712  29.084  1.00  0.00     0.034 A 
ATOM     52  C   UNL A   1      47.116  27.461  26.110  1.00  0.00     0.034 A 
ATOM     53  C   UNL A   1      41.842  29.790  29.177  1.00  0.00     0.049 A 
ATOM     54  C   UNL A   1      46.789  28.784  26.746  1.00  0.00     0.074 A 
ATOM     55  C   UNL A   1      41.676  31.033  29.761  1.00  0.00     0.029 A 
ATOM     56  N   UNL A   1      43.130  29.756  28.667  1.00  0.00    -0.354 N 
ATOM     57  N   UNL A   1      45.704  29.147  27.386  1.00  0.00    -0.248 NA
ATOM     58  C   UNL A   1      47.827  29.823  26.685  1.00  0.00     0.031 C 
ATOM     59  C   UNL A   1      42.857  31.760  29.581  1.00  0.00     0.029 A 
ATOM     60  C   UNL A   1      43.771  30.956  28.918  1.00  0.00     0.049 A 
ATOM     61  H   UNL A   1      43.531  28.990  28.196  1.00  0.00     0.167 HD
ATOM     62  C   UNL A   1      45.944  30.438  27.843  1.00  0.00     0.074 A 
ATOM     63  C   UNL A   1      47.285  30.786  27.420  1.00  0.00     0.031 C 
ATOM     64  C   UNL A   1      45.126  31.267  28.537  1.00  0.00     0.034 A 
BRANCH  51  65
ATOM     65  C   UNL A   1      39.511  28.921  29.642  1.00  0.00     0.023 A 
ATOM     66  C   UNL A   1      39.209  28.473  30.944  1.00  0.00     0.012 A 
ATOM     67  C   UNL A   1      38.525  29.603  28.902  1.00  0.00     0.148 A 
ATOM     68  C   UNL A   1      37.940  28.665  31.487  1.00  0.00     0.002 A 
ATOM     69  C   UNL A   1      37.277  29.833  29.468  1.00  0.00     0.091 A 
ATOM     70  F   UNL A   1      38.822  30.003  27.657  1.00  0.00    -0.205 F 
ATOM     71  C   UNL A   1      36.978  29.354  30.754  1.00  0.00     0.022 A 
BRANCH  69  72
ATOM     72  S   UNL A   1      35.996  30.782  28.640  1.00  0.00     0.127 S 
ATOM     73  O   UNL A   1      36.775  31.854  28.024  1.00  0.00    -0.237 OA
ATOM     74  O   UNL A   1      35.451  29.805  27.696  1.00  0.00    -0.237 OA
ATOM     75  O   UNL A   1      35.069  31.202  29.682  1.00  0.00    -0.744 OA
ENDBRANCH  69  72
ENDBRANCH  51  65
BRANCH  52  76
ATOM     76  C   UNL A   1      48.437  27.224  25.464  1.00  0.00     0.023 A 
ATOM     77  C   UNL A   1      49.507  26.726  26.234  1.00  0.00     0.012 A 
ATOM     78  C   UNL A   1      48.634  27.463  24.090  1.00  0.00     0.148 A 
ATOM     79  C   UNL A   1      50.758  26.504  25.656  1.00  0.00     0.002 A 
ATOM     80  C   UNL A   1      49.866  27.187  23.510  1.00  0.00     0.091 A 
ATOM     81  F   UNL A   1      47.607  27.945  23.376  1.00  0.00    -0.205 F 
ATOM     82  C   UNL A   1      50.934  26.725  24.294  1.00  0.00     0.022 A 
BRANCH  80  83
ATOM     83  S   UNL A   1      50.147  27.314  21.739  1.00  0.00     0.127 S 
ATOM     84  O   UNL A   1      49.175  26.360  21.214  1.00  0.00    -0.237 OA
ATOM     85  O   UNL A   1      49.831  28.721  21.485  1.00  0.00    -0.237 OA
ATOM     86  O   UNL A   1      51.548  26.969  21.538  1.00  0.00    -0.744 OA
ENDBRANCH  80  83
ENDBRANCH  52  76
BRANCH  64  87
ATOM     87  C   UNL A   1      45.670  32.614  28.933  1.00  0.00     0.023 A 
ATOM     88  C   UNL A   1      46.418  32.752  30.120  1.00  0.00     0.012 A 
ATOM     89  C   UNL A   1      45.490  33.730  28.094  1.00  0.00     0.148 A 
ATOM     90  C   UNL A   1      46.944  33.991  30.484  1.00  0.00     0.002 A 
ATOM     91  C   UNL A   1      46.062  34.949  28.438  1.00  0.00     0.091 A 
ATOM     92  F   UNL A   1      44.759  33.583  26.980  1.00  0.00    -0.205 F 
ATOM     93  C   UNL A   1      46.776  35.085  29.639  1.00  0.00     0.022 A 
BRANCH  91  94
ATOM     94  S   UNL A   1      45.982  36.383  27.358  1.00  0.00     0.127 S 
ATOM     95  O   UNL A   1      47.001  36.061  26.360  1.00  0.00    -0.237 OA
ATOM     96  O   UNL A   1      44.606  36.327  26.866  1.00  0.00    -0.237 OA
ATOM     97  O   UNL A   1      46.273  37.535  28.202  1.00  0.00    -0.744 OA
ENDBRANCH  91  94
ENDBRANCH  64  87
ENDBRANCH  38  39
ENDBRANCH  30  33
ENDBRANCH  28  29
ENDBRANCH  27  28
ENDBRANCH   1  27
TORSDOF 19
ENDMDL
MODEL 3
REMARK VINA RESULT:     -11.9      4.939     10.434
REMARK SMILES COCC[C@]1(C(=O)NCCCCNC(=O)c2ccc(-c3c4nc(c(-c5cccc(S(=O)(=O)[O-])c5F)c5ccc([nH]5)c(-c5cccc(S(=O)(=O)[O-])c5F)c5nc(c(-c6cccc(S(=O)(=O)[O-])c6F)c6ccc3[nH]6)C=C5)C=C4)cc2)CCCN(C(=O)c2ccc(=O)[nH]c2)C1
REMARK SMILES IDX 10 1 9 2 8 3 6 4 7 5 5 7 79 8 92 9 80 10 82 11 81 12 4 13
REMARK SMILES IDX 3 14 2 15 1 16 83 17 84 18 85 19 86 20 91 21 87 22 90 23
REMARK SMILES IDX 88 24 89 26 11 27 12 28 13 29 14 30 15 32 16 33 17 34 78 35
REMARK SMILES IDX 18 36 77 37 19 38 20 39 21 40 71 41 22 42 76 43 70 44 72 45
REMARK SMILES IDX 23 46 75 47 69 48 68 49 24 51 56 52 36 53 55 54 37 55 40 56
REMARK SMILES IDX 54 57 73 58 38 59 39 60 53 62 74 63 41 64 25 65 26 66 34 67
REMARK SMILES IDX 27 68 29 69 35 70 28 71 30 72 31 73 32 74 33 75 57 76 58 77
REMARK SMILES IDX 66 78 59 79 61 80 67 81 60 82 62 83 63 84 64 85 65 86 42 87
REMARK SMILES IDX 43 88 51 89 44 90 46 91 52 92 45 93 47 94 48 95 49 96 50 97
REMARK H PARENT 8 6 90 25 13 31 72 50 40 61
REMARK Flexibility Score: inf
ROOT
ATOM      1  C   UNL A   1      34.968  21.360  25.817  1.00  0.00     0.023 C 
ENDROOT
BRANCH   1   2
ATOM      2  C   UNL A   1      33.619  21.023  25.179  1.00  0.00     0.116 C 
BRANCH   2   3
ATOM      3  N   UNL A   1      33.553  21.435  23.791  1.00  0.00    -0.356 N 
ATOM      4  C   UNL A   1      32.953  22.483  23.169  1.00  0.00     0.228 C 
ATOM      5  O   UNL A   1      32.628  22.245  22.002  1.00  0.00    -0.274 OA
ATOM      6  H   UNL A   1      34.037  20.836  23.177  1.00  0.00     0.163 HD
BRANCH   4   7
ATOM      7  C   UNL A   1      32.555  23.808  23.865  1.00  0.00     0.069 C 
ATOM      8  C   UNL A   1      33.908  24.339  24.458  1.00  0.00     0.021 C 
ATOM      9  C   UNL A   1      31.857  24.856  22.947  1.00  0.00     0.136 C 
ATOM     10  C   UNL A   1      34.029  25.838  24.718  1.00  0.00     0.023 C 
ATOM     11  N   UNL A   1      32.024  26.219  23.475  1.00  0.00    -0.338 N 
ATOM     12  C   UNL A   1      33.416  26.629  23.580  1.00  0.00     0.120 C 
BRANCH   7  13
ATOM     13  C   UNL A   1      31.586  23.486  25.063  1.00  0.00     0.047 C 
BRANCH  13  14
ATOM     14  C   UNL A   1      31.894  24.122  26.440  1.00  0.00     0.161 C 
BRANCH  14  15
ATOM     15  O   UNL A   1      30.785  24.045  27.326  1.00  0.00    -0.385 OA
ATOM     16  C   UNL A   1      29.899  22.964  27.073  1.00  0.00     0.194 C 
ENDBRANCH  14  15
ENDBRANCH  13  14
ENDBRANCH   7  13
BRANCH  11  17
ATOM     17  C   UNL A   1      30.978  26.841  24.155  1.00  0.00     0.255 C 
ATOM     18  O   UNL A   1      29.842  26.380  24.224  1.00  0.00    -0.269 OA
BRANCH  17  19
ATOM     19  C   UNL A   1      31.316  28.086  24.913  1.00  0.00     0.056 A 
ATOM     20  C   UNL A   1      31.744  28.061  26.298  1.00  0.00     0.021 A 
ATOM     21  C   UNL A   1      31.146  29.265  24.293  1.00  0.00     0.099 A 
ATOM     22  C   UNL A   1      31.900  29.203  26.985  1.00  0.00     0.072 A 
ATOM     23  N   UNL A   1      31.324  30.443  24.983  1.00  0.00    -0.328 N 
ATOM     24  C   UNL A   1      31.668  30.509  26.313  1.00  0.00     0.247 A 
ATOM     25  H   UNL A   1      31.196  31.289  24.496  1.00  0.00     0.169 HD
ATOM     26  O   UNL A   1      31.781  31.567  26.922  1.00  0.00    -0.270 OA
ENDBRANCH  17  19
ENDBRANCH  11  17
ENDBRANCH   4   7
ENDBRANCH   2   3
ENDBRANCH   1   2
BRANCH   1  27
ATOM     27  C   UNL A   1      36.150  21.441  24.855  1.00  0.00     0.023 C 
BRANCH  27  28
ATOM     28  C   UNL A   1      37.410  22.054  25.438  1.00  0.00     0.116 C 
BRANCH  28  29
ATOM     29  N   UNL A   1      38.413  21.059  25.785  1.00  0.00    -0.352 N 
ATOM     30  C   UNL A   1      39.660  21.235  26.330  1.00  0.00     0.251 C 
ATOM     31  H   UNL A   1      38.161  20.125  25.603  1.00  0.00     0.163 HD
ATOM     32  O   UNL A   1      40.424  20.279  26.422  1.00  0.00    -0.269 OA
BRANCH  30  33
ATOM     33  C   UNL A   1      40.081  22.579  26.777  1.00  0.00     0.039 A 
ATOM     34  C   UNL A   1      40.967  22.683  27.850  1.00  0.00     0.014 A 
ATOM     35  C   UNL A   1      39.610  23.727  26.135  1.00  0.00     0.014 A 
ATOM     36  C   UNL A   1      41.419  23.942  28.247  1.00  0.00     0.010 A 
ATOM     37  C   UNL A   1      40.133  24.970  26.471  1.00  0.00     0.010 A 
ATOM     38  C   UNL A   1      41.026  25.093  27.544  1.00  0.00    -0.014 A 
BRANCH  38  39
ATOM     39  C   UNL A   1      41.533  26.432  27.929  1.00  0.00     0.031 A 
ATOM     40  C   UNL A   1      42.956  26.819  27.628  1.00  0.00     0.074 A 
ATOM     41  C   UNL A   1      40.729  27.277  28.606  1.00  0.00     0.049 A 
ATOM     42  N   UNL A   1      43.576  27.942  27.883  1.00  0.00    -0.248 NA
ATOM     43  C   UNL A   1      43.806  25.802  26.985  1.00  0.00     0.031 C 
ATOM     44  C   UNL A   1      39.361  26.979  29.038  1.00  0.00     0.029 A 
ATOM     45  N   UNL A   1      40.951  28.551  29.062  1.00  0.00    -0.354 N 
ATOM     46  C   UNL A   1      44.887  27.758  27.460  1.00  0.00     0.074 A 
ATOM     47  C   UNL A   1      44.988  26.400  26.976  1.00  0.00     0.031 C 
ATOM     48  C   UNL A   1      38.861  28.047  29.679  1.00  0.00     0.029 A 
ATOM     49  C   UNL A   1      39.877  29.094  29.726  1.00  0.00     0.049 A 
ATOM     50  H   UNL A   1      41.800  29.031  28.927  1.00  0.00     0.167 HD
ATOM     51  C   UNL A   1      45.906  28.648  27.443  1.00  0.00     0.034 A 
ATOM     52  C   UNL A   1      39.727  30.302  30.303  1.00  0.00     0.034 A 
ATOM     53  C   UNL A   1      45.787  30.010  27.888  1.00  0.00     0.049 A 
ATOM     54  C   UNL A   1      40.855  31.292  30.218  1.00  0.00     0.074 A 
ATOM     55  C   UNL A   1      46.732  31.018  27.836  1.00  0.00     0.029 A 
ATOM     56  N   UNL A   1      44.654  30.553  28.474  1.00  0.00    -0.354 N 
ATOM     57  N   UNL A   1      42.036  31.153  29.666  1.00  0.00    -0.248 NA
ATOM     58  C   UNL A   1      40.615  32.622  30.796  1.00  0.00     0.031 C 
ATOM     59  C   UNL A   1      46.178  32.165  28.413  1.00  0.00     0.029 A 
ATOM     60  C   UNL A   1      44.875  31.882  28.792  1.00  0.00     0.049 A 
ATOM     61  H   UNL A   1      43.815  30.065  28.639  1.00  0.00     0.167 HD
ATOM     62  C   UNL A   1      42.664  32.388  29.791  1.00  0.00     0.074 A 
ATOM     63  C   UNL A   1      41.723  33.267  30.455  1.00  0.00     0.031 C 
ATOM     64  C   UNL A   1      43.909  32.758  29.404  1.00  0.00     0.034 A 
BRANCH  51  65
ATOM     65  C   UNL A   1      47.225  28.191  26.875  1.00  0.00     0.023 A 
ATOM     66  C   UNL A   1      48.296  27.901  27.745  1.00  0.00     0.012 A 
ATOM     67  C   UNL A   1      47.391  27.998  25.490  1.00  0.00     0.148 A 
ATOM     68  C   UNL A   1      49.522  27.465  27.246  1.00  0.00     0.002 A 
ATOM     69  C   UNL A   1      48.601  27.516  25.003  1.00  0.00     0.091 A 
ATOM     70  F   UNL A   1      46.370  28.298  24.675  1.00  0.00    -0.205 F 
ATOM     71  C   UNL A   1      49.671  27.261  25.877  1.00  0.00     0.022 A 
BRANCH  69  72
ATOM     72  S   UNL A   1      48.868  27.143  23.266  1.00  0.00     0.127 S 
ATOM     73  O   UNL A   1      48.168  25.867  23.128  1.00  0.00    -0.237 OA
ATOM     74  O   UNL A   1      48.214  28.272  22.605  1.00  0.00    -0.237 OA
ATOM     75  O   UNL A   1      50.312  27.086  23.085  1.00  0.00    -0.744 OA
ENDBRANCH  69  72
ENDBRANCH  51  65
BRANCH  52  76
ATOM     76  C   UNL A   1      38.427  30.669  30.935  1.00  0.00     0.023 A 
ATOM     77  C   UNL A   1      38.191  30.329  32.281  1.00  0.00     0.012 A 
ATOM     78  C   UNL A   1      37.438  31.372  30.221  1.00  0.00     0.148 A 
ATOM     79  C   UNL A   1      36.980  30.651  32.895  1.00  0.00     0.002 A 
ATOM     80  C   UNL A   1      36.258  31.739  30.855  1.00  0.00     0.091 A 
ATOM     81  F   UNL A   1      37.678  31.679  28.938  1.00  0.00    -0.205 F 
ATOM     82  C   UNL A   1      36.018  31.364  32.186  1.00  0.00     0.022 A 
BRANCH  80  83
ATOM     83  S   UNL A   1      35.020  32.772  30.062  1.00  0.00     0.127 S 
ATOM     84  O   UNL A   1      34.141  33.098  31.181  1.00  0.00    -0.237 OA
ATOM     85  O   UNL A   1      35.830  33.887  29.568  1.00  0.00    -0.237 OA
ATOM     86  O   UNL A   1      34.434  31.948  29.014  1.00  0.00    -0.744 OA
ENDBRANCH  80  83
ENDBRANCH  52  76
BRANCH  64  87
ATOM     87  C   UNL A   1      44.316  34.189  29.638  1.00  0.00     0.023 A 
ATOM     88  C   UNL A   1      44.887  34.568  30.869  1.00  0.00     0.012 A 
ATOM     89  C   UNL A   1      44.188  35.144  28.611  1.00  0.00     0.148 A 
ATOM     90  C   UNL A   1      45.286  35.886  31.088  1.00  0.00     0.002 A 
ATOM     91  C   UNL A   1      44.636  36.442  28.818  1.00  0.00     0.091 A 
ATOM     92  F   UNL A   1      43.623  34.769  27.453  1.00  0.00    -0.205 F 
ATOM     93  C   UNL A   1      45.172  36.819  30.060  1.00  0.00     0.022 A 
BRANCH  91  94
ATOM     94  S   UNL A   1      44.621  37.681  27.516  1.00  0.00     0.127 S 
ATOM     95  O   UNL A   1      45.000  38.888  28.250  1.00  0.00    -0.237 OA
ATOM     96  O   UNL A   1      45.642  37.179  26.597  1.00  0.00    -0.237 OA
ATOM     97  O   UNL A   1      43.268  37.675  26.975  1.00  0.00    -0.744 OA
ENDBRANCH  91  94
ENDBRANCH  64  87
ENDBRANCH  38  39
ENDBRANCH  30  33
ENDBRANCH  28  29
ENDBRANCH  27  28
ENDBRANCH   1  27
TORSDOF 19
ENDMDL
