MODEL 1
REMARK VINA RESULT:     -11.0      0.000      0.000
REMARK SMILES CC(C)n1cncc1[C@@H](NC(=O)OC(C)(C)C)C(=O)NCCCCNC(=O)c1ccc(-c2c3nc(c(-c4cccc(S(=O)(=O)[O-])c4F)c4ccc([nH]4)c(-c4cccc(S(=O)(=O)[O-])c4F)c4nc(c(-c5cccc(S(=O)(=O)[O-])c5F)c5ccc2[nH]5)C=C4)C=C3)cc1
REMARK SMILES IDX 22 1 21 2 20 3 18 4 19 5 9 7 8 8 4 9 5 10 6 11 7 12 2 13
REMARK SMILES IDX 1 14 3 15 10 16 11 17 12 19 13 20 14 21 15 22 16 23 17 24
REMARK SMILES IDX 23 25 24 26 25 27 26 28 27 30 28 31 29 32 90 33 30 34 89 35
REMARK SMILES IDX 31 36 32 37 33 38 83 39 34 40 88 41 82 42 84 43 35 44 87 45
REMARK SMILES IDX 81 46 80 47 36 49 68 50 48 51 67 52 49 53 52 54 66 55 85 56
REMARK SMILES IDX 50 57 51 58 65 60 86 61 53 62 37 63 38 64 46 65 39 66 41 67
REMARK SMILES IDX 47 68 40 69 42 70 43 71 44 72 45 73 69 74 70 75 78 76 71 77
REMARK SMILES IDX 73 78 79 79 72 80 74 81 75 82 76 83 77 84 54 85 55 86 63 87
REMARK SMILES IDX 56 88 58 89 64 90 57 91 59 92 60 93 61 94 62 95
REMARK H PARENT 20 6 10 18 25 29 84 48 52 59
REMARK Flexibility Score: inf
ROOT
ATOM      1  C   UNL A   1      36.539  19.837  25.000  1.00  0.00     0.023 C 
ENDROOT
BRANCH   1   2
ATOM      2  C   UNL A   1      35.883  21.217  25.033  1.00  0.00     0.116 C 
BRANCH   2   3
ATOM      3  N   UNL A   1      35.518  21.608  26.373  1.00  0.00    -0.354 N 
ATOM      4  C   UNL A   1      34.696  22.605  26.808  1.00  0.00     0.248 C 
ATOM      5  O   UNL A   1      34.725  22.836  28.026  1.00  0.00    -0.272 OA
ATOM      6  H   UNL A   1      35.927  21.068  27.088  1.00  0.00     0.163 HD
BRANCH   4   7
ATOM      7  C   UNL A   1      33.917  23.576  25.854  1.00  0.00     0.223 C 
BRANCH   7   8
ATOM      8  C   UNL A   1      32.437  23.330  26.082  1.00  0.00     0.070 A 
ATOM      9  N   UNL A   1      31.663  22.235  25.737  1.00  0.00    -0.330 N 
ATOM     10  C   UNL A   1      30.444  22.425  26.362  1.00  0.00     0.199 A 
ATOM     11  N   UNL A   1      30.343  23.587  26.953  1.00  0.00    -0.245 NA
ATOM     12  C   UNL A   1      31.555  24.164  26.760  1.00  0.00     0.137 A 
BRANCH   9  13
ATOM     13  C   UNL A   1      31.851  21.163  24.753  1.00  0.00     0.082 C 
ATOM     14  C   UNL A   1      32.539  21.505  23.434  1.00  0.00     0.031 C 
ATOM     15  C   UNL A   1      32.556  19.929  25.346  1.00  0.00     0.031 C 
ENDBRANCH   9  13
ENDBRANCH   7   8
BRANCH   7  16
ATOM     16  N   UNL A   1      34.070  25.020  25.928  1.00  0.00    -0.304 N 
ATOM     17  C   UNL A   1      33.941  25.908  24.916  1.00  0.00     0.408 C 
ATOM     18  H   UNL A   1      34.290  25.394  26.812  1.00  0.00     0.168 HD
ATOM     19  O   UNL A   1      33.828  27.109  25.172  1.00  0.00    -0.225 OA
BRANCH  17  20
ATOM     20  O   UNL A   1      34.120  25.353  23.710  1.00  0.00    -0.444 OA
BRANCH  20  21
ATOM     21  C   UNL A   1      33.099  25.490  22.695  1.00  0.00     0.106 C 
ATOM     22  C   UNL A   1      33.209  24.371  21.670  1.00  0.00     0.056 C 
ATOM     23  C   UNL A   1      31.714  25.496  23.347  1.00  0.00     0.056 C 
ATOM     24  C   UNL A   1      33.353  26.852  22.026  1.00  0.00     0.056 C 
ENDBRANCH  20  21
ENDBRANCH  17  20
ENDBRANCH   7  16
ENDBRANCH   4   7
ENDBRANCH   2   3
ENDBRANCH   1   2
BRANCH   1  25
ATOM     25  C   UNL A   1      38.029  19.841  24.635  1.00  0.00     0.023 C 
BRANCH  25  26
ATOM     26  C   UNL A   1      38.978  20.135  25.795  1.00  0.00     0.116 C 
BRANCH  26  27
ATOM     27  N   UNL A   1      40.104  19.193  25.885  1.00  0.00    -0.352 N 
ATOM     28  C   UNL A   1      41.461  19.481  25.944  1.00  0.00     0.251 C 
ATOM     29  H   UNL A   1      39.865  18.239  25.904  1.00  0.00     0.163 HD
ATOM     30  O   UNL A   1      42.300  18.651  25.616  1.00  0.00    -0.269 OA
BRANCH  28  31
ATOM     31  C   UNL A   1      41.877  20.795  26.470  1.00  0.00     0.039 A 
ATOM     32  C   UNL A   1      42.405  21.824  25.684  1.00  0.00     0.014 A 
ATOM     33  C   UNL A   1      41.698  20.977  27.831  1.00  0.00     0.014 A 
ATOM     34  C   UNL A   1      42.696  23.054  26.290  1.00  0.00     0.010 A 
ATOM     35  C   UNL A   1      41.770  22.231  28.360  1.00  0.00     0.010 A 
ATOM     36  C   UNL A   1      42.377  23.243  27.639  1.00  0.00    -0.014 A 
BRANCH  36  37
ATOM     37  C   UNL A   1      42.494  24.516  28.340  1.00  0.00     0.031 A 
ATOM     38  C   UNL A   1      41.335  25.414  28.129  1.00  0.00     0.074 A 
ATOM     39  C   UNL A   1      43.402  24.709  29.328  1.00  0.00     0.049 A 
ATOM     40  N   UNL A   1      41.336  26.537  27.490  1.00  0.00    -0.248 NA
ATOM     41  C   UNL A   1      39.992  24.942  28.502  1.00  0.00     0.031 C 
ATOM     42  C   UNL A   1      44.424  23.774  29.814  1.00  0.00     0.029 A 
ATOM     43  N   UNL A   1      43.502  25.724  30.226  1.00  0.00    -0.354 N 
ATOM     44  C   UNL A   1      40.047  27.039  27.637  1.00  0.00     0.074 A 
ATOM     45  C   UNL A   1      39.227  25.920  28.012  1.00  0.00     0.031 C 
ATOM     46  C   UNL A   1      44.820  24.131  31.059  1.00  0.00     0.029 A 
ATOM     47  C   UNL A   1      44.235  25.416  31.376  1.00  0.00     0.049 A 
ATOM     48  H   UNL A   1      43.089  26.606  30.079  1.00  0.00     0.167 HD
ATOM     49  C   UNL A   1      39.836  28.381  27.750  1.00  0.00     0.034 A 
ATOM     50  C   UNL A   1      44.342  26.172  32.501  1.00  0.00     0.034 A 
ATOM     51  C   UNL A   1      41.015  29.121  27.359  1.00  0.00     0.049 A 
ATOM     52  C   UNL A   1      44.027  27.558  32.104  1.00  0.00     0.074 A 
ATOM     53  C   UNL A   1      41.799  29.192  26.223  1.00  0.00     0.029 A 
ATOM     54  N   UNL A   1      41.785  29.633  28.376  1.00  0.00    -0.354 N 
ATOM     55  N   UNL A   1      44.753  28.235  31.258  1.00  0.00    -0.248 NA
ATOM     56  C   UNL A   1      42.656  28.006  32.266  1.00  0.00     0.031 C 
ATOM     57  C   UNL A   1      43.139  29.279  26.708  1.00  0.00     0.029 A 
ATOM     58  C   UNL A   1      43.095  29.342  28.103  1.00  0.00     0.049 A 
ATOM     59  H   UNL A   1      41.453  30.123  29.163  1.00  0.00     0.167 HD
ATOM     60  C   UNL A   1      43.820  28.854  30.439  1.00  0.00     0.074 A 
ATOM     61  C   UNL A   1      42.555  28.768  31.174  1.00  0.00     0.031 C 
ATOM     62  C   UNL A   1      44.092  29.100  29.123  1.00  0.00     0.034 A 
BRANCH  49  63
ATOM     63  C   UNL A   1      38.756  29.027  28.598  1.00  0.00     0.023 A 
ATOM     64  C   UNL A   1      37.940  29.987  27.956  1.00  0.00     0.012 A 
ATOM     65  C   UNL A   1      38.677  28.971  30.009  1.00  0.00     0.148 A 
ATOM     66  C   UNL A   1      37.161  30.896  28.680  1.00  0.00     0.002 A 
ATOM     67  C   UNL A   1      37.847  29.829  30.721  1.00  0.00     0.091 A 
ATOM     68  F   UNL A   1      39.495  28.179  30.703  1.00  0.00    -0.205 F 
ATOM     69  C   UNL A   1      37.114  30.819  30.066  1.00  0.00     0.022 A 
BRANCH  67  70
ATOM     70  S   UNL A   1      37.723  29.745  32.514  1.00  0.00     0.127 S 
ATOM     71  O   UNL A   1      37.408  28.333  32.715  1.00  0.00    -0.237 OA
ATOM     72  O   UNL A   1      39.069  30.146  32.924  1.00  0.00    -0.237 OA
ATOM     73  O   UNL A   1      36.680  30.696  32.880  1.00  0.00    -0.744 OA
ENDBRANCH  67  70
ENDBRANCH  49  63
BRANCH  50  74
ATOM     74  C   UNL A   1      44.409  25.782  33.931  1.00  0.00     0.023 A 
ATOM     75  C   UNL A   1      43.250  25.392  34.628  1.00  0.00     0.012 A 
ATOM     76  C   UNL A   1      45.659  25.500  34.522  1.00  0.00     0.148 A 
ATOM     77  C   UNL A   1      43.336  24.752  35.875  1.00  0.00     0.002 A 
ATOM     78  C   UNL A   1      45.742  24.902  35.780  1.00  0.00     0.091 A 
ATOM     79  F   UNL A   1      46.762  25.739  33.802  1.00  0.00    -0.205 F 
ATOM     80  C   UNL A   1      44.580  24.510  36.453  1.00  0.00     0.022 A 
BRANCH  78  81
ATOM     81  S   UNL A   1      47.315  24.550  36.582  1.00  0.00     0.127 S 
ATOM     82  O   UNL A   1      47.903  25.886  36.669  1.00  0.00    -0.237 OA
ATOM     83  O   UNL A   1      46.898  23.983  37.864  1.00  0.00    -0.237 OA
ATOM     84  O   UNL A   1      48.005  23.622  35.698  1.00  0.00    -0.744 OA
ENDBRANCH  78  81
ENDBRANCH  50  74
BRANCH  62  85
ATOM     85  C   UNL A   1      45.505  28.881  28.633  1.00  0.00     0.023 A 
ATOM     86  C   UNL A   1      45.992  27.616  28.237  1.00  0.00     0.012 A 
ATOM     87  C   UNL A   1      46.299  30.013  28.393  1.00  0.00     0.148 A 
ATOM     88  C   UNL A   1      47.245  27.483  27.626  1.00  0.00     0.002 A 
ATOM     89  C   UNL A   1      47.523  29.883  27.747  1.00  0.00     0.091 A 
ATOM     90  F   UNL A   1      45.822  31.208  28.769  1.00  0.00    -0.205 F 
ATOM     91  C   UNL A   1      48.004  28.620  27.369  1.00  0.00     0.022 A 
BRANCH  89  92
ATOM     92  S   UNL A   1      48.488  31.320  27.277  1.00  0.00     0.127 S 
ATOM     93  O   UNL A   1      49.643  30.711  26.622  1.00  0.00    -0.237 OA
ATOM     94  O   UNL A   1      47.576  32.028  26.376  1.00  0.00    -0.237 OA
ATOM     95  O   UNL A   1      48.774  32.035  28.515  1.00  0.00    -0.744 OA
ENDBRANCH  89  92
ENDBRANCH  62  85
ENDBRANCH  36  37
ENDBRANCH  28  31
ENDBRANCH  26  27
ENDBRANCH  25  26
ENDBRANCH   1  25
TORSDOF 19
ENDMDL
MODEL 2
REMARK VINA RESULT:     -10.9      2.137      3.186
REMARK SMILES CC(C)n1cncc1[C@@H](NC(=O)OC(C)(C)C)C(=O)NCCCCNC(=O)c1ccc(-c2c3nc(c(-c4cccc(S(=O)(=O)[O-])c4F)c4ccc([nH]4)c(-c4cccc(S(=O)(=O)[O-])c4F)c4nc(c(-c5cccc(S(=O)(=O)[O-])c5F)c5ccc2[nH]5)C=C4)C=C3)cc1
REMARK SMILES IDX 22 1 21 2 20 3 18 4 19 5 9 7 8 8 4 9 5 10 6 11 7 12 2 13
REMARK SMILES IDX 1 14 3 15 10 16 11 17 12 19 13 20 14 21 15 22 16 23 17 24
REMARK SMILES IDX 23 25 24 26 25 27 26 28 27 30 28 31 29 32 90 33 30 34 89 35
REMARK SMILES IDX 31 36 32 37 33 38 83 39 34 40 88 41 82 42 84 43 35 44 87 45
REMARK SMILES IDX 81 46 80 47 36 49 68 50 48 51 67 52 49 53 52 54 66 55 85 56
REMARK SMILES IDX 50 57 51 58 65 60 86 61 53 62 37 63 38 64 46 65 39 66 41 67
REMARK SMILES IDX 47 68 40 69 42 70 43 71 44 72 45 73 69 74 70 75 78 76 71 77
REMARK SMILES IDX 73 78 79 79 72 80 74 81 75 82 76 83 77 84 54 85 55 86 63 87
REMARK SMILES IDX 56 88 58 89 64 90 57 91 59 92 60 93 61 94 62 95
REMARK H PARENT 20 6 10 18 25 29 84 48 52 59
REMARK Flexibility Score: inf
ROOT
ATOM      1  C   UNL A   1      37.224  20.486  24.868  1.00  0.00     0.023 C 
ENDROOT
BRANCH   1   2
ATOM      2  C   UNL A   1      37.286  21.771  25.693  1.00  0.00     0.116 C 
BRANCH   2   3
ATOM      3  N   UNL A   1      36.687  22.886  24.998  1.00  0.00    -0.354 N 
ATOM      4  C   UNL A   1      35.411  23.066  24.555  1.00  0.00     0.248 C 
ATOM      5  O   UNL A   1      35.231  24.042  23.811  1.00  0.00    -0.272 OA
ATOM      6  H   UNL A   1      37.299  23.636  24.815  1.00  0.00     0.163 HD
BRANCH   4   7
ATOM      7  C   UNL A   1      34.259  22.019  24.753  1.00  0.00     0.223 C 
BRANCH   7   8
ATOM      8  C   UNL A   1      33.255  22.640  25.707  1.00  0.00     0.070 A 
ATOM      9  N   UNL A   1      32.177  23.465  25.435  1.00  0.00    -0.330 N 
ATOM     10  C   UNL A   1      31.472  23.565  26.621  1.00  0.00     0.199 A 
ATOM     11  N   UNL A   1      32.074  22.989  27.628  1.00  0.00    -0.245 NA
ATOM     12  C   UNL A   1      33.188  22.443  27.081  1.00  0.00     0.137 A 
BRANCH   9  13
ATOM     13  C   UNL A   1      31.849  24.315  24.285  1.00  0.00     0.082 C 
ATOM     14  C   UNL A   1      30.662  23.920  23.409  1.00  0.00     0.031 C 
ATOM     15  C   UNL A   1      31.677  25.796  24.671  1.00  0.00     0.031 C 
ENDBRANCH   9  13
ENDBRANCH   7   8
BRANCH   7  16
ATOM     16  N   UNL A   1      33.462  21.527  23.641  1.00  0.00    -0.304 N 
ATOM     17  C   UNL A   1      32.599  20.487  23.653  1.00  0.00     0.408 C 
ATOM     18  H   UNL A   1      33.560  22.005  22.785  1.00  0.00     0.168 HD
ATOM     19  O   UNL A   1      31.795  20.353  22.726  1.00  0.00    -0.225 OA
BRANCH  17  20
ATOM     20  O   UNL A   1      32.851  19.612  24.635  1.00  0.00    -0.444 OA
BRANCH  20  21
ATOM     21  C   UNL A   1      33.109  18.225  24.315  1.00  0.00     0.106 C 
ATOM     22  C   UNL A   1      32.409  17.308  25.307  1.00  0.00     0.056 C 
ATOM     23  C   UNL A   1      32.653  17.927  22.884  1.00  0.00     0.056 C 
ATOM     24  C   UNL A   1      34.634  18.050  24.411  1.00  0.00     0.056 C 
ENDBRANCH  20  21
ENDBRANCH  17  20
ENDBRANCH   7  16
ENDBRANCH   4   7
ENDBRANCH   2   3
ENDBRANCH   1   2
BRANCH   1  25
ATOM     25  C   UNL A   1      38.519  19.663  24.861  1.00  0.00     0.023 C 
BRANCH  25  26
ATOM     26  C   UNL A   1      39.408  19.848  26.089  1.00  0.00     0.116 C 
BRANCH  26  27
ATOM     27  N   UNL A   1      40.634  19.038  26.053  1.00  0.00    -0.352 N 
ATOM     28  C   UNL A   1      41.950  19.474  25.967  1.00  0.00     0.251 C 
ATOM     29  H   UNL A   1      40.506  18.063  26.095  1.00  0.00     0.163 HD
ATOM     30  O   UNL A   1      42.835  18.738  25.547  1.00  0.00    -0.269 OA
BRANCH  28  31
ATOM     31  C   UNL A   1      42.272  20.830  26.449  1.00  0.00     0.039 A 
ATOM     32  C   UNL A   1      42.707  21.874  25.627  1.00  0.00     0.014 A 
ATOM     33  C   UNL A   1      42.102  21.036  27.808  1.00  0.00     0.014 A 
ATOM     34  C   UNL A   1      42.913  23.139  26.194  1.00  0.00     0.010 A 
ATOM     35  C   UNL A   1      42.085  22.307  28.302  1.00  0.00     0.010 A 
ATOM     36  C   UNL A   1      42.602  23.341  27.544  1.00  0.00    -0.014 A 
BRANCH  36  37
ATOM     37  C   UNL A   1      42.632  24.639  28.207  1.00  0.00     0.031 A 
ATOM     38  C   UNL A   1      41.396  25.431  28.010  1.00  0.00     0.074 A 
ATOM     39  C   UNL A   1      43.549  24.933  29.161  1.00  0.00     0.049 A 
ATOM     40  N   UNL A   1      41.285  26.531  27.343  1.00  0.00    -0.248 NA
ATOM     41  C   UNL A   1      40.109  24.859  28.437  1.00  0.00     0.031 C 
ATOM     42  C   UNL A   1      44.659  24.100  29.639  1.00  0.00     0.029 A 
ATOM     43  N   UNL A   1      43.590  25.978  30.030  1.00  0.00    -0.354 N 
ATOM     44  C   UNL A   1      39.963  26.929  27.517  1.00  0.00     0.074 A 
ATOM     45  C   UNL A   1      39.251  25.757  27.945  1.00  0.00     0.031 C 
ATOM     46  C   UNL A   1      45.059  24.523  30.861  1.00  0.00     0.029 A 
ATOM     47  C   UNL A   1      44.379  25.765  31.164  1.00  0.00     0.049 A 
ATOM     48  H   UNL A   1      43.100  26.819  29.874  1.00  0.00     0.167 HD
ATOM     49  C   UNL A   1      39.644  28.251  27.602  1.00  0.00     0.034 A 
ATOM     50  C   UNL A   1      44.455  26.557  32.266  1.00  0.00     0.034 A 
ATOM     51  C   UNL A   1      40.745  29.076  27.156  1.00  0.00     0.049 A 
ATOM     52  C   UNL A   1      44.013  27.901  31.843  1.00  0.00     0.074 A 
ATOM     53  C   UNL A   1      41.487  29.180  25.995  1.00  0.00     0.029 A 
ATOM     54  N   UNL A   1      41.499  29.678  28.135  1.00  0.00    -0.354 N 
ATOM     55  N   UNL A   1      44.655  28.612  30.958  1.00  0.00    -0.248 NA
ATOM     56  C   UNL A   1      42.615  28.238  32.037  1.00  0.00     0.031 C 
ATOM     57  C   UNL A   1      42.829  29.391  26.436  1.00  0.00     0.029 A 
ATOM     58  C   UNL A   1      42.819  29.489  27.829  1.00  0.00     0.049 A 
ATOM     59  H   UNL A   1      41.150  30.160  28.919  1.00  0.00     0.167 HD
ATOM     60  C   UNL A   1      43.651  29.128  30.153  1.00  0.00     0.074 A 
ATOM     61  C   UNL A   1      42.419  28.958  30.929  1.00  0.00     0.031 C 
ATOM     62  C   UNL A   1      43.862  29.359  28.823  1.00  0.00     0.034 A 
BRANCH  49  63
ATOM     63  C   UNL A   1      38.538  28.829  28.467  1.00  0.00     0.023 A 
ATOM     64  C   UNL A   1      37.618  29.688  27.824  1.00  0.00     0.012 A 
ATOM     65  C   UNL A   1      38.512  28.818  29.881  1.00  0.00     0.148 A 
ATOM     66  C   UNL A   1      36.785  30.551  28.544  1.00  0.00     0.002 A 
ATOM     67  C   UNL A   1      37.631  29.624  30.594  1.00  0.00     0.091 A 
ATOM     68  F   UNL A   1      39.420  28.128  30.571  1.00  0.00    -0.205 F 
ATOM     69  C   UNL A   1      36.791  30.520  29.933  1.00  0.00     0.022 A 
BRANCH  67  70
ATOM     70  S   UNL A   1      37.575  29.595  32.392  1.00  0.00     0.127 S 
ATOM     71  O   UNL A   1      36.368  30.373  32.654  1.00  0.00    -0.237 OA
ATOM     72  O   UNL A   1      37.460  28.161  32.663  1.00  0.00    -0.237 OA
ATOM     73  O   UNL A   1      38.832  30.186  32.834  1.00  0.00    -0.744 OA
ENDBRANCH  67  70
ENDBRANCH  49  63
BRANCH  50  74
ATOM     74  C   UNL A   1      44.595  26.215  33.702  1.00  0.00     0.023 A 
ATOM     75  C   UNL A   1      45.856  26.226  34.328  1.00  0.00     0.012 A 
ATOM     76  C   UNL A   1      43.451  26.178  34.528  1.00  0.00     0.148 A 
ATOM     77  C   UNL A   1      45.971  26.191  35.727  1.00  0.00     0.002 A 
ATOM     78  C   UNL A   1      43.566  26.101  35.916  1.00  0.00     0.091 A 
ATOM     79  F   UNL A   1      42.253  26.312  33.945  1.00  0.00    -0.205 F 
ATOM     80  C   UNL A   1      44.828  26.124  36.520  1.00  0.00     0.022 A 
BRANCH  78  81
ATOM     81  S   UNL A   1      42.134  26.024  37.003  1.00  0.00     0.127 S 
ATOM     82  O   UNL A   1      42.754  26.211  38.315  1.00  0.00    -0.237 OA
ATOM     83  O   UNL A   1      41.326  27.153  36.546  1.00  0.00    -0.237 OA
ATOM     84  O   UNL A   1      41.541  24.715  36.776  1.00  0.00    -0.744 OA
ENDBRANCH  78  81
ENDBRANCH  50  74
BRANCH  62  85
ATOM     85  C   UNL A   1      45.275  29.245  28.295  1.00  0.00     0.023 A 
ATOM     86  C   UNL A   1      46.266  30.220  28.542  1.00  0.00     0.012 A 
ATOM     87  C   UNL A   1      45.655  28.035  27.696  1.00  0.00     0.148 A 
ATOM     88  C   UNL A   1      47.602  29.996  28.188  1.00  0.00     0.002 A 
ATOM     89  C   UNL A   1      46.989  27.798  27.385  1.00  0.00     0.091 A 
ATOM     90  F   UNL A   1      44.704  27.116  27.473  1.00  0.00    -0.205 F 
ATOM     91  C   UNL A   1      47.966  28.778  27.622  1.00  0.00     0.022 A 
BRANCH  89  92
ATOM     92  S   UNL A   1      47.536  26.204  26.770  1.00  0.00     0.127 S 
ATOM     93  O   UNL A   1      47.147  25.308  27.856  1.00  0.00    -0.237 OA
ATOM     94  O   UNL A   1      46.751  26.056  25.543  1.00  0.00    -0.237 OA
ATOM     95  O   UNL A   1      48.971  26.330  26.546  1.00  0.00    -0.744 OA
ENDBRANCH  89  92
ENDBRANCH  62  85
ENDBRANCH  36  37
ENDBRANCH  28  31
ENDBRANCH  26  27
ENDBRANCH  25  26
ENDBRANCH   1  25
TORSDOF 19
ENDMDL
MODEL 3
REMARK VINA RESULT:     -10.6      2.955      7.361
REMARK SMILES CC(C)n1cncc1[C@@H](NC(=O)OC(C)(C)C)C(=O)NCCCCNC(=O)c1ccc(-c2c3nc(c(-c4cccc(S(=O)(=O)[O-])c4F)c4ccc([nH]4)c(-c4cccc(S(=O)(=O)[O-])c4F)c4nc(c(-c5cccc(S(=O)(=O)[O-])c5F)c5ccc2[nH]5)C=C4)C=C3)cc1
REMARK SMILES IDX 22 1 21 2 20 3 18 4 19 5 9 7 8 8 4 9 5 10 6 11 7 12 2 13
REMARK SMILES IDX 1 14 3 15 10 16 11 17 12 19 13 20 14 21 15 22 16 23 17 24
REMARK SMILES IDX 23 25 24 26 25 27 26 28 27 30 28 31 29 32 90 33 30 34 89 35
REMARK SMILES IDX 31 36 32 37 33 38 83 39 34 40 88 41 82 42 84 43 35 44 87 45
REMARK SMILES IDX 81 46 80 47 36 49 68 50 48 51 67 52 49 53 52 54 66 55 85 56
REMARK SMILES IDX 50 57 51 58 65 60 86 61 53 62 37 63 38 64 46 65 39 66 41 67
REMARK SMILES IDX 47 68 40 69 42 70 43 71 44 72 45 73 69 74 70 75 78 76 71 77
REMARK SMILES IDX 73 78 79 79 72 80 74 81 75 82 76 83 77 84 54 85 55 86 63 87
REMARK SMILES IDX 56 88 58 89 64 90 57 91 59 92 60 93 61 94 62 95
REMARK H PARENT 20 6 10 18 25 29 84 48 52 59
REMARK Flexibility Score: inf
ROOT
ATOM      1  C   UNL A   1      34.011  27.607  25.885  1.00  0.00     0.023 C 
ENDROOT
BRANCH   1   2
ATOM      2  C   UNL A   1      33.651  26.134  25.697  1.00  0.00     0.116 C 
BRANCH   2   3
ATOM      3  N   UNL A   1      34.403  25.529  24.624  1.00  0.00    -0.354 N 
ATOM      4  C   UNL A   1      33.994  24.713  23.611  1.00  0.00     0.248 C 
ATOM      5  O   UNL A   1      34.898  24.182  22.948  1.00  0.00    -0.272 OA
ATOM      6  H   UNL A   1      35.365  25.739  24.623  1.00  0.00     0.163 HD
BRANCH   4   7
ATOM      7  C   UNL A   1      32.508  24.261  23.396  1.00  0.00     0.223 C 
BRANCH   7   8
ATOM      8  C   UNL A   1      31.763  25.449  22.817  1.00  0.00     0.070 A 
ATOM      9  N   UNL A   1      30.672  26.136  23.323  1.00  0.00    -0.330 N 
ATOM     10  C   UNL A   1      30.527  27.254  22.521  1.00  0.00     0.199 A 
ATOM     11  N   UNL A   1      31.338  27.261  21.495  1.00  0.00    -0.245 NA
ATOM     12  C   UNL A   1      32.082  26.138  21.652  1.00  0.00     0.137 A 
BRANCH   9  13
ATOM     13  C   UNL A   1      29.651  25.777  24.313  1.00  0.00     0.082 C 
ATOM     14  C   UNL A   1      29.991  25.931  25.793  1.00  0.00     0.031 C 
ATOM     15  C   UNL A   1      28.306  26.485  24.062  1.00  0.00     0.031 C 
ENDBRANCH   9  13
ENDBRANCH   7   8
BRANCH   7  16
ATOM     16  N   UNL A   1      32.156  23.145  22.533  1.00  0.00    -0.304 N 
ATOM     17  C   UNL A   1      32.302  21.828  22.802  1.00  0.00     0.408 C 
ATOM     18  H   UNL A   1      31.767  23.372  21.657  1.00  0.00     0.168 HD
ATOM     19  O   UNL A   1      31.717  20.996  22.103  1.00  0.00    -0.225 OA
BRANCH  17  20
ATOM     20  O   UNL A   1      33.232  21.587  23.735  1.00  0.00    -0.444 OA
BRANCH  20  21
ATOM     21  C   UNL A   1      32.859  20.939  24.974  1.00  0.00     0.106 C 
ATOM     22  C   UNL A   1      31.598  21.569  25.549  1.00  0.00     0.056 C 
ATOM     23  C   UNL A   1      32.658  19.440  24.737  1.00  0.00     0.056 C 
ATOM     24  C   UNL A   1      34.045  21.150  25.931  1.00  0.00     0.056 C 
ENDBRANCH  20  21
ENDBRANCH  17  20
ENDBRANCH   7  16
ENDBRANCH   4   7
ENDBRANCH   2   3
ENDBRANCH   1   2
BRANCH   1  25
ATOM     25  C   UNL A   1      32.995  28.418  26.701  1.00  0.00     0.023 C 
BRANCH  25  26
ATOM     26  C   UNL A   1      33.595  29.260  27.825  1.00  0.00     0.116 C 
BRANCH  26  27
ATOM     27  N   UNL A   1      33.884  30.647  27.429  1.00  0.00    -0.352 N 
ATOM     28  C   UNL A   1      35.003  31.411  27.732  1.00  0.00     0.251 C 
ATOM     29  H   UNL A   1      33.197  31.088  26.879  1.00  0.00     0.163 HD
ATOM     30  O   UNL A   1      34.961  32.636  27.701  1.00  0.00    -0.269 OA
BRANCH  28  31
ATOM     31  C   UNL A   1      36.267  30.715  28.037  1.00  0.00     0.039 A 
ATOM     32  C   UNL A   1      36.562  29.408  27.635  1.00  0.00     0.014 A 
ATOM     33  C   UNL A   1      37.194  31.449  28.757  1.00  0.00     0.014 A 
ATOM     34  C   UNL A   1      37.827  28.883  27.924  1.00  0.00     0.010 A 
ATOM     35  C   UNL A   1      38.485  31.018  28.835  1.00  0.00     0.010 A 
ATOM     36  C   UNL A   1      38.784  29.702  28.535  1.00  0.00    -0.014 A 
BRANCH  36  37
ATOM     37  C   UNL A   1      40.173  29.319  28.754  1.00  0.00     0.031 A 
ATOM     38  C   UNL A   1      40.527  29.170  30.185  1.00  0.00     0.074 A 
ATOM     39  C   UNL A   1      40.948  28.835  27.752  1.00  0.00     0.049 A 
ATOM     40  N   UNL A   1      41.333  29.919  30.861  1.00  0.00    -0.248 NA
ATOM     41  C   UNL A   1      39.774  28.210  31.007  1.00  0.00     0.031 C 
ATOM     42  C   UNL A   1      40.601  28.673  26.335  1.00  0.00     0.029 A 
ATOM     43  N   UNL A   1      42.163  28.226  27.813  1.00  0.00    -0.354 N 
ATOM     44  C   UNL A   1      41.399  29.335  32.122  1.00  0.00     0.074 A 
ATOM     45  C   UNL A   1      40.244  28.488  32.226  1.00  0.00     0.031 C 
ATOM     46  C   UNL A   1      41.431  27.773  25.757  1.00  0.00     0.029 A 
ATOM     47  C   UNL A   1      42.483  27.448  26.698  1.00  0.00     0.049 A 
ATOM     48  H   UNL A   1      42.768  28.326  28.584  1.00  0.00     0.167 HD
ATOM     49  C   UNL A   1      42.562  29.356  32.833  1.00  0.00     0.034 A 
ATOM     50  C   UNL A   1      43.537  26.598  26.571  1.00  0.00     0.034 A 
ATOM     51  C   UNL A   1      43.494  30.307  32.269  1.00  0.00     0.049 A 
ATOM     52  C   UNL A   1      44.548  27.041  27.551  1.00  0.00     0.074 A 
ATOM     53  C   UNL A   1      43.469  31.660  31.991  1.00  0.00     0.029 A 
ATOM     54  N   UNL A   1      44.517  29.790  31.510  1.00  0.00    -0.354 N 
ATOM     55  N   UNL A   1      45.134  28.204  27.488  1.00  0.00    -0.248 NA
ATOM     56  C   UNL A   1      44.543  26.401  28.854  1.00  0.00     0.031 C 
ATOM     57  C   UNL A   1      44.139  31.789  30.737  1.00  0.00     0.029 A 
ATOM     58  C   UNL A   1      44.607  30.528  30.361  1.00  0.00     0.049 A 
ATOM     59  H   UNL A   1      45.085  29.023  31.751  1.00  0.00     0.167 HD
ATOM     60  C   UNL A   1      45.127  28.653  28.801  1.00  0.00     0.074 A 
ATOM     61  C   UNL A   1      44.856  27.459  29.606  1.00  0.00     0.031 C 
ATOM     62  C   UNL A   1      45.033  29.985  29.090  1.00  0.00     0.034 A 
BRANCH  49  63
ATOM     63  C   UNL A   1      43.041  28.250  33.756  1.00  0.00     0.023 A 
ATOM     64  C   UNL A   1      43.334  28.623  35.088  1.00  0.00     0.012 A 
ATOM     65  C   UNL A   1      43.484  26.971  33.344  1.00  0.00     0.148 A 
ATOM     66  C   UNL A   1      44.101  27.811  35.930  1.00  0.00     0.002 A 
ATOM     67  C   UNL A   1      44.184  26.136  34.208  1.00  0.00     0.091 A 
ATOM     68  F   UNL A   1      43.354  26.584  32.075  1.00  0.00    -0.205 F 
ATOM     69  C   UNL A   1      44.528  26.565  35.490  1.00  0.00     0.022 A 
BRANCH  67  70
ATOM     70  S   UNL A   1      44.727  24.499  33.698  1.00  0.00     0.127 S 
ATOM     71  O   UNL A   1      45.705  24.185  34.736  1.00  0.00    -0.237 OA
ATOM     72  O   UNL A   1      43.480  23.737  33.769  1.00  0.00    -0.237 OA
ATOM     73  O   UNL A   1      45.251  24.662  32.348  1.00  0.00    -0.744 OA
ENDBRANCH  67  70
ENDBRANCH  49  63
BRANCH  50  74
ATOM     74  C   UNL A   1      43.649  25.281  25.899  1.00  0.00     0.023 A 
ATOM     75  C   UNL A   1      44.734  24.993  25.049  1.00  0.00     0.012 A 
ATOM     76  C   UNL A   1      42.851  24.202  26.336  1.00  0.00     0.148 A 
ATOM     77  C   UNL A   1      45.006  23.677  24.643  1.00  0.00     0.002 A 
ATOM     78  C   UNL A   1      43.097  22.900  25.898  1.00  0.00     0.091 A 
ATOM     79  F   UNL A   1      41.909  24.450  27.254  1.00  0.00    -0.205 F 
ATOM     80  C   UNL A   1      44.187  22.632  25.063  1.00  0.00     0.022 A 
BRANCH  78  81
ATOM     81  S   UNL A   1      42.087  21.500  26.409  1.00  0.00     0.127 S 
ATOM     82  O   UNL A   1      40.751  21.946  26.015  1.00  0.00    -0.237 OA
ATOM     83  O   UNL A   1      42.627  20.407  25.602  1.00  0.00    -0.237 OA
ATOM     84  O   UNL A   1      42.302  21.366  27.842  1.00  0.00    -0.744 OA
ENDBRANCH  78  81
ENDBRANCH  50  74
BRANCH  62  85
ATOM     85  C   UNL A   1      45.156  30.972  27.951  1.00  0.00     0.023 A 
ATOM     86  C   UNL A   1      44.040  31.468  27.244  1.00  0.00     0.012 A 
ATOM     87  C   UNL A   1      46.413  31.550  27.717  1.00  0.00     0.148 A 
ATOM     88  C   UNL A   1      44.176  32.508  26.317  1.00  0.00     0.002 A 
ATOM     89  C   UNL A   1      46.538  32.613  26.829  1.00  0.00     0.091 A 
ATOM     90  F   UNL A   1      47.463  31.074  28.401  1.00  0.00    -0.205 F 
ATOM     91  C   UNL A   1      45.425  33.090  26.120  1.00  0.00     0.022 A 
BRANCH  89  92
ATOM     92  S   UNL A   1      48.094  33.482  26.628  1.00  0.00     0.127 S 
ATOM     93  O   UNL A   1      47.817  34.341  25.478  1.00  0.00    -0.237 OA
ATOM     94  O   UNL A   1      48.224  34.190  27.903  1.00  0.00    -0.237 OA
ATOM     95  O   UNL A   1      49.105  32.454  26.413  1.00  0.00    -0.744 OA
ENDBRANCH  89  92
ENDBRANCH  62  85
ENDBRANCH  36  37
ENDBRANCH  28  31
ENDBRANCH  26  27
ENDBRANCH  25  26
ENDBRANCH   1  25
TORSDOF 19
ENDMDL
