MODEL 1
REMARK VINA RESULT:     -12.3      0.000      0.000
REMARK SMILES O=C(CCc1ccccc1)Nc1ccccc1Oc1ccsc1C(=O)NCCCCNC(=O)c1ccc(-c2c3nc(c(-c4cccc(S(=O)(=O)[O-])c4F)c4ccc([nH]4)c(-c4cccc(S(=O)(=O)[O-])c4F)c4nc(c(-c5cccc(S(=O)(=O)[O-])c5F)c5ccc2[nH]5)C=C4)C=C3)cc1
REMARK SMILES IDX 27 1 26 2 24 3 25 4 23 6 19 7 20 8 21 9 22 10 18 11 17 12
REMARK SMILES IDX 12 13 13 14 14 15 16 16 15 17 11 18 1 19 2 20 3 22 4 23 5 24
REMARK SMILES IDX 6 25 10 26 7 27 9 28 8 29 28 30 29 31 30 32 31 33 32 34
REMARK SMILES IDX 33 36 34 37 35 38 96 39 36 40 95 41 37 42 38 43 39 44 89 45
REMARK SMILES IDX 40 46 94 47 88 48 90 49 41 50 93 51 87 52 86 53 42 55 74 56
REMARK SMILES IDX 54 57 73 58 55 59 58 60 72 61 91 62 56 63 57 64 71 66 92 67
REMARK SMILES IDX 59 68 43 69 44 70 52 71 45 72 47 73 53 74 46 75 48 76 49 77
REMARK SMILES IDX 50 78 51 79 75 80 76 81 84 82 77 83 79 84 85 85 78 86 80 87
REMARK SMILES IDX 81 88 82 89 83 90 60 91 61 92 69 93 62 94 64 95 70 96 63 97
REMARK SMILES IDX 65 98 66 99 67 100 68 101
REMARK H PARENT 26 5 11 21 31 35 90 54 58 65
REMARK Flexibility Score: inf
ROOT
ATOM      1  C   UNL A   1      35.460  23.407  25.362  1.00  0.00     0.116 C 
ENDROOT
BRANCH   1   2
ATOM      2  N   UNL A   1      34.917  22.655  26.453  1.00  0.00    -0.351 N 
ATOM      3  C   UNL A   1      33.677  22.768  27.049  1.00  0.00     0.265 C 
ATOM      4  O   UNL A   1      33.511  21.988  27.995  1.00  0.00    -0.268 OA
ATOM      5  H   UNL A   1      35.508  21.962  26.828  1.00  0.00     0.163 HD
BRANCH   3   6
ATOM      6  C   UNL A   1      32.637  23.732  26.644  1.00  0.00     0.135 A 
ATOM      7  C   UNL A   1      32.581  25.029  26.138  1.00  0.00     0.151 A 
ATOM      8  C   UNL A   1      31.255  25.471  25.828  1.00  0.00     0.059 A 
ATOM      9  C   UNL A   1      30.304  24.542  26.159  1.00  0.00     0.069 A 
ATOM     10  S   UNL A   1      31.000  23.128  26.796  1.00  0.00    -0.135 S 
BRANCH   7  11
ATOM     11  O   UNL A   1      33.654  25.781  25.813  1.00  0.00    -0.453 OA
BRANCH  11  12
ATOM     12  C   UNL A   1      33.711  26.609  24.703  1.00  0.00     0.151 A 
ATOM     13  C   UNL A   1      33.608  26.246  23.346  1.00  0.00     0.084 A 
ATOM     14  C   UNL A   1      33.414  27.242  22.380  1.00  0.00     0.030 A 
ATOM     15  C   UNL A   1      33.316  28.585  22.749  1.00  0.00     0.002 A 
ATOM     16  C   UNL A   1      33.660  27.969  25.052  1.00  0.00     0.049 A 
ATOM     17  C   UNL A   1      33.451  28.951  24.083  1.00  0.00     0.004 A 
BRANCH  13  18
ATOM     18  N   UNL A   1      33.696  24.916  22.897  1.00  0.00    -0.323 N 
ATOM     19  O   UNL A   1      31.423  24.483  22.752  1.00  0.00    -0.275 OA
ATOM     20  C   UNL A   1      32.591  24.121  22.652  1.00  0.00     0.224 C 
ATOM     21  H   UNL A   1      34.591  24.532  22.749  1.00  0.00     0.170 HD
BRANCH  20  22
ATOM     22  C   UNL A   1      32.949  22.711  22.216  1.00  0.00     0.105 C 
BRANCH  22  23
ATOM     23  C   UNL A   1      31.829  21.726  22.536  1.00  0.00     0.045 C 
BRANCH  23  24
ATOM     24  C   UNL A   1      32.367  20.453  23.142  1.00  0.00    -0.048 A 
ATOM     25  C   UNL A   1      32.210  19.237  22.465  1.00  0.00     0.004 A 
ATOM     26  C   UNL A   1      33.095  20.479  24.338  1.00  0.00     0.004 A 
ATOM     27  C   UNL A   1      32.801  18.073  22.953  1.00  0.00     0.000 A 
ATOM     28  C   UNL A   1      33.674  19.309  24.834  1.00  0.00     0.000 A 
ATOM     29  C   UNL A   1      33.536  18.110  24.136  1.00  0.00     0.000 A 
ENDBRANCH  23  24
ENDBRANCH  22  23
ENDBRANCH  20  22
ENDBRANCH  13  18
ENDBRANCH  11  12
ENDBRANCH   7  11
ENDBRANCH   3   6
ENDBRANCH   1   2
BRANCH   1  30
ATOM     30  C   UNL A   1      35.919  22.644  24.129  1.00  0.00     0.023 C 
BRANCH  30  31
ATOM     31  C   UNL A   1      36.990  21.583  24.330  1.00  0.00     0.023 C 
BRANCH  31  32
ATOM     32  C   UNL A   1      37.570  21.453  25.731  1.00  0.00     0.116 C 
BRANCH  32  33
ATOM     33  N   UNL A   1      38.818  20.702  25.810  1.00  0.00    -0.352 N 
ATOM     34  C   UNL A   1      40.041  21.069  26.326  1.00  0.00     0.251 C 
ATOM     35  H   UNL A   1      38.780  19.791  25.436  1.00  0.00     0.163 HD
ATOM     36  O   UNL A   1      40.985  20.281  26.282  1.00  0.00    -0.269 OA
BRANCH  34  37
ATOM     37  C   UNL A   1      40.238  22.431  26.875  1.00  0.00     0.039 A 
ATOM     38  C   UNL A   1      41.151  22.612  27.919  1.00  0.00     0.014 A 
ATOM     39  C   UNL A   1      39.587  23.534  26.321  1.00  0.00     0.014 A 
ATOM     40  C   UNL A   1      41.503  23.906  28.317  1.00  0.00     0.010 A 
ATOM     41  C   UNL A   1      40.011  24.819  26.649  1.00  0.00     0.010 A 
ATOM     42  C   UNL A   1      40.985  25.022  27.639  1.00  0.00    -0.014 A 
BRANCH  42  43
ATOM     43  C   UNL A   1      41.476  26.402  27.909  1.00  0.00     0.031 A 
ATOM     44  C   UNL A   1      42.892  26.784  27.568  1.00  0.00     0.074 A 
ATOM     45  C   UNL A   1      40.690  27.273  28.575  1.00  0.00     0.049 A 
ATOM     46  N   UNL A   1      43.530  27.897  27.823  1.00  0.00    -0.248 NA
ATOM     47  C   UNL A   1      43.711  25.770  26.883  1.00  0.00     0.031 C 
ATOM     48  C   UNL A   1      39.333  26.999  29.053  1.00  0.00     0.029 A 
ATOM     49  N   UNL A   1      40.931  28.560  28.994  1.00  0.00    -0.354 N 
ATOM     50  C   UNL A   1      44.832  27.699  27.378  1.00  0.00     0.074 A 
ATOM     51  C   UNL A   1      44.902  26.349  26.866  1.00  0.00     0.031 C 
ATOM     52  C   UNL A   1      38.860  28.082  29.692  1.00  0.00     0.029 A 
ATOM     53  C   UNL A   1      39.886  29.119  29.696  1.00  0.00     0.049 A 
ATOM     54  H   UNL A   1      41.772  29.037  28.811  1.00  0.00     0.167 HD
ATOM     55  C   UNL A   1      45.868  28.572  27.363  1.00  0.00     0.034 A 
ATOM     56  C   UNL A   1      39.767  30.328  30.279  1.00  0.00     0.034 A 
ATOM     57  C   UNL A   1      45.779  29.938  27.804  1.00  0.00     0.049 A 
ATOM     58  C   UNL A   1      40.906  31.307  30.176  1.00  0.00     0.074 A 
ATOM     59  C   UNL A   1      46.740  30.930  27.729  1.00  0.00     0.029 A 
ATOM     60  N   UNL A   1      44.662  30.505  28.398  1.00  0.00    -0.354 N 
ATOM     61  N   UNL A   1      42.072  31.156  29.596  1.00  0.00    -0.248 NA
ATOM     62  C   UNL A   1      40.701  32.635  30.775  1.00  0.00     0.031 C 
ATOM     63  C   UNL A   1      46.205  32.098  28.282  1.00  0.00     0.029 A 
ATOM     64  C   UNL A   1      44.909  31.835  28.694  1.00  0.00     0.049 A 
ATOM     65  H   UNL A   1      43.819  30.033  28.582  1.00  0.00     0.167 HD
ATOM     66  C   UNL A   1      42.725  32.377  29.728  1.00  0.00     0.074 A 
ATOM     67  C   UNL A   1      41.815  33.263  30.424  1.00  0.00     0.031 C 
ATOM     68  C   UNL A   1      43.971  32.726  29.326  1.00  0.00     0.034 A 
BRANCH  55  69
ATOM     69  C   UNL A   1      47.172  28.098  26.775  1.00  0.00     0.023 A 
ATOM     70  C   UNL A   1      48.230  27.748  27.639  1.00  0.00     0.012 A 
ATOM     71  C   UNL A   1      47.334  27.946  25.385  1.00  0.00     0.148 A 
ATOM     72  C   UNL A   1      49.442  27.289  27.127  1.00  0.00     0.002 A 
ATOM     73  C   UNL A   1      48.532  27.447  24.884  1.00  0.00     0.091 A 
ATOM     74  F   UNL A   1      46.325  28.304  24.578  1.00  0.00    -0.205 F 
ATOM     75  C   UNL A   1      49.589  27.128  25.753  1.00  0.00     0.022 A 
BRANCH  73  76
ATOM     76  S   UNL A   1      48.793  27.132  23.135  1.00  0.00     0.127 S 
ATOM     77  O   UNL A   1      48.108  28.270  22.525  1.00  0.00    -0.237 OA
ATOM     78  O   UNL A   1      50.252  27.172  23.028  1.00  0.00    -0.237 OA
ATOM     79  O   UNL A   1      48.203  25.828  22.871  1.00  0.00    -0.744 OA
ENDBRANCH  73  76
ENDBRANCH  55  69
BRANCH  56  80
ATOM     80  C   UNL A   1      38.487  30.718  30.937  1.00  0.00     0.023 A 
ATOM     81  C   UNL A   1      38.299  30.419  32.301  1.00  0.00     0.012 A 
ATOM     82  C   UNL A   1      37.471  31.399  30.238  1.00  0.00     0.148 A 
ATOM     83  C   UNL A   1      37.112  30.761  32.950  1.00  0.00     0.002 A 
ATOM     84  C   UNL A   1      36.312  31.785  30.905  1.00  0.00     0.091 A 
ATOM     85  F   UNL A   1      37.660  31.663  28.937  1.00  0.00    -0.205 F 
ATOM     86  C   UNL A   1      36.124  31.453  32.255  1.00  0.00     0.022 A 
BRANCH  84  87
ATOM     87  S   UNL A   1      35.045  32.789  30.121  1.00  0.00     0.127 S 
ATOM     88  O   UNL A   1      34.527  31.879  29.105  1.00  0.00    -0.237 OA
ATOM     89  O   UNL A   1      34.132  33.054  31.235  1.00  0.00    -0.237 OA
ATOM     90  O   UNL A   1      35.739  33.971  29.627  1.00  0.00    -0.744 OA
ENDBRANCH  84  87
ENDBRANCH  56  80
BRANCH  68  91
ATOM     91  C   UNL A   1      44.425  34.136  29.593  1.00  0.00     0.023 A 
ATOM     92  C   UNL A   1      45.027  34.451  30.827  1.00  0.00     0.012 A 
ATOM     93  C   UNL A   1      44.333  35.125  28.594  1.00  0.00     0.148 A 
ATOM     94  C   UNL A   1      45.509  35.736  31.072  1.00  0.00     0.002 A 
ATOM     95  C   UNL A   1      44.855  36.392  28.830  1.00  0.00     0.091 A 
ATOM     96  F   UNL A   1      43.737  34.811  27.435  1.00  0.00    -0.205 F 
ATOM     97  C   UNL A   1      45.434  36.702  30.071  1.00  0.00     0.022 A 
BRANCH  95  98
ATOM     98  S   UNL A   1      44.884  37.665  27.563  1.00  0.00     0.127 S 
ATOM     99  O   UNL A   1      45.394  38.815  28.307  1.00  0.00    -0.237 OA
ATOM    100  O   UNL A   1      45.817  37.111  26.582  1.00  0.00    -0.237 OA
ATOM    101  O   UNL A   1      43.513  37.783  27.086  1.00  0.00    -0.744 OA
ENDBRANCH  95  98
ENDBRANCH  68  91
ENDBRANCH  42  43
ENDBRANCH  34  37
ENDBRANCH  32  33
ENDBRANCH  31  32
ENDBRANCH  30  31
ENDBRANCH   1  30
TORSDOF 20
ENDMDL
MODEL 2
REMARK VINA RESULT:     -11.9      2.362      4.127
REMARK SMILES O=C(CCc1ccccc1)Nc1ccccc1Oc1ccsc1C(=O)NCCCCNC(=O)c1ccc(-c2c3nc(c(-c4cccc(S(=O)(=O)[O-])c4F)c4ccc([nH]4)c(-c4cccc(S(=O)(=O)[O-])c4F)c4nc(c(-c5cccc(S(=O)(=O)[O-])c5F)c5ccc2[nH]5)C=C4)C=C3)cc1
REMARK SMILES IDX 27 1 26 2 24 3 25 4 23 6 19 7 20 8 21 9 22 10 18 11 17 12
REMARK SMILES IDX 12 13 13 14 14 15 16 16 15 17 11 18 1 19 2 20 3 22 4 23 5 24
REMARK SMILES IDX 6 25 10 26 7 27 9 28 8 29 28 30 29 31 30 32 31 33 32 34
REMARK SMILES IDX 33 36 34 37 35 38 96 39 36 40 95 41 37 42 38 43 39 44 89 45
REMARK SMILES IDX 40 46 94 47 88 48 90 49 41 50 93 51 87 52 86 53 42 55 74 56
REMARK SMILES IDX 54 57 73 58 55 59 58 60 72 61 91 62 56 63 57 64 71 66 92 67
REMARK SMILES IDX 59 68 43 69 44 70 52 71 45 72 47 73 53 74 46 75 48 76 49 77
REMARK SMILES IDX 50 78 51 79 75 80 76 81 84 82 77 83 79 84 85 85 78 86 80 87
REMARK SMILES IDX 81 88 82 89 83 90 60 91 61 92 69 93 62 94 64 95 70 96 63 97
REMARK SMILES IDX 65 98 66 99 67 100 68 101
REMARK H PARENT 26 5 11 21 31 35 90 54 58 65
REMARK Flexibility Score: inf
ROOT
ATOM      1  C   UNL A   1      34.791  23.365  23.067  1.00  0.00     0.116 C 
ENDROOT
BRANCH   1   2
ATOM      2  N   UNL A   1      33.656  22.610  22.628  1.00  0.00    -0.351 N 
ATOM      3  C   UNL A   1      32.426  22.466  23.235  1.00  0.00     0.265 C 
ATOM      4  O   UNL A   1      31.655  21.720  22.617  1.00  0.00    -0.268 OA
ATOM      5  H   UNL A   1      33.769  22.131  21.775  1.00  0.00     0.163 HD
BRANCH   3   6
ATOM      6  C   UNL A   1      32.041  23.098  24.511  1.00  0.00     0.135 A 
ATOM      7  C   UNL A   1      31.982  24.384  25.042  1.00  0.00     0.151 A 
ATOM      8  C   UNL A   1      31.425  24.441  26.360  1.00  0.00     0.059 A 
ATOM      9  C   UNL A   1      31.125  23.198  26.854  1.00  0.00     0.069 A 
ATOM     10  S   UNL A   1      31.467  21.974  25.725  1.00  0.00    -0.135 S 
BRANCH   7  11
ATOM     11  O   UNL A   1      32.269  25.517  24.364  1.00  0.00    -0.453 OA
BRANCH  11  12
ATOM     12  C   UNL A   1      32.424  26.758  24.961  1.00  0.00     0.151 A 
ATOM     13  C   UNL A   1      31.435  27.733  25.200  1.00  0.00     0.084 A 
ATOM     14  C   UNL A   1      31.719  28.805  26.056  1.00  0.00     0.030 A 
ATOM     15  C   UNL A   1      32.965  28.913  26.677  1.00  0.00     0.002 A 
ATOM     16  C   UNL A   1      33.689  26.908  25.555  1.00  0.00     0.049 A 
ATOM     17  C   UNL A   1      33.955  27.972  26.417  1.00  0.00     0.004 A 
BRANCH  13  18
ATOM     18  N   UNL A   1      30.158  27.693  24.613  1.00  0.00    -0.323 N 
ATOM     19  O   UNL A   1      30.787  28.250  22.452  1.00  0.00    -0.275 OA
ATOM     20  C   UNL A   1      29.924  27.977  23.280  1.00  0.00     0.224 C 
ATOM     21  H   UNL A   1      29.391  27.450  25.182  1.00  0.00     0.170 HD
BRANCH  20  22
ATOM     22  C   UNL A   1      28.455  27.906  22.899  1.00  0.00     0.105 C 
BRANCH  22  23
ATOM     23  C   UNL A   1      27.665  29.065  23.498  1.00  0.00     0.045 C 
BRANCH  23  24
ATOM     24  C   UNL A   1      27.980  30.368  22.806  1.00  0.00    -0.048 A 
ATOM     25  C   UNL A   1      27.986  30.431  21.407  1.00  0.00     0.004 A 
ATOM     26  C   UNL A   1      28.185  31.541  23.543  1.00  0.00     0.004 A 
ATOM     27  C   UNL A   1      28.159  31.651  20.754  1.00  0.00     0.000 A 
ATOM     28  C   UNL A   1      28.374  32.759  22.888  1.00  0.00     0.000 A 
ATOM     29  C   UNL A   1      28.349  32.815  21.495  1.00  0.00     0.000 A 
ENDBRANCH  23  24
ENDBRANCH  22  23
ENDBRANCH  20  22
ENDBRANCH  13  18
ENDBRANCH  11  12
ENDBRANCH   7  11
ENDBRANCH   3   6
ENDBRANCH   1   2
BRANCH   1  30
ATOM     30  C   UNL A   1      36.111  22.632  23.243  1.00  0.00     0.023 C 
BRANCH  30  31
ATOM     31  C   UNL A   1      36.880  22.887  24.529  1.00  0.00     0.023 C 
BRANCH  31  32
ATOM     32  C   UNL A   1      36.830  21.792  25.585  1.00  0.00     0.116 C 
BRANCH  32  33
ATOM     33  N   UNL A   1      37.978  20.892  25.589  1.00  0.00    -0.352 N 
ATOM     34  C   UNL A   1      39.248  21.079  26.089  1.00  0.00     0.251 C 
ATOM     35  H   UNL A   1      37.820  20.014  25.170  1.00  0.00     0.163 HD
ATOM     36  O   UNL A   1      40.086  20.185  25.976  1.00  0.00    -0.269 OA
BRANCH  34  37
ATOM     37  C   UNL A   1      39.622  22.374  26.702  1.00  0.00     0.039 A 
ATOM     38  C   UNL A   1      40.687  22.408  27.607  1.00  0.00     0.014 A 
ATOM     39  C   UNL A   1      38.982  23.558  26.336  1.00  0.00     0.014 A 
ATOM     40  C   UNL A   1      41.188  23.640  28.045  1.00  0.00     0.010 A 
ATOM     41  C   UNL A   1      39.543  24.782  26.692  1.00  0.00     0.010 A 
ATOM     42  C   UNL A   1      40.662  24.839  27.537  1.00  0.00    -0.014 A 
BRANCH  42  43
ATOM     43  C   UNL A   1      41.288  26.157  27.832  1.00  0.00     0.031 A 
ATOM     44  C   UNL A   1      42.710  26.433  27.420  1.00  0.00     0.074 A 
ATOM     45  C   UNL A   1      40.623  27.061  28.582  1.00  0.00     0.049 A 
ATOM     46  N   UNL A   1      43.458  27.474  27.681  1.00  0.00    -0.248 NA
ATOM     47  C   UNL A   1      43.395  25.385  26.644  1.00  0.00     0.031 C 
ATOM     48  C   UNL A   1      39.277  26.882  29.132  1.00  0.00     0.029 A 
ATOM     49  N   UNL A   1      41.000  28.302  29.038  1.00  0.00    -0.354 N 
ATOM     50  C   UNL A   1      44.709  27.186  27.148  1.00  0.00     0.074 A 
ATOM     51  C   UNL A   1      44.630  25.860  26.577  1.00  0.00     0.031 C 
ATOM     52  C   UNL A   1      38.940  27.971  29.843  1.00  0.00     0.029 A 
ATOM     53  C   UNL A   1      40.052  28.914  29.826  1.00  0.00     0.049 A 
ATOM     54  H   UNL A   1      41.868  28.712  28.823  1.00  0.00     0.167 HD
ATOM     55  C   UNL A   1      45.816  27.967  27.104  1.00  0.00     0.034 A 
ATOM     56  C   UNL A   1      40.075  30.101  30.465  1.00  0.00     0.034 A 
ATOM     57  C   UNL A   1      45.874  29.312  27.606  1.00  0.00     0.049 A 
ATOM     58  C   UNL A   1      41.288  30.982  30.332  1.00  0.00     0.074 A 
ATOM     59  C   UNL A   1      46.912  30.221  27.512  1.00  0.00     0.029 A 
ATOM     60  N   UNL A   1      44.848  29.945  28.291  1.00  0.00    -0.354 N 
ATOM     61  N   UNL A   1      42.401  30.759  29.674  1.00  0.00    -0.248 NA
ATOM     62  C   UNL A   1      41.237  32.293  30.997  1.00  0.00     0.031 C 
ATOM     63  C   UNL A   1      46.516  31.404  28.146  1.00  0.00     0.029 A 
ATOM     64  C   UNL A   1      45.228  31.233  28.626  1.00  0.00     0.049 A 
ATOM     65  H   UNL A   1      43.978  29.539  28.508  1.00  0.00     0.167 HD
ATOM     66  C   UNL A   1      43.165  31.912  29.816  1.00  0.00     0.074 A 
ATOM     67  C   UNL A   1      42.380  32.839  30.604  1.00  0.00     0.031 C 
ATOM     68  C   UNL A   1      44.411  32.171  29.351  1.00  0.00     0.034 A 
BRANCH  55  69
ATOM     69  C   UNL A   1      47.035  27.410  26.417  1.00  0.00     0.023 A 
ATOM     70  C   UNL A   1      47.226  27.660  25.042  1.00  0.00     0.012 A 
ATOM     71  C   UNL A   1      48.014  26.693  27.131  1.00  0.00     0.148 A 
ATOM     72  C   UNL A   1      48.353  27.175  24.381  1.00  0.00     0.002 A 
ATOM     73  C   UNL A   1      49.156  26.249  26.474  1.00  0.00     0.091 A 
ATOM     74  F   UNL A   1      47.806  26.446  28.433  1.00  0.00    -0.205 F 
ATOM     75  C   UNL A   1      49.321  26.480  25.098  1.00  0.00     0.022 A 
BRANCH  73  76
ATOM     76  S   UNL A   1      50.498  25.410  27.324  1.00  0.00     0.127 S 
ATOM     77  O   UNL A   1      50.884  26.407  28.321  1.00  0.00    -0.237 OA
ATOM     78  O   UNL A   1      49.827  24.230  27.872  1.00  0.00    -0.237 OA
ATOM     79  O   UNL A   1      51.497  25.119  26.306  1.00  0.00    -0.744 OA
ENDBRANCH  73  76
ENDBRANCH  55  69
BRANCH  56  80
ATOM     80  C   UNL A   1      38.875  30.568  31.217  1.00  0.00     0.023 A 
ATOM     81  C   UNL A   1      38.837  30.406  32.617  1.00  0.00     0.012 A 
ATOM     82  C   UNL A   1      37.789  31.190  30.570  1.00  0.00     0.148 A 
ATOM     83  C   UNL A   1      37.729  30.823  33.354  1.00  0.00     0.002 A 
ATOM     84  C   UNL A   1      36.711  31.652  31.318  1.00  0.00     0.091 A 
ATOM     85  F   UNL A   1      37.835  31.323  29.237  1.00  0.00    -0.205 F 
ATOM     86  C   UNL A   1      36.672  31.456  32.706  1.00  0.00     0.022 A 
BRANCH  84  87
ATOM     87  S   UNL A   1      35.366  32.590  30.582  1.00  0.00     0.127 S 
ATOM     88  O   UNL A   1      34.433  32.701  31.699  1.00  0.00    -0.237 OA
ATOM     89  O   UNL A   1      36.033  33.839  30.209  1.00  0.00    -0.237 OA
ATOM     90  O   UNL A   1      34.914  31.794  29.449  1.00  0.00    -0.744 OA
ENDBRANCH  84  87
ENDBRANCH  56  80
BRANCH  68  91
ATOM     91  C   UNL A   1      45.003  33.523  29.648  1.00  0.00     0.023 A 
ATOM     92  C   UNL A   1      45.806  33.695  30.792  1.00  0.00     0.012 A 
ATOM     93  C   UNL A   1      44.834  34.597  28.752  1.00  0.00     0.148 A 
ATOM     94  C   UNL A   1      46.413  34.923  31.054  1.00  0.00     0.002 A 
ATOM     95  C   UNL A   1      45.477  35.805  28.996  1.00  0.00     0.091 A 
ATOM     96  F   UNL A   1      44.047  34.419  27.681  1.00  0.00    -0.205 F 
ATOM     97  C   UNL A   1      46.259  35.973  30.151  1.00  0.00     0.022 A 
BRANCH  95  98
ATOM     98  S   UNL A   1      45.408  37.177  27.839  1.00  0.00     0.127 S 
ATOM     99  O   UNL A   1      44.017  37.607  27.968  1.00  0.00    -0.237 OA
ATOM    100  O   UNL A   1      46.388  38.109  28.397  1.00  0.00    -0.237 OA
ATOM    101  O   UNL A   1      45.778  36.623  26.543  1.00  0.00    -0.744 OA
ENDBRANCH  95  98
ENDBRANCH  68  91
ENDBRANCH  42  43
ENDBRANCH  34  37
ENDBRANCH  32  33
ENDBRANCH  31  32
ENDBRANCH  30  31
ENDBRANCH   1  30
TORSDOF 20
ENDMDL
MODEL 3
REMARK VINA RESULT:     -11.6      1.291      2.042
REMARK SMILES O=C(CCc1ccccc1)Nc1ccccc1Oc1ccsc1C(=O)NCCCCNC(=O)c1ccc(-c2c3nc(c(-c4cccc(S(=O)(=O)[O-])c4F)c4ccc([nH]4)c(-c4cccc(S(=O)(=O)[O-])c4F)c4nc(c(-c5cccc(S(=O)(=O)[O-])c5F)c5ccc2[nH]5)C=C4)C=C3)cc1
REMARK SMILES IDX 27 1 26 2 24 3 25 4 23 6 19 7 20 8 21 9 22 10 18 11 17 12
REMARK SMILES IDX 12 13 13 14 14 15 16 16 15 17 11 18 1 19 2 20 3 22 4 23 5 24
REMARK SMILES IDX 6 25 10 26 7 27 9 28 8 29 28 30 29 31 30 32 31 33 32 34
REMARK SMILES IDX 33 36 34 37 35 38 96 39 36 40 95 41 37 42 38 43 39 44 89 45
REMARK SMILES IDX 40 46 94 47 88 48 90 49 41 50 93 51 87 52 86 53 42 55 74 56
REMARK SMILES IDX 54 57 73 58 55 59 58 60 72 61 91 62 56 63 57 64 71 66 92 67
REMARK SMILES IDX 59 68 43 69 44 70 52 71 45 72 47 73 53 74 46 75 48 76 49 77
REMARK SMILES IDX 50 78 51 79 75 80 76 81 84 82 77 83 79 84 85 85 78 86 80 87
REMARK SMILES IDX 81 88 82 89 83 90 60 91 61 92 69 93 62 94 64 95 70 96 63 97
REMARK SMILES IDX 65 98 66 99 67 100 68 101
REMARK H PARENT 26 5 11 21 31 35 90 54 58 65
REMARK Flexibility Score: inf
ROOT
ATOM      1  C   UNL A   1      34.501  23.552  25.277  1.00  0.00     0.116 C 
ENDROOT
BRANCH   1   2
ATOM      2  N   UNL A   1      34.096  22.929  26.501  1.00  0.00    -0.351 N 
ATOM      3  C   UNL A   1      32.943  23.127  27.233  1.00  0.00     0.265 C 
ATOM      4  O   UNL A   1      32.894  22.453  28.270  1.00  0.00    -0.268 OA
ATOM      5  H   UNL A   1      34.726  22.268  26.870  1.00  0.00     0.163 HD
BRANCH   3   6
ATOM      6  C   UNL A   1      31.865  24.063  26.862  1.00  0.00     0.135 A 
ATOM      7  C   UNL A   1      31.746  25.410  26.529  1.00  0.00     0.151 A 
ATOM      8  C   UNL A   1      30.419  25.798  26.155  1.00  0.00     0.059 A 
ATOM      9  C   UNL A   1      29.523  24.768  26.269  1.00  0.00     0.069 A 
ATOM     10  S   UNL A   1      30.276  23.331  26.776  1.00  0.00    -0.135 S 
BRANCH   7  11
ATOM     11  O   UNL A   1      32.777  26.274  26.409  1.00  0.00    -0.453 OA
BRANCH  11  12
ATOM     12  C   UNL A   1      32.627  27.636  26.199  1.00  0.00     0.151 A 
ATOM     13  C   UNL A   1      32.324  28.297  24.993  1.00  0.00     0.084 A 
ATOM     14  C   UNL A   1      31.942  29.645  25.025  1.00  0.00     0.030 A 
ATOM     15  C   UNL A   1      31.852  30.333  26.237  1.00  0.00     0.002 A 
ATOM     16  C   UNL A   1      32.579  28.356  27.405  1.00  0.00     0.049 A 
ATOM     17  C   UNL A   1      32.183  29.693  27.426  1.00  0.00     0.004 A 
BRANCH  13  18
ATOM     18  N   UNL A   1      32.391  27.672  23.735  1.00  0.00    -0.323 N 
ATOM     19  O   UNL A   1      34.526  28.363  23.153  1.00  0.00    -0.275 OA
ATOM     20  C   UNL A   1      33.484  27.769  22.894  1.00  0.00     0.224 C 
ATOM     21  H   UNL A   1      31.618  27.138  23.438  1.00  0.00     0.170 HD
BRANCH  20  22
ATOM     22  C   UNL A   1      33.295  27.041  21.575  1.00  0.00     0.105 C 
BRANCH  22  23
ATOM     23  C   UNL A   1      31.946  26.333  21.514  1.00  0.00     0.045 C 
BRANCH  23  24
ATOM     24  C   UNL A   1      32.044  24.906  21.993  1.00  0.00    -0.048 A 
ATOM     25  C   UNL A   1      31.143  24.429  22.954  1.00  0.00     0.004 A 
ATOM     26  C   UNL A   1      32.975  24.023  21.431  1.00  0.00     0.004 A 
ATOM     27  C   UNL A   1      31.146  23.083  23.320  1.00  0.00     0.000 A 
ATOM     28  C   UNL A   1      32.987  22.680  21.811  1.00  0.00     0.000 A 
ATOM     29  C   UNL A   1      32.065  22.209  22.746  1.00  0.00     0.000 A 
ENDBRANCH  23  24
ENDBRANCH  22  23
ENDBRANCH  20  22
ENDBRANCH  13  18
ENDBRANCH  11  12
ENDBRANCH   7  11
ENDBRANCH   3   6
ENDBRANCH   1   2
BRANCH   1  30
ATOM     30  C   UNL A   1      35.115  22.674  24.199  1.00  0.00     0.023 C 
BRANCH  30  31
ATOM     31  C   UNL A   1      36.554  22.229  24.404  1.00  0.00     0.023 C 
BRANCH  31  32
ATOM     32  C   UNL A   1      36.864  21.491  25.699  1.00  0.00     0.116 C 
BRANCH  32  33
ATOM     33  N   UNL A   1      38.060  20.656  25.657  1.00  0.00    -0.352 N 
ATOM     34  C   UNL A   1      39.342  20.924  26.083  1.00  0.00     0.251 C 
ATOM     35  H   UNL A   1      37.930  19.763  25.262  1.00  0.00     0.163 HD
ATOM     36  O   UNL A   1      40.223  20.077  25.941  1.00  0.00    -0.269 OA
BRANCH  34  37
ATOM     37  C   UNL A   1      39.674  22.252  26.651  1.00  0.00     0.039 A 
ATOM     38  C   UNL A   1      40.699  22.342  27.598  1.00  0.00     0.014 A 
ATOM     39  C   UNL A   1      39.036  23.409  26.204  1.00  0.00     0.014 A 
ATOM     40  C   UNL A   1      41.166  23.599  27.999  1.00  0.00     0.010 A 
ATOM     41  C   UNL A   1      39.566  24.655  26.526  1.00  0.00     0.010 A 
ATOM     42  C   UNL A   1      40.648  24.767  27.414  1.00  0.00    -0.014 A 
BRANCH  42  43
ATOM     43  C   UNL A   1      41.245  26.105  27.674  1.00  0.00     0.031 A 
ATOM     44  C   UNL A   1      42.646  26.415  27.217  1.00  0.00     0.074 A 
ATOM     45  C   UNL A   1      40.576  27.000  28.431  1.00  0.00     0.049 A 
ATOM     46  N   UNL A   1      43.371  27.480  27.443  1.00  0.00    -0.248 NA
ATOM     47  C   UNL A   1      43.337  25.376  26.435  1.00  0.00     0.031 C 
ATOM     48  C   UNL A   1      39.252  26.791  29.023  1.00  0.00     0.029 A 
ATOM     49  N   UNL A   1      40.931  28.257  28.861  1.00  0.00    -0.354 N 
ATOM     50  C   UNL A   1      44.614  27.219  26.878  1.00  0.00     0.074 A 
ATOM     51  C   UNL A   1      44.555  25.884  26.326  1.00  0.00     0.031 C 
ATOM     52  C   UNL A   1      38.905  27.880  29.729  1.00  0.00     0.029 A 
ATOM     53  C   UNL A   1      39.989  28.854  29.668  1.00  0.00     0.049 A 
ATOM     54  H   UNL A   1      41.780  28.689  28.615  1.00  0.00     0.167 HD
ATOM     55  C   UNL A   1      45.696  28.030  26.792  1.00  0.00     0.034 A 
ATOM     56  C   UNL A   1      39.997  30.049  30.291  1.00  0.00     0.034 A 
ATOM     57  C   UNL A   1      45.731  29.384  27.274  1.00  0.00     0.049 A 
ATOM     58  C   UNL A   1      41.180  30.962  30.112  1.00  0.00     0.074 A 
ATOM     59  C   UNL A   1      46.740  30.319  27.139  1.00  0.00     0.029 A 
ATOM     60  N   UNL A   1      44.708  29.997  27.981  1.00  0.00    -0.354 N 
ATOM     61  N   UNL A   1      42.279  30.761  29.425  1.00  0.00    -0.248 NA
ATOM     62  C   UNL A   1      41.111  32.280  30.761  1.00  0.00     0.031 C 
ATOM     63  C   UNL A   1      46.329  31.499  27.769  1.00  0.00     0.029 A 
ATOM     64  C   UNL A   1      45.061  31.300  28.289  1.00  0.00     0.049 A 
ATOM     65  H   UNL A   1      43.857  29.569  28.229  1.00  0.00     0.167 HD
ATOM     66  C   UNL A   1      43.014  31.937  29.529  1.00  0.00     0.074 A 
ATOM     67  C   UNL A   1      42.226  32.852  30.328  1.00  0.00     0.031 C 
ATOM     68  C   UNL A   1      44.239  32.224  29.026  1.00  0.00     0.034 A 
BRANCH  55  69
ATOM     69  C   UNL A   1      46.911  27.499  26.077  1.00  0.00     0.023 A 
ATOM     70  C   UNL A   1      47.788  26.631  26.760  1.00  0.00     0.012 A 
ATOM     71  C   UNL A   1      47.157  27.808  24.725  1.00  0.00     0.148 A 
ATOM     72  C   UNL A   1      48.911  26.108  26.121  1.00  0.00     0.002 A 
ATOM     73  C   UNL A   1      48.256  27.248  24.082  1.00  0.00     0.091 A 
ATOM     74  F   UNL A   1      46.325  28.652  24.098  1.00  0.00    -0.205 F 
ATOM     75  C   UNL A   1      49.138  26.407  24.781  1.00  0.00     0.022 A 
BRANCH  73  76
ATOM     76  S   UNL A   1      48.594  27.511  22.337  1.00  0.00     0.127 S 
ATOM     77  O   UNL A   1      48.761  26.139  21.859  1.00  0.00    -0.237 OA
ATOM     78  O   UNL A   1      47.369  28.170  21.881  1.00  0.00    -0.237 OA
ATOM     79  O   UNL A   1      49.786  28.345  22.282  1.00  0.00    -0.744 OA
ENDBRANCH  73  76
ENDBRANCH  55  69
BRANCH  56  80
ATOM     80  C   UNL A   1      38.806  30.493  31.072  1.00  0.00     0.023 A 
ATOM     81  C   UNL A   1      38.772  30.259  32.461  1.00  0.00     0.012 A 
ATOM     82  C   UNL A   1      37.726  31.161  30.463  1.00  0.00     0.148 A 
ATOM     83  C   UNL A   1      37.673  30.653  33.224  1.00  0.00     0.002 A 
ATOM     84  C   UNL A   1      36.657  31.598  31.238  1.00  0.00     0.091 A 
ATOM     85  F   UNL A   1      37.768  31.361  29.137  1.00  0.00    -0.205 F 
ATOM     86  C   UNL A   1      36.621  31.331  32.615  1.00  0.00     0.022 A 
BRANCH  84  87
ATOM     87  S   UNL A   1      35.322  32.590  30.558  1.00  0.00     0.127 S 
ATOM     88  O   UNL A   1      36.002  33.848  30.267  1.00  0.00    -0.237 OA
ATOM     89  O   UNL A   1      34.932  31.813  29.380  1.00  0.00    -0.237 OA
ATOM     90  O   UNL A   1      34.307  32.640  31.602  1.00  0.00    -0.744 OA
ENDBRANCH  84  87
ENDBRANCH  56  80
BRANCH  68  91
ATOM     91  C   UNL A   1      44.801  33.596  29.288  1.00  0.00     0.023 A 
ATOM     92  C   UNL A   1      45.521  33.837  30.474  1.00  0.00     0.012 A 
ATOM     93  C   UNL A   1      44.688  34.617  28.325  1.00  0.00     0.148 A 
ATOM     94  C   UNL A   1      46.102  35.084  30.709  1.00  0.00     0.002 A 
ATOM     95  C   UNL A   1      45.306  35.843  28.546  1.00  0.00     0.091 A 
ATOM     96  F   UNL A   1      43.979  34.374  27.213  1.00  0.00    -0.205 F 
ATOM     97  C   UNL A   1      46.004  36.081  29.741  1.00  0.00     0.022 A 
BRANCH  95  98
ATOM     98  S   UNL A   1      45.309  37.149  27.313  1.00  0.00     0.127 S 
ATOM     99  O   UNL A   1      43.886  37.279  27.011  1.00  0.00    -0.237 OA
ATOM    100  O   UNL A   1      45.881  38.276  28.051  1.00  0.00    -0.237 OA
ATOM    101  O   UNL A   1      46.142  36.663  26.221  1.00  0.00    -0.744 OA
ENDBRANCH  95  98
ENDBRANCH  68  91
ENDBRANCH  42  43
ENDBRANCH  34  37
ENDBRANCH  32  33
ENDBRANCH  31  32
ENDBRANCH  30  31
ENDBRANCH   1  30
TORSDOF 20
ENDMDL
