MODEL 1
REMARK VINA RESULT:     -11.7      0.000      0.000
REMARK SMILES C/C(=C/c1cccc(OCC(=O)NCCCCNC(=O)c2ccc(-c3c4nc(c(-c5cccc(S(=O)(=O)[O-])c5F)c5ccc([nH]5)c(-c5cccc(S(=O)(=O)[O-])c5F)c5nc(c(-c6cccc(S(=O)(=O)[O-])c6F)c6ccc3[nH]6)C=C5)C=C4)cc2)c1)c1nc2sccc2c(=O)[nH]1
REMARK SMILES IDX 15 1 14 2 13 3 11 4 12 5 10 7 9 8 8 9 4 10 5 11 84 12 6 13
REMARK SMILES IDX 7 14 3 15 1 16 2 17 85 18 86 19 94 20 87 21 92 22 88 24
REMARK SMILES IDX 91 25 93 26 89 27 90 28 16 29 17 30 18 31 19 32 20 34 21 35
REMARK SMILES IDX 22 36 83 37 23 38 82 39 24 40 25 41 26 42 76 43 27 44 81 45
REMARK SMILES IDX 75 46 77 47 28 48 80 49 74 50 73 51 29 53 61 54 41 55 60 56
REMARK SMILES IDX 42 57 45 58 59 59 78 60 43 61 44 62 58 64 79 65 46 66 30 67
REMARK SMILES IDX 31 68 39 69 32 70 34 71 40 72 33 73 35 74 36 75 37 76 38 77
REMARK SMILES IDX 62 78 63 79 71 80 64 81 66 82 72 83 65 84 67 85 68 86 69 87
REMARK SMILES IDX 70 88 47 89 48 90 56 91 49 92 51 93 57 94 50 95 52 96 53 97
REMARK SMILES IDX 54 98 55 99
REMARK H PARENT 13 6 94 23 18 33 77 52 45 63
REMARK Flexibility Score: inf
ROOT
ATOM      1  C   UNL A   1      31.419  28.339  25.819  1.00  0.00     0.023 C 
ENDROOT
BRANCH   1   2
ATOM      2  C   UNL A   1      31.714  29.265  24.643  1.00  0.00     0.116 C 
BRANCH   2   3
ATOM      3  N   UNL A   1      30.569  29.559  23.804  1.00  0.00    -0.353 N 
ATOM      4  C   UNL A   1      29.995  28.753  22.860  1.00  0.00     0.257 C 
ATOM      5  O   UNL A   1      28.857  29.004  22.463  1.00  0.00    -0.271 OA
ATOM      6  H   UNL A   1      30.155  30.443  23.929  1.00  0.00     0.163 HD
BRANCH   4   7
ATOM      7  C   UNL A   1      30.730  27.512  22.352  1.00  0.00     0.329 C 
BRANCH   7   8
ATOM      8  O   UNL A   1      30.545  26.311  23.077  1.00  0.00    -0.484 OA
BRANCH   8   9
ATOM      9  C   UNL A   1      31.327  25.231  22.769  1.00  0.00     0.120 A 
ATOM     10  C   UNL A   1      32.080  22.921  22.836  1.00  0.00    -0.022 A 
ATOM     11  C   UNL A   1      33.093  23.229  21.921  1.00  0.00     0.008 A 
ATOM     12  C   UNL A   1      31.199  23.931  23.263  1.00  0.00     0.054 A 
ATOM     13  C   UNL A   1      33.221  24.525  21.427  1.00  0.00     0.004 A 
ATOM     14  C   UNL A   1      32.341  25.519  21.852  1.00  0.00     0.046 A 
BRANCH  10  15
ATOM     15  C   UNL A   1      32.002  21.552  23.367  1.00  0.00     0.015 C 
ATOM     16  C   UNL A   1      32.753  19.531  24.641  1.00  0.00     0.048 C 
ATOM     17  C   UNL A   1      32.868  20.961  24.213  1.00  0.00    -0.008 C 
BRANCH  17  18
ATOM     18  C   UNL A   1      34.036  21.697  24.766  1.00  0.00     0.137 A 
ATOM     19  N   UNL A   1      35.237  21.204  24.733  1.00  0.00    -0.219 NA
ATOM     20  N   UNL A   1      33.710  22.917  25.315  1.00  0.00    -0.306 N 
ATOM     21  C   UNL A   1      36.194  22.031  25.238  1.00  0.00     0.131 A 
ATOM     22  C   UNL A   1      34.641  23.788  25.833  1.00  0.00     0.259 A 
ATOM     23  H   UNL A   1      32.762  23.181  25.337  1.00  0.00     0.171 HD
ATOM     24  S   UNL A   1      37.848  21.606  25.250  1.00  0.00    -0.124 S 
ATOM     25  C   UNL A   1      35.995  23.285  25.775  1.00  0.00     0.077 A 
ATOM     26  O   UNL A   1      34.337  24.890  26.264  1.00  0.00    -0.269 OA
ATOM     27  C   UNL A   1      38.300  23.116  25.922  1.00  0.00     0.068 A 
ATOM     28  C   UNL A   1      37.208  23.911  26.184  1.00  0.00     0.028 A 
ENDBRANCH  17  18
ENDBRANCH  10  15
ENDBRANCH   8   9
ENDBRANCH   7   8
ENDBRANCH   4   7
ENDBRANCH   2   3
ENDBRANCH   1   2
BRANCH   1  29
ATOM     29  C   UNL A   1      32.558  28.106  26.816  1.00  0.00     0.023 C 
BRANCH  29  30
ATOM     30  C   UNL A   1      33.831  28.926  26.623  1.00  0.00     0.116 C 
BRANCH  30  31
ATOM     31  N   UNL A   1      33.726  30.277  27.145  1.00  0.00    -0.352 N 
ATOM     32  C   UNL A   1      34.551  30.969  27.999  1.00  0.00     0.251 C 
ATOM     33  H   UNL A   1      32.938  30.779  26.835  1.00  0.00     0.163 HD
ATOM     34  O   UNL A   1      34.195  32.081  28.388  1.00  0.00    -0.269 OA
BRANCH  32  35
ATOM     35  C   UNL A   1      35.839  30.405  28.477  1.00  0.00     0.039 A 
ATOM     36  C   UNL A   1      36.974  30.581  27.677  1.00  0.00     0.014 A 
ATOM     37  C   UNL A   1      35.942  29.661  29.656  1.00  0.00     0.014 A 
ATOM     38  C   UNL A   1      38.208  30.054  28.074  1.00  0.00     0.010 A 
ATOM     39  C   UNL A   1      37.188  29.189  30.083  1.00  0.00     0.010 A 
ATOM     40  C   UNL A   1      38.334  29.369  29.293  1.00  0.00    -0.014 A 
BRANCH  40  41
ATOM     41  C   UNL A   1      39.658  28.851  29.742  1.00  0.00     0.031 A 
ATOM     42  C   UNL A   1      40.422  29.532  30.848  1.00  0.00     0.074 A 
ATOM     43  C   UNL A   1      40.205  27.788  29.118  1.00  0.00     0.049 A 
ATOM     44  N   UNL A   1      41.580  29.210  31.371  1.00  0.00    -0.248 NA
ATOM     45  C   UNL A   1      39.822  30.744  31.429  1.00  0.00     0.031 C 
ATOM     46  C   UNL A   1      39.614  27.080  27.981  1.00  0.00     0.029 A 
ATOM     47  N   UNL A   1      41.390  27.129  29.341  1.00  0.00    -0.354 N 
ATOM     48  C   UNL A   1      41.860  30.190  32.317  1.00  0.00     0.074 A 
ATOM     49  C   UNL A   1      40.767  31.137  32.273  1.00  0.00     0.031 C 
ATOM     50  C   UNL A   1      40.434  26.084  27.609  1.00  0.00     0.029 A 
ATOM     51  C   UNL A   1      41.617  26.091  28.465  1.00  0.00     0.049 A 
ATOM     52  H   UNL A   1      42.017  27.375  30.058  1.00  0.00     0.167 HD
ATOM     53  C   UNL A   1      42.913  30.282  33.166  1.00  0.00     0.034 A 
ATOM     54  C   UNL A   1      42.656  25.240  28.363  1.00  0.00     0.034 A 
ATOM     55  C   UNL A   1      43.983  29.321  33.242  1.00  0.00     0.049 A 
ATOM     56  C   UNL A   1      43.788  25.332  29.352  1.00  0.00     0.074 A 
ATOM     57  C   UNL A   1      45.045  29.284  34.129  1.00  0.00     0.029 A 
ATOM     58  N   UNL A   1      44.134  28.234  32.396  1.00  0.00    -0.354 N 
ATOM     59  N   UNL A   1      43.947  26.165  30.350  1.00  0.00    -0.248 NA
ATOM     60  C   UNL A   1      44.862  24.336  29.224  1.00  0.00     0.031 C 
ATOM     61  C   UNL A   1      45.851  28.186  33.805  1.00  0.00     0.029 A 
ATOM     62  C   UNL A   1      45.275  27.523  32.734  1.00  0.00     0.049 A 
ATOM     63  H   UNL A   1      43.521  28.001  31.663  1.00  0.00     0.167 HD
ATOM     64  C   UNL A   1      45.118  25.774  30.991  1.00  0.00     0.074 A 
ATOM     65  C   UNL A   1      45.613  24.612  30.283  1.00  0.00     0.031 C 
ATOM     66  C   UNL A   1      45.737  26.338  32.057  1.00  0.00     0.034 A 
BRANCH  53  67
ATOM     67  C   UNL A   1      42.934  31.440  34.131  1.00  0.00     0.023 A 
ATOM     68  C   UNL A   1      43.586  32.637  33.765  1.00  0.00     0.012 A 
ATOM     69  C   UNL A   1      42.262  31.374  35.368  1.00  0.00     0.148 A 
ATOM     70  C   UNL A   1      43.602  33.732  34.627  1.00  0.00     0.002 A 
ATOM     71  C   UNL A   1      42.245  32.486  36.204  1.00  0.00     0.091 A 
ATOM     72  F   UNL A   1      41.663  30.224  35.709  1.00  0.00    -0.205 F 
ATOM     73  C   UNL A   1      42.923  33.660  35.840  1.00  0.00     0.022 A 
BRANCH  71  74
ATOM     74  S   UNL A   1      41.331  32.522  37.751  1.00  0.00     0.127 S 
ATOM     75  O   UNL A   1      42.144  31.642  38.591  1.00  0.00    -0.237 OA
ATOM     76  O   UNL A   1      41.393  33.937  38.114  1.00  0.00    -0.237 OA
ATOM     77  O   UNL A   1      39.996  32.032  37.440  1.00  0.00    -0.744 OA
ENDBRANCH  71  74
ENDBRANCH  53  67
BRANCH  54  78
ATOM     78  C   UNL A   1      42.641  24.169  27.325  1.00  0.00     0.023 A 
ATOM     79  C   UNL A   1      43.213  24.421  26.063  1.00  0.00     0.012 A 
ATOM     80  C   UNL A   1      42.085  22.903  27.586  1.00  0.00     0.148 A 
ATOM     81  C   UNL A   1      43.201  23.444  25.067  1.00  0.00     0.002 A 
ATOM     82  C   UNL A   1      42.126  21.914  26.609  1.00  0.00     0.091 A 
ATOM     83  F   UNL A   1      41.534  22.686  28.788  1.00  0.00    -0.205 F 
ATOM     84  C   UNL A   1      42.667  22.189  25.344  1.00  0.00     0.022 A 
BRANCH  82  85
ATOM     85  S   UNL A   1      41.579  20.231  26.915  1.00  0.00     0.127 S 
ATOM     86  O   UNL A   1      40.296  20.449  27.580  1.00  0.00    -0.237 OA
ATOM     87  O   UNL A   1      41.486  19.692  25.559  1.00  0.00    -0.237 OA
ATOM     88  O   UNL A   1      42.619  19.623  27.733  1.00  0.00    -0.744 OA
ENDBRANCH  82  85
ENDBRANCH  54  78
BRANCH  66  89
ATOM     89  C   UNL A   1      47.008  25.692  32.549  1.00  0.00     0.023 A 
ATOM     90  C   UNL A   1      48.247  26.069  31.995  1.00  0.00     0.012 A 
ATOM     91  C   UNL A   1      46.980  24.744  33.592  1.00  0.00     0.148 A 
ATOM     92  C   UNL A   1      49.433  25.483  32.439  1.00  0.00     0.002 A 
ATOM     93  C   UNL A   1      48.171  24.201  34.064  1.00  0.00     0.091 A 
ATOM     94  F   UNL A   1      45.792  24.378  34.097  1.00  0.00    -0.205 F 
ATOM     95  C   UNL A   1      49.396  24.559  33.479  1.00  0.00     0.022 A 
BRANCH  93  96
ATOM     96  S   UNL A   1      48.221  23.075  35.463  1.00  0.00     0.127 S 
ATOM     97  O   UNL A   1      47.587  23.873  36.512  1.00  0.00    -0.237 OA
ATOM     98  O   UNL A   1      47.418  21.947  34.988  1.00  0.00    -0.237 OA
ATOM     99  O   UNL A   1      49.629  22.763  35.672  1.00  0.00    -0.744 OA
ENDBRANCH  93  96
ENDBRANCH  66  89
ENDBRANCH  40  41
ENDBRANCH  32  35
ENDBRANCH  30  31
ENDBRANCH  29  30
ENDBRANCH   1  29
TORSDOF 18
ENDMDL
MODEL 2
REMARK VINA RESULT:     -11.7      1.133      2.269
REMARK SMILES C/C(=C/c1cccc(OCC(=O)NCCCCNC(=O)c2ccc(-c3c4nc(c(-c5cccc(S(=O)(=O)[O-])c5F)c5ccc([nH]5)c(-c5cccc(S(=O)(=O)[O-])c5F)c5nc(c(-c6cccc(S(=O)(=O)[O-])c6F)c6ccc3[nH]6)C=C5)C=C4)cc2)c1)c1nc2sccc2c(=O)[nH]1
REMARK SMILES IDX 15 1 14 2 13 3 11 4 12 5 10 7 9 8 8 9 4 10 5 11 84 12 6 13
REMARK SMILES IDX 7 14 3 15 1 16 2 17 85 18 86 19 94 20 87 21 92 22 88 24
REMARK SMILES IDX 91 25 93 26 89 27 90 28 16 29 17 30 18 31 19 32 20 34 21 35
REMARK SMILES IDX 22 36 83 37 23 38 82 39 24 40 25 41 26 42 76 43 27 44 81 45
REMARK SMILES IDX 75 46 77 47 28 48 80 49 74 50 73 51 29 53 61 54 41 55 60 56
REMARK SMILES IDX 42 57 45 58 59 59 78 60 43 61 44 62 58 64 79 65 46 66 30 67
REMARK SMILES IDX 31 68 39 69 32 70 34 71 40 72 33 73 35 74 36 75 37 76 38 77
REMARK SMILES IDX 62 78 63 79 71 80 64 81 66 82 72 83 65 84 67 85 68 86 69 87
REMARK SMILES IDX 70 88 47 89 48 90 56 91 49 92 51 93 57 94 50 95 52 96 53 97
REMARK SMILES IDX 54 98 55 99
REMARK H PARENT 13 6 94 23 18 33 77 52 45 63
REMARK Flexibility Score: inf
ROOT
ATOM      1  C   UNL A   1      31.796  27.859  26.280  1.00  0.00     0.023 C 
ENDROOT
BRANCH   1   2
ATOM      2  C   UNL A   1      31.522  28.228  24.825  1.00  0.00     0.116 C 
BRANCH   2   3
ATOM      3  N   UNL A   1      30.151  28.029  24.400  1.00  0.00    -0.353 N 
ATOM      4  C   UNL A   1      29.664  27.056  23.571  1.00  0.00     0.257 C 
ATOM      5  O   UNL A   1      28.455  26.823  23.558  1.00  0.00    -0.271 OA
ATOM      6  H   UNL A   1      29.491  28.670  24.750  1.00  0.00     0.163 HD
BRANCH   4   7
ATOM      7  C   UNL A   1      30.618  26.218  22.719  1.00  0.00     0.329 C 
BRANCH   7   8
ATOM      8  O   UNL A   1      30.856  24.887  23.136  1.00  0.00    -0.484 OA
BRANCH   8   9
ATOM      9  C   UNL A   1      31.656  24.674  24.226  1.00  0.00     0.120 A 
ATOM     10  C   UNL A   1      33.728  24.540  25.490  1.00  0.00    -0.022 A 
ATOM     11  C   UNL A   1      33.003  24.183  26.633  1.00  0.00     0.008 A 
ATOM     12  C   UNL A   1      33.047  24.780  24.282  1.00  0.00     0.054 A 
ATOM     13  C   UNL A   1      31.615  24.079  26.578  1.00  0.00     0.004 A 
ATOM     14  C   UNL A   1      30.949  24.323  25.379  1.00  0.00     0.046 A 
BRANCH  10  15
ATOM     15  C   UNL A   1      35.195  24.600  25.576  1.00  0.00     0.015 C 
ATOM     16  C   UNL A   1      37.533  23.708  25.673  1.00  0.00     0.048 C 
ATOM     17  C   UNL A   1      36.054  23.565  25.494  1.00  0.00    -0.008 C 
BRANCH  17  18
ATOM     18  C   UNL A   1      35.576  22.178  25.246  1.00  0.00     0.137 A 
ATOM     19  N   UNL A   1      34.322  21.909  25.050  1.00  0.00    -0.219 NA
ATOM     20  N   UNL A   1      36.582  21.237  25.262  1.00  0.00    -0.306 N 
ATOM     21  C   UNL A   1      34.066  20.597  24.791  1.00  0.00     0.131 A 
ATOM     22  C   UNL A   1      36.375  19.902  25.002  1.00  0.00     0.259 A 
ATOM     23  H   UNL A   1      37.497  21.535  25.470  1.00  0.00     0.171 HD
ATOM     24  S   UNL A   1      32.492  20.026  24.455  1.00  0.00    -0.124 S 
ATOM     25  C   UNL A   1      34.991  19.575  24.740  1.00  0.00     0.077 A 
ATOM     26  O   UNL A   1      37.289  19.093  24.966  1.00  0.00    -0.269 OA
ATOM     27  C   UNL A   1      33.054  18.428  24.192  1.00  0.00     0.068 A 
ATOM     28  C   UNL A   1      34.409  18.317  24.408  1.00  0.00     0.028 A 
ENDBRANCH  17  18
ENDBRANCH  10  15
ENDBRANCH   8   9
ENDBRANCH   7   8
ENDBRANCH   4   7
ENDBRANCH   2   3
ENDBRANCH   1   2
BRANCH   1  29
ATOM     29  C   UNL A   1      33.240  28.005  26.768  1.00  0.00     0.023 C 
BRANCH  29  30
ATOM     30  C   UNL A   1      34.062  29.148  26.179  1.00  0.00     0.116 C 
BRANCH  30  31
ATOM     31  N   UNL A   1      33.856  30.413  26.862  1.00  0.00    -0.352 N 
ATOM     32  C   UNL A   1      34.589  31.022  27.852  1.00  0.00     0.251 C 
ATOM     33  H   UNL A   1      33.063  30.916  26.568  1.00  0.00     0.163 HD
ATOM     34  O   UNL A   1      34.153  32.055  28.357  1.00  0.00    -0.269 OA
BRANCH  32  35
ATOM     35  C   UNL A   1      35.873  30.456  28.340  1.00  0.00     0.039 A 
ATOM     36  C   UNL A   1      37.021  30.663  27.565  1.00  0.00     0.014 A 
ATOM     37  C   UNL A   1      35.962  29.682  29.500  1.00  0.00     0.014 A 
ATOM     38  C   UNL A   1      38.253  30.136  27.972  1.00  0.00     0.010 A 
ATOM     39  C   UNL A   1      37.204  29.210  29.938  1.00  0.00     0.010 A 
ATOM     40  C   UNL A   1      38.363  29.421  29.175  1.00  0.00    -0.014 A 
BRANCH  40  41
ATOM     41  C   UNL A   1      39.683  28.902  29.634  1.00  0.00     0.031 A 
ATOM     42  C   UNL A   1      40.432  29.576  30.755  1.00  0.00     0.074 A 
ATOM     43  C   UNL A   1      40.240  27.846  29.007  1.00  0.00     0.049 A 
ATOM     44  N   UNL A   1      41.584  29.253  31.288  1.00  0.00    -0.248 NA
ATOM     45  C   UNL A   1      39.822  30.781  31.339  1.00  0.00     0.031 C 
ATOM     46  C   UNL A   1      39.664  27.147  27.857  1.00  0.00     0.029 A 
ATOM     47  N   UNL A   1      41.424  27.189  29.237  1.00  0.00    -0.354 N 
ATOM     48  C   UNL A   1      41.851  30.225  32.246  1.00  0.00     0.074 A 
ATOM     49  C   UNL A   1      40.755  31.169  32.197  1.00  0.00     0.031 C 
ATOM     50  C   UNL A   1      40.492  26.156  27.486  1.00  0.00     0.029 A 
ATOM     51  C   UNL A   1      41.664  26.159  28.356  1.00  0.00     0.049 A 
ATOM     52  H   UNL A   1      42.042  27.430  29.964  1.00  0.00     0.167 HD
ATOM     53  C   UNL A   1      42.894  30.312  33.107  1.00  0.00     0.034 A 
ATOM     54  C   UNL A   1      42.708  25.312  28.258  1.00  0.00     0.034 A 
ATOM     55  C   UNL A   1      43.965  29.354  33.187  1.00  0.00     0.049 A 
ATOM     56  C   UNL A   1      43.827  25.398  29.260  1.00  0.00     0.074 A 
ATOM     57  C   UNL A   1      45.018  29.312  34.086  1.00  0.00     0.029 A 
ATOM     58  N   UNL A   1      44.130  28.275  32.334  1.00  0.00    -0.354 N 
ATOM     59  N   UNL A   1      43.972  26.223  30.268  1.00  0.00    -0.248 NA
ATOM     60  C   UNL A   1      44.906  24.406  29.137  1.00  0.00     0.031 C 
ATOM     61  C   UNL A   1      45.830  28.219  33.762  1.00  0.00     0.029 A 
ATOM     62  C   UNL A   1      45.269  27.564  32.678  1.00  0.00     0.049 A 
ATOM     63  H   UNL A   1      43.526  28.046  31.591  1.00  0.00     0.167 HD
ATOM     64  C   UNL A   1      45.137  25.830  30.918  1.00  0.00     0.074 A 
ATOM     65  C   UNL A   1      45.643  24.675  30.206  1.00  0.00     0.031 C 
ATOM     66  C   UNL A   1      45.742  26.386  31.997  1.00  0.00     0.034 A 
BRANCH  53  67
ATOM     67  C   UNL A   1      42.900  31.462  34.083  1.00  0.00     0.023 A 
ATOM     68  C   UNL A   1      43.552  32.663  33.735  1.00  0.00     0.012 A 
ATOM     69  C   UNL A   1      42.215  31.382  35.312  1.00  0.00     0.148 A 
ATOM     70  C   UNL A   1      43.556  33.752  34.607  1.00  0.00     0.002 A 
ATOM     71  C   UNL A   1      42.185  32.487  36.157  1.00  0.00     0.091 A 
ATOM     72  F   UNL A   1      41.616  30.228  35.636  1.00  0.00    -0.205 F 
ATOM     73  C   UNL A   1      42.864  33.667  35.811  1.00  0.00     0.022 A 
BRANCH  71  74
ATOM     74  S   UNL A   1      41.254  32.506  37.694  1.00  0.00     0.127 S 
ATOM     75  O   UNL A   1      41.276  33.929  38.032  1.00  0.00    -0.237 OA
ATOM     76  O   UNL A   1      39.948  32.001  37.271  1.00  0.00    -0.237 OA
ATOM     77  O   UNL A   1      41.975  31.634  38.610  1.00  0.00    -0.744 OA
ENDBRANCH  71  74
ENDBRANCH  53  67
BRANCH  54  78
ATOM     78  C   UNL A   1      42.707  24.250  27.210  1.00  0.00     0.023 A 
ATOM     79  C   UNL A   1      43.545  24.387  26.087  1.00  0.00     0.012 A 
ATOM     80  C   UNL A   1      41.901  23.102  27.330  1.00  0.00     0.148 A 
ATOM     81  C   UNL A   1      43.557  23.417  25.085  1.00  0.00     0.002 A 
ATOM     82  C   UNL A   1      41.958  22.112  26.355  1.00  0.00     0.091 A 
ATOM     83  F   UNL A   1      41.100  22.997  28.399  1.00  0.00    -0.205 F 
ATOM     84  C   UNL A   1      42.771  22.276  25.224  1.00  0.00     0.022 A 
BRANCH  82  85
ATOM     85  S   UNL A   1      41.079  20.554  26.511  1.00  0.00     0.127 S 
ATOM     86  O   UNL A   1      41.736  19.736  25.494  1.00  0.00    -0.237 OA
ATOM     87  O   UNL A   1      41.378  20.176  27.893  1.00  0.00    -0.237 OA
ATOM     88  O   UNL A   1      39.679  20.866  26.264  1.00  0.00    -0.744 OA
ENDBRANCH  82  85
ENDBRANCH  54  78
BRANCH  66  89
ATOM     89  C   UNL A   1      47.009  25.739  32.498  1.00  0.00     0.023 A 
ATOM     90  C   UNL A   1      48.254  26.129  31.965  1.00  0.00     0.012 A 
ATOM     91  C   UNL A   1      46.972  24.778  33.528  1.00  0.00     0.148 A 
ATOM     92  C   UNL A   1      49.436  25.542  32.418  1.00  0.00     0.002 A 
ATOM     93  C   UNL A   1      48.158  24.234  34.009  1.00  0.00     0.091 A 
ATOM     94  F   UNL A   1      45.779  24.401  34.012  1.00  0.00    -0.205 F 
ATOM     95  C   UNL A   1      49.389  24.605  33.446  1.00  0.00     0.022 A 
BRANCH  93  96
ATOM     96  S   UNL A   1      48.194  23.092  35.395  1.00  0.00     0.127 S 
ATOM     97  O   UNL A   1      49.602  22.701  35.425  1.00  0.00    -0.237 OA
ATOM     98  O   UNL A   1      47.775  23.940  36.513  1.00  0.00    -0.237 OA
ATOM     99  O   UNL A   1      47.252  22.031  35.061  1.00  0.00    -0.744 OA
ENDBRANCH  93  96
ENDBRANCH  66  89
ENDBRANCH  40  41
ENDBRANCH  32  35
ENDBRANCH  30  31
ENDBRANCH  29  30
ENDBRANCH   1  29
TORSDOF 18
ENDMDL
MODEL 3
REMARK VINA RESULT:     -11.5      3.471      8.588
REMARK SMILES C/C(=C/c1cccc(OCC(=O)NCCCCNC(=O)c2ccc(-c3c4nc(c(-c5cccc(S(=O)(=O)[O-])c5F)c5ccc([nH]5)c(-c5cccc(S(=O)(=O)[O-])c5F)c5nc(c(-c6cccc(S(=O)(=O)[O-])c6F)c6ccc3[nH]6)C=C5)C=C4)cc2)c1)c1nc2sccc2c(=O)[nH]1
REMARK SMILES IDX 15 1 14 2 13 3 11 4 12 5 10 7 9 8 8 9 4 10 5 11 84 12 6 13
REMARK SMILES IDX 7 14 3 15 1 16 2 17 85 18 86 19 94 20 87 21 92 22 88 24
REMARK SMILES IDX 91 25 93 26 89 27 90 28 16 29 17 30 18 31 19 32 20 34 21 35
REMARK SMILES IDX 22 36 83 37 23 38 82 39 24 40 25 41 26 42 76 43 27 44 81 45
REMARK SMILES IDX 75 46 77 47 28 48 80 49 74 50 73 51 29 53 61 54 41 55 60 56
REMARK SMILES IDX 42 57 45 58 59 59 78 60 43 61 44 62 58 64 79 65 46 66 30 67
REMARK SMILES IDX 31 68 39 69 32 70 34 71 40 72 33 73 35 74 36 75 37 76 38 77
REMARK SMILES IDX 62 78 63 79 71 80 64 81 66 82 72 83 65 84 67 85 68 86 69 87
REMARK SMILES IDX 70 88 47 89 48 90 56 91 49 92 51 93 57 94 50 95 52 96 53 97
REMARK SMILES IDX 54 98 55 99
REMARK H PARENT 13 6 94 23 18 33 77 52 45 63
REMARK Flexibility Score: inf
ROOT
ATOM      1  C   UNL A   1      31.574  31.132  26.280  1.00  0.00     0.023 C 
ENDROOT
BRANCH   1   2
ATOM      2  C   UNL A   1      32.026  30.022  27.224  1.00  0.00     0.116 C 
BRANCH   2   3
ATOM      3  N   UNL A   1      33.413  30.108  27.637  1.00  0.00    -0.353 N 
ATOM      4  C   UNL A   1      34.501  29.533  27.040  1.00  0.00     0.257 C 
ATOM      5  O   UNL A   1      35.628  29.949  27.309  1.00  0.00    -0.271 OA
ATOM      6  H   UNL A   1      33.594  30.645  28.442  1.00  0.00     0.163 HD
BRANCH   4   7
ATOM      7  C   UNL A   1      34.318  28.430  25.997  1.00  0.00     0.329 C 
BRANCH   7   8
ATOM      8  O   UNL A   1      33.578  28.757  24.836  1.00  0.00    -0.484 OA
BRANCH   8   9
ATOM      9  C   UNL A   1      32.502  27.980  24.502  1.00  0.00     0.120 A 
ATOM     10  C   UNL A   1      30.911  26.154  24.707  1.00  0.00    -0.022 A 
ATOM     11  C   UNL A   1      30.244  26.612  23.565  1.00  0.00     0.008 A 
ATOM     12  C   UNL A   1      32.048  26.840  25.171  1.00  0.00     0.054 A 
ATOM     13  C   UNL A   1      30.696  27.749  22.899  1.00  0.00     0.004 A 
ATOM     14  C   UNL A   1      31.820  28.426  23.367  1.00  0.00     0.046 A 
BRANCH  10  15
ATOM     15  C   UNL A   1      30.429  24.927  25.360  1.00  0.00     0.015 C 
ATOM     16  C   UNL A   1      30.470  22.521  26.055  1.00  0.00     0.048 C 
ATOM     17  C   UNL A   1      31.072  23.745  25.438  1.00  0.00    -0.008 C 
BRANCH  17  18
ATOM     18  C   UNL A   1      32.439  23.567  24.878  1.00  0.00     0.137 A 
ATOM     19  N   UNL A   1      33.482  23.441  25.639  1.00  0.00    -0.219 NA
ATOM     20  N   UNL A   1      32.474  23.566  23.501  1.00  0.00    -0.306 N 
ATOM     21  C   UNL A   1      34.646  23.238  24.963  1.00  0.00     0.131 A 
ATOM     22  C   UNL A   1      33.624  23.361  22.773  1.00  0.00     0.259 A 
ATOM     23  H   UNL A   1      31.634  23.720  23.012  1.00  0.00     0.171 HD
ATOM     24  S   UNL A   1      36.135  22.999  25.765  1.00  0.00    -0.124 S 
ATOM     25  C   UNL A   1      34.799  23.178  23.594  1.00  0.00     0.077 A 
ATOM     26  O   UNL A   1      33.624  23.308  21.553  1.00  0.00    -0.269 OA
ATOM     27  C   UNL A   1      36.970  22.762  24.288  1.00  0.00     0.068 A 
ATOM     28  C   UNL A   1      36.144  22.916  23.198  1.00  0.00     0.028 A 
ENDBRANCH  17  18
ENDBRANCH  10  15
ENDBRANCH   8   9
ENDBRANCH   7   8
ENDBRANCH   4   7
ENDBRANCH   2   3
ENDBRANCH   1   2
BRANCH   1  29
ATOM     29  C   UNL A   1      31.468  32.540  26.873  1.00  0.00     0.023 C 
BRANCH  29  30
ATOM     30  C   UNL A   1      32.774  33.283  27.143  1.00  0.00     0.116 C 
BRANCH  30  31
ATOM     31  N   UNL A   1      32.579  34.564  27.798  1.00  0.00    -0.352 N 
ATOM     32  C   UNL A   1      33.161  35.086  28.928  1.00  0.00     0.251 C 
ATOM     33  H   UNL A   1      31.925  35.156  27.360  1.00  0.00     0.163 HD
ATOM     34  O   UNL A   1      32.753  36.164  29.356  1.00  0.00    -0.269 OA
BRANCH  32  35
ATOM     35  C   UNL A   1      34.247  34.376  29.652  1.00  0.00     0.039 A 
ATOM     36  C   UNL A   1      35.557  34.516  29.178  1.00  0.00     0.014 A 
ATOM     37  C   UNL A   1      34.000  33.533  30.740  1.00  0.00     0.014 A 
ATOM     38  C   UNL A   1      36.613  33.854  29.814  1.00  0.00     0.010 A 
ATOM     39  C   UNL A   1      35.064  32.922  31.412  1.00  0.00     0.010 A 
ATOM     40  C   UNL A   1      36.382  33.066  30.953  1.00  0.00    -0.014 A 
BRANCH  40  41
ATOM     41  C   UNL A   1      37.513  32.401  31.661  1.00  0.00     0.031 A 
ATOM     42  C   UNL A   1      38.272  31.269  31.017  1.00  0.00     0.074 A 
ATOM     43  C   UNL A   1      37.831  32.781  32.914  1.00  0.00     0.049 A 
ATOM     44  N   UNL A   1      39.287  30.586  31.484  1.00  0.00    -0.248 NA
ATOM     45  C   UNL A   1      37.820  30.831  29.686  1.00  0.00     0.031 C 
ATOM     46  C   UNL A   1      37.131  33.807  33.689  1.00  0.00     0.029 A 
ATOM     47  N   UNL A   1      38.814  32.336  33.765  1.00  0.00    -0.354 N 
ATOM     48  C   UNL A   1      39.577  29.623  30.524  1.00  0.00     0.074 A 
ATOM     49  C   UNL A   1      38.608  29.789  29.461  1.00  0.00     0.031 C 
ATOM     50  C   UNL A   1      37.709  33.917  34.896  1.00  0.00     0.029 A 
ATOM     51  C   UNL A   1      38.807  32.960  34.992  1.00  0.00     0.049 A 
ATOM     52  H   UNL A   1      39.463  31.638  33.520  1.00  0.00     0.167 HD
ATOM     53  C   UNL A   1      40.574  28.704  30.508  1.00  0.00     0.034 A 
ATOM     54  C   UNL A   1      39.593  32.784  36.072  1.00  0.00     0.034 A 
ATOM     55  C   UNL A   1      41.564  28.561  31.543  1.00  0.00     0.049 A 
ATOM     56  C   UNL A   1      40.725  31.792  36.009  1.00  0.00     0.074 A 
ATOM     57  C   UNL A   1      42.662  27.718  31.574  1.00  0.00     0.029 A 
ATOM     58  N   UNL A   1      41.576  29.270  32.734  1.00  0.00    -0.354 N 
ATOM     59  N   UNL A   1      41.085  31.012  35.020  1.00  0.00    -0.248 NA
ATOM     60  C   UNL A   1      41.585  31.691  37.198  1.00  0.00     0.031 C 
ATOM     61  C   UNL A   1      43.325  27.903  32.793  1.00  0.00     0.029 A 
ATOM     62  C   UNL A   1      42.656  28.880  33.510  1.00  0.00     0.049 A 
ATOM     63  H   UNL A   1      40.913  29.952  32.991  1.00  0.00     0.167 HD
ATOM     64  C   UNL A   1      42.231  30.353  35.452  1.00  0.00     0.074 A 
ATOM     65  C   UNL A   1      42.520  30.848  36.783  1.00  0.00     0.031 C 
ATOM     66  C   UNL A   1      42.967  29.411  34.813  1.00  0.00     0.034 A 
BRANCH  53  67
ATOM     67  C   UNL A   1      40.681  27.809  29.299  1.00  0.00     0.023 A 
ATOM     68  C   UNL A   1      39.840  26.680  29.195  1.00  0.00     0.012 A 
ATOM     69  C   UNL A   1      41.562  28.110  28.242  1.00  0.00     0.148 A 
ATOM     70  C   UNL A   1      39.900  25.847  28.079  1.00  0.00     0.002 A 
ATOM     71  C   UNL A   1      41.584  27.299  27.111  1.00  0.00     0.091 A 
ATOM     72  F   UNL A   1      42.367  29.175  28.364  1.00  0.00    -0.205 F 
ATOM     73  C   UNL A   1      40.764  26.162  27.034  1.00  0.00     0.022 A 
BRANCH  71  74
ATOM     74  S   UNL A   1      42.603  27.665  25.677  1.00  0.00     0.127 S 
ATOM     75  O   UNL A   1      43.850  28.100  26.306  1.00  0.00    -0.237 OA
ATOM     76  O   UNL A   1      42.678  26.365  25.012  1.00  0.00    -0.237 OA
ATOM     77  O   UNL A   1      41.889  28.690  24.928  1.00  0.00    -0.744 OA
ENDBRANCH  71  74
ENDBRANCH  53  67
BRANCH  54  78
ATOM     78  C   UNL A   1      39.387  33.624  37.287  1.00  0.00     0.023 A 
ATOM     79  C   UNL A   1      39.888  34.940  37.310  1.00  0.00     0.012 A 
ATOM     80  C   UNL A   1      38.682  33.137  38.404  1.00  0.00     0.148 A 
ATOM     81  C   UNL A   1      39.721  35.745  38.437  1.00  0.00     0.002 A 
ATOM     82  C   UNL A   1      38.472  33.963  39.503  1.00  0.00     0.091 A 
ATOM     83  F   UNL A   1      38.225  31.878  38.368  1.00  0.00    -0.205 F 
ATOM     84  C   UNL A   1      39.006  35.261  39.528  1.00  0.00     0.022 A 
BRANCH  82  85
ATOM     85  S   UNL A   1      37.456  33.471  40.899  1.00  0.00     0.127 S 
ATOM     86  O   UNL A   1      38.302  32.475  41.550  1.00  0.00    -0.237 OA
ATOM     87  O   UNL A   1      37.314  34.731  41.628  1.00  0.00    -0.237 OA
ATOM     88  O   UNL A   1      36.216  32.968  40.324  1.00  0.00    -0.744 OA
ENDBRANCH  82  85
ENDBRANCH  54  78
BRANCH  66  89
ATOM     89  C   UNL A   1      44.179  28.867  35.528  1.00  0.00     0.023 A 
ATOM     90  C   UNL A   1      45.447  29.431  35.286  1.00  0.00     0.012 A 
ATOM     91  C   UNL A   1      44.056  27.828  36.472  1.00  0.00     0.148 A 
ATOM     92  C   UNL A   1      46.579  28.943  35.941  1.00  0.00     0.002 A 
ATOM     93  C   UNL A   1      45.180  27.380  37.157  1.00  0.00     0.091 A 
ATOM     94  F   UNL A   1      42.846  27.286  36.677  1.00  0.00    -0.205 F 
ATOM     95  C   UNL A   1      46.444  27.926  36.882  1.00  0.00     0.022 A 
BRANCH  93  96
ATOM     96  S   UNL A   1      45.080  26.141  38.454  1.00  0.00     0.127 S 
ATOM     97  O   UNL A   1      46.470  26.059  38.899  1.00  0.00    -0.237 OA
ATOM     98  O   UNL A   1      44.169  26.765  39.415  1.00  0.00    -0.237 OA
ATOM     99  O   UNL A   1      44.550  24.942  37.818  1.00  0.00    -0.744 OA
ENDBRANCH  93  96
ENDBRANCH  66  89
ENDBRANCH  40  41
ENDBRANCH  32  35
ENDBRANCH  30  31
ENDBRANCH  29  30
ENDBRANCH   1  29
TORSDOF 18
ENDMDL
