MODEL 1
REMARK VINA RESULT:     -11.4      0.000      0.000
REMARK SMILES O=C(NCCCCNC(=O)c1ccc([C@H]2CCC[N@@H+](CCN3CCCC3=O)C2)cc1)c1ccc(-c2c3nc(c(-c4cccc(S(=O)(=O)[O-])c4F)c4ccc([nH]4)c(-c4cccc(S(=O)(=O)[O-])c4F)c4nc(c(-c5cccc(S(=O)(=O)[O-])c5F)c5ccc2[nH]5)C=C4)C=C3)cc1
REMARK SMILES IDX 6 1 5 2 4 3 3 4 1 5 2 6 31 8 32 9 93 10 33 11 92 12 34 13
REMARK SMILES IDX 35 14 36 15 86 16 37 17 91 18 85 19 87 20 38 21 90 22 84 23
REMARK SMILES IDX 83 24 39 26 71 27 51 28 70 29 52 30 55 31 69 32 88 33 53 34
REMARK SMILES IDX 54 35 68 37 89 38 56 39 40 40 41 41 49 42 42 43 44 44 50 45
REMARK SMILES IDX 43 46 45 47 46 48 47 49 48 50 72 51 73 52 81 53 74 54 76 55
REMARK SMILES IDX 82 56 75 57 77 58 78 59 79 60 80 61 57 62 58 63 66 64 59 65
REMARK SMILES IDX 61 66 67 67 60 68 62 69 63 70 64 71 65 72 7 73 8 74 9 75
REMARK SMILES IDX 10 77 11 78 12 79 30 80 13 81 29 82 14 83 15 84 16 85 28 86
REMARK SMILES IDX 17 87 19 88 18 89 20 91 21 92 22 93 23 94 26 95 24 96 25 97
REMARK SMILES IDX 27 98
REMARK H PARENT 3 7 87 25 55 36 8 76 19 90
REMARK Flexibility Score: inf
ROOT
ATOM      1  C   UNL A   1      42.106  19.004  27.837  1.00  0.00     0.023 C 
ENDROOT
BRANCH   1   2
ATOM      2  C   UNL A   1      42.811  18.304  26.675  1.00  0.00     0.023 C 
BRANCH   2   3
ATOM      3  C   UNL A   1      42.957  19.141  25.412  1.00  0.00     0.116 C 
BRANCH   3   4
ATOM      4  N   UNL A   1      44.069  18.712  24.578  1.00  0.00    -0.352 N 
ATOM      5  O   UNL A   1      45.860  18.955  23.233  1.00  0.00    -0.269 OA
ATOM      6  C   UNL A   1      45.102  19.461  24.056  1.00  0.00     0.251 C 
ATOM      7  H   UNL A   1      44.086  17.754  24.354  1.00  0.00     0.163 HD
BRANCH   6   8
ATOM      8  C   UNL A   1      45.276  20.871  24.475  1.00  0.00     0.039 A 
ATOM      9  C   UNL A   1      45.729  21.174  25.760  1.00  0.00     0.014 A 
ATOM     10  C   UNL A   1      44.990  21.902  23.575  1.00  0.00     0.014 A 
ATOM     11  C   UNL A   1      45.754  22.494  26.194  1.00  0.00     0.010 A 
ATOM     12  C   UNL A   1      45.111  23.237  23.983  1.00  0.00     0.010 A 
ATOM     13  C   UNL A   1      45.477  23.544  25.302  1.00  0.00    -0.014 A 
BRANCH  13  14
ATOM     14  C   UNL A   1      45.715  24.942  25.746  1.00  0.00     0.031 A 
ATOM     15  C   UNL A   1      47.096  25.534  25.814  1.00  0.00     0.074 A 
ATOM     16  C   UNL A   1      44.644  25.682  26.099  1.00  0.00     0.049 A 
ATOM     17  N   UNL A   1      47.448  26.744  26.169  1.00  0.00    -0.248 NA
ATOM     18  C   UNL A   1      48.226  24.668  25.446  1.00  0.00     0.031 C 
ATOM     19  C   UNL A   1      43.258  25.199  26.117  1.00  0.00     0.029 A 
ATOM     20  N   UNL A   1      44.541  26.985  26.516  1.00  0.00    -0.354 N 
ATOM     21  C   UNL A   1      48.836  26.776  26.109  1.00  0.00     0.074 A 
ATOM     22  C   UNL A   1      49.265  25.463  25.674  1.00  0.00     0.031 C 
ATOM     23  C   UNL A   1      42.448  26.191  26.508  1.00  0.00     0.029 A 
ATOM     24  C   UNL A   1      43.256  27.357  26.835  1.00  0.00     0.049 A 
ATOM     25  H   UNL A   1      45.312  27.594  26.581  1.00  0.00     0.167 HD
ATOM     26  C   UNL A   1      49.669  27.807  26.387  1.00  0.00     0.034 A 
ATOM     27  C   UNL A   1      42.779  28.495  27.374  1.00  0.00     0.034 A 
ATOM     28  C   UNL A   1      49.231  29.118  26.794  1.00  0.00     0.049 A 
ATOM     29  C   UNL A   1      43.735  29.613  27.670  1.00  0.00     0.074 A 
ATOM     30  C   UNL A   1      49.999  30.249  27.012  1.00  0.00     0.029 A 
ATOM     31  N   UNL A   1      47.920  29.470  27.073  1.00  0.00    -0.354 N 
ATOM     32  N   UNL A   1      45.025  29.672  27.452  1.00  0.00    -0.248 NA
ATOM     33  C   UNL A   1      43.166  30.830  28.263  1.00  0.00     0.031 C 
ATOM     34  C   UNL A   1      49.160  31.269  27.471  1.00  0.00     0.029 A 
ATOM     35  C   UNL A   1      47.862  30.788  27.493  1.00  0.00     0.049 A 
ATOM     36  H   UNL A   1      47.144  28.870  26.986  1.00  0.00     0.167 HD
ATOM     37  C   UNL A   1      45.419  30.940  27.860  1.00  0.00     0.074 A 
ATOM     38  C   UNL A   1      44.224  31.628  28.301  1.00  0.00     0.031 C 
ATOM     39  C   UNL A   1      46.663  31.478  27.890  1.00  0.00     0.034 A 
BRANCH  26  40
ATOM     40  C   UNL A   1      51.155  27.591  26.254  1.00  0.00     0.023 A 
ATOM     41  C   UNL A   1      51.924  27.274  27.392  1.00  0.00     0.012 A 
ATOM     42  C   UNL A   1      51.760  27.567  24.981  1.00  0.00     0.148 A 
ATOM     43  C   UNL A   1      53.275  26.948  27.266  1.00  0.00     0.002 A 
ATOM     44  C   UNL A   1      53.096  27.200  24.859  1.00  0.00     0.091 A 
ATOM     45  F   UNL A   1      51.014  27.884  23.914  1.00  0.00    -0.205 F 
ATOM     46  C   UNL A   1      53.856  26.898  26.001  1.00  0.00     0.022 A 
BRANCH  44  47
ATOM     47  S   UNL A   1      53.915  27.023  23.270  1.00  0.00     0.127 S 
ATOM     48  O   UNL A   1      55.290  26.734  23.679  1.00  0.00    -0.237 OA
ATOM     49  O   UNL A   1      53.203  25.888  22.684  1.00  0.00    -0.237 OA
ATOM     50  O   UNL A   1      53.730  28.288  22.574  1.00  0.00    -0.744 OA
ENDBRANCH  44  47
ENDBRANCH  26  40
BRANCH  27  51
ATOM     51  C   UNL A   1      41.327  28.625  27.683  1.00  0.00     0.023 A 
ATOM     52  C   UNL A   1      40.426  29.009  26.672  1.00  0.00     0.012 A 
ATOM     53  C   UNL A   1      40.838  28.373  28.979  1.00  0.00     0.148 A 
ATOM     54  C   UNL A   1      39.071  29.184  26.959  1.00  0.00     0.002 A 
ATOM     55  C   UNL A   1      39.479  28.484  29.242  1.00  0.00     0.091 A 
ATOM     56  F   UNL A   1      41.713  28.023  29.934  1.00  0.00    -0.205 F 
ATOM     57  C   UNL A   1      38.597  28.912  28.240  1.00  0.00     0.022 A 
BRANCH  55  58
ATOM     58  S   UNL A   1      38.771  28.014  30.823  1.00  0.00     0.127 S 
ATOM     59  O   UNL A   1      38.774  26.557  30.731  1.00  0.00    -0.237 OA
ATOM     60  O   UNL A   1      39.738  28.575  31.767  1.00  0.00    -0.237 OA
ATOM     61  O   UNL A   1      37.460  28.646  30.867  1.00  0.00    -0.744 OA
ENDBRANCH  55  58
ENDBRANCH  27  51
BRANCH  39  62
ATOM     62  C   UNL A   1      46.792  32.892  28.391  1.00  0.00     0.023 A 
ATOM     63  C   UNL A   1      47.068  33.132  29.753  1.00  0.00     0.012 A 
ATOM     64  C   UNL A   1      46.689  33.981  27.504  1.00  0.00     0.148 A 
ATOM     65  C   UNL A   1      47.200  34.436  30.230  1.00  0.00     0.002 A 
ATOM     66  C   UNL A   1      46.875  35.274  27.976  1.00  0.00     0.091 A 
ATOM     67  F   UNL A   1      46.408  33.732  26.217  1.00  0.00    -0.205 F 
ATOM     68  C   UNL A   1      47.116  35.504  29.341  1.00  0.00     0.022 A 
BRANCH  66  69
ATOM     69  S   UNL A   1      46.879  36.707  26.893  1.00  0.00     0.127 S 
ATOM     70  O   UNL A   1      47.857  36.312  25.881  1.00  0.00    -0.237 OA
ATOM     71  O   UNL A   1      45.494  36.741  26.424  1.00  0.00    -0.237 OA
ATOM     72  O   UNL A   1      47.268  37.840  27.723  1.00  0.00    -0.744 OA
ENDBRANCH  66  69
ENDBRANCH  39  62
ENDBRANCH  13  14
ENDBRANCH   6   8
ENDBRANCH   3   4
ENDBRANCH   2   3
ENDBRANCH   1   2
BRANCH   1  73
ATOM     73  C   UNL A   1      41.266  20.224  27.453  1.00  0.00     0.116 C 
BRANCH  73  74
ATOM     74  N   UNL A   1      41.625  21.410  28.216  1.00  0.00    -0.352 N 
ATOM     75  C   UNL A   1      41.139  22.691  28.106  1.00  0.00     0.251 C 
ATOM     76  H   UNL A   1      42.312  21.276  28.909  1.00  0.00     0.163 HD
ATOM     77  O   UNL A   1      41.668  23.621  28.704  1.00  0.00    -0.269 OA
BRANCH  75  78
ATOM     78  C   UNL A   1      39.960  22.945  27.259  1.00  0.00     0.039 A 
ATOM     79  C   UNL A   1      39.493  21.958  26.392  1.00  0.00     0.014 A 
ATOM     80  C   UNL A   1      39.329  24.182  27.317  1.00  0.00     0.014 A 
ATOM     81  C   UNL A   1      38.297  22.159  25.687  1.00  0.00     0.005 A 
ATOM     82  C   UNL A   1      38.158  24.384  26.586  1.00  0.00     0.005 A 
ATOM     83  C   UNL A   1      37.560  23.345  25.840  1.00  0.00    -0.039 A 
BRANCH  83  84
ATOM     84  C   UNL A   1      36.126  23.505  25.283  1.00  0.00     0.074 C 
ATOM     85  C   UNL A   1      36.074  23.612  23.744  1.00  0.00     0.020 C 
ATOM     86  C   UNL A   1      35.276  22.283  25.712  1.00  0.00     0.270 C 
ATOM     87  C   UNL A   1      34.655  23.440  23.199  1.00  0.00     0.062 C 
ATOM     88  N   UNL A   1      33.966  22.069  25.102  1.00  0.00    -0.333 N 
ATOM     89  C   UNL A   1      34.031  22.115  23.648  1.00  0.00     0.262 C 
ATOM     90  H   UNL A   1      33.354  22.846  25.356  1.00  0.00     0.348 HD
BRANCH  88  91
ATOM     91  C   UNL A   1      33.324  20.848  25.653  1.00  0.00     0.284 C 
BRANCH  91  92
ATOM     92  C   UNL A   1      32.533  19.842  24.757  1.00  0.00     0.180 C 
BRANCH  92  93
ATOM     93  N   UNL A   1      33.193  18.632  24.268  1.00  0.00    -0.337 N 
ATOM     94  C   UNL A   1      34.432  18.165  24.857  1.00  0.00     0.120 C 
ATOM     95  C   UNL A   1      32.873  17.890  23.135  1.00  0.00     0.222 C 
ATOM     96  C   UNL A   1      34.899  17.041  23.943  1.00  0.00     0.031 C 
ATOM     97  C   UNL A   1      33.622  16.588  23.269  1.00  0.00     0.102 C 
ATOM     98  O   UNL A   1      32.070  18.153  22.265  1.00  0.00    -0.275 OA
ENDBRANCH  92  93
ENDBRANCH  91  92
ENDBRANCH  88  91
ENDBRANCH  83  84
ENDBRANCH  75  78
ENDBRANCH  73  74
ENDBRANCH   1  73
TORSDOF 18
ENDMDL
MODEL 2
REMARK VINA RESULT:     -11.2      6.979     11.287
REMARK SMILES O=C(NCCCCNC(=O)c1ccc([C@H]2CCC[N@@H+](CCN3CCCC3=O)C2)cc1)c1ccc(-c2c3nc(c(-c4cccc(S(=O)(=O)[O-])c4F)c4ccc([nH]4)c(-c4cccc(S(=O)(=O)[O-])c4F)c4nc(c(-c5cccc(S(=O)(=O)[O-])c5F)c5ccc2[nH]5)C=C4)C=C3)cc1
REMARK SMILES IDX 6 1 5 2 4 3 3 4 1 5 2 6 31 8 32 9 93 10 33 11 92 12 34 13
REMARK SMILES IDX 35 14 36 15 86 16 37 17 91 18 85 19 87 20 38 21 90 22 84 23
REMARK SMILES IDX 83 24 39 26 71 27 51 28 70 29 52 30 55 31 69 32 88 33 53 34
REMARK SMILES IDX 54 35 68 37 89 38 56 39 40 40 41 41 49 42 42 43 44 44 50 45
REMARK SMILES IDX 43 46 45 47 46 48 47 49 48 50 72 51 73 52 81 53 74 54 76 55
REMARK SMILES IDX 82 56 75 57 77 58 78 59 79 60 80 61 57 62 58 63 66 64 59 65
REMARK SMILES IDX 61 66 67 67 60 68 62 69 63 70 64 71 65 72 7 73 8 74 9 75
REMARK SMILES IDX 10 77 11 78 12 79 30 80 13 81 29 82 14 83 15 84 16 85 28 86
REMARK SMILES IDX 17 87 19 88 18 89 20 91 21 92 22 93 23 94 26 95 24 96 25 97
REMARK SMILES IDX 27 98
REMARK H PARENT 3 7 87 25 55 36 8 76 19 90
REMARK Flexibility Score: inf
ROOT
ATOM      1  C   UNL A   1      32.619  30.515  27.250  1.00  0.00     0.023 C 
ENDROOT
BRANCH   1   2
ATOM      2  C   UNL A   1      31.913  31.856  27.051  1.00  0.00     0.023 C 
BRANCH   2   3
ATOM      3  C   UNL A   1      32.830  33.024  26.713  1.00  0.00     0.116 C 
BRANCH   3   4
ATOM      4  N   UNL A   1      32.544  34.212  27.504  1.00  0.00    -0.352 N 
ATOM      5  O   UNL A   1      32.607  35.560  29.306  1.00  0.00    -0.269 OA
ATOM      6  C   UNL A   1      33.095  34.609  28.703  1.00  0.00     0.251 C 
ATOM      7  H   UNL A   1      31.863  34.815  27.130  1.00  0.00     0.163 HD
BRANCH   6   8
ATOM      8  C   UNL A   1      34.251  33.873  29.264  1.00  0.00     0.039 A 
ATOM      9  C   UNL A   1      35.552  34.331  29.045  1.00  0.00     0.014 A 
ATOM     10  C   UNL A   1      34.038  32.718  30.022  1.00  0.00     0.014 A 
ATOM     11  C   UNL A   1      36.636  33.563  29.449  1.00  0.00     0.010 A 
ATOM     12  C   UNL A   1      35.132  31.996  30.516  1.00  0.00     0.010 A 
ATOM     13  C   UNL A   1      36.442  32.403  30.218  1.00  0.00    -0.014 A 
BRANCH  13  14
ATOM     14  C   UNL A   1      37.627  31.726  30.806  1.00  0.00     0.031 A 
ATOM     15  C   UNL A   1      38.427  30.710  30.040  1.00  0.00     0.074 A 
ATOM     16  C   UNL A   1      37.971  32.044  32.071  1.00  0.00     0.049 A 
ATOM     17  N   UNL A   1      39.492  30.052  30.424  1.00  0.00    -0.248 NA
ATOM     18  C   UNL A   1      37.984  30.382  28.676  1.00  0.00     0.031 C 
ATOM     19  C   UNL A   1      37.240  32.983  32.930  1.00  0.00     0.029 A 
ATOM     20  N   UNL A   1      39.008  31.617  32.861  1.00  0.00    -0.354 N 
ATOM     21  C   UNL A   1      39.823  29.204  29.373  1.00  0.00     0.074 A 
ATOM     22  C   UNL A   1      38.849  29.437  28.327  1.00  0.00     0.031 C 
ATOM     23  C   UNL A   1      37.856  33.072  34.115  1.00  0.00     0.029 A 
ATOM     24  C   UNL A   1      38.982  32.148  34.131  1.00  0.00     0.049 A 
ATOM     25  H   UNL A   1      39.702  30.992  32.551  1.00  0.00     0.167 HD
ATOM     26  C   UNL A   1      40.846  28.320  29.293  1.00  0.00     0.034 A 
ATOM     27  C   UNL A   1      39.750  31.892  35.206  1.00  0.00     0.034 A 
ATOM     28  C   UNL A   1      41.826  28.115  30.329  1.00  0.00     0.049 A 
ATOM     29  C   UNL A   1      40.873  30.905  35.076  1.00  0.00     0.074 A 
ATOM     30  C   UNL A   1      42.949  27.305  30.299  1.00  0.00     0.029 A 
ATOM     31  N   UNL A   1      41.790  28.696  31.587  1.00  0.00    -0.354 N 
ATOM     32  N   UNL A   1      41.262  30.235  34.019  1.00  0.00    -0.248 NA
ATOM     33  C   UNL A   1      41.677  30.654  36.279  1.00  0.00     0.031 C 
ATOM     34  C   UNL A   1      43.562  27.357  31.555  1.00  0.00     0.029 A 
ATOM     35  C   UNL A   1      42.849  28.236  32.351  1.00  0.00     0.049 A 
ATOM     36  H   UNL A   1      41.111  29.340  31.892  1.00  0.00     0.167 HD
ATOM     37  C   UNL A   1      42.370  29.502  34.424  1.00  0.00     0.074 A 
ATOM     38  C   UNL A   1      42.612  29.841  35.810  1.00  0.00     0.031 C 
ATOM     39  C   UNL A   1      43.107  28.610  33.717  1.00  0.00     0.034 A 
BRANCH  26  40
ATOM     40  C   UNL A   1      40.993  27.499  28.038  1.00  0.00     0.023 A 
ATOM     41  C   UNL A   1      41.577  28.069  26.889  1.00  0.00     0.012 A 
ATOM     42  C   UNL A   1      40.678  26.124  28.045  1.00  0.00     0.148 A 
ATOM     43  C   UNL A   1      41.835  27.286  25.762  1.00  0.00     0.002 A 
ATOM     44  C   UNL A   1      40.977  25.342  26.935  1.00  0.00     0.091 A 
ATOM     45  F   UNL A   1      40.112  25.605  29.143  1.00  0.00    -0.205 F 
ATOM     46  C   UNL A   1      41.548  25.923  25.791  1.00  0.00     0.022 A 
BRANCH  44  47
ATOM     47  S   UNL A   1      40.726  23.563  26.901  1.00  0.00     0.127 S 
ATOM     48  O   UNL A   1      41.534  23.175  25.745  1.00  0.00    -0.237 OA
ATOM     49  O   UNL A   1      41.274  23.153  28.192  1.00  0.00    -0.237 OA
ATOM     50  O   UNL A   1      39.292  23.359  26.749  1.00  0.00    -0.744 OA
ENDBRANCH  44  47
ENDBRANCH  26  40
BRANCH  27  51
ATOM     51  C   UNL A   1      39.472  32.570  36.503  1.00  0.00     0.023 A 
ATOM     52  C   UNL A   1      40.103  33.791  36.806  1.00  0.00     0.012 A 
ATOM     53  C   UNL A   1      38.585  32.004  37.439  1.00  0.00     0.148 A 
ATOM     54  C   UNL A   1      39.892  34.412  38.039  1.00  0.00     0.002 A 
ATOM     55  C   UNL A   1      38.326  32.661  38.635  1.00  0.00     0.091 A 
ATOM     56  F   UNL A   1      38.004  30.833  37.140  1.00  0.00    -0.205 F 
ATOM     57  C   UNL A   1      38.996  33.852  38.947  1.00  0.00     0.022 A 
BRANCH  55  58
ATOM     58  S   UNL A   1      37.082  32.082  39.792  1.00  0.00     0.127 S 
ATOM     59  O   UNL A   1      36.094  31.489  38.897  1.00  0.00    -0.237 OA
ATOM     60  O   UNL A   1      37.840  31.124  40.598  1.00  0.00    -0.237 OA
ATOM     61  O   UNL A   1      36.650  33.265  40.524  1.00  0.00    -0.744 OA
ENDBRANCH  55  58
ENDBRANCH  27  51
BRANCH  39  62
ATOM     62  C   UNL A   1      44.265  27.956  34.424  1.00  0.00     0.023 A 
ATOM     63  C   UNL A   1      45.513  28.609  34.480  1.00  0.00     0.012 A 
ATOM     64  C   UNL A   1      44.103  26.718  35.074  1.00  0.00     0.148 A 
ATOM     65  C   UNL A   1      46.592  28.021  35.138  1.00  0.00     0.002 A 
ATOM     66  C   UNL A   1      45.167  26.163  35.774  1.00  0.00     0.091 A 
ATOM     67  F   UNL A   1      42.913  26.104  34.994  1.00  0.00    -0.205 F 
ATOM     68  C   UNL A   1      46.416  26.806  35.794  1.00  0.00     0.022 A 
BRANCH  66  69
ATOM     69  S   UNL A   1      45.011  24.649  36.728  1.00  0.00     0.127 S 
ATOM     70  O   UNL A   1      46.328  24.556  37.356  1.00  0.00    -0.237 OA
ATOM     71  O   UNL A   1      43.920  24.975  37.646  1.00  0.00    -0.237 OA
ATOM     72  O   UNL A   1      44.704  23.597  35.769  1.00  0.00    -0.744 OA
ENDBRANCH  66  69
ENDBRANCH  39  62
ENDBRANCH  13  14
ENDBRANCH   6   8
ENDBRANCH   3   4
ENDBRANCH   2   3
ENDBRANCH   1   2
BRANCH   1  73
ATOM     73  C   UNL A   1      31.974  29.324  26.536  1.00  0.00     0.116 C 
BRANCH  73  74
ATOM     74  N   UNL A   1      31.447  29.680  25.227  1.00  0.00    -0.352 N 
ATOM     75  C   UNL A   1      31.199  28.870  24.144  1.00  0.00     0.251 C 
ATOM     76  H   UNL A   1      31.238  30.633  25.099  1.00  0.00     0.163 HD
ATOM     77  O   UNL A   1      30.917  29.346  23.050  1.00  0.00    -0.269 OA
BRANCH  75  78
ATOM     78  C   UNL A   1      31.268  27.407  24.307  1.00  0.00     0.039 A 
ATOM     79  C   UNL A   1      30.197  26.710  24.864  1.00  0.00     0.014 A 
ATOM     80  C   UNL A   1      32.417  26.728  23.917  1.00  0.00     0.014 A 
ATOM     81  C   UNL A   1      30.218  25.308  24.896  1.00  0.00     0.005 A 
ATOM     82  C   UNL A   1      32.441  25.335  23.984  1.00  0.00     0.005 A 
ATOM     83  C   UNL A   1      31.307  24.591  24.374  1.00  0.00    -0.039 A 
BRANCH  83  84
ATOM     84  C   UNL A   1      31.263  23.059  24.162  1.00  0.00     0.074 C 
ATOM     85  C   UNL A   1      31.818  22.614  22.792  1.00  0.00     0.020 C 
ATOM     86  C   UNL A   1      32.098  22.370  25.269  1.00  0.00     0.270 C 
ATOM     87  C   UNL A   1      32.068  21.106  22.731  1.00  0.00     0.062 C 
ATOM     88  N   UNL A   1      32.424  20.951  25.144  1.00  0.00    -0.333 N 
ATOM     89  C   UNL A   1      33.009  20.642  23.847  1.00  0.00     0.262 C 
ATOM     90  H   UNL A   1      31.559  20.411  25.170  1.00  0.00     0.348 HD
BRANCH  88  91
ATOM     91  C   UNL A   1      33.227  20.493  26.308  1.00  0.00     0.284 C 
BRANCH  91  92
ATOM     92  C   UNL A   1      34.481  21.273  26.819  1.00  0.00     0.180 C 
BRANCH  92  93
ATOM     93  N   UNL A   1      35.500  21.712  25.866  1.00  0.00    -0.337 N 
ATOM     94  C   UNL A   1      35.597  23.100  25.461  1.00  0.00     0.120 C 
ATOM     95  C   UNL A   1      36.355  20.915  25.112  1.00  0.00     0.222 C 
ATOM     96  C   UNL A   1      36.605  23.103  24.320  1.00  0.00     0.031 C 
ATOM     97  C   UNL A   1      37.408  21.844  24.562  1.00  0.00     0.102 C 
ATOM     98  O   UNL A   1      36.354  19.708  25.000  1.00  0.00    -0.275 OA
ENDBRANCH  92  93
ENDBRANCH  91  92
ENDBRANCH  88  91
ENDBRANCH  83  84
ENDBRANCH  75  78
ENDBRANCH  73  74
ENDBRANCH   1  73
TORSDOF 18
ENDMDL
MODEL 3
REMARK VINA RESULT:     -11.1      6.572     12.026
REMARK SMILES O=C(NCCCCNC(=O)c1ccc([C@H]2CCC[N@@H+](CCN3CCCC3=O)C2)cc1)c1ccc(-c2c3nc(c(-c4cccc(S(=O)(=O)[O-])c4F)c4ccc([nH]4)c(-c4cccc(S(=O)(=O)[O-])c4F)c4nc(c(-c5cccc(S(=O)(=O)[O-])c5F)c5ccc2[nH]5)C=C4)C=C3)cc1
REMARK SMILES IDX 6 1 5 2 4 3 3 4 1 5 2 6 31 8 32 9 93 10 33 11 92 12 34 13
REMARK SMILES IDX 35 14 36 15 86 16 37 17 91 18 85 19 87 20 38 21 90 22 84 23
REMARK SMILES IDX 83 24 39 26 71 27 51 28 70 29 52 30 55 31 69 32 88 33 53 34
REMARK SMILES IDX 54 35 68 37 89 38 56 39 40 40 41 41 49 42 42 43 44 44 50 45
REMARK SMILES IDX 43 46 45 47 46 48 47 49 48 50 72 51 73 52 81 53 74 54 76 55
REMARK SMILES IDX 82 56 75 57 77 58 78 59 79 60 80 61 57 62 58 63 66 64 59 65
REMARK SMILES IDX 61 66 67 67 60 68 62 69 63 70 64 71 65 72 7 73 8 74 9 75
REMARK SMILES IDX 10 77 11 78 12 79 30 80 13 81 29 82 14 83 15 84 16 85 28 86
REMARK SMILES IDX 17 87 19 88 18 89 20 91 21 92 22 93 23 94 26 95 24 96 25 97
REMARK SMILES IDX 27 98
REMARK H PARENT 3 7 87 25 55 36 8 76 19 90
REMARK Flexibility Score: inf
ROOT
ATOM      1  C   UNL A   1      33.687  30.599  27.286  1.00  0.00     0.023 C 
ENDROOT
BRANCH   1   2
ATOM      2  C   UNL A   1      32.813  31.790  27.676  1.00  0.00     0.023 C 
BRANCH   2   3
ATOM      3  C   UNL A   1      33.390  33.155  27.326  1.00  0.00     0.116 C 
BRANCH   3   4
ATOM      4  N   UNL A   1      32.899  34.214  28.195  1.00  0.00    -0.352 N 
ATOM      5  O   UNL A   1      32.652  35.367  30.114  1.00  0.00    -0.269 OA
ATOM      6  C   UNL A   1      33.300  34.545  29.471  1.00  0.00     0.251 C 
ATOM      7  H   UNL A   1      32.180  34.772  27.819  1.00  0.00     0.163 HD
BRANCH   6   8
ATOM      8  C   UNL A   1      34.489  33.892  30.063  1.00  0.00     0.039 A 
ATOM      9  C   UNL A   1      34.339  32.867  31.000  1.00  0.00     0.014 A 
ATOM     10  C   UNL A   1      35.770  34.299  29.676  1.00  0.00     0.014 A 
ATOM     11  C   UNL A   1      35.452  32.357  31.657  1.00  0.00     0.010 A 
ATOM     12  C   UNL A   1      36.896  33.713  30.267  1.00  0.00     0.010 A 
ATOM     13  C   UNL A   1      36.746  32.749  31.276  1.00  0.00    -0.014 A 
BRANCH  13  14
ATOM     14  C   UNL A   1      37.912  32.031  31.856  1.00  0.00     0.031 A 
ATOM     15  C   UNL A   1      38.515  32.422  33.176  1.00  0.00     0.074 A 
ATOM     16  C   UNL A   1      38.431  31.003  31.153  1.00  0.00     0.049 A 
ATOM     17  N   UNL A   1      39.523  31.875  33.806  1.00  0.00    -0.248 NA
ATOM     18  C   UNL A   1      37.924  33.570  33.880  1.00  0.00     0.031 C 
ATOM     19  C   UNL A   1      37.957  30.562  29.836  1.00  0.00     0.029 A 
ATOM     20  N   UNL A   1      39.467  30.149  31.431  1.00  0.00    -0.354 N 
ATOM     21  C   UNL A   1      39.717  32.631  34.956  1.00  0.00     0.074 A 
ATOM     22  C   UNL A   1      38.713  33.675  34.943  1.00  0.00     0.031 C 
ATOM     23  C   UNL A   1      38.687  29.515  29.430  1.00  0.00     0.029 A 
ATOM     24  C   UNL A   1      39.724  29.253  30.418  1.00  0.00     0.049 A 
ATOM     25  H   UNL A   1      39.977  30.174  32.272  1.00  0.00     0.167 HD
ATOM     26  C   UNL A   1      40.643  32.463  35.930  1.00  0.00     0.034 A 
ATOM     27  C   UNL A   1      40.709  28.347  30.276  1.00  0.00     0.034 A 
ATOM     28  C   UNL A   1      41.621  31.405  35.948  1.00  0.00     0.049 A 
ATOM     29  C   UNL A   1      41.717  28.193  31.377  1.00  0.00     0.074 A 
ATOM     30  C   UNL A   1      42.541  31.105  36.938  1.00  0.00     0.029 A 
ATOM     31  N   UNL A   1      41.828  30.495  34.924  1.00  0.00    -0.354 N 
ATOM     32  N   UNL A   1      41.780  28.815  32.528  1.00  0.00    -0.248 NA
ATOM     33  C   UNL A   1      42.776  27.197  31.171  1.00  0.00     0.031 C 
ATOM     34  C   UNL A   1      43.338  30.046  36.491  1.00  0.00     0.029 A 
ATOM     35  C   UNL A   1      42.883  29.656  35.243  1.00  0.00     0.049 A 
ATOM     36  H   UNL A   1      41.304  30.451  34.092  1.00  0.00     0.167 HD
ATOM     37  C   UNL A   1      42.871  28.269  33.193  1.00  0.00     0.074 A 
ATOM     38  C   UNL A   1      43.414  27.240  32.331  1.00  0.00     0.031 C 
ATOM     39  C   UNL A   1      43.390  28.607  34.398  1.00  0.00     0.034 A 
BRANCH  26  40
ATOM     40  C   UNL A   1      40.658  33.430  37.087  1.00  0.00     0.023 A 
ATOM     41  C   UNL A   1      39.917  33.145  38.250  1.00  0.00     0.012 A 
ATOM     42  C   UNL A   1      41.516  34.549  37.069  1.00  0.00     0.148 A 
ATOM     43  C   UNL A   1      40.020  33.965  39.376  1.00  0.00     0.002 A 
ATOM     44  C   UNL A   1      41.646  35.337  38.207  1.00  0.00     0.091 A 
ATOM     45  F   UNL A   1      42.202  34.809  35.948  1.00  0.00    -0.205 F 
ATOM     46  C   UNL A   1      40.893  35.050  39.358  1.00  0.00     0.022 A 
BRANCH  44  47
ATOM     47  S   UNL A   1      42.805  36.706  38.317  1.00  0.00     0.127 S 
ATOM     48  O   UNL A   1      42.023  37.693  39.061  1.00  0.00    -0.237 OA
ATOM     49  O   UNL A   1      43.909  36.111  39.069  1.00  0.00    -0.237 OA
ATOM     50  O   UNL A   1      43.125  37.076  36.946  1.00  0.00    -0.744 OA
ENDBRANCH  44  47
ENDBRANCH  26  40
BRANCH  27  51
ATOM     51  C   UNL A   1      40.798  27.527  29.035  1.00  0.00     0.023 A 
ATOM     52  C   UNL A   1      39.974  26.397  28.879  1.00  0.00     0.012 A 
ATOM     53  C   UNL A   1      41.702  27.864  28.009  1.00  0.00     0.148 A 
ATOM     54  C   UNL A   1      40.083  25.591  27.745  1.00  0.00     0.002 A 
ATOM     55  C   UNL A   1      41.758  27.097  26.853  1.00  0.00     0.091 A 
ATOM     56  F   UNL A   1      42.490  28.936  28.180  1.00  0.00    -0.205 F 
ATOM     57  C   UNL A   1      40.966  25.946  26.729  1.00  0.00     0.022 A 
BRANCH  55  58
ATOM     58  S   UNL A   1      42.762  27.568  25.441  1.00  0.00     0.127 S 
ATOM     59  O   UNL A   1      44.043  27.869  26.073  1.00  0.00    -0.237 OA
ATOM     60  O   UNL A   1      42.742  26.347  24.635  1.00  0.00    -0.237 OA
ATOM     61  O   UNL A   1      42.072  28.697  24.831  1.00  0.00    -0.744 OA
ENDBRANCH  55  58
ENDBRANCH  27  51
BRANCH  39  62
ATOM     62  C   UNL A   1      44.594  27.836  34.872  1.00  0.00     0.023 A 
ATOM     63  C   UNL A   1      45.890  28.276  34.530  1.00  0.00     0.012 A 
ATOM     64  C   UNL A   1      44.444  26.704  35.696  1.00  0.00     0.148 A 
ATOM     65  C   UNL A   1      47.014  27.578  34.969  1.00  0.00     0.002 A 
ATOM     66  C   UNL A   1      45.570  26.045  36.174  1.00  0.00     0.091 A 
ATOM     67  F   UNL A   1      43.204  26.290  35.994  1.00  0.00    -0.205 F 
ATOM     68  C   UNL A   1      46.855  26.472  35.799  1.00  0.00     0.022 A 
BRANCH  66  69
ATOM     69  S   UNL A   1      45.469  24.669  37.323  1.00  0.00     0.127 S 
ATOM     70  O   UNL A   1      44.840  23.638  36.499  1.00  0.00    -0.237 OA
ATOM     71  O   UNL A   1      46.877  24.425  37.636  1.00  0.00    -0.237 OA
ATOM     72  O   UNL A   1      44.670  25.139  38.447  1.00  0.00    -0.744 OA
ENDBRANCH  66  69
ENDBRANCH  39  62
ENDBRANCH  13  14
ENDBRANCH   6   8
ENDBRANCH   3   4
ENDBRANCH   2   3
ENDBRANCH   1   2
BRANCH   1  73
ATOM     73  C   UNL A   1      32.935  29.399  26.705  1.00  0.00     0.116 C 
BRANCH  73  74
ATOM     74  N   UNL A   1      31.787  29.796  25.905  1.00  0.00    -0.352 N 
ATOM     75  C   UNL A   1      31.305  29.241  24.743  1.00  0.00     0.251 C 
ATOM     76  H   UNL A   1      31.282  30.571  26.244  1.00  0.00     0.163 HD
ATOM     77  O   UNL A   1      30.428  29.797  24.093  1.00  0.00    -0.269 OA
BRANCH  75  78
ATOM     78  C   UNL A   1      31.852  27.953  24.280  1.00  0.00     0.039 A 
ATOM     79  C   UNL A   1      32.870  27.924  23.328  1.00  0.00     0.014 A 
ATOM     80  C   UNL A   1      31.332  26.767  24.785  1.00  0.00     0.014 A 
ATOM     81  C   UNL A   1      33.473  26.703  22.989  1.00  0.00     0.005 A 
ATOM     82  C   UNL A   1      31.917  25.556  24.416  1.00  0.00     0.005 A 
ATOM     83  C   UNL A   1      33.064  25.504  23.595  1.00  0.00    -0.039 A 
BRANCH  83  84
ATOM     84  C   UNL A   1      33.860  24.187  23.441  1.00  0.00     0.074 C 
ATOM     85  C   UNL A   1      35.062  24.079  24.404  1.00  0.00     0.020 C 
ATOM     86  C   UNL A   1      32.915  22.989  23.711  1.00  0.00     0.270 C 
ATOM     87  C   UNL A   1      35.628  22.660  24.467  1.00  0.00     0.062 C 
ATOM     88  N   UNL A   1      33.480  21.653  23.880  1.00  0.00    -0.333 N 
ATOM     89  C   UNL A   1      34.556  21.639  24.860  1.00  0.00     0.262 C 
ATOM     90  H   UNL A   1      33.925  21.371  23.006  1.00  0.00     0.348 HD
BRANCH  88  91
ATOM     91  C   UNL A   1      32.405  20.657  24.128  1.00  0.00     0.284 C 
BRANCH  91  92
ATOM     92  C   UNL A   1      32.338  19.292  23.370  1.00  0.00     0.180 C 
BRANCH  92  93
ATOM     93  N   UNL A   1      32.721  18.060  24.059  1.00  0.00    -0.337 N 
ATOM     94  C   UNL A   1      32.535  17.913  25.488  1.00  0.00     0.120 C 
ATOM     95  C   UNL A   1      33.435  16.985  23.539  1.00  0.00     0.222 C 
ATOM     96  C   UNL A   1      33.249  16.616  25.842  1.00  0.00     0.031 C 
ATOM     97  C   UNL A   1      33.270  15.861  24.531  1.00  0.00     0.102 C 
ATOM     98  O   UNL A   1      33.982  16.896  22.460  1.00  0.00    -0.275 OA
ENDBRANCH  92  93
ENDBRANCH  91  92
ENDBRANCH  88  91
ENDBRANCH  83  84
ENDBRANCH  75  78
ENDBRANCH  73  74
ENDBRANCH   1  73
TORSDOF 18
ENDMDL
