MODEL 1
REMARK VINA RESULT:     -11.6      0.000      0.000
REMARK SMILES O=C(/C=C/c1ccc(O)c(O)c1)NCCCCNC(=O)c1ccc(-c2c3nc(c(-c4cccc(S(=O)(=O)[O-])c4F)c4ccc([nH]4)c(-c4cccc(S(=O)(=O)[O-])c4F)c4nc(c(-c5cccc(S(=O)(=O)[O-])c5F)c5ccc2[nH]5)C=C4)C=C3)cc1
REMARK SMILES IDX 16 1 15 2 14 3 13 4 1 5 2 6 3 8 4 9 5 10 6 11 12 12 7 13
REMARK SMILES IDX 10 14 8 15 11 16 9 18 17 20 18 21 19 22 20 24 21 25 22 26
REMARK SMILES IDX 83 27 23 28 82 29 24 30 25 31 26 32 76 33 27 34 81 35 75 36
REMARK SMILES IDX 77 37 28 38 80 39 74 40 73 41 29 43 61 44 41 45 60 46 42 47
REMARK SMILES IDX 45 48 59 49 78 50 43 51 44 52 58 54 79 55 46 56 30 57 31 58
REMARK SMILES IDX 39 59 32 60 34 61 40 62 33 63 35 64 36 65 37 66 38 67 62 68
REMARK SMILES IDX 63 69 71 70 64 71 66 72 72 73 65 74 67 75 68 76 69 77 70 78
REMARK SMILES IDX 47 79 48 80 56 81 49 82 51 83 57 84 50 85 52 86 53 87 54 88
REMARK SMILES IDX 55 89
REMARK H PARENT 13 7 11 17 9 19 18 23 77 42 45 53
REMARK Flexibility Score: inf
ROOT
ATOM      1  C   UNL A   1      33.211  27.989  26.884  1.00  0.00     0.023 C 
ENDROOT
BRANCH   1   2
ATOM      2  C   UNL A   1      33.107  26.634  26.176  1.00  0.00     0.023 C 
BRANCH   2   3
ATOM      3  C   UNL A   1      31.697  26.234  25.747  1.00  0.00     0.116 C 
BRANCH   3   4
ATOM      4  N   UNL A   1      31.042  27.269  24.972  1.00  0.00    -0.353 N 
ATOM      5  O   UNL A   1      30.521  25.933  23.180  1.00  0.00    -0.270 OA
ATOM      6  C   UNL A   1      30.518  27.030  23.729  1.00  0.00     0.243 C 
ATOM      7  H   UNL A   1      30.972  28.175  25.350  1.00  0.00     0.163 HD
BRANCH   6   8
ATOM      8  C   UNL A   1      29.874  28.178  23.037  1.00  0.00     0.072 C 
ATOM      9  C   UNL A   1      29.735  29.433  23.491  1.00  0.00     0.014 C 
BRANCH   9  10
ATOM     10  C   UNL A   1      29.115  30.502  22.690  1.00  0.00    -0.022 A 
ATOM     11  C   UNL A   1      28.559  30.259  21.422  1.00  0.00     0.012 A 
ATOM     12  C   UNL A   1      29.039  31.792  23.230  1.00  0.00     0.058 A 
ATOM     13  C   UNL A   1      27.965  31.292  20.687  1.00  0.00     0.051 A 
ATOM     14  C   UNL A   1      28.450  32.812  22.493  1.00  0.00     0.157 A 
ATOM     15  C   UNL A   1      27.918  32.569  21.231  1.00  0.00     0.157 A 
BRANCH  14  16
ATOM     16  O   UNL A   1      28.397  34.067  23.025  1.00  0.00    -0.504 OA
ATOM     17  H   UNL A   1      28.685  34.217  23.904  1.00  0.00     0.293 HD
ENDBRANCH  14  16
BRANCH  15  18
ATOM     18  O   UNL A   1      27.355  33.619  20.561  1.00  0.00    -0.504 OA
ATOM     19  H   UNL A   1      26.483  33.895  20.769  1.00  0.00     0.293 HD
ENDBRANCH  15  18
ENDBRANCH   9  10
ENDBRANCH   6   8
ENDBRANCH   3   4
ENDBRANCH   2   3
ENDBRANCH   1   2
BRANCH   1  20
ATOM     20  C   UNL A   1      33.935  29.084  26.108  1.00  0.00     0.116 C 
BRANCH  20  21
ATOM     21  N   UNL A   1      33.828  30.393  26.734  1.00  0.00    -0.352 N 
ATOM     22  C   UNL A   1      34.629  30.970  27.690  1.00  0.00     0.251 C 
ATOM     23  H   UNL A   1      33.072  30.945  26.428  1.00  0.00     0.163 HD
ATOM     24  O   UNL A   1      34.296  32.039  28.198  1.00  0.00    -0.269 OA
BRANCH  22  25
ATOM     25  C   UNL A   1      35.875  30.300  28.132  1.00  0.00     0.039 A 
ATOM     26  C   UNL A   1      37.005  30.368  27.312  1.00  0.00     0.014 A 
ATOM     27  C   UNL A   1      35.937  29.611  29.345  1.00  0.00     0.014 A 
ATOM     28  C   UNL A   1      38.211  29.806  27.740  1.00  0.00     0.010 A 
ATOM     29  C   UNL A   1      37.158  29.119  29.804  1.00  0.00     0.010 A 
ATOM     30  C   UNL A   1      38.310  29.209  29.008  1.00  0.00    -0.014 A 
BRANCH  30  31
ATOM     31  C   UNL A   1      39.609  28.700  29.524  1.00  0.00     0.031 A 
ATOM     32  C   UNL A   1      40.326  29.418  30.636  1.00  0.00     0.074 A 
ATOM     33  C   UNL A   1      40.190  27.636  28.932  1.00  0.00     0.049 A 
ATOM     34  N   UNL A   1      41.488  29.152  31.176  1.00  0.00    -0.248 NA
ATOM     35  C   UNL A   1      39.663  30.605  31.203  1.00  0.00     0.031 C 
ATOM     36  C   UNL A   1      39.638  26.893  27.796  1.00  0.00     0.029 A 
ATOM     37  N   UNL A   1      41.387  27.011  29.184  1.00  0.00    -0.354 N 
ATOM     38  C   UNL A   1      41.714  30.153  32.112  1.00  0.00     0.074 A 
ATOM     39  C   UNL A   1      40.581  31.051  32.049  1.00  0.00     0.031 C 
ATOM     40  C   UNL A   1      40.487  25.911  27.456  1.00  0.00     0.029 A 
ATOM     41  C   UNL A   1      41.661  25.973  28.322  1.00  0.00     0.049 A 
ATOM     42  H   UNL A   1      41.992  27.278  29.913  1.00  0.00     0.167 HD
ATOM     43  C   UNL A   1      42.757  30.303  32.965  1.00  0.00     0.034 A 
ATOM     44  C   UNL A   1      42.739  25.170  28.228  1.00  0.00     0.034 A 
ATOM     45  C   UNL A   1      43.864  29.389  33.054  1.00  0.00     0.049 A 
ATOM     46  C   UNL A   1      43.872  25.344  29.204  1.00  0.00     0.074 A 
ATOM     47  C   UNL A   1      44.919  29.405  33.950  1.00  0.00     0.029 A 
ATOM     48  N   UNL A   1      44.071  28.309  32.211  1.00  0.00    -0.354 N 
ATOM     49  N   UNL A   1      43.989  26.200  30.189  1.00  0.00    -0.248 NA
ATOM     50  C   UNL A   1      45.006  24.416  29.078  1.00  0.00     0.031 C 
ATOM     51  C   UNL A   1      45.784  28.354  33.625  1.00  0.00     0.029 A 
ATOM     52  C   UNL A   1      45.246  27.660  32.553  1.00  0.00     0.049 A 
ATOM     53  H   UNL A   1      43.472  28.042  31.478  1.00  0.00     0.167 HD
ATOM     54  C   UNL A   1      45.186  25.889  30.824  1.00  0.00     0.074 A 
ATOM     55  C   UNL A   1      45.748  24.754  30.124  1.00  0.00     0.031 C 
ATOM     56  C   UNL A   1      45.773  26.498  31.884  1.00  0.00     0.034 A 
BRANCH  43  57
ATOM     57  C   UNL A   1      42.735  31.481  33.905  1.00  0.00     0.023 A 
ATOM     58  C   UNL A   1      43.270  32.718  33.491  1.00  0.00     0.012 A 
ATOM     59  C   UNL A   1      42.122  31.383  35.170  1.00  0.00     0.148 A 
ATOM     60  C   UNL A   1      43.228  33.829  34.333  1.00  0.00     0.002 A 
ATOM     61  C   UNL A   1      42.040  32.507  35.985  1.00  0.00     0.091 A 
ATOM     62  F   UNL A   1      41.634  30.196  35.555  1.00  0.00    -0.205 F 
ATOM     63  C   UNL A   1      42.604  33.726  35.574  1.00  0.00     0.022 A 
BRANCH  61  64
ATOM     64  S   UNL A   1      41.184  32.502  37.564  1.00  0.00     0.127 S 
ATOM     65  O   UNL A   1      42.014  31.585  38.345  1.00  0.00    -0.237 OA
ATOM     66  O   UNL A   1      41.278  33.904  37.969  1.00  0.00    -0.237 OA
ATOM     67  O   UNL A   1      39.832  32.036  37.288  1.00  0.00    -0.744 OA
ENDBRANCH  61  64
ENDBRANCH  43  57
BRANCH  44  68
ATOM     68  C   UNL A   1      42.781  24.087  27.204  1.00  0.00     0.023 A 
ATOM     69  C   UNL A   1      43.470  24.303  25.995  1.00  0.00     0.012 A 
ATOM     70  C   UNL A   1      42.151  22.846  27.422  1.00  0.00     0.148 A 
ATOM     71  C   UNL A   1      43.500  23.320  25.006  1.00  0.00     0.002 A 
ATOM     72  C   UNL A   1      42.234  21.849  26.457  1.00  0.00     0.091 A 
ATOM     73  F   UNL A   1      41.491  22.663  28.574  1.00  0.00    -0.205 F 
ATOM     74  C   UNL A   1      42.891  22.090  25.240  1.00  0.00     0.022 A 
BRANCH  72  75
ATOM     75  S   UNL A   1      41.591  20.193  26.723  1.00  0.00     0.127 S 
ATOM     76  O   UNL A   1      42.438  19.716  27.813  1.00  0.00    -0.237 OA
ATOM     77  O   UNL A   1      40.202  20.466  27.092  1.00  0.00    -0.237 OA
ATOM     78  O   UNL A   1      41.749  19.501  25.450  1.00  0.00    -0.744 OA
ENDBRANCH  72  75
ENDBRANCH  44  68
BRANCH  56  79
ATOM     79  C   UNL A   1      47.070  25.924  32.395  1.00  0.00     0.023 A 
ATOM     80  C   UNL A   1      48.298  26.391  31.889  1.00  0.00     0.012 A 
ATOM     81  C   UNL A   1      47.069  24.969  33.432  1.00  0.00     0.148 A 
ATOM     82  C   UNL A   1      49.504  25.891  32.380  1.00  0.00     0.002 A 
ATOM     83  C   UNL A   1      48.273  24.516  33.954  1.00  0.00     0.091 A 
ATOM     84  F   UNL A   1      45.889  24.524  33.890  1.00  0.00    -0.205 F 
ATOM     85  C   UNL A   1      49.492  24.965  33.419  1.00  0.00     0.022 A 
BRANCH  83  86
ATOM     86  S   UNL A   1      48.357  23.399  35.358  1.00  0.00     0.127 S 
ATOM     87  O   UNL A   1      47.770  24.213  36.422  1.00  0.00    -0.237 OA
ATOM     88  O   UNL A   1      47.522  22.282  34.914  1.00  0.00    -0.237 OA
ATOM     89  O   UNL A   1      49.765  23.071  35.529  1.00  0.00    -0.744 OA
ENDBRANCH  83  86
ENDBRANCH  56  79
ENDBRANCH  30  31
ENDBRANCH  22  25
ENDBRANCH  20  21
ENDBRANCH   1  20
TORSDOF 17
ENDMDL
MODEL 2
REMARK VINA RESULT:     -11.2      2.441      4.540
REMARK SMILES O=C(/C=C/c1ccc(O)c(O)c1)NCCCCNC(=O)c1ccc(-c2c3nc(c(-c4cccc(S(=O)(=O)[O-])c4F)c4ccc([nH]4)c(-c4cccc(S(=O)(=O)[O-])c4F)c4nc(c(-c5cccc(S(=O)(=O)[O-])c5F)c5ccc2[nH]5)C=C4)C=C3)cc1
REMARK SMILES IDX 16 1 15 2 14 3 13 4 1 5 2 6 3 8 4 9 5 10 6 11 12 12 7 13
REMARK SMILES IDX 10 14 8 15 11 16 9 18 17 20 18 21 19 22 20 24 21 25 22 26
REMARK SMILES IDX 83 27 23 28 82 29 24 30 25 31 26 32 76 33 27 34 81 35 75 36
REMARK SMILES IDX 77 37 28 38 80 39 74 40 73 41 29 43 61 44 41 45 60 46 42 47
REMARK SMILES IDX 45 48 59 49 78 50 43 51 44 52 58 54 79 55 46 56 30 57 31 58
REMARK SMILES IDX 39 59 32 60 34 61 40 62 33 63 35 64 36 65 37 66 38 67 62 68
REMARK SMILES IDX 63 69 71 70 64 71 66 72 72 73 65 74 67 75 68 76 69 77 70 78
REMARK SMILES IDX 47 79 48 80 56 81 49 82 51 83 57 84 50 85 52 86 53 87 54 88
REMARK SMILES IDX 55 89
REMARK H PARENT 13 7 11 17 9 19 18 23 77 42 45 53
REMARK Flexibility Score: inf
ROOT
ATOM      1  C   UNL A   1      33.140  28.159  27.274  1.00  0.00     0.023 C 
ENDROOT
BRANCH   1   2
ATOM      2  C   UNL A   1      31.613  28.146  27.145  1.00  0.00     0.023 C 
BRANCH   2   3
ATOM      3  C   UNL A   1      31.041  26.977  26.344  1.00  0.00     0.116 C 
BRANCH   3   4
ATOM      4  N   UNL A   1      32.004  25.909  26.163  1.00  0.00    -0.353 N 
ATOM      5  O   UNL A   1      31.957  25.931  23.868  1.00  0.00    -0.270 OA
ATOM      6  C   UNL A   1      32.371  25.459  24.923  1.00  0.00     0.243 C 
ATOM      7  H   UNL A   1      32.407  25.491  26.958  1.00  0.00     0.163 HD
BRANCH   6   8
ATOM      8  C   UNL A   1      33.367  24.355  24.873  1.00  0.00     0.072 C 
ATOM      9  C   UNL A   1      34.650  24.394  25.263  1.00  0.00     0.014 C 
BRANCH   9  10
ATOM     10  C   UNL A   1      35.531  23.216  25.208  1.00  0.00    -0.022 A 
ATOM     11  C   UNL A   1      35.042  21.929  24.920  1.00  0.00     0.012 A 
ATOM     12  C   UNL A   1      36.907  23.391  25.404  1.00  0.00     0.058 A 
ATOM     13  C   UNL A   1      35.905  20.828  24.862  1.00  0.00     0.051 A 
ATOM     14  C   UNL A   1      37.755  22.292  25.347  1.00  0.00     0.157 A 
ATOM     15  C   UNL A   1      37.262  21.019  25.080  1.00  0.00     0.157 A 
BRANCH  14  16
ATOM     16  O   UNL A   1      39.091  22.477  25.555  1.00  0.00    -0.504 OA
ATOM     17  H   UNL A   1      39.615  21.777  25.892  1.00  0.00     0.293 HD
ENDBRANCH  14  16
BRANCH  15  18
ATOM     18  O   UNL A   1      38.154  19.984  25.040  1.00  0.00    -0.504 OA
ATOM     19  H   UNL A   1      38.166  19.348  25.729  1.00  0.00     0.293 HD
ENDBRANCH  15  18
ENDBRANCH   9  10
ENDBRANCH   6   8
ENDBRANCH   3   4
ENDBRANCH   2   3
ENDBRANCH   1   2
BRANCH   1  20
ATOM     20  C   UNL A   1      33.869  29.143  26.365  1.00  0.00     0.116 C 
BRANCH  20  21
ATOM     21  N   UNL A   1      33.862  30.505  26.876  1.00  0.00    -0.352 N 
ATOM     22  C   UNL A   1      34.740  31.117  27.739  1.00  0.00     0.251 C 
ATOM     23  H   UNL A   1      33.121  31.070  26.558  1.00  0.00     0.163 HD
ATOM     24  O   UNL A   1      34.489  32.243  28.165  1.00  0.00    -0.269 OA
BRANCH  22  25
ATOM     25  C   UNL A   1      35.970  30.419  28.181  1.00  0.00     0.039 A 
ATOM     26  C   UNL A   1      37.102  30.464  27.362  1.00  0.00     0.014 A 
ATOM     27  C   UNL A   1      36.016  29.726  29.393  1.00  0.00     0.014 A 
ATOM     28  C   UNL A   1      38.295  29.874  27.790  1.00  0.00     0.010 A 
ATOM     29  C   UNL A   1      37.225  29.206  29.852  1.00  0.00     0.010 A 
ATOM     30  C   UNL A   1      38.379  29.273  29.058  1.00  0.00    -0.014 A 
BRANCH  30  31
ATOM     31  C   UNL A   1      39.667  28.735  29.573  1.00  0.00     0.031 A 
ATOM     32  C   UNL A   1      40.395  29.431  30.693  1.00  0.00     0.074 A 
ATOM     33  C   UNL A   1      40.228  27.663  28.976  1.00  0.00     0.049 A 
ATOM     34  N   UNL A   1      41.550  29.138  31.234  1.00  0.00    -0.248 NA
ATOM     35  C   UNL A   1      39.754  30.627  31.265  1.00  0.00     0.031 C 
ATOM     36  C   UNL A   1      39.665  26.939  27.835  1.00  0.00     0.029 A 
ATOM     37  N   UNL A   1      41.411  27.012  29.228  1.00  0.00    -0.354 N 
ATOM     38  C   UNL A   1      41.793  30.129  32.177  1.00  0.00     0.074 A 
ATOM     39  C   UNL A   1      40.678  31.049  32.117  1.00  0.00     0.031 C 
ATOM     40  C   UNL A   1      40.495  25.941  27.490  1.00  0.00     0.029 A 
ATOM     41  C   UNL A   1      41.667  25.974  28.360  1.00  0.00     0.049 A 
ATOM     42  H   UNL A   1      42.019  27.262  29.960  1.00  0.00     0.167 HD
ATOM     43  C   UNL A   1      42.836  30.252  33.034  1.00  0.00     0.034 A 
ATOM     44  C   UNL A   1      42.729  25.150  28.264  1.00  0.00     0.034 A 
ATOM     45  C   UNL A   1      43.925  29.315  33.120  1.00  0.00     0.049 A 
ATOM     46  C   UNL A   1      43.862  25.295  29.244  1.00  0.00     0.074 A 
ATOM     47  C   UNL A   1      44.976  29.304  34.019  1.00  0.00     0.029 A 
ATOM     48  N   UNL A   1      44.112  28.236  32.271  1.00  0.00    -0.354 N 
ATOM     49  N   UNL A   1      43.993  26.142  30.235  1.00  0.00    -0.248 NA
ATOM     50  C   UNL A   1      44.977  24.345  29.116  1.00  0.00     0.031 C 
ATOM     51  C   UNL A   1      45.822  28.238  33.689  1.00  0.00     0.029 A 
ATOM     52  C   UNL A   1      45.273  27.562  32.612  1.00  0.00     0.049 A 
ATOM     53  H   UNL A   1      43.509  27.986  31.534  1.00  0.00     0.167 HD
ATOM     54  C   UNL A   1      45.182  25.804  30.871  1.00  0.00     0.074 A 
ATOM     55  C   UNL A   1      45.723  24.661  30.166  1.00  0.00     0.031 C 
ATOM     56  C   UNL A   1      45.778  26.393  31.937  1.00  0.00     0.034 A 
BRANCH  43  57
ATOM     57  C   UNL A   1      42.835  31.424  33.982  1.00  0.00     0.023 A 
ATOM     58  C   UNL A   1      43.392  32.654  33.575  1.00  0.00     0.012 A 
ATOM     59  C   UNL A   1      42.221  31.329  35.246  1.00  0.00     0.148 A 
ATOM     60  C   UNL A   1      43.370  33.760  34.424  1.00  0.00     0.002 A 
ATOM     61  C   UNL A   1      42.159  32.449  36.068  1.00  0.00     0.091 A 
ATOM     62  F   UNL A   1      41.712  30.148  35.623  1.00  0.00    -0.205 F 
ATOM     63  C   UNL A   1      42.744  33.660  35.664  1.00  0.00     0.022 A 
BRANCH  61  64
ATOM     64  S   UNL A   1      41.303  32.449  37.647  1.00  0.00     0.127 S 
ATOM     65  O   UNL A   1      39.996  31.909  37.272  1.00  0.00    -0.237 OA
ATOM     66  O   UNL A   1      42.131  31.544  38.445  1.00  0.00    -0.237 OA
ATOM     67  O   UNL A   1      41.297  33.832  38.103  1.00  0.00    -0.744 OA
ENDBRANCH  61  64
ENDBRANCH  43  57
BRANCH  44  68
ATOM     68  C   UNL A   1      42.751  24.073  27.233  1.00  0.00     0.023 A 
ATOM     69  C   UNL A   1      43.405  24.302  26.007  1.00  0.00     0.012 A 
ATOM     70  C   UNL A   1      42.139  22.825  27.462  1.00  0.00     0.148 A 
ATOM     71  C   UNL A   1      43.416  23.324  25.012  1.00  0.00     0.002 A 
ATOM     72  C   UNL A   1      42.204  21.834  26.489  1.00  0.00     0.091 A 
ATOM     73  F   UNL A   1      41.513  22.630  28.631  1.00  0.00    -0.205 F 
ATOM     74  C   UNL A   1      42.825  22.088  25.256  1.00  0.00     0.022 A 
BRANCH  72  75
ATOM     75  S   UNL A   1      41.584  20.172  26.763  1.00  0.00     0.127 S 
ATOM     76  O   UNL A   1      41.836  19.542  25.470  1.00  0.00    -0.237 OA
ATOM     77  O   UNL A   1      42.441  19.707  27.854  1.00  0.00    -0.237 OA
ATOM     78  O   UNL A   1      40.182  20.330  27.127  1.00  0.00    -0.744 OA
ENDBRANCH  72  75
ENDBRANCH  44  68
BRANCH  56  79
ATOM     79  C   UNL A   1      47.061  25.790  32.448  1.00  0.00     0.023 A 
ATOM     80  C   UNL A   1      48.300  26.230  31.942  1.00  0.00     0.012 A 
ATOM     81  C   UNL A   1      47.039  24.835  33.484  1.00  0.00     0.148 A 
ATOM     82  C   UNL A   1      49.494  25.703  32.433  1.00  0.00     0.002 A 
ATOM     83  C   UNL A   1      48.233  24.355  34.007  1.00  0.00     0.091 A 
ATOM     84  F   UNL A   1      45.849  24.416  33.942  1.00  0.00    -0.205 F 
ATOM     85  C   UNL A   1      49.461  24.776  33.472  1.00  0.00     0.022 A 
BRANCH  83  86
ATOM     86  S   UNL A   1      48.291  23.236  35.410  1.00  0.00     0.127 S 
ATOM     87  O   UNL A   1      47.600  24.012  36.439  1.00  0.00    -0.237 OA
ATOM     88  O   UNL A   1      47.543  22.079  34.914  1.00  0.00    -0.237 OA
ATOM     89  O   UNL A   1      49.702  22.980  35.663  1.00  0.00    -0.744 OA
ENDBRANCH  83  86
ENDBRANCH  56  79
ENDBRANCH  30  31
ENDBRANCH  22  25
ENDBRANCH  20  21
ENDBRANCH   1  20
TORSDOF 17
ENDMDL
MODEL 3
REMARK VINA RESULT:     -11.2      4.108      9.804
REMARK SMILES O=C(/C=C/c1ccc(O)c(O)c1)NCCCCNC(=O)c1ccc(-c2c3nc(c(-c4cccc(S(=O)(=O)[O-])c4F)c4ccc([nH]4)c(-c4cccc(S(=O)(=O)[O-])c4F)c4nc(c(-c5cccc(S(=O)(=O)[O-])c5F)c5ccc2[nH]5)C=C4)C=C3)cc1
REMARK SMILES IDX 16 1 15 2 14 3 13 4 1 5 2 6 3 8 4 9 5 10 6 11 12 12 7 13
REMARK SMILES IDX 10 14 8 15 11 16 9 18 17 20 18 21 19 22 20 24 21 25 22 26
REMARK SMILES IDX 83 27 23 28 82 29 24 30 25 31 26 32 76 33 27 34 81 35 75 36
REMARK SMILES IDX 77 37 28 38 80 39 74 40 73 41 29 43 61 44 41 45 60 46 42 47
REMARK SMILES IDX 45 48 59 49 78 50 43 51 44 52 58 54 79 55 46 56 30 57 31 58
REMARK SMILES IDX 39 59 32 60 34 61 40 62 33 63 35 64 36 65 37 66 38 67 62 68
REMARK SMILES IDX 63 69 71 70 64 71 66 72 72 73 65 74 67 75 68 76 69 77 70 78
REMARK SMILES IDX 47 79 48 80 56 81 49 82 51 83 57 84 50 85 52 86 53 87 54 88
REMARK SMILES IDX 55 89
REMARK H PARENT 13 7 11 17 9 19 18 23 77 42 45 53
REMARK Flexibility Score: inf
ROOT
ATOM      1  C   UNL A   1      31.511  32.043  26.669  1.00  0.00     0.023 C 
ENDROOT
BRANCH   1   2
ATOM      2  C   UNL A   1      31.778  30.628  26.147  1.00  0.00     0.023 C 
BRANCH   2   3
ATOM      3  C   UNL A   1      33.096  30.006  26.607  1.00  0.00     0.116 C 
BRANCH   3   4
ATOM      4  N   UNL A   1      33.032  28.559  26.666  1.00  0.00    -0.353 N 
ATOM      5  O   UNL A   1      33.888  28.195  24.568  1.00  0.00    -0.270 OA
ATOM      6  C   UNL A   1      33.423  27.767  25.620  1.00  0.00     0.243 C 
ATOM      7  H   UNL A   1      32.695  28.131  27.486  1.00  0.00     0.163 HD
BRANCH   6   8
ATOM      8  C   UNL A   1      33.305  26.296  25.807  1.00  0.00     0.072 C 
ATOM      9  C   UNL A   1      34.287  25.383  25.744  1.00  0.00     0.014 C 
BRANCH   9  10
ATOM     10  C   UNL A   1      34.055  23.951  25.993  1.00  0.00    -0.022 A 
ATOM     11  C   UNL A   1      35.097  23.073  26.338  1.00  0.00     0.012 A 
ATOM     12  C   UNL A   1      32.745  23.458  25.928  1.00  0.00     0.058 A 
ATOM     13  C   UNL A   1      34.846  21.718  26.581  1.00  0.00     0.051 A 
ATOM     14  C   UNL A   1      32.505  22.111  26.169  1.00  0.00     0.157 A 
ATOM     15  C   UNL A   1      33.544  21.244  26.491  1.00  0.00     0.157 A 
BRANCH  14  16
ATOM     16  O   UNL A   1      31.226  21.642  26.087  1.00  0.00    -0.504 OA
ATOM     17  H   UNL A   1      30.529  22.219  25.846  1.00  0.00     0.293 HD
ENDBRANCH  14  16
BRANCH  15  18
ATOM     18  O   UNL A   1      33.236  19.931  26.714  1.00  0.00    -0.504 OA
ATOM     19  H   UNL A   1      32.654  19.480  26.134  1.00  0.00     0.293 HD
ENDBRANCH  15  18
ENDBRANCH   9  10
ENDBRANCH   6   8
ENDBRANCH   3   4
ENDBRANCH   2   3
ENDBRANCH   1   2
BRANCH   1  20
ATOM     20  C   UNL A   1      32.685  32.721  27.368  1.00  0.00     0.116 C 
BRANCH  20  21
ATOM     21  N   UNL A   1      32.431  34.118  27.685  1.00  0.00    -0.352 N 
ATOM     22  C   UNL A   1      33.039  34.925  28.616  1.00  0.00     0.251 C 
ATOM     23  H   UNL A   1      31.720  34.547  27.156  1.00  0.00     0.163 HD
ATOM     24  O   UNL A   1      32.590  36.049  28.833  1.00  0.00    -0.269 OA
BRANCH  22  25
ATOM     25  C   UNL A   1      34.213  34.440  29.380  1.00  0.00     0.039 A 
ATOM     26  C   UNL A   1      34.006  33.826  30.618  1.00  0.00     0.014 A 
ATOM     27  C   UNL A   1      35.511  34.583  28.883  1.00  0.00     0.014 A 
ATOM     28  C   UNL A   1      35.090  33.296  31.323  1.00  0.00     0.010 A 
ATOM     29  C   UNL A   1      36.581  33.987  29.549  1.00  0.00     0.010 A 
ATOM     30  C   UNL A   1      36.384  33.336  30.777  1.00  0.00    -0.014 A 
BRANCH  30  31
ATOM     31  C   UNL A   1      37.533  32.685  31.463  1.00  0.00     0.031 A 
ATOM     32  C   UNL A   1      38.268  31.544  30.810  1.00  0.00     0.074 A 
ATOM     33  C   UNL A   1      37.864  33.063  32.715  1.00  0.00     0.049 A 
ATOM     34  N   UNL A   1      39.255  30.823  31.278  1.00  0.00    -0.248 NA
ATOM     35  C   UNL A   1      37.823  31.144  29.465  1.00  0.00     0.031 C 
ATOM     36  C   UNL A   1      37.186  34.104  33.491  1.00  0.00     0.029 A 
ATOM     37  N   UNL A   1      38.835  32.597  33.567  1.00  0.00    -0.354 N 
ATOM     38  C   UNL A   1      39.521  29.864  30.308  1.00  0.00     0.074 A 
ATOM     39  C   UNL A   1      38.574  30.076  29.236  1.00  0.00     0.031 C 
ATOM     40  C   UNL A   1      37.766  34.204  34.698  1.00  0.00     0.029 A 
ATOM     41  C   UNL A   1      38.831  33.211  34.799  1.00  0.00     0.049 A 
ATOM     42  H   UNL A   1      39.475  31.891  33.320  1.00  0.00     0.167 HD
ATOM     43  C   UNL A   1      40.482  28.908  30.297  1.00  0.00     0.034 A 
ATOM     44  C   UNL A   1      39.589  32.993  35.892  1.00  0.00     0.034 A 
ATOM     45  C   UNL A   1      41.448  28.722  31.347  1.00  0.00     0.049 A 
ATOM     46  C   UNL A   1      40.664  31.940  35.843  1.00  0.00     0.074 A 
ATOM     47  C   UNL A   1      42.517  27.844  31.383  1.00  0.00     0.029 A 
ATOM     48  N   UNL A   1      41.456  29.412  32.549  1.00  0.00    -0.354 N 
ATOM     49  N   UNL A   1      41.004  31.153  34.852  1.00  0.00    -0.248 NA
ATOM     50  C   UNL A   1      41.484  31.772  37.051  1.00  0.00     0.031 C 
ATOM     51  C   UNL A   1      43.149  27.975  32.624  1.00  0.00     0.029 A 
ATOM     52  C   UNL A   1      42.500  28.966  33.343  1.00  0.00     0.049 A 
ATOM     53  H   UNL A   1      40.815  30.114  32.801  1.00  0.00     0.167 HD
ATOM     54  C   UNL A   1      42.099  30.426  35.302  1.00  0.00     0.074 A 
ATOM     55  C   UNL A   1      42.379  30.880  36.648  1.00  0.00     0.031 C 
ATOM     56  C   UNL A   1      42.804  29.460  34.662  1.00  0.00     0.034 A 
BRANCH  43  57
ATOM     57  C   UNL A   1      40.565  28.006  29.092  1.00  0.00     0.023 A 
ATOM     58  C   UNL A   1      39.674  26.921  28.966  1.00  0.00     0.012 A 
ATOM     59  C   UNL A   1      41.477  28.275  28.052  1.00  0.00     0.148 A 
ATOM     60  C   UNL A   1      39.712  26.097  27.842  1.00  0.00     0.002 A 
ATOM     61  C   UNL A   1      41.477  27.478  26.912  1.00  0.00     0.091 A 
ATOM     62  F   UNL A   1      42.328  29.300  28.196  1.00  0.00    -0.205 F 
ATOM     63  C   UNL A   1      40.605  26.382  26.812  1.00  0.00     0.022 A 
BRANCH  61  64
ATOM     64  S   UNL A   1      42.528  27.811  25.494  1.00  0.00     0.127 S 
ATOM     65  O   UNL A   1      42.395  26.569  24.733  1.00  0.00    -0.237 OA
ATOM     66  O   UNL A   1      41.870  28.970  24.890  1.00  0.00    -0.237 OA
ATOM     67  O   UNL A   1      43.856  28.074  26.029  1.00  0.00    -0.744 OA
ENDBRANCH  61  64
ENDBRANCH  43  57
BRANCH  44  68
ATOM     68  C   UNL A   1      39.398  33.826  37.115  1.00  0.00     0.023 A 
ATOM     69  C   UNL A   1      39.882  35.148  37.135  1.00  0.00     0.012 A 
ATOM     70  C   UNL A   1      38.735  33.320  38.250  1.00  0.00     0.148 A 
ATOM     71  C   UNL A   1      39.745  35.940  38.275  1.00  0.00     0.002 A 
ATOM     72  C   UNL A   1      38.550  34.134  39.362  1.00  0.00     0.091 A 
ATOM     73  F   UNL A   1      38.291  32.056  38.215  1.00  0.00    -0.205 F 
ATOM     74  C   UNL A   1      39.071  35.437  39.384  1.00  0.00     0.022 A 
BRANCH  72  75
ATOM     75  S   UNL A   1      37.584  33.617  40.785  1.00  0.00     0.127 S 
ATOM     76  O   UNL A   1      36.366  33.118  40.154  1.00  0.00    -0.237 OA
ATOM     77  O   UNL A   1      38.442  32.589  41.373  1.00  0.00    -0.237 OA
ATOM     78  O   UNL A   1      37.427  34.810  41.607  1.00  0.00    -0.744 OA
ENDBRANCH  72  75
ENDBRANCH  44  68
BRANCH  56  79
ATOM     79  C   UNL A   1      43.982  28.855  35.381  1.00  0.00     0.023 A 
ATOM     80  C   UNL A   1      45.269  29.404  35.217  1.00  0.00     0.012 A 
ATOM     81  C   UNL A   1      43.798  27.783  36.278  1.00  0.00     0.148 A 
ATOM     82  C   UNL A   1      46.360  28.874  35.906  1.00  0.00     0.002 A 
ATOM     83  C   UNL A   1      44.879  27.296  37.002  1.00  0.00     0.091 A 
ATOM     84  F   UNL A   1      42.569  27.263  36.408  1.00  0.00    -0.205 F 
ATOM     85  C   UNL A   1      46.163  27.830  36.806  1.00  0.00     0.022 A 
BRANCH  83  86
ATOM     86  S   UNL A   1      44.704  26.021  38.255  1.00  0.00     0.127 S 
ATOM     87  O   UNL A   1      43.795  26.660  39.205  1.00  0.00    -0.237 OA
ATOM     88  O   UNL A   1      44.114  24.919  37.493  1.00  0.00    -0.237 OA
ATOM     89  O   UNL A   1      46.047  25.760  38.754  1.00  0.00    -0.744 OA
ENDBRANCH  83  86
ENDBRANCH  56  79
ENDBRANCH  30  31
ENDBRANCH  22  25
ENDBRANCH  20  21
ENDBRANCH   1  20
TORSDOF 17
ENDMDL
