MODEL 1
REMARK VINA RESULT:     -12.2      0.000      0.000
REMARK SMILES CCc1cc(OC(F)(F)F)cc2c1O[C@@H](C(F)(F)F)C(C(=O)NCCCCNC(=O)c1ccc(-c3c4nc(c(-c5cccc(S(=O)(=O)[O-])c5F)c5ccc([nH]5)c(-c5cccc(S(=O)(=O)[O-])c5F)c5nc(c(-c6cccc(S(=O)(=O)[O-])c6F)c6ccc3[nH]6)C=C5)C=C4)cc1)=C2
REMARK SMILES IDX 26 1 25 2 24 3 23 4 21 5 22 6 20 8 3 9 4 10 13 11 5 12 12 13
REMARK SMILES IDX 14 14 11 15 94 16 15 17 2 18 1 19 6 20 7 21 8 22 9 23 10 24
REMARK SMILES IDX 16 25 17 26 18 27 19 28 27 29 28 30 29 31 30 33 31 34 32 35
REMARK SMILES IDX 93 36 33 37 92 38 34 39 35 40 36 41 86 42 37 43 91 44 85 45
REMARK SMILES IDX 87 46 38 47 90 48 84 49 83 50 39 52 71 53 51 54 70 55 52 56
REMARK SMILES IDX 55 57 69 58 88 59 53 60 54 61 68 63 89 64 56 65 40 66 41 67
REMARK SMILES IDX 49 68 42 69 44 70 50 71 43 72 45 73 46 74 47 75 48 76 72 77
REMARK SMILES IDX 73 78 81 79 74 80 76 81 82 82 75 83 77 84 78 85 79 86 80 87
REMARK SMILES IDX 57 88 58 89 66 90 59 91 61 92 67 93 60 94 62 95 63 96 64 97
REMARK SMILES IDX 65 98
REMARK H PARENT 23 7 28 32 87 51 55 62
REMARK Flexibility Score: inf
ROOT
ATOM      1  C   UNL A   1      36.308  21.953  24.292  1.00  0.00     0.023 C 
ENDROOT
BRANCH   1   2
ATOM      2  C   UNL A   1      35.353  23.143  24.160  1.00  0.00     0.023 C 
BRANCH   2   3
ATOM      3  C   UNL A   1      34.707  23.283  22.776  1.00  0.00     0.116 C 
BRANCH   3   4
ATOM      4  N   UNL A   1      33.379  22.696  22.780  1.00  0.00    -0.352 N 
ATOM      5  C   UNL A   1      32.168  23.163  23.180  1.00  0.00     0.251 C 
ATOM      6  O   UNL A   1      31.221  22.380  23.200  1.00  0.00    -0.270 OA
ATOM      7  H   UNL A   1      33.350  21.779  22.422  1.00  0.00     0.163 HD
BRANCH   5   8
ATOM      8  C   UNL A   1      31.916  24.589  23.529  1.00  0.00     0.067 C 
ATOM      9  C   UNL A   1      31.176  28.529  24.846  1.00  0.00    -0.002 A 
ATOM     10  C   UNL A   1      30.599  29.440  23.941  1.00  0.00     0.054 A 
ATOM     11  C   UNL A   1      31.458  27.222  24.403  1.00  0.00     0.131 A 
ATOM     12  C   UNL A   1      30.307  29.063  22.627  1.00  0.00     0.130 A 
ATOM     13  C   UNL A   1      31.174  26.844  23.095  1.00  0.00     0.021 A 
ATOM     14  O   UNL A   1      31.968  26.350  25.320  1.00  0.00    -0.475 OA
ATOM     15  C   UNL A   1      30.604  27.765  22.212  1.00  0.00     0.058 A 
ATOM     16  C   UNL A   1      31.411  25.478  22.665  1.00  0.00     0.025 C 
ATOM     17  C   UNL A   1      32.425  25.031  24.897  1.00  0.00     0.314 C 
BRANCH   9  18
ATOM     18  C   UNL A   1      31.512  28.899  26.279  1.00  0.00     0.036 C 
ATOM     19  C   UNL A   1      32.904  29.457  26.547  1.00  0.00     0.009 C 
ENDBRANCH   9  18
BRANCH  12  20
ATOM     20  O   UNL A   1      29.734  29.840  21.662  1.00  0.00    -0.406 OA
BRANCH  20  21
ATOM     21  C   UNL A   1      28.374  30.202  21.818  1.00  0.00     0.573 C 
ATOM     22  F   UNL A   1      27.703  29.287  22.551  1.00  0.00    -0.132 F 
ATOM     23  F   UNL A   1      28.257  31.417  22.396  1.00  0.00    -0.132 F 
ATOM     24  F   UNL A   1      27.799  30.262  20.596  1.00  0.00    -0.132 F 
ENDBRANCH  20  21
ENDBRANCH  12  20
BRANCH  17  25
ATOM     25  C   UNL A   1      32.149  24.060  26.069  1.00  0.00     0.429 C 
ATOM     26  F   UNL A   1      32.178  24.664  27.276  1.00  0.00    -0.167 F 
ATOM     27  F   UNL A   1      30.901  23.521  25.967  1.00  0.00    -0.167 F 
ATOM     28  F   UNL A   1      33.015  23.021  26.093  1.00  0.00    -0.167 F 
ENDBRANCH  17  25
ENDBRANCH   5   8
ENDBRANCH   3   4
ENDBRANCH   2   3
ENDBRANCH   1   2
BRANCH   1  29
ATOM     29  C   UNL A   1      36.844  21.716  25.700  1.00  0.00     0.116 C 
BRANCH  29  30
ATOM     30  N   UNL A   1      37.905  20.721  25.748  1.00  0.00    -0.352 N 
ATOM     31  C   UNL A   1      39.222  20.894  26.107  1.00  0.00     0.251 C 
ATOM     32  H   UNL A   1      37.647  19.807  25.490  1.00  0.00     0.163 HD
ATOM     33  O   UNL A   1      40.017  19.972  25.998  1.00  0.00    -0.269 OA
BRANCH  31  34
ATOM     34  C   UNL A   1      39.668  22.220  26.583  1.00  0.00     0.039 A 
ATOM     35  C   UNL A   1      40.668  22.282  27.556  1.00  0.00     0.014 A 
ATOM     36  C   UNL A   1      39.134  23.392  26.041  1.00  0.00     0.014 A 
ATOM     37  C   UNL A   1      41.182  23.524  27.936  1.00  0.00     0.010 A 
ATOM     38  C   UNL A   1      39.693  24.622  26.371  1.00  0.00     0.010 A 
ATOM     39  C   UNL A   1      40.724  24.699  27.320  1.00  0.00    -0.014 A 
BRANCH  39  40
ATOM     40  C   UNL A   1      41.329  26.017  27.634  1.00  0.00     0.031 A 
ATOM     41  C   UNL A   1      42.746  26.317  27.232  1.00  0.00     0.074 A 
ATOM     42  C   UNL A   1      40.629  26.907  28.365  1.00  0.00     0.049 A 
ATOM     43  N   UNL A   1      43.452  27.395  27.454  1.00  0.00    -0.248 NA
ATOM     44  C   UNL A   1      43.475  25.260  26.514  1.00  0.00     0.031 C 
ATOM     45  C   UNL A   1      39.281  26.692  28.895  1.00  0.00     0.029 A 
ATOM     46  N   UNL A   1      40.966  28.160  28.813  1.00  0.00    -0.354 N 
ATOM     47  C   UNL A   1      44.715  27.134  26.935  1.00  0.00     0.074 A 
ATOM     48  C   UNL A   1      44.690  25.784  26.418  1.00  0.00     0.031 C 
ATOM     49  C   UNL A   1      38.904  27.777  29.591  1.00  0.00     0.029 A 
ATOM     50  C   UNL A   1      39.987  28.754  29.576  1.00  0.00     0.049 A 
ATOM     51  H   UNL A   1      41.826  28.592  28.609  1.00  0.00     0.167 HD
ATOM     52  C   UNL A   1      45.788  27.957  26.865  1.00  0.00     0.034 A 
ATOM     53  C   UNL A   1      39.964  29.954  30.191  1.00  0.00     0.034 A 
ATOM     54  C   UNL A   1      45.791  29.317  27.332  1.00  0.00     0.049 A 
ATOM     55  C   UNL A   1      41.146  30.871  30.041  1.00  0.00     0.074 A 
ATOM     56  C   UNL A   1      46.792  30.264  27.214  1.00  0.00     0.029 A 
ATOM     57  N   UNL A   1      44.744  29.922  28.008  1.00  0.00    -0.354 N 
ATOM     58  N   UNL A   1      42.266  30.674  29.389  1.00  0.00    -0.248 NA
ATOM     59  C   UNL A   1      41.048  32.194  30.677  1.00  0.00     0.031 C 
ATOM     60  C   UNL A   1      46.354  31.440  27.830  1.00  0.00     0.029 A 
ATOM     61  C   UNL A   1      45.075  31.229  28.320  1.00  0.00     0.049 A 
ATOM     62  H   UNL A   1      43.890  29.487  28.233  1.00  0.00     0.167 HD
ATOM     63  C   UNL A   1      42.990  31.855  29.505  1.00  0.00     0.074 A 
ATOM     64  C   UNL A   1      42.172  32.771  30.275  1.00  0.00     0.031 C 
ATOM     65  C   UNL A   1      44.226  32.148  29.034  1.00  0.00     0.034 A 
BRANCH  52  66
ATOM     66  C   UNL A   1      47.029  27.429  26.195  1.00  0.00     0.023 A 
ATOM     67  C   UNL A   1      47.237  27.688  24.825  1.00  0.00     0.012 A 
ATOM     68  C   UNL A   1      48.013  26.734  26.924  1.00  0.00     0.148 A 
ATOM     69  C   UNL A   1      48.387  27.235  24.181  1.00  0.00     0.002 A 
ATOM     70  C   UNL A   1      49.178  26.321  26.285  1.00  0.00     0.091 A 
ATOM     71  F   UNL A   1      47.789  26.477  28.220  1.00  0.00    -0.205 F 
ATOM     72  C   UNL A   1      49.361  26.561  24.913  1.00  0.00     0.022 A 
BRANCH  70  73
ATOM     73  S   UNL A   1      50.524  25.512  27.157  1.00  0.00     0.127 S 
ATOM     74  O   UNL A   1      51.484  25.292  26.077  1.00  0.00    -0.237 OA
ATOM     75  O   UNL A   1      50.922  26.533  28.127  1.00  0.00    -0.237 OA
ATOM     76  O   UNL A   1      49.953  24.308  27.744  1.00  0.00    -0.744 OA
ENDBRANCH  70  73
ENDBRANCH  52  66
BRANCH  53  77
ATOM     77  C   UNL A   1      38.743  30.385  30.927  1.00  0.00     0.023 A 
ATOM     78  C   UNL A   1      38.643  30.119  32.307  1.00  0.00     0.012 A 
ATOM     79  C   UNL A   1      37.706  31.089  30.287  1.00  0.00     0.148 A 
ATOM     80  C   UNL A   1      37.519  30.519  33.030  1.00  0.00     0.002 A 
ATOM     81  C   UNL A   1      36.612  31.532  31.025  1.00  0.00     0.091 A 
ATOM     82  F   UNL A   1      37.812  31.323  28.972  1.00  0.00    -0.205 F 
ATOM     83  C   UNL A   1      36.510  31.234  32.392  1.00  0.00     0.022 A 
BRANCH  81  84
ATOM     84  S   UNL A   1      35.334  32.574  30.312  1.00  0.00     0.127 S 
ATOM     85  O   UNL A   1      34.867  31.754  29.198  1.00  0.00    -0.237 OA
ATOM     86  O   UNL A   1      34.390  32.701  31.422  1.00  0.00    -0.237 OA
ATOM     87  O   UNL A   1      36.003  33.817  29.953  1.00  0.00    -0.744 OA
ENDBRANCH  81  84
ENDBRANCH  53  77
BRANCH  65  88
ATOM     88  C   UNL A   1      44.770  33.525  29.306  1.00  0.00     0.023 A 
ATOM     89  C   UNL A   1      45.402  33.795  30.536  1.00  0.00     0.012 A 
ATOM     90  C   UNL A   1      44.733  34.524  28.312  1.00  0.00     0.148 A 
ATOM     91  C   UNL A   1      45.966  35.045  30.782  1.00  0.00     0.002 A 
ATOM     92  C   UNL A   1      45.338  35.752  28.548  1.00  0.00     0.091 A 
ATOM     93  F   UNL A   1      44.110  34.254  27.156  1.00  0.00    -0.205 F 
ATOM     94  C   UNL A   1      45.946  36.018  29.786  1.00  0.00     0.022 A 
BRANCH  92  95
ATOM     95  S   UNL A   1      45.441  37.030  27.289  1.00  0.00     0.127 S 
ATOM     96  O   UNL A   1      44.030  37.347  27.069  1.00  0.00    -0.237 OA
ATOM     97  O   UNL A   1      46.202  38.079  27.969  1.00  0.00    -0.237 OA
ATOM     98  O   UNL A   1      46.130  36.421  26.159  1.00  0.00    -0.744 OA
ENDBRANCH  92  95
ENDBRANCH  65  88
ENDBRANCH  39  40
ENDBRANCH  31  34
ENDBRANCH  29  30
ENDBRANCH   1  29
TORSDOF 18
ENDMDL
MODEL 2
REMARK VINA RESULT:     -12.0      4.705      9.866
REMARK SMILES CCc1cc(OC(F)(F)F)cc2c1O[C@@H](C(F)(F)F)C(C(=O)NCCCCNC(=O)c1ccc(-c3c4nc(c(-c5cccc(S(=O)(=O)[O-])c5F)c5ccc([nH]5)c(-c5cccc(S(=O)(=O)[O-])c5F)c5nc(c(-c6cccc(S(=O)(=O)[O-])c6F)c6ccc3[nH]6)C=C5)C=C4)cc1)=C2
REMARK SMILES IDX 26 1 25 2 24 3 23 4 21 5 22 6 20 8 3 9 4 10 13 11 5 12 12 13
REMARK SMILES IDX 14 14 11 15 94 16 15 17 2 18 1 19 6 20 7 21 8 22 9 23 10 24
REMARK SMILES IDX 16 25 17 26 18 27 19 28 27 29 28 30 29 31 30 33 31 34 32 35
REMARK SMILES IDX 93 36 33 37 92 38 34 39 35 40 36 41 86 42 37 43 91 44 85 45
REMARK SMILES IDX 87 46 38 47 90 48 84 49 83 50 39 52 71 53 51 54 70 55 52 56
REMARK SMILES IDX 55 57 69 58 88 59 53 60 54 61 68 63 89 64 56 65 40 66 41 67
REMARK SMILES IDX 49 68 42 69 44 70 50 71 43 72 45 73 46 74 47 75 48 76 72 77
REMARK SMILES IDX 73 78 81 79 74 80 76 81 82 82 75 83 77 84 78 85 79 86 80 87
REMARK SMILES IDX 57 88 58 89 66 90 59 91 61 92 67 93 60 94 62 95 63 96 64 97
REMARK SMILES IDX 65 98
REMARK H PARENT 23 7 28 32 87 51 55 62
REMARK Flexibility Score: inf
ROOT
ATOM      1  C   UNL A   1      33.421  27.906  26.686  1.00  0.00     0.023 C 
ENDROOT
BRANCH   1   2
ATOM      2  C   UNL A   1      31.957  28.103  26.280  1.00  0.00     0.023 C 
BRANCH   2   3
ATOM      3  C   UNL A   1      31.044  26.918  26.616  1.00  0.00     0.116 C 
BRANCH   3   4
ATOM      4  N   UNL A   1      30.251  26.551  25.456  1.00  0.00    -0.352 N 
ATOM      5  C   UNL A   1      30.430  25.629  24.474  1.00  0.00     0.251 C 
ATOM      6  O   UNL A   1      29.653  25.636  23.522  1.00  0.00    -0.270 OA
ATOM      7  H   UNL A   1      29.420  27.071  25.362  1.00  0.00     0.163 HD
BRANCH   5   8
ATOM      8  C   UNL A   1      31.476  24.571  24.527  1.00  0.00     0.067 C 
ATOM      9  C   UNL A   1      34.605  21.741  24.427  1.00  0.00    -0.002 A 
ATOM     10  C   UNL A   1      34.332  20.425  24.848  1.00  0.00     0.054 A 
ATOM     11  C   UNL A   1      33.575  22.700  24.491  1.00  0.00     0.131 A 
ATOM     12  C   UNL A   1      33.065  20.069  25.319  1.00  0.00     0.130 A 
ATOM     13  C   UNL A   1      32.315  22.351  24.964  1.00  0.00     0.021 A 
ATOM     14  O   UNL A   1      33.859  23.950  24.026  1.00  0.00    -0.475 OA
ATOM     15  C   UNL A   1      32.065  21.039  25.378  1.00  0.00     0.058 A 
ATOM     16  C   UNL A   1      31.242  23.329  24.968  1.00  0.00     0.025 C 
ATOM     17  C   UNL A   1      32.894  25.030  24.201  1.00  0.00     0.314 C 
BRANCH   9  18
ATOM     18  C   UNL A   1      35.967  22.170  23.913  1.00  0.00     0.036 C 
ATOM     19  C   UNL A   1      37.186  21.470  24.499  1.00  0.00     0.009 C 
ENDBRANCH   9  18
BRANCH  12  20
ATOM     20  O   UNL A   1      32.667  18.831  25.736  1.00  0.00    -0.406 OA
BRANCH  20  21
ATOM     21  C   UNL A   1      32.589  17.796  24.774  1.00  0.00     0.573 C 
ATOM     22  F   UNL A   1      31.883  16.743  25.241  1.00  0.00    -0.132 F 
ATOM     23  F   UNL A   1      32.032  18.239  23.626  1.00  0.00    -0.132 F 
ATOM     24  F   UNL A   1      33.841  17.369  24.494  1.00  0.00    -0.132 F 
ENDBRANCH  20  21
ENDBRANCH  12  20
BRANCH  17  25
ATOM     25  C   UNL A   1      33.038  25.968  22.979  1.00  0.00     0.429 C 
ATOM     26  F   UNL A   1      34.288  25.984  22.469  1.00  0.00    -0.167 F 
ATOM     27  F   UNL A   1      32.237  25.555  21.956  1.00  0.00    -0.167 F 
ATOM     28  F   UNL A   1      32.677  27.241  23.260  1.00  0.00    -0.167 F 
ENDBRANCH  17  25
ENDBRANCH   5   8
ENDBRANCH   3   4
ENDBRANCH   2   3
ENDBRANCH   1   2
BRANCH   1  29
ATOM     29  C   UNL A   1      34.364  29.017  26.239  1.00  0.00     0.116 C 
BRANCH  29  30
ATOM     30  N   UNL A   1      33.923  30.342  26.648  1.00  0.00    -0.352 N 
ATOM     31  C   UNL A   1      34.470  31.167  27.604  1.00  0.00     0.251 C 
ATOM     32  H   UNL A   1      33.130  30.693  26.181  1.00  0.00     0.163 HD
ATOM     33  O   UNL A   1      33.917  32.215  27.903  1.00  0.00    -0.269 OA
BRANCH  31  34
ATOM     34  C   UNL A   1      35.708  30.745  28.293  1.00  0.00     0.039 A 
ATOM     35  C   UNL A   1      35.630  29.731  29.250  1.00  0.00     0.014 A 
ATOM     36  C   UNL A   1      36.940  31.314  27.963  1.00  0.00     0.014 A 
ATOM     37  C   UNL A   1      36.801  29.240  29.830  1.00  0.00     0.010 A 
ATOM     38  C   UNL A   1      38.110  30.779  28.490  1.00  0.00     0.010 A 
ATOM     39  C   UNL A   1      38.052  29.735  29.427  1.00  0.00    -0.014 A 
BRANCH  39  40
ATOM     40  C   UNL A   1      39.313  29.155  29.952  1.00  0.00     0.031 A 
ATOM     41  C   UNL A   1      39.965  29.736  31.175  1.00  0.00     0.074 A 
ATOM     42  C   UNL A   1      39.918  28.164  29.268  1.00  0.00     0.049 A 
ATOM     43  N   UNL A   1      41.084  29.387  31.755  1.00  0.00    -0.248 NA
ATOM     44  C   UNL A   1      39.288  30.876  31.816  1.00  0.00     0.031 C 
ATOM     45  C   UNL A   1      39.433  27.583  28.014  1.00  0.00     0.029 A 
ATOM     46  N   UNL A   1      41.088  27.490  29.514  1.00  0.00    -0.354 N 
ATOM     47  C   UNL A   1      41.263  30.282  32.803  1.00  0.00     0.074 A 
ATOM     48  C   UNL A   1      40.157  31.211  32.760  1.00  0.00     0.031 C 
ATOM     49  C   UNL A   1      40.294  26.638  27.605  1.00  0.00     0.029 A 
ATOM     50  C   UNL A   1      41.401  26.559  28.552  1.00  0.00     0.049 A 
ATOM     51  H   UNL A   1      41.650  27.658  30.304  1.00  0.00     0.167 HD
ATOM     52  C   UNL A   1      42.243  30.305  33.738  1.00  0.00     0.034 A 
ATOM     53  C   UNL A   1      42.460  25.731  28.447  1.00  0.00     0.034 A 
ATOM     54  C   UNL A   1      43.311  29.345  33.808  1.00  0.00     0.049 A 
ATOM     55  C   UNL A   1      43.499  25.736  29.533  1.00  0.00     0.074 A 
ATOM     56  C   UNL A   1      44.293  29.221  34.774  1.00  0.00     0.029 A 
ATOM     57  N   UNL A   1      43.540  28.348  32.874  1.00  0.00    -0.354 N 
ATOM     58  N   UNL A   1      43.555  26.470  30.618  1.00  0.00    -0.248 NA
ATOM     59  C   UNL A   1      44.602  24.771  29.406  1.00  0.00     0.031 C 
ATOM     60  C   UNL A   1      45.123  28.154  34.417  1.00  0.00     0.029 A 
ATOM     61  C   UNL A   1      44.650  27.605  33.236  1.00  0.00     0.049 A 
ATOM     62  H   UNL A   1      42.992  28.190  32.071  1.00  0.00     0.167 HD
ATOM     63  C   UNL A   1      44.674  26.035  31.318  1.00  0.00     0.074 A 
ATOM     64  C   UNL A   1      45.257  24.958  30.544  1.00  0.00     0.031 C 
ATOM     65  C   UNL A   1      45.183  26.497  32.486  1.00  0.00     0.034 A 
BRANCH  52  66
ATOM     66  C   UNL A   1      42.164  31.365  34.804  1.00  0.00     0.023 A 
ATOM     67  C   UNL A   1      41.515  31.072  36.021  1.00  0.00     0.012 A 
ATOM     68  C   UNL A   1      42.776  32.621  34.633  1.00  0.00     0.148 A 
ATOM     69  C   UNL A   1      41.446  32.022  37.038  1.00  0.00     0.002 A 
ATOM     70  C   UNL A   1      42.740  33.550  35.667  1.00  0.00     0.091 A 
ATOM     71  F   UNL A   1      43.369  32.891  33.462  1.00  0.00    -0.205 F 
ATOM     72  C   UNL A   1      42.067  33.257  36.866  1.00  0.00     0.022 A 
BRANCH  70  73
ATOM     73  S   UNL A   1      43.573  35.138  35.571  1.00  0.00     0.127 S 
ATOM     74  O   UNL A   1      42.827  35.798  34.500  1.00  0.00    -0.237 OA
ATOM     75  O   UNL A   1      43.341  35.692  36.905  1.00  0.00    -0.237 OA
ATOM     76  O   UNL A   1      44.966  34.840  35.273  1.00  0.00    -0.744 OA
ENDBRANCH  70  73
ENDBRANCH  52  66
BRANCH  53  77
ATOM     77  C   UNL A   1      42.538  24.768  27.312  1.00  0.00     0.023 A 
ATOM     78  C   UNL A   1      43.176  25.163  26.120  1.00  0.00     0.012 A 
ATOM     79  C   UNL A   1      42.026  23.462  27.416  1.00  0.00     0.148 A 
ATOM     80  C   UNL A   1      43.278  24.283  25.042  1.00  0.00     0.002 A 
ATOM     81  C   UNL A   1      42.177  22.572  26.357  1.00  0.00     0.091 A 
ATOM     82  F   UNL A   1      41.411  23.108  28.553  1.00  0.00    -0.205 F 
ATOM     83  C   UNL A   1      42.789  22.986  25.164  1.00  0.00     0.022 A 
BRANCH  81  84
ATOM     84  S   UNL A   1      41.697  20.845  26.480  1.00  0.00     0.127 S 
ATOM     85  O   UNL A   1      42.411  20.256  25.351  1.00  0.00    -0.237 OA
ATOM     86  O   UNL A   1      42.218  20.478  27.798  1.00  0.00    -0.237 OA
ATOM     87  O   UNL A   1      40.244  20.839  26.390  1.00  0.00    -0.744 OA
ENDBRANCH  81  84
ENDBRANCH  53  77
BRANCH  65  88
ATOM     88  C   UNL A   1      46.418  25.826  33.024  1.00  0.00     0.023 A 
ATOM     89  C   UNL A   1      47.686  26.371  32.741  1.00  0.00     0.012 A 
ATOM     90  C   UNL A   1      46.318  24.712  33.880  1.00  0.00     0.148 A 
ATOM     91  C   UNL A   1      48.837  25.801  33.282  1.00  0.00     0.002 A 
ATOM     92  C   UNL A   1      47.466  24.177  34.451  1.00  0.00     0.091 A 
ATOM     93  F   UNL A   1      45.104  24.196  34.121  1.00  0.00    -0.205 F 
ATOM     94  C   UNL A   1      48.728  24.714  34.146  1.00  0.00     0.022 A 
BRANCH  92  95
ATOM     95  S   UNL A   1      47.410  22.836  35.647  1.00  0.00     0.127 S 
ATOM     96  O   UNL A   1      48.826  22.661  35.966  1.00  0.00    -0.237 OA
ATOM     97  O   UNL A   1      46.609  23.414  36.727  1.00  0.00    -0.237 OA
ATOM     98  O   UNL A   1      46.778  21.717  34.961  1.00  0.00    -0.744 OA
ENDBRANCH  92  95
ENDBRANCH  65  88
ENDBRANCH  39  40
ENDBRANCH  31  34
ENDBRANCH  29  30
ENDBRANCH   1  29
TORSDOF 18
ENDMDL
MODEL 3
REMARK VINA RESULT:     -12.0      5.538      9.199
REMARK SMILES CCc1cc(OC(F)(F)F)cc2c1O[C@@H](C(F)(F)F)C(C(=O)NCCCCNC(=O)c1ccc(-c3c4nc(c(-c5cccc(S(=O)(=O)[O-])c5F)c5ccc([nH]5)c(-c5cccc(S(=O)(=O)[O-])c5F)c5nc(c(-c6cccc(S(=O)(=O)[O-])c6F)c6ccc3[nH]6)C=C5)C=C4)cc1)=C2
REMARK SMILES IDX 26 1 25 2 24 3 23 4 21 5 22 6 20 8 3 9 4 10 13 11 5 12 12 13
REMARK SMILES IDX 14 14 11 15 94 16 15 17 2 18 1 19 6 20 7 21 8 22 9 23 10 24
REMARK SMILES IDX 16 25 17 26 18 27 19 28 27 29 28 30 29 31 30 33 31 34 32 35
REMARK SMILES IDX 93 36 33 37 92 38 34 39 35 40 36 41 86 42 37 43 91 44 85 45
REMARK SMILES IDX 87 46 38 47 90 48 84 49 83 50 39 52 71 53 51 54 70 55 52 56
REMARK SMILES IDX 55 57 69 58 88 59 53 60 54 61 68 63 89 64 56 65 40 66 41 67
REMARK SMILES IDX 49 68 42 69 44 70 50 71 43 72 45 73 46 74 47 75 48 76 72 77
REMARK SMILES IDX 73 78 81 79 74 80 76 81 82 82 75 83 77 84 78 85 79 86 80 87
REMARK SMILES IDX 57 88 58 89 66 90 59 91 61 92 67 93 60 94 62 95 63 96 64 97
REMARK SMILES IDX 65 98
REMARK H PARENT 23 7 28 32 87 51 55 62
REMARK Flexibility Score: inf
ROOT
ATOM      1  C   UNL A   1      31.990  31.506  26.890  1.00  0.00     0.023 C 
ENDROOT
BRANCH   1   2
ATOM      2  C   UNL A   1      32.291  30.062  27.304  1.00  0.00     0.023 C 
BRANCH   2   3
ATOM      3  C   UNL A   1      31.871  29.008  26.273  1.00  0.00     0.116 C 
BRANCH   3   4
ATOM      4  N   UNL A   1      32.317  29.396  24.947  1.00  0.00    -0.352 N 
ATOM      5  C   UNL A   1      32.896  28.702  23.932  1.00  0.00     0.251 C 
ATOM      6  O   UNL A   1      33.304  29.331  22.958  1.00  0.00    -0.270 OA
ATOM      7  H   UNL A   1      32.171  30.348  24.742  1.00  0.00     0.163 HD
BRANCH   5   8
ATOM      8  C   UNL A   1      32.998  27.217  23.911  1.00  0.00     0.067 C 
ATOM      9  C   UNL A   1      32.942  22.998  23.822  1.00  0.00    -0.002 A 
ATOM     10  C   UNL A   1      33.997  22.302  24.443  1.00  0.00     0.054 A 
ATOM     11  C   UNL A   1      32.972  24.407  23.817  1.00  0.00     0.131 A 
ATOM     12  C   UNL A   1      35.055  22.986  25.047  1.00  0.00     0.130 A 
ATOM     13  C   UNL A   1      34.025  25.092  24.412  1.00  0.00     0.021 A 
ATOM     14  O   UNL A   1      31.909  25.050  23.253  1.00  0.00    -0.475 OA
ATOM     15  C   UNL A   1      35.063  24.380  25.022  1.00  0.00     0.058 A 
ATOM     16  C   UNL A   1      34.017  26.543  24.457  1.00  0.00     0.025 C 
ATOM     17  C   UNL A   1      31.943  26.497  23.076  1.00  0.00     0.314 C 
BRANCH   9  18
ATOM     18  C   UNL A   1      31.778  22.293  23.151  1.00  0.00     0.036 C 
ATOM     19  C   UNL A   1      32.088  21.025  22.367  1.00  0.00     0.009 C 
ENDBRANCH   9  18
BRANCH  12  20
ATOM     20  O   UNL A   1      36.121  22.433  25.696  1.00  0.00    -0.406 OA
BRANCH  20  21
ATOM     21  C   UNL A   1      37.189  21.930  24.915  1.00  0.00     0.573 C 
ATOM     22  F   UNL A   1      37.285  20.587  25.021  1.00  0.00    -0.132 F 
ATOM     23  F   UNL A   1      37.045  22.271  23.616  1.00  0.00    -0.132 F 
ATOM     24  F   UNL A   1      38.345  22.469  25.363  1.00  0.00    -0.132 F 
ENDBRANCH  20  21
ENDBRANCH  12  20
BRANCH  17  25
ATOM     25  C   UNL A   1      30.491  27.006  23.234  1.00  0.00     0.429 C 
ATOM     26  F   UNL A   1      30.251  28.146  22.551  1.00  0.00    -0.167 F 
ATOM     27  F   UNL A   1      29.604  26.097  22.739  1.00  0.00    -0.167 F 
ATOM     28  F   UNL A   1      30.152  27.207  24.529  1.00  0.00    -0.167 F 
ENDBRANCH  17  25
ENDBRANCH   5   8
ENDBRANCH   3   4
ENDBRANCH   2   3
ENDBRANCH   1   2
BRANCH   1  29
ATOM     29  C   UNL A   1      33.127  32.492  27.132  1.00  0.00     0.116 C 
BRANCH  29  30
ATOM     30  N   UNL A   1      32.663  33.819  27.510  1.00  0.00    -0.352 N 
ATOM     31  C   UNL A   1      33.106  34.618  28.539  1.00  0.00     0.251 C 
ATOM     32  H   UNL A   1      31.938  34.192  26.958  1.00  0.00     0.163 HD
ATOM     33  O   UNL A   1      32.541  35.671  28.788  1.00  0.00    -0.269 OA
BRANCH  31  34
ATOM     34  C   UNL A   1      34.246  34.161  29.362  1.00  0.00     0.039 A 
ATOM     35  C   UNL A   1      33.987  33.380  30.490  1.00  0.00     0.014 A 
ATOM     36  C   UNL A   1      35.560  34.464  28.996  1.00  0.00     0.014 A 
ATOM     37  C   UNL A   1      35.053  32.844  31.216  1.00  0.00     0.010 A 
ATOM     38  C   UNL A   1      36.618  33.875  29.680  1.00  0.00     0.010 A 
ATOM     39  C   UNL A   1      36.375  33.058  30.795  1.00  0.00    -0.014 A 
BRANCH  39  40
ATOM     40  C   UNL A   1      37.516  32.412  31.489  1.00  0.00     0.031 A 
ATOM     41  C   UNL A   1      38.256  31.276  30.842  1.00  0.00     0.074 A 
ATOM     42  C   UNL A   1      37.822  32.792  32.746  1.00  0.00     0.049 A 
ATOM     43  N   UNL A   1      39.249  30.568  31.311  1.00  0.00    -0.248 NA
ATOM     44  C   UNL A   1      37.804  30.861  29.504  1.00  0.00     0.031 C 
ATOM     45  C   UNL A   1      37.115  33.816  33.517  1.00  0.00     0.029 A 
ATOM     46  N   UNL A   1      38.791  32.339  33.607  1.00  0.00    -0.354 N 
ATOM     47  C   UNL A   1      39.518  29.605  30.346  1.00  0.00     0.074 A 
ATOM     48  C   UNL A   1      38.562  29.796  29.279  1.00  0.00     0.031 C 
ATOM     49  C   UNL A   1      37.675  33.917  34.733  1.00  0.00     0.029 A 
ATOM     50  C   UNL A   1      38.765  32.953  34.838  1.00  0.00     0.049 A 
ATOM     51  H   UNL A   1      39.440  31.640  33.368  1.00  0.00     0.167 HD
ATOM     52  C   UNL A   1      40.496  28.668  30.335  1.00  0.00     0.034 A 
ATOM     53  C   UNL A   1      39.537  32.764  35.927  1.00  0.00     0.034 A 
ATOM     54  C   UNL A   1      41.478  28.517  31.374  1.00  0.00     0.049 A 
ATOM     55  C   UNL A   1      40.655  31.760  35.861  1.00  0.00     0.074 A 
ATOM     56  C   UNL A   1      42.570  27.668  31.408  1.00  0.00     0.029 A 
ATOM     57  N   UNL A   1      41.486  29.228  32.562  1.00  0.00    -0.354 N 
ATOM     58  N   UNL A   1      41.008  30.982  34.866  1.00  0.00    -0.248 NA
ATOM     59  C   UNL A   1      41.509  31.635  37.052  1.00  0.00     0.031 C 
ATOM     60  C   UNL A   1      43.232  27.859  32.625  1.00  0.00     0.029 A 
ATOM     61  C   UNL A   1      42.560  28.836  33.342  1.00  0.00     0.049 A 
ATOM     62  H   UNL A   1      40.826  29.913  32.815  1.00  0.00     0.167 HD
ATOM     63  C   UNL A   1      42.142  30.303  35.296  1.00  0.00     0.074 A 
ATOM     64  C   UNL A   1      42.429  30.775  36.636  1.00  0.00     0.031 C 
ATOM     65  C   UNL A   1      42.868  29.359  34.648  1.00  0.00     0.034 A 
BRANCH  52  66
ATOM     66  C   UNL A   1      40.594  27.777  29.125  1.00  0.00     0.023 A 
ATOM     67  C   UNL A   1      39.736  26.662  29.017  1.00  0.00     0.012 A 
ATOM     68  C   UNL A   1      41.483  28.069  28.073  1.00  0.00     0.148 A 
ATOM     69  C   UNL A   1      39.784  25.833  27.898  1.00  0.00     0.002 A 
ATOM     70  C   UNL A   1      41.496  27.261  26.941  1.00  0.00     0.091 A 
ATOM     71  F   UNL A   1      42.306  29.118  28.202  1.00  0.00    -0.205 F 
ATOM     72  C   UNL A   1      40.656  26.137  26.856  1.00  0.00     0.022 A 
BRANCH  70  73
ATOM     73  S   UNL A   1      42.529  27.613  25.514  1.00  0.00     0.127 S 
ATOM     74  O   UNL A   1      43.862  27.645  26.116  1.00  0.00    -0.237 OA
ATOM     75  O   UNL A   1      42.277  26.455  24.655  1.00  0.00    -0.237 OA
ATOM     76  O   UNL A   1      42.052  28.879  24.979  1.00  0.00    -0.744 OA
ENDBRANCH  70  73
ENDBRANCH  52  66
BRANCH  53  77
ATOM     77  C   UNL A   1      39.331  33.607  37.137  1.00  0.00     0.023 A 
ATOM     78  C   UNL A   1      39.803  34.934  37.138  1.00  0.00     0.012 A 
ATOM     79  C   UNL A   1      38.639  33.124  38.264  1.00  0.00     0.148 A 
ATOM     80  C   UNL A   1      39.617  35.755  38.251  1.00  0.00     0.002 A 
ATOM     81  C   UNL A   1      38.410  33.965  39.349  1.00  0.00     0.091 A 
ATOM     82  F   UNL A   1      38.208  31.855  38.250  1.00  0.00    -0.205 F 
ATOM     83  C   UNL A   1      38.911  35.275  39.350  1.00  0.00     0.022 A 
BRANCH  81  84
ATOM     84  S   UNL A   1      37.396  33.470  40.747  1.00  0.00     0.127 S 
ATOM     85  O   UNL A   1      36.161  33.056  40.088  1.00  0.00    -0.237 OA
ATOM     86  O   UNL A   1      38.183  32.379  41.323  1.00  0.00    -0.237 OA
ATOM     87  O   UNL A   1      37.302  34.650  41.595  1.00  0.00    -0.744 OA
ENDBRANCH  81  84
ENDBRANCH  53  77
BRANCH  65  88
ATOM     88  C   UNL A   1      44.066  28.789  35.359  1.00  0.00     0.023 A 
ATOM     89  C   UNL A   1      45.341  29.343  35.130  1.00  0.00     0.012 A 
ATOM     90  C   UNL A   1      43.917  27.765  36.315  1.00  0.00     0.148 A 
ATOM     91  C   UNL A   1      46.452  28.871  35.825  1.00  0.00     0.002 A 
ATOM     92  C   UNL A   1      45.022  27.330  37.036  1.00  0.00     0.091 A 
ATOM     93  F   UNL A   1      42.699  27.236  36.503  1.00  0.00    -0.205 F 
ATOM     94  C   UNL A   1      46.292  27.875  36.786  1.00  0.00     0.022 A 
BRANCH  92  95
ATOM     95  S   UNL A   1      44.892  26.119  38.357  1.00  0.00     0.127 S 
ATOM     96  O   UNL A   1      44.373  24.953  37.642  1.00  0.00    -0.237 OA
ATOM     97  O   UNL A   1      46.280  25.992  38.803  1.00  0.00    -0.237 OA
ATOM     98  O   UNL A   1      43.992  26.700  39.344  1.00  0.00    -0.744 OA
ENDBRANCH  92  95
ENDBRANCH  65  88
ENDBRANCH  39  40
ENDBRANCH  31  34
ENDBRANCH  29  30
ENDBRANCH   1  29
TORSDOF 18
ENDMDL
