MODEL 1
REMARK VINA RESULT:     -11.3      0.000      0.000
REMARK SMILES CC(C)C[C@@H](C[C@@H]1CCCCO1)C(=O)NCCCCNC(=O)c1ccc(-c2c3nc(c(-c4cccc(S(=O)(=O)[O-])c4F)c4ccc([nH]4)c(-c4cccc(S(=O)(=O)[O-])c4F)c4nc(c(-c5cccc(S(=O)(=O)[O-])c5F)c5ccc2[nH]5)C=C4)C=C3)cc1
REMARK SMILES IDX 18 1 17 2 16 3 15 4 13 5 14 6 5 8 4 9 2 10 1 11 3 12 6 13
REMARK SMILES IDX 7 14 8 15 12 16 9 17 11 18 10 19 19 20 20 21 21 22 22 24
REMARK SMILES IDX 23 25 24 26 85 27 25 28 84 29 26 30 27 31 28 32 78 33 29 34
REMARK SMILES IDX 83 35 77 36 79 37 30 38 82 39 76 40 75 41 31 43 63 44 43 45
REMARK SMILES IDX 62 46 44 47 47 48 61 49 80 50 45 51 46 52 60 54 81 55 48 56
REMARK SMILES IDX 32 57 33 58 41 59 34 60 36 61 42 62 35 63 37 64 38 65 39 66
REMARK SMILES IDX 40 67 64 68 65 69 73 70 66 71 68 72 74 73 67 74 69 75 70 76
REMARK SMILES IDX 71 77 72 78 49 79 50 80 58 81 51 82 53 83 59 84 52 85 54 86
REMARK SMILES IDX 55 87 56 88 57 89
REMARK H PARENT 15 7 20 23 79 42 47 53
REMARK Flexibility Score: inf
ROOT
ATOM      1  C   UNL A   1      31.615  29.216  26.382  1.00  0.00     0.023 C 
ENDROOT
BRANCH   1   2
ATOM      2  C   UNL A   1      32.010  27.968  27.182  1.00  0.00     0.023 C 
BRANCH   2   3
ATOM      3  C   UNL A   1      31.873  26.622  26.457  1.00  0.00     0.116 C 
BRANCH   3   4
ATOM      4  N   UNL A   1      30.729  26.568  25.554  1.00  0.00    -0.356 N 
ATOM      5  C   UNL A   1      30.377  26.919  24.303  1.00  0.00     0.223 C 
ATOM      6  O   UNL A   1      29.296  26.411  23.949  1.00  0.00    -0.275 OA
ATOM      7  H   UNL A   1      29.968  26.135  26.006  1.00  0.00     0.163 HD
BRANCH   5   8
ATOM      8  C   UNL A   1      31.041  27.903  23.309  1.00  0.00     0.081 C 
BRANCH   8   9
ATOM      9  C   UNL A   1      32.399  27.359  22.818  1.00  0.00     0.016 C 
BRANCH   9  10
ATOM     10  C   UNL A   1      32.448  25.857  22.429  1.00  0.00    -0.017 C 
ATOM     11  C   UNL A   1      32.596  25.604  20.929  1.00  0.00     0.007 C 
ATOM     12  C   UNL A   1      33.593  25.168  23.179  1.00  0.00     0.007 C 
ENDBRANCH   9  10
ENDBRANCH   8   9
BRANCH   8  13
ATOM     13  C   UNL A   1      30.159  28.795  22.399  1.00  0.00     0.045 C 
BRANCH  13  14
ATOM     14  C   UNL A   1      28.955  29.648  22.871  1.00  0.00     0.119 C 
ATOM     15  C   UNL A   1      27.965  30.028  21.774  1.00  0.00     0.032 C 
ATOM     16  O   UNL A   1      29.380  30.767  23.647  1.00  0.00    -0.378 OA
ATOM     17  C   UNL A   1      28.361  31.355  21.154  1.00  0.00     0.005 C 
ATOM     18  C   UNL A   1      28.514  31.896  23.602  1.00  0.00     0.160 C 
ATOM     19  C   UNL A   1      28.483  32.462  22.192  1.00  0.00     0.029 C 
ENDBRANCH  13  14
ENDBRANCH   8  13
ENDBRANCH   5   8
ENDBRANCH   3   4
ENDBRANCH   2   3
ENDBRANCH   1   2
BRANCH   1  20
ATOM     20  C   UNL A   1      32.681  30.262  26.074  1.00  0.00     0.116 C 
BRANCH  20  21
ATOM     21  N   UNL A   1      32.523  31.543  26.748  1.00  0.00    -0.352 N 
ATOM     22  C   UNL A   1      33.448  32.217  27.536  1.00  0.00     0.251 C 
ATOM     23  H   UNL A   1      31.653  31.988  26.631  1.00  0.00     0.163 HD
ATOM     24  O   UNL A   1      33.184  33.288  28.040  1.00  0.00    -0.269 OA
BRANCH  22  25
ATOM     25  C   UNL A   1      34.750  31.555  27.805  1.00  0.00     0.039 A 
ATOM     26  C   UNL A   1      35.903  32.341  27.879  1.00  0.00     0.014 A 
ATOM     27  C   UNL A   1      34.793  30.202  28.141  1.00  0.00     0.014 A 
ATOM     28  C   UNL A   1      37.071  31.797  28.425  1.00  0.00     0.010 A 
ATOM     29  C   UNL A   1      35.926  29.693  28.766  1.00  0.00     0.010 A 
ATOM     30  C   UNL A   1      37.069  30.491  28.944  1.00  0.00    -0.014 A 
BRANCH  30  31
ATOM     31  C   UNL A   1      38.216  29.957  29.731  1.00  0.00     0.031 A 
ATOM     32  C   UNL A   1      38.454  30.430  31.140  1.00  0.00     0.074 A 
ATOM     33  C   UNL A   1      39.124  29.155  29.135  1.00  0.00     0.049 A 
ATOM     34  N   UNL A   1      39.461  30.182  31.936  1.00  0.00    -0.248 NA
ATOM     35  C   UNL A   1      37.449  31.342  31.713  1.00  0.00     0.031 C 
ATOM     36  C   UNL A   1      39.080  28.709  27.739  1.00  0.00     0.029 A 
ATOM     37  N   UNL A   1      40.284  28.596  29.618  1.00  0.00    -0.354 N 
ATOM     38  C   UNL A   1      39.242  30.945  33.076  1.00  0.00     0.074 A 
ATOM     39  C   UNL A   1      38.025  31.695  32.853  1.00  0.00     0.031 C 
ATOM     40  C   UNL A   1      40.152  27.940  27.485  1.00  0.00     0.029 A 
ATOM     41  C   UNL A   1      40.976  27.856  28.685  1.00  0.00     0.049 A 
ATOM     42  H   UNL A   1      40.591  28.714  30.546  1.00  0.00     0.167 HD
ATOM     43  C   UNL A   1      39.960  30.989  34.223  1.00  0.00     0.034 A 
ATOM     44  C   UNL A   1      42.139  27.182  28.785  1.00  0.00     0.034 A 
ATOM     45  C   UNL A   1      41.120  30.181  34.478  1.00  0.00     0.049 A 
ATOM     46  C   UNL A   1      42.862  27.161  30.107  1.00  0.00     0.074 A 
ATOM     47  C   UNL A   1      41.854  30.071  35.646  1.00  0.00     0.029 A 
ATOM     48  N   UNL A   1      41.707  29.330  33.556  1.00  0.00    -0.354 N 
ATOM     49  N   UNL A   1      42.542  27.758  31.230  1.00  0.00    -0.248 NA
ATOM     50  C   UNL A   1      44.081  26.342  30.189  1.00  0.00     0.031 C 
ATOM     51  C   UNL A   1      42.885  29.151  35.430  1.00  0.00     0.029 A 
ATOM     52  C   UNL A   1      42.788  28.684  34.129  1.00  0.00     0.049 A 
ATOM     53  H   UNL A   1      41.402  29.205  32.628  1.00  0.00     0.167 HD
ATOM     54  C   UNL A   1      43.497  27.360  32.158  1.00  0.00     0.074 A 
ATOM     55  C   UNL A   1      44.395  26.454  31.474  1.00  0.00     0.031 C 
ATOM     56  C   UNL A   1      43.630  27.730  33.456  1.00  0.00     0.034 A 
BRANCH  43  57
ATOM     57  C   UNL A   1      39.454  31.885  35.324  1.00  0.00     0.023 A 
ATOM     58  C   UNL A   1      38.526  31.375  36.254  1.00  0.00     0.012 A 
ATOM     59  C   UNL A   1      39.916  33.208  35.464  1.00  0.00     0.148 A 
ATOM     60  C   UNL A   1      38.031  32.177  37.280  1.00  0.00     0.002 A 
ATOM     61  C   UNL A   1      39.451  33.989  36.516  1.00  0.00     0.091 A 
ATOM     62  F   UNL A   1      40.784  33.684  34.558  1.00  0.00    -0.205 F 
ATOM     63  C   UNL A   1      38.500  33.480  37.415  1.00  0.00     0.022 A 
BRANCH  61  64
ATOM     64  S   UNL A   1      40.050  35.655  36.822  1.00  0.00     0.127 S 
ATOM     65  O   UNL A   1      39.374  35.985  38.077  1.00  0.00    -0.237 OA
ATOM     66  O   UNL A   1      41.493  35.449  36.944  1.00  0.00    -0.237 OA
ATOM     67  O   UNL A   1      39.647  36.443  35.666  1.00  0.00    -0.744 OA
ENDBRANCH  61  64
ENDBRANCH  43  57
BRANCH  44  68
ATOM     68  C   UNL A   1      42.646  26.388  27.628  1.00  0.00     0.023 A 
ATOM     69  C   UNL A   1      43.564  26.984  26.740  1.00  0.00     0.012 A 
ATOM     70  C   UNL A   1      42.253  25.054  27.413  1.00  0.00     0.148 A 
ATOM     71  C   UNL A   1      44.054  26.279  25.640  1.00  0.00     0.002 A 
ATOM     72  C   UNL A   1      42.784  24.339  26.344  1.00  0.00     0.091 A 
ATOM     73  F   UNL A   1      41.369  24.507  28.258  1.00  0.00    -0.205 F 
ATOM     74  C   UNL A   1      43.673  24.954  25.447  1.00  0.00     0.022 A 
BRANCH  72  75
ATOM     75  S   UNL A   1      42.448  22.591  26.098  1.00  0.00     0.127 S 
ATOM     76  O   UNL A   1      43.057  21.999  27.284  1.00  0.00    -0.237 OA
ATOM     77  O   UNL A   1      40.984  22.561  26.075  1.00  0.00    -0.237 OA
ATOM     78  O   UNL A   1      43.069  22.255  24.823  1.00  0.00    -0.744 OA
ENDBRANCH  72  75
ENDBRANCH  44  68
BRANCH  56  79
ATOM     79  C   UNL A   1      44.766  27.132  34.242  1.00  0.00     0.023 A 
ATOM     80  C   UNL A   1      46.017  27.779  34.260  1.00  0.00     0.012 A 
ATOM     81  C   UNL A   1      44.566  25.986  35.037  1.00  0.00     0.148 A 
ATOM     82  C   UNL A   1      47.060  27.282  35.040  1.00  0.00     0.002 A 
ATOM     83  C   UNL A   1      45.597  25.521  35.846  1.00  0.00     0.091 A 
ATOM     84  F   UNL A   1      43.374  25.372  34.989  1.00  0.00    -0.205 F 
ATOM     85  C   UNL A   1      46.846  26.162  35.842  1.00  0.00     0.022 A 
BRANCH  83  86
ATOM     86  S   UNL A   1      45.377  24.144  36.979  1.00  0.00     0.127 S 
ATOM     87  O   UNL A   1      46.709  24.028  37.570  1.00  0.00    -0.237 OA
ATOM     88  O   UNL A   1      44.348  24.649  37.890  1.00  0.00    -0.237 OA
ATOM     89  O   UNL A   1      44.952  23.019  36.158  1.00  0.00    -0.744 OA
ENDBRANCH  83  86
ENDBRANCH  56  79
ENDBRANCH  30  31
ENDBRANCH  22  25
ENDBRANCH  20  21
ENDBRANCH   1  20
TORSDOF 18
ENDMDL
MODEL 2
REMARK VINA RESULT:     -11.2      5.636     10.870
REMARK SMILES CC(C)C[C@@H](C[C@@H]1CCCCO1)C(=O)NCCCCNC(=O)c1ccc(-c2c3nc(c(-c4cccc(S(=O)(=O)[O-])c4F)c4ccc([nH]4)c(-c4cccc(S(=O)(=O)[O-])c4F)c4nc(c(-c5cccc(S(=O)(=O)[O-])c5F)c5ccc2[nH]5)C=C4)C=C3)cc1
REMARK SMILES IDX 18 1 17 2 16 3 15 4 13 5 14 6 5 8 4 9 2 10 1 11 3 12 6 13
REMARK SMILES IDX 7 14 8 15 12 16 9 17 11 18 10 19 19 20 20 21 21 22 22 24
REMARK SMILES IDX 23 25 24 26 85 27 25 28 84 29 26 30 27 31 28 32 78 33 29 34
REMARK SMILES IDX 83 35 77 36 79 37 30 38 82 39 76 40 75 41 31 43 63 44 43 45
REMARK SMILES IDX 62 46 44 47 47 48 61 49 80 50 45 51 46 52 60 54 81 55 48 56
REMARK SMILES IDX 32 57 33 58 41 59 34 60 36 61 42 62 35 63 37 64 38 65 39 66
REMARK SMILES IDX 40 67 64 68 65 69 73 70 66 71 68 72 74 73 67 74 69 75 70 76
REMARK SMILES IDX 71 77 72 78 49 79 50 80 58 81 51 82 53 83 59 84 52 85 54 86
REMARK SMILES IDX 55 87 56 88 57 89
REMARK H PARENT 15 7 20 23 79 42 47 53
REMARK Flexibility Score: inf
ROOT
ATOM      1  C   UNL A   1      36.428  22.400  24.332  1.00  0.00     0.023 C 
ENDROOT
BRANCH   1   2
ATOM      2  C   UNL A   1      35.430  23.563  24.433  1.00  0.00     0.023 C 
BRANCH   2   3
ATOM      3  C   UNL A   1      34.661  23.913  23.153  1.00  0.00     0.116 C 
BRANCH   3   4
ATOM      4  N   UNL A   1      33.717  22.877  22.746  1.00  0.00    -0.356 N 
ATOM      5  C   UNL A   1      32.898  21.952  23.281  1.00  0.00     0.223 C 
ATOM      6  O   UNL A   1      32.116  21.464  22.443  1.00  0.00    -0.275 OA
ATOM      7  H   UNL A   1      33.662  22.845  21.764  1.00  0.00     0.163 HD
BRANCH   5   8
ATOM      8  C   UNL A   1      32.852  21.352  24.708  1.00  0.00     0.081 C 
BRANCH   8   9
ATOM      9  C   UNL A   1      31.483  21.610  25.370  1.00  0.00     0.016 C 
BRANCH   9  10
ATOM     10  C   UNL A   1      31.264  23.016  25.990  1.00  0.00    -0.017 C 
ATOM     11  C   UNL A   1      30.052  23.110  26.917  1.00  0.00     0.007 C 
ATOM     12  C   UNL A   1      32.524  23.445  26.751  1.00  0.00     0.007 C 
ENDBRANCH   9  10
ENDBRANCH   8   9
BRANCH   8  13
ATOM     13  C   UNL A   1      33.677  20.083  25.039  1.00  0.00     0.045 C 
BRANCH  13  14
ATOM     14  C   UNL A   1      33.632  18.750  24.251  1.00  0.00     0.119 C 
ATOM     15  C   UNL A   1      32.348  17.944  24.420  1.00  0.00     0.032 C 
ATOM     16  O   UNL A   1      34.808  17.973  24.471  1.00  0.00    -0.378 OA
ATOM     17  C   UNL A   1      32.489  16.979  25.582  1.00  0.00     0.005 C 
ATOM     18  C   UNL A   1      34.634  16.566  24.343  1.00  0.00     0.160 C 
ATOM     19  C   UNL A   1      33.696  16.064  25.428  1.00  0.00     0.029 C 
ENDBRANCH  13  14
ENDBRANCH   8  13
ENDBRANCH   5   8
ENDBRANCH   3   4
ENDBRANCH   2   3
ENDBRANCH   1   2
BRANCH   1  20
ATOM     20  C   UNL A   1      36.851  21.679  25.608  1.00  0.00     0.116 C 
BRANCH  20  21
ATOM     21  N   UNL A   1      38.036  20.841  25.496  1.00  0.00    -0.352 N 
ATOM     22  C   UNL A   1      39.310  21.086  25.994  1.00  0.00     0.251 C 
ATOM     23  H   UNL A   1      37.921  19.994  25.008  1.00  0.00     0.163 HD
ATOM     24  O   UNL A   1      40.214  20.294  25.830  1.00  0.00    -0.269 OA
BRANCH  22  25
ATOM     25  C   UNL A   1      39.555  22.383  26.676  1.00  0.00     0.039 A 
ATOM     26  C   UNL A   1      40.550  22.453  27.653  1.00  0.00     0.014 A 
ATOM     27  C   UNL A   1      38.919  23.541  26.228  1.00  0.00     0.014 A 
ATOM     28  C   UNL A   1      41.004  23.706  28.083  1.00  0.00     0.010 A 
ATOM     29  C   UNL A   1      39.435  24.782  26.589  1.00  0.00     0.010 A 
ATOM     30  C   UNL A   1      40.503  24.880  27.498  1.00  0.00    -0.014 A 
BRANCH  30  31
ATOM     31  C   UNL A   1      41.114  26.213  27.763  1.00  0.00     0.031 A 
ATOM     32  C   UNL A   1      42.524  26.501  27.320  1.00  0.00     0.074 A 
ATOM     33  C   UNL A   1      40.456  27.115  28.522  1.00  0.00     0.049 A 
ATOM     34  N   UNL A   1      43.270  27.546  27.567  1.00  0.00    -0.248 NA
ATOM     35  C   UNL A   1      43.201  25.455  26.534  1.00  0.00     0.031 C 
ATOM     36  C   UNL A   1      39.130  26.922  29.115  1.00  0.00     0.029 A 
ATOM     37  N   UNL A   1      40.829  28.365  28.957  1.00  0.00    -0.354 N 
ATOM     38  C   UNL A   1      44.515  27.262  27.019  1.00  0.00     0.074 A 
ATOM     39  C   UNL A   1      44.435  25.931  26.460  1.00  0.00     0.031 C 
ATOM     40  C   UNL A   1      38.796  28.015  29.821  1.00  0.00     0.029 A 
ATOM     41  C   UNL A   1      39.891  28.977  29.759  1.00  0.00     0.049 A 
ATOM     42  H   UNL A   1      41.687  28.784  28.717  1.00  0.00     0.167 HD
ATOM     43  C   UNL A   1      45.614  28.050  26.947  1.00  0.00     0.034 A 
ATOM     44  C   UNL A   1      39.907  30.178  30.371  1.00  0.00     0.034 A 
ATOM     45  C   UNL A   1      45.667  29.403  27.426  1.00  0.00     0.049 A 
ATOM     46  C   UNL A   1      41.101  31.079  30.184  1.00  0.00     0.074 A 
ATOM     47  C   UNL A   1      46.696  30.321  27.305  1.00  0.00     0.029 A 
ATOM     48  N   UNL A   1      44.642  30.040  28.106  1.00  0.00    -0.354 N 
ATOM     49  N   UNL A   1      42.205  30.854  29.514  1.00  0.00    -0.248 NA
ATOM     50  C   UNL A   1      41.034  32.412  30.801  1.00  0.00     0.031 C 
ATOM     51  C   UNL A   1      46.290  31.515  27.909  1.00  0.00     0.029 A 
ATOM     52  C   UNL A   1      45.007  31.341  28.402  1.00  0.00     0.049 A 
ATOM     53  H   UNL A   1      43.780  29.628  28.345  1.00  0.00     0.167 HD
ATOM     54  C   UNL A   1      42.948  32.025  29.599  1.00  0.00     0.074 A 
ATOM     55  C   UNL A   1      42.159  32.967  30.366  1.00  0.00     0.031 C 
ATOM     56  C   UNL A   1      44.182  32.290  29.104  1.00  0.00     0.034 A 
BRANCH  43  57
ATOM     57  C   UNL A   1      46.824  27.490  26.246  1.00  0.00     0.023 A 
ATOM     58  C   UNL A   1      46.959  27.673  24.855  1.00  0.00     0.012 A 
ATOM     59  C   UNL A   1      47.839  26.819  26.957  1.00  0.00     0.148 A 
ATOM     60  C   UNL A   1      48.061  27.162  24.173  1.00  0.00     0.002 A 
ATOM     61  C   UNL A   1      48.957  26.350  26.276  1.00  0.00     0.091 A 
ATOM     62  F   UNL A   1      47.685  26.635  28.276  1.00  0.00    -0.205 F 
ATOM     63  C   UNL A   1      49.063  26.509  24.884  1.00  0.00     0.022 A 
BRANCH  61  64
ATOM     64  S   UNL A   1      50.338  25.561  27.112  1.00  0.00     0.127 S 
ATOM     65  O   UNL A   1      49.716  24.338  27.618  1.00  0.00    -0.237 OA
ATOM     66  O   UNL A   1      51.286  25.353  26.017  1.00  0.00    -0.237 OA
ATOM     67  O   UNL A   1      50.783  26.506  28.126  1.00  0.00    -0.744 OA
ENDBRANCH  61  64
ENDBRANCH  43  57
BRANCH  44  68
ATOM     68  C   UNL A   1      38.716  30.644  31.138  1.00  0.00     0.023 A 
ATOM     69  C   UNL A   1      38.683  30.453  32.534  1.00  0.00     0.012 A 
ATOM     70  C   UNL A   1      37.634  31.290  30.510  1.00  0.00     0.148 A 
ATOM     71  C   UNL A   1      37.583  30.866  33.285  1.00  0.00     0.002 A 
ATOM     72  C   UNL A   1      36.562  31.745  31.272  1.00  0.00     0.091 A 
ATOM     73  F   UNL A   1      37.673  31.451  29.180  1.00  0.00    -0.205 F 
ATOM     74  C   UNL A   1      36.527  31.519  32.657  1.00  0.00     0.022 A 
BRANCH  72  75
ATOM     75  S   UNL A   1      35.223  32.711  30.562  1.00  0.00     0.127 S 
ATOM     76  O   UNL A   1      34.330  32.871  31.706  1.00  0.00    -0.237 OA
ATOM     77  O   UNL A   1      35.914  33.932  30.144  1.00  0.00    -0.237 OA
ATOM     78  O   UNL A   1      34.712  31.909  29.458  1.00  0.00    -0.744 OA
ENDBRANCH  72  75
ENDBRANCH  44  68
BRANCH  56  79
ATOM     79  C   UNL A   1      44.752  33.664  29.339  1.00  0.00     0.023 A 
ATOM     80  C   UNL A   1      45.450  33.932  30.533  1.00  0.00     0.012 A 
ATOM     81  C   UNL A   1      44.680  34.654  28.340  1.00  0.00     0.148 A 
ATOM     82  C   UNL A   1      46.048  35.174  30.739  1.00  0.00     0.002 A 
ATOM     83  C   UNL A   1      45.316  35.875  28.534  1.00  0.00     0.091 A 
ATOM     84  F   UNL A   1      43.992  34.385  27.220  1.00  0.00    -0.205 F 
ATOM     85  C   UNL A   1      45.992  36.139  29.736  1.00  0.00     0.022 A 
BRANCH  83  86
ATOM     86  S   UNL A   1      45.374  37.137  27.257  1.00  0.00     0.127 S 
ATOM     87  O   UNL A   1      46.183  38.173  27.896  1.00  0.00    -0.237 OA
ATOM     88  O   UNL A   1      46.037  36.438  26.155  1.00  0.00    -0.237 OA
ATOM     89  O   UNL A   1      43.987  37.496  26.990  1.00  0.00    -0.744 OA
ENDBRANCH  83  86
ENDBRANCH  56  79
ENDBRANCH  30  31
ENDBRANCH  22  25
ENDBRANCH  20  21
ENDBRANCH   1  20
TORSDOF 18
ENDMDL
MODEL 3
REMARK VINA RESULT:     -11.1      5.198     10.286
REMARK SMILES CC(C)C[C@@H](C[C@@H]1CCCCO1)C(=O)NCCCCNC(=O)c1ccc(-c2c3nc(c(-c4cccc(S(=O)(=O)[O-])c4F)c4ccc([nH]4)c(-c4cccc(S(=O)(=O)[O-])c4F)c4nc(c(-c5cccc(S(=O)(=O)[O-])c5F)c5ccc2[nH]5)C=C4)C=C3)cc1
REMARK SMILES IDX 18 1 17 2 16 3 15 4 13 5 14 6 5 8 4 9 2 10 1 11 3 12 6 13
REMARK SMILES IDX 7 14 8 15 12 16 9 17 11 18 10 19 19 20 20 21 21 22 22 24
REMARK SMILES IDX 23 25 24 26 85 27 25 28 84 29 26 30 27 31 28 32 78 33 29 34
REMARK SMILES IDX 83 35 77 36 79 37 30 38 82 39 76 40 75 41 31 43 63 44 43 45
REMARK SMILES IDX 62 46 44 47 47 48 61 49 80 50 45 51 46 52 60 54 81 55 48 56
REMARK SMILES IDX 32 57 33 58 41 59 34 60 36 61 42 62 35 63 37 64 38 65 39 66
REMARK SMILES IDX 40 67 64 68 65 69 73 70 66 71 68 72 74 73 67 74 69 75 70 76
REMARK SMILES IDX 71 77 72 78 49 79 50 80 58 81 51 82 53 83 59 84 52 85 54 86
REMARK SMILES IDX 55 87 56 88 57 89
REMARK H PARENT 15 7 20 23 79 42 47 53
REMARK Flexibility Score: inf
ROOT
ATOM      1  C   UNL A   1      36.760  21.914  24.040  1.00  0.00     0.023 C 
ENDROOT
BRANCH   1   2
ATOM      2  C   UNL A   1      36.031  23.246  23.817  1.00  0.00     0.023 C 
BRANCH   2   3
ATOM      3  C   UNL A   1      34.546  23.155  23.440  1.00  0.00     0.116 C 
BRANCH   3   4
ATOM      4  N   UNL A   1      34.112  24.220  22.542  1.00  0.00    -0.356 N 
ATOM      5  C   UNL A   1      33.516  25.426  22.575  1.00  0.00     0.223 C 
ATOM      6  O   UNL A   1      33.595  26.030  21.488  1.00  0.00    -0.275 OA
ATOM      7  H   UNL A   1      34.325  23.977  21.612  1.00  0.00     0.163 HD
BRANCH   5   8
ATOM      8  C   UNL A   1      32.689  26.110  23.692  1.00  0.00     0.081 C 
BRANCH   8   9
ATOM      9  C   UNL A   1      31.177  25.893  23.470  1.00  0.00     0.016 C 
BRANCH   9  10
ATOM     10  C   UNL A   1      30.230  27.005  23.995  1.00  0.00    -0.017 C 
ATOM     11  C   UNL A   1      30.219  28.273  23.141  1.00  0.00     0.007 C 
ATOM     12  C   UNL A   1      28.804  26.454  24.110  1.00  0.00     0.007 C 
ENDBRANCH   9  10
ENDBRANCH   8   9
BRANCH   8  13
ATOM     13  C   UNL A   1      33.279  26.243  25.119  1.00  0.00     0.045 C 
BRANCH  13  14
ATOM     14  C   UNL A   1      33.618  27.577  25.831  1.00  0.00     0.119 C 
ATOM     15  C   UNL A   1      32.917  27.788  27.169  1.00  0.00     0.032 C 
ATOM     16  O   UNL A   1      33.478  28.690  24.950  1.00  0.00    -0.378 OA
ATOM     17  C   UNL A   1      31.599  28.508  26.959  1.00  0.00     0.005 C 
ATOM     18  C   UNL A   1      33.152  29.923  25.582  1.00  0.00     0.160 C 
ATOM     19  C   UNL A   1      31.774  29.825  26.216  1.00  0.00     0.029 C 
ENDBRANCH  13  14
ENDBRANCH   8  13
ENDBRANCH   5   8
ENDBRANCH   3   4
ENDBRANCH   2   3
ENDBRANCH   1   2
BRANCH   1  20
ATOM     20  C   UNL A   1      37.271  21.579  25.437  1.00  0.00     0.116 C 
BRANCH  20  21
ATOM     21  N   UNL A   1      38.461  20.742  25.491  1.00  0.00    -0.352 N 
ATOM     22  C   UNL A   1      39.674  21.015  26.111  1.00  0.00     0.251 C 
ATOM     23  H   UNL A   1      38.399  19.874  25.031  1.00  0.00     0.163 HD
ATOM     24  O   UNL A   1      40.590  20.221  26.080  1.00  0.00    -0.269 OA
BRANCH  22  25
ATOM     25  C   UNL A   1      39.845  22.342  26.756  1.00  0.00     0.039 A 
ATOM     26  C   UNL A   1      40.751  22.466  27.812  1.00  0.00     0.014 A 
ATOM     27  C   UNL A   1      39.237  23.472  26.208  1.00  0.00     0.014 A 
ATOM     28  C   UNL A   1      41.153  23.742  28.227  1.00  0.00     0.010 A 
ATOM     29  C   UNL A   1      39.706  24.733  26.560  1.00  0.00     0.010 A 
ATOM     30  C   UNL A   1      40.690  24.884  27.552  1.00  0.00    -0.014 A 
BRANCH  30  31
ATOM     31  C   UNL A   1      41.262  26.235  27.813  1.00  0.00     0.031 A 
ATOM     32  C   UNL A   1      42.666  26.561  27.378  1.00  0.00     0.074 A 
ATOM     33  C   UNL A   1      40.573  27.122  28.562  1.00  0.00     0.049 A 
ATOM     34  N   UNL A   1      43.380  27.628  27.624  1.00  0.00    -0.248 NA
ATOM     35  C   UNL A   1      43.378  25.529  26.605  1.00  0.00     0.031 C 
ATOM     36  C   UNL A   1      39.248  26.896  29.146  1.00  0.00     0.029 A 
ATOM     37  N   UNL A   1      40.906  28.386  28.992  1.00  0.00    -0.354 N 
ATOM     38  C   UNL A   1      44.636  27.376  27.087  1.00  0.00     0.074 A 
ATOM     39  C   UNL A   1      44.599  26.040  26.536  1.00  0.00     0.031 C 
ATOM     40  C   UNL A   1      38.879  27.984  29.843  1.00  0.00     0.029 A 
ATOM     41  C   UNL A   1      39.946  28.976  29.782  1.00  0.00     0.049 A 
ATOM     42  H   UNL A   1      41.754  28.827  28.754  1.00  0.00     0.167 HD
ATOM     43  C   UNL A   1      45.713  28.194  27.018  1.00  0.00     0.034 A 
ATOM     44  C   UNL A   1      39.924  30.181  30.387  1.00  0.00     0.034 A 
ATOM     45  C   UNL A   1      45.725  29.551  27.489  1.00  0.00     0.049 A 
ATOM     46  C   UNL A   1      41.092  31.113  30.203  1.00  0.00     0.074 A 
ATOM     47  C   UNL A   1      46.728  30.497  27.368  1.00  0.00     0.029 A 
ATOM     48  N   UNL A   1      44.676  30.163  28.157  1.00  0.00    -0.354 N 
ATOM     49  N   UNL A   1      42.208  30.916  29.542  1.00  0.00    -0.248 NA
ATOM     50  C   UNL A   1      40.983  32.448  30.810  1.00  0.00     0.031 C 
ATOM     51  C   UNL A   1      46.283  31.683  27.963  1.00  0.00     0.029 A 
ATOM     52  C   UNL A   1      45.002  31.476  28.447  1.00  0.00     0.049 A 
ATOM     53  H   UNL A   1      43.825  29.728  28.392  1.00  0.00     0.167 HD
ATOM     54  C   UNL A   1      42.916  32.109  29.625  1.00  0.00     0.074 A 
ATOM     55  C   UNL A   1      42.095  33.032  30.380  1.00  0.00     0.031 C 
ATOM     56  C   UNL A   1      44.146  32.405  29.137  1.00  0.00     0.034 A 
BRANCH  43  57
ATOM     57  C   UNL A   1      46.944  27.664  26.329  1.00  0.00     0.023 A 
ATOM     58  C   UNL A   1      47.867  26.894  27.066  1.00  0.00     0.012 A 
ATOM     59  C   UNL A   1      47.173  27.893  24.959  1.00  0.00     0.148 A 
ATOM     60  C   UNL A   1      49.019  26.395  26.463  1.00  0.00     0.002 A 
ATOM     61  C   UNL A   1      48.304  27.355  24.354  1.00  0.00     0.091 A 
ATOM     62  F   UNL A   1      46.296  28.645  24.278  1.00  0.00    -0.205 F 
ATOM     63  C   UNL A   1      49.233  26.618  25.107  1.00  0.00     0.022 A 
BRANCH  61  64
ATOM     64  S   UNL A   1      48.633  27.522  22.595  1.00  0.00     0.127 S 
ATOM     65  O   UNL A   1      47.462  28.276  22.147  1.00  0.00    -0.237 OA
ATOM     66  O   UNL A   1      49.885  28.279  22.584  1.00  0.00    -0.237 OA
ATOM     67  O   UNL A   1      48.742  26.165  22.079  1.00  0.00    -0.744 OA
ENDBRANCH  61  64
ENDBRANCH  43  57
BRANCH  44  68
ATOM     68  C   UNL A   1      38.713  30.617  31.142  1.00  0.00     0.023 A 
ATOM     69  C   UNL A   1      38.650  30.378  32.530  1.00  0.00     0.012 A 
ATOM     70  C   UNL A   1      37.644  31.282  30.513  1.00  0.00     0.148 A 
ATOM     71  C   UNL A   1      37.531  30.762  33.270  1.00  0.00     0.002 A 
ATOM     72  C   UNL A   1      36.554  31.708  31.265  1.00  0.00     0.091 A 
ATOM     73  F   UNL A   1      37.714  31.490  29.190  1.00  0.00    -0.205 F 
ATOM     74  C   UNL A   1      36.488  31.435  32.641  1.00  0.00     0.022 A 
BRANCH  72  75
ATOM     75  S   UNL A   1      35.229  32.696  30.559  1.00  0.00     0.127 S 
ATOM     76  O   UNL A   1      34.327  32.845  31.697  1.00  0.00    -0.237 OA
ATOM     77  O   UNL A   1      35.933  33.918  30.167  1.00  0.00    -0.237 OA
ATOM     78  O   UNL A   1      34.722  31.916  29.438  1.00  0.00    -0.744 OA
ENDBRANCH  72  75
ENDBRANCH  44  68
BRANCH  56  79
ATOM     79  C   UNL A   1      44.675  33.796  29.368  1.00  0.00     0.023 A 
ATOM     80  C   UNL A   1      45.364  34.089  30.561  1.00  0.00     0.012 A 
ATOM     81  C   UNL A   1      44.573  34.780  28.365  1.00  0.00     0.148 A 
ATOM     82  C   UNL A   1      45.925  35.349  30.763  1.00  0.00     0.002 A 
ATOM     83  C   UNL A   1      45.173  36.020  28.555  1.00  0.00     0.091 A 
ATOM     84  F   UNL A   1      43.894  34.488  27.246  1.00  0.00    -0.205 F 
ATOM     85  C   UNL A   1      45.841  36.309  29.756  1.00  0.00     0.022 A 
BRANCH  83  86
ATOM     86  S   UNL A   1      45.194  37.279  27.273  1.00  0.00     0.127 S 
ATOM     87  O   UNL A   1      45.999  36.636  26.235  1.00  0.00    -0.237 OA
ATOM     88  O   UNL A   1      43.774  37.417  26.946  1.00  0.00    -0.237 OA
ATOM     89  O   UNL A   1      45.785  38.460  27.887  1.00  0.00    -0.744 OA
ENDBRANCH  83  86
ENDBRANCH  56  79
ENDBRANCH  30  31
ENDBRANCH  22  25
ENDBRANCH  20  21
ENDBRANCH   1  20
TORSDOF 18
ENDMDL
