MODEL 1
REMARK VINA RESULT:     -12.4      0.000      0.000
REMARK SMILES C[C@H]1CCC[C@H](C)N1C(=O)[C@H]1[C@@H](C(=O)NCCCCNC(=O)c2ccc(-c3c4nc(c(-c5cccc(S(=O)(=O)[O-])c5F)c5ccc([nH]5)c(-c5cccc(S(=O)(=O)[O-])c5F)c5nc(c(-c6cccc(S(=O)(=O)[O-])c6F)c6ccc3[nH]6)C=C5)C=C4)cc2)[C@H]2CC[C@@H]1O2
REMARK SMILES IDX 18 1 17 2 16 3 15 4 13 5 14 6 12 8 11 9 89 10 86 11 88 12
REMARK SMILES IDX 90 13 87 14 9 15 1 16 2 17 3 18 8 19 4 20 6 21 5 22 7 23
REMARK SMILES IDX 10 24 19 25 20 26 21 27 22 29 23 30 24 31 85 32 25 33 84 34
REMARK SMILES IDX 26 35 27 36 28 37 78 38 29 39 83 40 77 41 79 42 30 43 82 44
REMARK SMILES IDX 76 45 75 46 31 48 63 49 43 50 62 51 44 52 47 53 61 54 80 55
REMARK SMILES IDX 45 56 46 57 60 59 81 60 48 61 32 62 33 63 41 64 34 65 36 66
REMARK SMILES IDX 42 67 35 68 37 69 38 70 39 71 40 72 64 73 65 74 73 75 66 76
REMARK SMILES IDX 68 77 74 78 67 79 69 80 70 81 71 82 72 83 49 84 50 85 58 86
REMARK SMILES IDX 51 87 53 88 59 89 52 90 54 91 55 92 56 93 57 94
REMARK H PARENT 15 7 20 28 79 47 47 58
REMARK Flexibility Score: inf
ROOT
ATOM      1  C   UNL A   1      31.589  29.497  26.849  1.00  0.00     0.023 C 
ENDROOT
BRANCH   1   2
ATOM      2  C   UNL A   1      31.779  28.204  27.626  1.00  0.00     0.023 C 
BRANCH   2   3
ATOM      3  C   UNL A   1      32.505  27.080  26.884  1.00  0.00     0.116 C 
BRANCH   3   4
ATOM      4  N   UNL A   1      31.776  25.812  26.844  1.00  0.00    -0.356 N 
ATOM      5  C   UNL A   1      32.176  24.573  26.389  1.00  0.00     0.226 C 
ATOM      6  O   UNL A   1      31.483  23.591  26.640  1.00  0.00    -0.275 OA
ATOM      7  H   UNL A   1      30.857  25.849  27.198  1.00  0.00     0.163 HD
BRANCH   5   8
ATOM      8  C   UNL A   1      33.449  24.472  25.586  1.00  0.00     0.122 C 
ATOM      9  C   UNL A   1      33.554  25.154  24.214  1.00  0.00     0.122 C 
ATOM     10  C   UNL A   1      34.526  24.169  23.495  1.00  0.00     0.132 C 
ATOM     11  C   UNL A   1      33.987  23.070  25.300  1.00  0.00     0.132 C 
ATOM     12  C   UNL A   1      33.921  22.912  22.908  1.00  0.00     0.035 C 
ATOM     13  O   UNL A   1      35.208  23.522  24.629  1.00  0.00    -0.373 OA
ATOM     14  C   UNL A   1      33.370  22.240  24.165  1.00  0.00     0.035 C 
BRANCH   9  15
ATOM     15  C   UNL A   1      32.233  25.483  23.499  1.00  0.00     0.229 C 
ATOM     16  C   UNL A   1      33.956  28.151  23.501  1.00  0.00     0.031 C 
ATOM     17  C   UNL A   1      32.436  28.079  23.703  1.00  0.00     0.082 C 
ATOM     18  C   UNL A   1      31.896  29.326  22.960  1.00  0.00     0.025 C 
ATOM     19  N   UNL A   1      31.774  26.801  23.314  1.00  0.00    -0.337 N 
ATOM     20  C   UNL A   1      30.390  29.391  22.849  1.00  0.00     0.004 C 
ATOM     21  C   UNL A   1      30.309  26.887  23.025  1.00  0.00     0.082 C 
ATOM     22  C   UNL A   1      29.914  28.111  22.197  1.00  0.00     0.025 C 
ATOM     23  C   UNL A   1      29.489  26.812  24.323  1.00  0.00     0.031 C 
ATOM     24  O   UNL A   1      31.549  24.549  23.067  1.00  0.00    -0.274 OA
ENDBRANCH   9  15
ENDBRANCH   5   8
ENDBRANCH   3   4
ENDBRANCH   2   3
ENDBRANCH   1   2
BRANCH   1  25
ATOM     25  C   UNL A   1      32.877  30.239  26.532  1.00  0.00     0.116 C 
BRANCH  25  26
ATOM     26  N   UNL A   1      32.842  31.643  26.928  1.00  0.00    -0.352 N 
ATOM     27  C   UNL A   1      33.760  32.358  27.671  1.00  0.00     0.251 C 
ATOM     28  H   UNL A   1      32.056  32.151  26.623  1.00  0.00     0.163 HD
ATOM     29  O   UNL A   1      33.520  33.496  28.028  1.00  0.00    -0.269 OA
BRANCH  27  30
ATOM     30  C   UNL A   1      35.025  31.694  28.050  1.00  0.00     0.039 A 
ATOM     31  C   UNL A   1      36.184  32.463  28.172  1.00  0.00     0.014 A 
ATOM     32  C   UNL A   1      35.033  30.334  28.371  1.00  0.00     0.014 A 
ATOM     33  C   UNL A   1      37.332  31.884  28.713  1.00  0.00     0.010 A 
ATOM     34  C   UNL A   1      36.148  29.787  28.990  1.00  0.00     0.010 A 
ATOM     35  C   UNL A   1      37.305  30.557  29.176  1.00  0.00    -0.014 A 
BRANCH  35  36
ATOM     36  C   UNL A   1      38.456  29.966  29.902  1.00  0.00     0.031 A 
ATOM     37  C   UNL A   1      38.815  30.458  31.276  1.00  0.00     0.074 A 
ATOM     38  C   UNL A   1      39.245  29.071  29.273  1.00  0.00     0.049 A 
ATOM     39  N   UNL A   1      39.825  30.119  32.033  1.00  0.00    -0.248 NA
ATOM     40  C   UNL A   1      37.944  31.489  31.865  1.00  0.00     0.031 C 
ATOM     41  C   UNL A   1      39.055  28.591  27.901  1.00  0.00     0.029 A 
ATOM     42  N   UNL A   1      40.383  28.428  29.693  1.00  0.00    -0.354 N 
ATOM     43  C   UNL A   1      39.734  30.916  33.167  1.00  0.00     0.074 A 
ATOM     44  C   UNL A   1      38.592  31.784  32.983  1.00  0.00     0.031 C 
ATOM     45  C   UNL A   1      40.037  27.728  27.596  1.00  0.00     0.029 A 
ATOM     46  C   UNL A   1      40.943  27.615  28.734  1.00  0.00     0.049 A 
ATOM     47  H   UNL A   1      40.762  28.539  30.593  1.00  0.00     0.167 HD
ATOM     48  C   UNL A   1      40.510  30.905  34.275  1.00  0.00     0.034 A 
ATOM     49  C   UNL A   1      42.065  26.869  28.766  1.00  0.00     0.034 A 
ATOM     50  C   UNL A   1      41.614  30.006  34.471  1.00  0.00     0.049 A 
ATOM     51  C   UNL A   1      42.883  26.841  30.028  1.00  0.00     0.074 A 
ATOM     52  C   UNL A   1      42.397  29.839  35.600  1.00  0.00     0.029 A 
ATOM     53  N   UNL A   1      42.100  29.130  33.514  1.00  0.00    -0.354 N 
ATOM     54  N   UNL A   1      42.675  27.470  31.159  1.00  0.00    -0.248 NA
ATOM     55  C   UNL A   1      44.072  25.976  30.029  1.00  0.00     0.031 C 
ATOM     56  C   UNL A   1      43.371  28.877  35.316  1.00  0.00     0.029 A 
ATOM     57  C   UNL A   1      43.182  28.429  34.018  1.00  0.00     0.049 A 
ATOM     58  H   UNL A   1      41.730  29.021  32.608  1.00  0.00     0.167 HD
ATOM     59  C   UNL A   1      43.690  27.059  32.015  1.00  0.00     0.074 A 
ATOM     60  C   UNL A   1      44.494  26.104  31.280  1.00  0.00     0.031 C 
ATOM     61  C   UNL A   1      43.945  27.450  33.288  1.00  0.00     0.034 A 
BRANCH  48  62
ATOM     62  C   UNL A   1      40.151  31.852  35.389  1.00  0.00     0.023 A 
ATOM     63  C   UNL A   1      40.868  33.058  35.531  1.00  0.00     0.012 A 
ATOM     64  C   UNL A   1      39.075  31.582  36.256  1.00  0.00     0.148 A 
ATOM     65  C   UNL A   1      40.542  33.965  36.540  1.00  0.00     0.002 A 
ATOM     66  C   UNL A   1      38.728  32.510  37.230  1.00  0.00     0.091 A 
ATOM     67  F   UNL A   1      38.421  30.419  36.121  1.00  0.00    -0.205 F 
ATOM     68  C   UNL A   1      39.467  33.696  37.381  1.00  0.00     0.022 A 
BRANCH  66  69
ATOM     69  S   UNL A   1      37.314  32.294  38.316  1.00  0.00     0.127 S 
ATOM     70  O   UNL A   1      37.803  32.884  39.560  1.00  0.00    -0.237 OA
ATOM     71  O   UNL A   1      36.281  33.076  37.635  1.00  0.00    -0.237 OA
ATOM     72  O   UNL A   1      37.058  30.861  38.361  1.00  0.00    -0.744 OA
ENDBRANCH  66  69
ENDBRANCH  48  62
BRANCH  49  73
ATOM     73  C   UNL A   1      42.440  26.037  27.587  1.00  0.00     0.023 A 
ATOM     74  C   UNL A   1      43.288  26.580  26.603  1.00  0.00     0.012 A 
ATOM     75  C   UNL A   1      41.992  24.709  27.451  1.00  0.00     0.148 A 
ATOM     76  C   UNL A   1      43.660  25.826  25.488  1.00  0.00     0.002 A 
ATOM     77  C   UNL A   1      42.412  23.945  26.367  1.00  0.00     0.091 A 
ATOM     78  F   UNL A   1      41.175  24.214  28.390  1.00  0.00    -0.205 F 
ATOM     79  C   UNL A   1      43.231  24.507  25.375  1.00  0.00     0.022 A 
BRANCH  77  80
ATOM     80  S   UNL A   1      42.023  22.198  26.216  1.00  0.00     0.127 S 
ATOM     81  O   UNL A   1      42.755  21.829  25.009  1.00  0.00    -0.237 OA
ATOM     82  O   UNL A   1      42.572  21.656  27.461  1.00  0.00    -0.237 OA
ATOM     83  O   UNL A   1      40.570  22.128  26.126  1.00  0.00    -0.744 OA
ENDBRANCH  77  80
ENDBRANCH  49  73
BRANCH  61  84
ATOM     84  C   UNL A   1      45.136  26.840  33.977  1.00  0.00     0.023 A 
ATOM     85  C   UNL A   1      46.387  27.485  33.909  1.00  0.00     0.012 A 
ATOM     86  C   UNL A   1      45.002  25.670  34.751  1.00  0.00     0.148 A 
ATOM     87  C   UNL A   1      47.492  26.960  34.575  1.00  0.00     0.002 A 
ATOM     88  C   UNL A   1      46.097  25.179  35.452  1.00  0.00     0.091 A 
ATOM     89  F   UNL A   1      43.808  25.061  34.789  1.00  0.00    -0.205 F 
ATOM     90  C   UNL A   1      47.346  25.816  35.355  1.00  0.00     0.022 A 
BRANCH  88  91
ATOM     91  S   UNL A   1      45.980  23.767  36.555  1.00  0.00     0.127 S 
ATOM     92  O   UNL A   1      45.698  22.679  35.619  1.00  0.00    -0.237 OA
ATOM     93  O   UNL A   1      47.316  23.727  37.151  1.00  0.00    -0.237 OA
ATOM     94  O   UNL A   1      44.910  24.078  37.493  1.00  0.00    -0.744 OA
ENDBRANCH  88  91
ENDBRANCH  61  84
ENDBRANCH  35  36
ENDBRANCH  27  30
ENDBRANCH  25  26
ENDBRANCH   1  25
TORSDOF 15
ENDMDL
MODEL 2
REMARK VINA RESULT:     -12.2      5.147      7.768
REMARK SMILES C[C@H]1CCC[C@H](C)N1C(=O)[C@H]1[C@@H](C(=O)NCCCCNC(=O)c2ccc(-c3c4nc(c(-c5cccc(S(=O)(=O)[O-])c5F)c5ccc([nH]5)c(-c5cccc(S(=O)(=O)[O-])c5F)c5nc(c(-c6cccc(S(=O)(=O)[O-])c6F)c6ccc3[nH]6)C=C5)C=C4)cc2)[C@H]2CC[C@@H]1O2
REMARK SMILES IDX 18 1 17 2 16 3 15 4 13 5 14 6 12 8 11 9 89 10 86 11 88 12
REMARK SMILES IDX 90 13 87 14 9 15 1 16 2 17 3 18 8 19 4 20 6 21 5 22 7 23
REMARK SMILES IDX 10 24 19 25 20 26 21 27 22 29 23 30 24 31 85 32 25 33 84 34
REMARK SMILES IDX 26 35 27 36 28 37 78 38 29 39 83 40 77 41 79 42 30 43 82 44
REMARK SMILES IDX 76 45 75 46 31 48 63 49 43 50 62 51 44 52 47 53 61 54 80 55
REMARK SMILES IDX 45 56 46 57 60 59 81 60 48 61 32 62 33 63 41 64 34 65 36 66
REMARK SMILES IDX 42 67 35 68 37 69 38 70 39 71 40 72 64 73 65 74 73 75 66 76
REMARK SMILES IDX 68 77 74 78 67 79 69 80 70 81 71 82 72 83 49 84 50 85 58 86
REMARK SMILES IDX 51 87 53 88 59 89 52 90 54 91 55 92 56 93 57 94
REMARK H PARENT 15 7 20 28 79 47 47 58
REMARK Flexibility Score: inf
ROOT
ATOM      1  C   UNL A   1      36.643  21.320  24.231  1.00  0.00     0.023 C 
ENDROOT
BRANCH   1   2
ATOM      2  C   UNL A   1      36.874  22.569  23.394  1.00  0.00     0.023 C 
BRANCH   2   3
ATOM      3  C   UNL A   1      35.782  23.637  23.474  1.00  0.00     0.116 C 
BRANCH   3   4
ATOM      4  N   UNL A   1      35.526  24.139  24.825  1.00  0.00    -0.356 N 
ATOM      5  C   UNL A   1      34.493  23.859  25.695  1.00  0.00     0.226 C 
ATOM      6  O   UNL A   1      34.578  24.226  26.863  1.00  0.00    -0.275 OA
ATOM      7  H   UNL A   1      36.195  24.777  25.166  1.00  0.00     0.163 HD
BRANCH   5   8
ATOM      8  C   UNL A   1      33.287  23.118  25.172  1.00  0.00     0.122 C 
ATOM      9  C   UNL A   1      32.110  23.891  24.559  1.00  0.00     0.122 C 
ATOM     10  C   UNL A   1      30.931  22.948  24.952  1.00  0.00     0.132 C 
ATOM     11  C   UNL A   1      32.586  22.157  26.132  1.00  0.00     0.132 C 
ATOM     12  C   UNL A   1      30.384  23.082  26.357  1.00  0.00     0.035 C 
ATOM     13  O   UNL A   1      31.617  21.660  25.152  1.00  0.00    -0.373 OA
ATOM     14  C   UNL A   1      31.615  22.713  27.184  1.00  0.00     0.035 C 
BRANCH   9  15
ATOM     15  C   UNL A   1      31.979  25.375  24.941  1.00  0.00     0.229 C 
ATOM     16  C   UNL A   1      32.940  25.295  21.915  1.00  0.00     0.031 C 
ATOM     17  C   UNL A   1      33.416  26.306  22.967  1.00  0.00     0.082 C 
ATOM     18  C   UNL A   1      33.548  27.635  22.183  1.00  0.00     0.025 C 
ATOM     19  N   UNL A   1      32.595  26.408  24.208  1.00  0.00    -0.337 N 
ATOM     20  C   UNL A   1      33.829  28.848  23.040  1.00  0.00     0.004 C 
ATOM     21  C   UNL A   1      32.729  27.684  24.975  1.00  0.00     0.082 C 
ATOM     22  C   UNL A   1      32.747  28.935  24.094  1.00  0.00     0.025 C 
ATOM     23  C   UNL A   1      33.958  27.643  25.898  1.00  0.00     0.031 C 
ATOM     24  O   UNL A   1      31.303  25.670  25.932  1.00  0.00    -0.274 OA
ENDBRANCH   9  15
ENDBRANCH   5   8
ENDBRANCH   3   4
ENDBRANCH   2   3
ENDBRANCH   1   2
BRANCH   1  25
ATOM     25  C   UNL A   1      37.315  21.341  25.595  1.00  0.00     0.116 C 
BRANCH  25  26
ATOM     26  N   UNL A   1      38.383  20.356  25.723  1.00  0.00    -0.352 N 
ATOM     27  C   UNL A   1      39.671  20.528  26.187  1.00  0.00     0.251 C 
ATOM     28  H   UNL A   1      38.153  19.442  25.439  1.00  0.00     0.163 HD
ATOM     29  O   UNL A   1      40.486  19.629  26.108  1.00  0.00    -0.269 OA
BRANCH  27  30
ATOM     30  C   UNL A   1      40.044  21.844  26.750  1.00  0.00     0.039 A 
ATOM     31  C   UNL A   1      40.993  21.899  27.772  1.00  0.00     0.014 A 
ATOM     32  C   UNL A   1      39.518  23.015  26.199  1.00  0.00     0.014 A 
ATOM     33  C   UNL A   1      41.490  23.139  28.174  1.00  0.00     0.010 A 
ATOM     34  C   UNL A   1      40.078  24.238  26.538  1.00  0.00     0.010 A 
ATOM     35  C   UNL A   1      41.075  24.313  27.522  1.00  0.00    -0.014 A 
BRANCH  35  36
ATOM     36  C   UNL A   1      41.703  25.625  27.814  1.00  0.00     0.031 A 
ATOM     37  C   UNL A   1      40.922  26.695  28.525  1.00  0.00     0.074 A 
ATOM     38  C   UNL A   1      42.936  25.889  27.334  1.00  0.00     0.049 A 
ATOM     39  N   UNL A   1      41.272  27.923  28.800  1.00  0.00    -0.248 NA
ATOM     40  C   UNL A   1      39.556  26.350  28.954  1.00  0.00     0.031 C 
ATOM     41  C   UNL A   1      43.753  24.965  26.543  1.00  0.00     0.029 A 
ATOM     42  N   UNL A   1      43.704  27.024  27.412  1.00  0.00    -0.354 N 
ATOM     43  C   UNL A   1      40.165  28.508  29.399  1.00  0.00     0.074 A 
ATOM     44  C   UNL A   1      39.116  27.513  29.414  1.00  0.00     0.031 C 
ATOM     45  C   UNL A   1      44.907  25.566  26.215  1.00  0.00     0.029 A 
ATOM     46  C   UNL A   1      44.902  26.927  26.743  1.00  0.00     0.049 A 
ATOM     47  H   UNL A   1      43.424  27.831  27.900  1.00  0.00     0.167 HD
ATOM     48  C   UNL A   1      40.041  29.752  29.921  1.00  0.00     0.034 A 
ATOM     49  C   UNL A   1      45.884  27.833  26.568  1.00  0.00     0.034 A 
ATOM     50  C   UNL A   1      41.103  30.719  29.946  1.00  0.00     0.049 A 
ATOM     51  C   UNL A   1      45.739  29.191  27.198  1.00  0.00     0.074 A 
ATOM     52  C   UNL A   1      41.116  31.966  30.545  1.00  0.00     0.029 A 
ATOM     53  N   UNL A   1      42.337  30.554  29.339  1.00  0.00    -0.354 N 
ATOM     54  N   UNL A   1      44.751  29.664  27.918  1.00  0.00    -0.248 NA
ATOM     55  C   UNL A   1      46.855  30.130  27.017  1.00  0.00     0.031 C 
ATOM     56  C   UNL A   1      42.351  32.565  30.280  1.00  0.00     0.029 A 
ATOM     57  C   UNL A   1      43.115  31.682  29.534  1.00  0.00     0.049 A 
ATOM     58  H   UNL A   1      42.619  29.754  28.841  1.00  0.00     0.167 HD
ATOM     59  C   UNL A   1      45.136  30.944  28.300  1.00  0.00     0.074 A 
ATOM     60  C   UNL A   1      46.460  31.161  27.754  1.00  0.00     0.031 C 
ATOM     61  C   UNL A   1      44.449  31.864  29.021  1.00  0.00     0.034 A 
BRANCH  48  62
ATOM     62  C   UNL A   1      38.729  30.111  30.564  1.00  0.00     0.023 A 
ATOM     63  C   UNL A   1      38.483  29.726  31.899  1.00  0.00     0.012 A 
ATOM     64  C   UNL A   1      37.765  30.874  29.877  1.00  0.00     0.148 A 
ATOM     65  C   UNL A   1      37.285  30.065  32.528  1.00  0.00     0.002 A 
ATOM     66  C   UNL A   1      36.593  31.245  30.525  1.00  0.00     0.091 A 
ATOM     67  F   UNL A   1      38.006  31.210  28.602  1.00  0.00    -0.205 F 
ATOM     68  C   UNL A   1      36.347  30.833  31.845  1.00  0.00     0.022 A 
BRANCH  66  69
ATOM     69  S   UNL A   1      35.354  32.296  29.760  1.00  0.00     0.127 S 
ATOM     70  O   UNL A   1      34.420  32.504  30.865  1.00  0.00    -0.237 OA
ATOM     71  O   UNL A   1      36.136  33.478  29.393  1.00  0.00    -0.237 OA
ATOM     72  O   UNL A   1      34.829  31.542  28.631  1.00  0.00    -0.744 OA
ENDBRANCH  66  69
ENDBRANCH  48  62
BRANCH  49  73
ATOM     73  C   UNL A   1      47.117  27.461  25.818  1.00  0.00     0.023 A 
ATOM     74  C   UNL A   1      48.146  26.767  26.483  1.00  0.00     0.012 A 
ATOM     75  C   UNL A   1      47.264  27.759  24.449  1.00  0.00     0.148 A 
ATOM     76  C   UNL A   1      49.311  26.402  25.808  1.00  0.00     0.002 A 
ATOM     77  C   UNL A   1      48.403  27.343  23.769  1.00  0.00     0.091 A 
ATOM     78  F   UNL A   1      46.280  28.432  23.835  1.00  0.00    -0.205 F 
ATOM     79  C   UNL A   1      49.436  26.681  24.449  1.00  0.00     0.022 A 
BRANCH  77  80
ATOM     80  S   UNL A   1      48.583  27.535  21.991  1.00  0.00     0.127 S 
ATOM     81  O   UNL A   1      49.746  28.412  21.900  1.00  0.00    -0.237 OA
ATOM     82  O   UNL A   1      48.815  26.155  21.559  1.00  0.00    -0.237 OA
ATOM     83  O   UNL A   1      47.322  28.100  21.530  1.00  0.00    -0.744 OA
ENDBRANCH  77  80
ENDBRANCH  49  73
BRANCH  61  84
ATOM     84  C   UNL A   1      45.118  33.189  29.274  1.00  0.00     0.023 A 
ATOM     85  C   UNL A   1      45.939  33.349  30.408  1.00  0.00     0.012 A 
ATOM     86  C   UNL A   1      44.992  34.249  28.354  1.00  0.00     0.148 A 
ATOM     87  C   UNL A   1      46.602  34.553  30.638  1.00  0.00     0.002 A 
ATOM     88  C   UNL A   1      45.694  35.430  28.565  1.00  0.00     0.091 A 
ATOM     89  F   UNL A   1      44.192  34.083  27.292  1.00  0.00    -0.205 F 
ATOM     90  C   UNL A   1      46.489  35.588  29.713  1.00  0.00     0.022 A 
BRANCH  88  91
ATOM     91  S   UNL A   1      45.685  36.781  27.381  1.00  0.00     0.127 S 
ATOM     92  O   UNL A   1      44.253  37.039  27.236  1.00  0.00    -0.237 OA
ATOM     93  O   UNL A   1      46.424  37.823  28.094  1.00  0.00    -0.237 OA
ATOM     94  O   UNL A   1      46.353  36.274  26.190  1.00  0.00    -0.744 OA
ENDBRANCH  88  91
ENDBRANCH  61  84
ENDBRANCH  35  36
ENDBRANCH  27  30
ENDBRANCH  25  26
ENDBRANCH   1  25
TORSDOF 15
ENDMDL
MODEL 3
REMARK VINA RESULT:     -12.1      5.074     10.296
REMARK SMILES C[C@H]1CCC[C@H](C)N1C(=O)[C@H]1[C@@H](C(=O)NCCCCNC(=O)c2ccc(-c3c4nc(c(-c5cccc(S(=O)(=O)[O-])c5F)c5ccc([nH]5)c(-c5cccc(S(=O)(=O)[O-])c5F)c5nc(c(-c6cccc(S(=O)(=O)[O-])c6F)c6ccc3[nH]6)C=C5)C=C4)cc2)[C@H]2CC[C@@H]1O2
REMARK SMILES IDX 18 1 17 2 16 3 15 4 13 5 14 6 12 8 11 9 89 10 86 11 88 12
REMARK SMILES IDX 90 13 87 14 9 15 1 16 2 17 3 18 8 19 4 20 6 21 5 22 7 23
REMARK SMILES IDX 10 24 19 25 20 26 21 27 22 29 23 30 24 31 85 32 25 33 84 34
REMARK SMILES IDX 26 35 27 36 28 37 78 38 29 39 83 40 77 41 79 42 30 43 82 44
REMARK SMILES IDX 76 45 75 46 31 48 63 49 43 50 62 51 44 52 47 53 61 54 80 55
REMARK SMILES IDX 45 56 46 57 60 59 81 60 48 61 32 62 33 63 41 64 34 65 36 66
REMARK SMILES IDX 42 67 35 68 37 69 38 70 39 71 40 72 64 73 65 74 73 75 66 76
REMARK SMILES IDX 68 77 74 78 67 79 69 80 70 81 71 82 72 83 49 84 50 85 58 86
REMARK SMILES IDX 51 87 53 88 59 89 52 90 54 91 55 92 56 93 57 94
REMARK H PARENT 15 7 20 28 79 47 47 58
REMARK Flexibility Score: inf
ROOT
ATOM      1  C   UNL A   1      36.739  21.831  24.221  1.00  0.00     0.023 C 
ENDROOT
BRANCH   1   2
ATOM      2  C   UNL A   1      36.615  23.240  23.662  1.00  0.00     0.023 C 
BRANCH   2   3
ATOM      3  C   UNL A   1      35.484  24.091  24.243  1.00  0.00     0.116 C 
BRANCH   3   4
ATOM      4  N   UNL A   1      34.531  24.588  23.251  1.00  0.00    -0.356 N 
ATOM      5  C   UNL A   1      33.477  25.466  23.396  1.00  0.00     0.226 C 
ATOM      6  O   UNL A   1      32.929  25.915  22.393  1.00  0.00    -0.275 OA
ATOM      7  H   UNL A   1      34.661  24.242  22.338  1.00  0.00     0.163 HD
BRANCH   5   8
ATOM      8  C   UNL A   1      33.028  25.836  24.788  1.00  0.00     0.122 C 
ATOM      9  C   UNL A   1      32.423  24.769  25.713  1.00  0.00     0.122 C 
ATOM     10  C   UNL A   1      31.434  25.653  26.535  1.00  0.00     0.132 C 
ATOM     11  C   UNL A   1      32.033  26.989  24.919  1.00  0.00     0.132 C 
ATOM     12  C   UNL A   1      30.098  25.963  25.897  1.00  0.00     0.035 C 
ATOM     13  O   UNL A   1      32.019  26.997  26.384  1.00  0.00    -0.373 OA
ATOM     14  C   UNL A   1      30.542  26.736  24.655  1.00  0.00     0.035 C 
BRANCH   9  15
ATOM     15  C   UNL A   1      31.848  23.511  25.042  1.00  0.00     0.229 C 
ATOM     16  C   UNL A   1      33.877  22.507  27.269  1.00  0.00     0.031 C 
ATOM     17  C   UNL A   1      33.694  21.867  25.886  1.00  0.00     0.082 C 
ATOM     18  C   UNL A   1      33.831  20.347  26.152  1.00  0.00     0.025 C 
ATOM     19  N   UNL A   1      32.463  22.249  25.136  1.00  0.00    -0.337 N 
ATOM     20  C   UNL A   1      33.503  19.468  24.966  1.00  0.00     0.004 C 
ATOM     21  C   UNL A   1      32.024  21.291  24.074  1.00  0.00     0.082 C 
ATOM     22  C   UNL A   1      32.111  19.823  24.492  1.00  0.00     0.025 C 
ATOM     23  C   UNL A   1      32.790  21.537  22.764  1.00  0.00     0.031 C 
ATOM     24  O   UNL A   1      30.801  23.616  24.395  1.00  0.00    -0.274 OA
ENDBRANCH   9  15
ENDBRANCH   5   8
ENDBRANCH   3   4
ENDBRANCH   2   3
ENDBRANCH   1   2
BRANCH   1  25
ATOM     25  C   UNL A   1      37.257  21.761  25.649  1.00  0.00     0.116 C 
BRANCH  25  26
ATOM     26  N   UNL A   1      38.380  20.844  25.807  1.00  0.00    -0.352 N 
ATOM     27  C   UNL A   1      39.651  21.102  26.276  1.00  0.00     0.251 C 
ATOM     28  H   UNL A   1      38.207  19.911  25.543  1.00  0.00     0.163 HD
ATOM     29  O   UNL A   1      40.519  20.251  26.224  1.00  0.00    -0.269 OA
BRANCH  27  30
ATOM     30  C   UNL A   1      39.942  22.449  26.811  1.00  0.00     0.039 A 
ATOM     31  C   UNL A   1      40.873  22.583  27.843  1.00  0.00     0.014 A 
ATOM     32  C   UNL A   1      39.359  23.575  26.224  1.00  0.00     0.014 A 
ATOM     33  C   UNL A   1      41.293  23.859  28.221  1.00  0.00     0.010 A 
ATOM     34  C   UNL A   1      39.845  24.836  26.541  1.00  0.00     0.010 A 
ATOM     35  C   UNL A   1      40.822  24.991  27.534  1.00  0.00    -0.014 A 
BRANCH  35  36
ATOM     36  C   UNL A   1      41.371  26.343  27.801  1.00  0.00     0.031 A 
ATOM     37  C   UNL A   1      42.779  26.680  27.395  1.00  0.00     0.074 A 
ATOM     38  C   UNL A   1      40.640  27.224  28.514  1.00  0.00     0.049 A 
ATOM     39  N   UNL A   1      43.456  27.777  27.610  1.00  0.00    -0.248 NA
ATOM     40  C   UNL A   1      43.537  25.638  26.683  1.00  0.00     0.031 C 
ATOM     41  C   UNL A   1      39.299  26.975  29.049  1.00  0.00     0.029 A 
ATOM     42  N   UNL A   1      40.933  28.496  28.939  1.00  0.00    -0.354 N 
ATOM     43  C   UNL A   1      44.725  27.546  27.096  1.00  0.00     0.074 A 
ATOM     44  C   UNL A   1      44.738  26.191  26.591  1.00  0.00     0.031 C 
ATOM     45  C   UNL A   1      38.885  28.059  29.725  1.00  0.00     0.029 A 
ATOM     46  C   UNL A   1      39.939  29.068  29.699  1.00  0.00     0.049 A 
ATOM     47  H   UNL A   1      41.776  28.955  28.722  1.00  0.00     0.167 HD
ATOM     48  C   UNL A   1      45.777  28.396  27.019  1.00  0.00     0.034 A 
ATOM     49  C   UNL A   1      39.884  30.266  30.312  1.00  0.00     0.034 A 
ATOM     50  C   UNL A   1      45.741  29.757  27.478  1.00  0.00     0.049 A 
ATOM     51  C   UNL A   1      41.049  31.207  30.171  1.00  0.00     0.074 A 
ATOM     52  C   UNL A   1      46.714  30.733  27.351  1.00  0.00     0.029 A 
ATOM     53  N   UNL A   1      44.684  30.334  28.163  1.00  0.00    -0.354 N 
ATOM     54  N   UNL A   1      42.175  31.035  29.522  1.00  0.00    -0.248 NA
ATOM     55  C   UNL A   1      40.924  32.521  30.820  1.00  0.00     0.031 C 
ATOM     56  C   UNL A   1      46.253  31.893  27.978  1.00  0.00     0.029 A 
ATOM     57  C   UNL A   1      44.984  31.647  28.479  1.00  0.00     0.049 A 
ATOM     58  H   UNL A   1      43.843  29.876  28.391  1.00  0.00     0.167 HD
ATOM     59  C   UNL A   1      42.881  32.223  29.661  1.00  0.00     0.074 A 
ATOM     60  C   UNL A   1      42.043  33.119  30.432  1.00  0.00     0.031 C 
ATOM     61  C   UNL A   1      44.120  32.539  29.209  1.00  0.00     0.034 A 
BRANCH  48  62
ATOM     62  C   UNL A   1      47.032  27.895  26.357  1.00  0.00     0.023 A 
ATOM     63  C   UNL A   1      48.013  27.244  27.133  1.00  0.00     0.012 A 
ATOM     64  C   UNL A   1      47.219  28.015  24.967  1.00  0.00     0.148 A 
ATOM     65  C   UNL A   1      49.176  26.749  26.543  1.00  0.00     0.002 A 
ATOM     66  C   UNL A   1      48.360  27.481  24.379  1.00  0.00     0.091 A 
ATOM     67  F   UNL A   1      46.288  28.658  24.249  1.00  0.00    -0.205 F 
ATOM     68  C   UNL A   1      49.343  26.858  25.165  1.00  0.00     0.022 A 
BRANCH  66  69
ATOM     69  S   UNL A   1      48.636  27.502  22.604  1.00  0.00     0.127 S 
ATOM     70  O   UNL A   1      49.939  28.159  22.516  1.00  0.00    -0.237 OA
ATOM     71  O   UNL A   1      48.650  26.075  22.278  1.00  0.00    -0.237 OA
ATOM     72  O   UNL A   1      47.521  28.244  22.032  1.00  0.00    -0.744 OA
ENDBRANCH  66  69
ENDBRANCH  48  62
BRANCH  49  73
ATOM     73  C   UNL A   1      38.658  30.667  31.058  1.00  0.00     0.023 A 
ATOM     74  C   UNL A   1      38.583  30.424  32.443  1.00  0.00     0.012 A 
ATOM     75  C   UNL A   1      37.583  31.313  30.416  1.00  0.00     0.148 A 
ATOM     76  C   UNL A   1      37.449  30.789  33.170  1.00  0.00     0.002 A 
ATOM     77  C   UNL A   1      36.481  31.725  31.157  1.00  0.00     0.091 A 
ATOM     78  F   UNL A   1      37.666  31.524  29.095  1.00  0.00    -0.205 F 
ATOM     79  C   UNL A   1      36.403  31.448  32.530  1.00  0.00     0.022 A 
BRANCH  77  80
ATOM     80  S   UNL A   1      35.155  32.703  30.441  1.00  0.00     0.127 S 
ATOM     81  O   UNL A   1      34.724  31.859  29.331  1.00  0.00    -0.237 OA
ATOM     82  O   UNL A   1      34.207  32.791  31.554  1.00  0.00    -0.237 OA
ATOM     83  O   UNL A   1      35.763  33.976  30.074  1.00  0.00    -0.744 OA
ENDBRANCH  77  80
ENDBRANCH  49  73
BRANCH  61  84
ATOM     84  C   UNL A   1      44.644  33.915  29.523  1.00  0.00     0.023 A 
ATOM     85  C   UNL A   1      45.416  34.118  30.684  1.00  0.00     0.012 A 
ATOM     86  C   UNL A   1      44.436  34.988  28.633  1.00  0.00     0.148 A 
ATOM     87  C   UNL A   1      45.947  35.374  30.972  1.00  0.00     0.002 A 
ATOM     88  C   UNL A   1      45.008  36.225  28.902  1.00  0.00     0.091 A 
ATOM     89  F   UNL A   1      43.684  34.779  27.544  1.00  0.00    -0.205 F 
ATOM     90  C   UNL A   1      45.754  36.423  30.077  1.00  0.00     0.022 A 
BRANCH  88  91
ATOM     91  S   UNL A   1      44.893  37.608  27.762  1.00  0.00     0.127 S 
ATOM     92  O   UNL A   1      45.166  38.744  28.642  1.00  0.00    -0.237 OA
ATOM     93  O   UNL A   1      45.958  37.310  26.803  1.00  0.00    -0.237 OA
ATOM     94  O   UNL A   1      43.548  37.558  27.205  1.00  0.00    -0.744 OA
ENDBRANCH  88  91
ENDBRANCH  61  84
ENDBRANCH  35  36
ENDBRANCH  27  30
ENDBRANCH  25  26
ENDBRANCH   1  25
TORSDOF 15
ENDMDL
