MODEL 1
REMARK VINA RESULT:     -11.3      0.000      0.000
REMARK SMILES CCOc1ccccc1[C@H](C(=O)NCCCCNC(=O)c1ccc(-c2c3nc(c(-c4cccc(S(=O)(=O)[O-])c4F)c4ccc([nH]4)c(-c4cccc(S(=O)(=O)[O-])c4F)c4nc(c(-c5cccc(S(=O)(=O)[O-])c5F)c5ccc2[nH]5)C=C4)C=C3)cc1)[NH+]1CCC([NH+]2CCSCC2)CC1
REMARK SMILES IDX 15 1 14 2 13 3 11 4 12 5 10 7 9 8 4 9 5 10 6 11 8 12 7 13
REMARK SMILES IDX 3 14 2 15 1 16 84 17 85 18 95 19 86 21 94 22 87 23 88 24
REMARK SMILES IDX 89 25 93 26 90 28 92 29 91 30 16 31 17 32 18 33 19 34 20 36
REMARK SMILES IDX 21 37 22 38 83 39 23 40 82 41 24 42 25 43 26 44 76 45 27 46
REMARK SMILES IDX 81 47 75 48 77 49 28 50 80 51 74 52 73 53 29 55 61 56 41 57
REMARK SMILES IDX 60 58 42 59 45 60 59 61 78 62 43 63 44 64 58 66 79 67 46 68
REMARK SMILES IDX 30 69 31 70 39 71 32 72 34 73 40 74 33 75 35 76 36 77 37 78
REMARK SMILES IDX 38 79 62 80 63 81 71 82 64 83 66 84 72 85 65 86 67 87 68 88
REMARK SMILES IDX 69 89 70 90 47 91 48 92 56 93 49 94 51 95 57 96 50 97 52 98
REMARK SMILES IDX 53 99 54 100 55 101
REMARK H PARENT 13 6 84 20 88 27 18 35 77 54 45 65
REMARK Flexibility Score: inf
ROOT
ATOM      1  C   UNL A   1      34.061  28.819  24.819  1.00  0.00     0.023 C 
ENDROOT
BRANCH   1   2
ATOM      2  C   UNL A   1      32.900  28.606  23.850  1.00  0.00     0.116 C 
BRANCH   2   3
ATOM      3  N   UNL A   1      33.303  27.803  22.713  1.00  0.00    -0.351 N 
ATOM      4  C   UNL A   1      33.274  26.450  22.512  1.00  0.00     0.283 C 
ATOM      5  O   UNL A   1      33.738  26.097  21.423  1.00  0.00    -0.268 OA
ATOM      6  H   UNL A   1      33.659  28.320  21.954  1.00  0.00     0.163 HD
BRANCH   4   7
ATOM      7  C   UNL A   1      32.809  25.463  23.643  1.00  0.00     0.309 C 
BRANCH   7   8
ATOM      8  C   UNL A   1      31.360  25.663  24.114  1.00  0.00     0.061 A 
ATOM      9  C   UNL A   1      30.961  25.506  25.457  1.00  0.00     0.128 A 
ATOM     10  C   UNL A   1      29.657  25.810  25.849  1.00  0.00     0.047 A 
ATOM     11  C   UNL A   1      28.740  26.292  24.911  1.00  0.00     0.004 A 
ATOM     12  C   UNL A   1      30.419  26.150  23.184  1.00  0.00     0.014 A 
ATOM     13  C   UNL A   1      29.118  26.458  23.580  1.00  0.00     0.001 A 
BRANCH   9  14
ATOM     14  O   UNL A   1      31.797  24.860  26.323  1.00  0.00    -0.493 OA
BRANCH  14  15
ATOM     15  C   UNL A   1      31.303  23.663  26.921  1.00  0.00     0.226 C 
ATOM     16  C   UNL A   1      32.505  22.816  27.323  1.00  0.00     0.049 C 
ENDBRANCH  14  15
ENDBRANCH   9  14
ENDBRANCH   7   8
BRANCH   7  17
ATOM     17  N   UNL A   1      33.130  23.983  23.462  1.00  0.00    -0.320 N 
ATOM     18  C   UNL A   1      34.088  23.440  24.431  1.00  0.00     0.269 C 
ATOM     19  C   UNL A   1      31.961  23.101  23.330  1.00  0.00     0.269 C 
ATOM     20  H   UNL A   1      33.594  23.982  22.555  1.00  0.00     0.349 HD
ATOM     21  C   UNL A   1      34.521  22.012  24.123  1.00  0.00     0.126 C 
ATOM     22  C   UNL A   1      32.349  21.664  22.953  1.00  0.00     0.126 C 
ATOM     23  C   UNL A   1      33.315  21.075  24.000  1.00  0.00     0.195 C 
BRANCH  23  24
ATOM     24  N   UNL A   1      33.660  19.648  23.745  1.00  0.00    -0.331 N 
ATOM     25  C   UNL A   1      32.434  18.845  23.522  1.00  0.00     0.273 C 
ATOM     26  C   UNL A   1      34.505  19.055  24.797  1.00  0.00     0.273 C 
ATOM     27  H   UNL A   1      34.221  19.633  22.893  1.00  0.00     0.348 HD
ATOM     28  C   UNL A   1      32.679  17.392  23.091  1.00  0.00     0.131 C 
ATOM     29  C   UNL A   1      34.997  17.637  24.487  1.00  0.00     0.131 C 
ATOM     30  S   UNL A   1      33.624  16.457  24.331  1.00  0.00    -0.150 SA
ENDBRANCH  23  24
ENDBRANCH   7  17
ENDBRANCH   4   7
ENDBRANCH   2   3
ENDBRANCH   1   2
BRANCH   1  31
ATOM     31  C   UNL A   1      33.992  27.975  26.098  1.00  0.00     0.023 C 
BRANCH  31  32
ATOM     32  C   UNL A   1      33.361  28.671  27.302  1.00  0.00     0.116 C 
BRANCH  32  33
ATOM     33  N   UNL A   1      33.541  30.117  27.250  1.00  0.00    -0.352 N 
ATOM     34  C   UNL A   1      34.580  30.875  27.733  1.00  0.00     0.251 C 
ATOM     35  H   UNL A   1      32.818  30.620  26.808  1.00  0.00     0.163 HD
ATOM     36  O   UNL A   1      34.474  32.097  27.813  1.00  0.00    -0.269 OA
BRANCH  34  37
ATOM     37  C   UNL A   1      35.826  30.208  28.159  1.00  0.00     0.039 A 
ATOM     38  C   UNL A   1      36.926  30.185  27.298  1.00  0.00     0.014 A 
ATOM     39  C   UNL A   1      35.902  29.616  29.422  1.00  0.00     0.014 A 
ATOM     40  C   UNL A   1      38.131  29.625  27.733  1.00  0.00     0.010 A 
ATOM     41  C   UNL A   1      37.119  29.122  29.877  1.00  0.00     0.010 A 
ATOM     42  C   UNL A   1      38.245  29.120  29.038  1.00  0.00    -0.014 A 
BRANCH  42  43
ATOM     43  C   UNL A   1      39.525  28.582  29.566  1.00  0.00     0.031 A 
ATOM     44  C   UNL A   1      40.249  29.321  30.659  1.00  0.00     0.074 A 
ATOM     45  C   UNL A   1      40.095  27.510  28.980  1.00  0.00     0.049 A 
ATOM     46  N   UNL A   1      41.443  29.112  31.146  1.00  0.00    -0.248 NA
ATOM     47  C   UNL A   1      39.546  30.466  31.260  1.00  0.00     0.031 C 
ATOM     48  C   UNL A   1      39.520  26.746  27.870  1.00  0.00     0.029 A 
ATOM     49  N   UNL A   1      41.308  26.905  29.205  1.00  0.00    -0.354 N 
ATOM     50  C   UNL A   1      41.656  30.126  32.073  1.00  0.00     0.074 A 
ATOM     51  C   UNL A   1      40.476  30.962  32.064  1.00  0.00     0.031 C 
ATOM     52  C   UNL A   1      40.383  25.783  27.506  1.00  0.00     0.029 A 
ATOM     53  C   UNL A   1      41.587  25.886  28.325  1.00  0.00     0.049 A 
ATOM     54  H   UNL A   1      41.918  27.175  29.929  1.00  0.00     0.167 HD
ATOM     55  C   UNL A   1      42.727  30.328  32.876  1.00  0.00     0.034 A 
ATOM     56  C   UNL A   1      42.696  25.134  28.177  1.00  0.00     0.034 A 
ATOM     57  C   UNL A   1      43.877  29.466  32.912  1.00  0.00     0.049 A 
ATOM     58  C   UNL A   1      43.862  25.360  29.103  1.00  0.00     0.074 A 
ATOM     59  C   UNL A   1      44.975  29.535  33.749  1.00  0.00     0.029 A 
ATOM     60  N   UNL A   1      44.078  28.381  32.072  1.00  0.00    -0.354 N 
ATOM     61  N   UNL A   1      43.988  26.237  30.069  1.00  0.00    -0.248 NA
ATOM     62  C   UNL A   1      45.026  24.476  28.941  1.00  0.00     0.031 C 
ATOM     63  C   UNL A   1      45.854  28.505  33.399  1.00  0.00     0.029 A 
ATOM     64  C   UNL A   1      45.287  27.776  32.368  1.00  0.00     0.049 A 
ATOM     65  H   UNL A   1      43.454  28.086  31.371  1.00  0.00     0.167 HD
ATOM     66  C   UNL A   1      45.220  25.981  30.660  1.00  0.00     0.074 A 
ATOM     67  C   UNL A   1      45.801  24.862  29.946  1.00  0.00     0.031 C 
ATOM     68  C   UNL A   1      45.819  26.619  31.694  1.00  0.00     0.034 A 
BRANCH  55  69
ATOM     69  C   UNL A   1      42.690  31.505  33.815  1.00  0.00     0.023 A 
ATOM     70  C   UNL A   1      43.159  32.760  33.378  1.00  0.00     0.012 A 
ATOM     71  C   UNL A   1      42.135  31.386  35.105  1.00  0.00     0.148 A 
ATOM     72  C   UNL A   1      43.112  33.870  34.221  1.00  0.00     0.002 A 
ATOM     73  C   UNL A   1      42.048  32.507  35.922  1.00  0.00     0.091 A 
ATOM     74  F   UNL A   1      41.712  30.180  35.510  1.00  0.00    -0.205 F 
ATOM     75  C   UNL A   1      42.547  33.745  35.488  1.00  0.00     0.022 A 
BRANCH  73  76
ATOM     76  S   UNL A   1      41.263  32.468  37.538  1.00  0.00     0.127 S 
ATOM     77  O   UNL A   1      42.133  31.543  38.265  1.00  0.00    -0.237 OA
ATOM     78  O   UNL A   1      41.367  33.864  37.964  1.00  0.00    -0.237 OA
ATOM     79  O   UNL A   1      39.903  32.001  37.313  1.00  0.00    -0.744 OA
ENDBRANCH  73  76
ENDBRANCH  55  69
BRANCH  56  80
ATOM     80  C   UNL A   1      42.736  24.057  27.147  1.00  0.00     0.023 A 
ATOM     81  C   UNL A   1      43.421  24.285  25.937  1.00  0.00     0.012 A 
ATOM     82  C   UNL A   1      42.126  22.807  27.365  1.00  0.00     0.148 A 
ATOM     83  C   UNL A   1      43.470  23.301  24.950  1.00  0.00     0.002 A 
ATOM     84  C   UNL A   1      42.226  21.811  26.399  1.00  0.00     0.091 A 
ATOM     85  F   UNL A   1      41.471  22.612  28.518  1.00  0.00    -0.205 F 
ATOM     86  C   UNL A   1      42.881  22.062  25.184  1.00  0.00     0.022 A 
BRANCH  84  87
ATOM     87  S   UNL A   1      41.610  20.145  26.666  1.00  0.00     0.127 S 
ATOM     88  O   UNL A   1      41.974  19.487  25.414  1.00  0.00    -0.237 OA
ATOM     89  O   UNL A   1      42.385  19.721  27.834  1.00  0.00    -0.237 OA
ATOM     90  O   UNL A   1      40.182  20.287  26.914  1.00  0.00    -0.744 OA
ENDBRANCH  84  87
ENDBRANCH  56  80
BRANCH  68  91
ATOM     91  C   UNL A   1      47.146  26.098  32.177  1.00  0.00     0.023 A 
ATOM     92  C   UNL A   1      47.200  25.211  33.270  1.00  0.00     0.012 A 
ATOM     93  C   UNL A   1      48.326  26.399  31.467  1.00  0.00     0.148 A 
ATOM     94  C   UNL A   1      48.413  24.645  33.659  1.00  0.00     0.002 A 
ATOM     95  C   UNL A   1      49.521  25.793  31.830  1.00  0.00     0.091 A 
ATOM     96  F   UNL A   1      48.252  27.259  30.441  1.00  0.00    -0.205 F 
ATOM     97  C   UNL A   1      49.569  24.923  32.932  1.00  0.00     0.022 A 
BRANCH  95  98
ATOM     98  S   UNL A   1      51.037  26.009  30.891  1.00  0.00     0.127 S 
ATOM     99  O   UNL A   1      51.974  25.175  31.644  1.00  0.00    -0.237 OA
ATOM    100  O   UNL A   1      50.666  25.477  29.579  1.00  0.00    -0.237 OA
ATOM    101  O   UNL A   1      51.324  27.436  30.908  1.00  0.00    -0.744 OA
ENDBRANCH  95  98
ENDBRANCH  68  91
ENDBRANCH  42  43
ENDBRANCH  34  37
ENDBRANCH  32  33
ENDBRANCH  31  32
ENDBRANCH   1  31
TORSDOF 19
ENDMDL
MODEL 2
REMARK VINA RESULT:     -10.8      3.163      4.554
REMARK SMILES CCOc1ccccc1[C@H](C(=O)NCCCCNC(=O)c1ccc(-c2c3nc(c(-c4cccc(S(=O)(=O)[O-])c4F)c4ccc([nH]4)c(-c4cccc(S(=O)(=O)[O-])c4F)c4nc(c(-c5cccc(S(=O)(=O)[O-])c5F)c5ccc2[nH]5)C=C4)C=C3)cc1)[NH+]1CCC([NH+]2CCSCC2)CC1
REMARK SMILES IDX 15 1 14 2 13 3 11 4 12 5 10 7 9 8 4 9 5 10 6 11 8 12 7 13
REMARK SMILES IDX 3 14 2 15 1 16 84 17 85 18 95 19 86 21 94 22 87 23 88 24
REMARK SMILES IDX 89 25 93 26 90 28 92 29 91 30 16 31 17 32 18 33 19 34 20 36
REMARK SMILES IDX 21 37 22 38 83 39 23 40 82 41 24 42 25 43 26 44 76 45 27 46
REMARK SMILES IDX 81 47 75 48 77 49 28 50 80 51 74 52 73 53 29 55 61 56 41 57
REMARK SMILES IDX 60 58 42 59 45 60 59 61 78 62 43 63 44 64 58 66 79 67 46 68
REMARK SMILES IDX 30 69 31 70 39 71 32 72 34 73 40 74 33 75 35 76 36 77 37 78
REMARK SMILES IDX 38 79 62 80 63 81 71 82 64 83 66 84 72 85 65 86 67 87 68 88
REMARK SMILES IDX 69 89 70 90 47 91 48 92 56 93 49 94 51 95 57 96 50 97 52 98
REMARK SMILES IDX 53 99 54 100 55 101
REMARK H PARENT 13 6 84 20 88 27 18 35 77 54 45 65
REMARK Flexibility Score: inf
ROOT
ATOM      1  C   UNL A   1      33.359  27.595  23.843  1.00  0.00     0.023 C 
ENDROOT
BRANCH   1   2
ATOM      2  C   UNL A   1      32.241  27.174  22.893  1.00  0.00     0.116 C 
BRANCH   2   3
ATOM      3  N   UNL A   1      32.577  25.951  22.191  1.00  0.00    -0.351 N 
ATOM      4  C   UNL A   1      33.020  24.742  22.655  1.00  0.00     0.283 C 
ATOM      5  O   UNL A   1      33.249  23.920  21.762  1.00  0.00    -0.268 OA
ATOM      6  H   UNL A   1      32.468  25.998  21.214  1.00  0.00     0.163 HD
BRANCH   4   7
ATOM      7  C   UNL A   1      33.322  24.509  24.178  1.00  0.00     0.309 C 
BRANCH   7   8
ATOM      8  C   UNL A   1      32.142  23.951  24.990  1.00  0.00     0.061 A 
ATOM      9  C   UNL A   1      31.852  22.575  25.076  1.00  0.00     0.128 A 
ATOM     10  C   UNL A   1      30.838  22.115  25.919  1.00  0.00     0.047 A 
ATOM     11  C   UNL A   1      30.115  23.021  26.699  1.00  0.00     0.004 A 
ATOM     12  C   UNL A   1      31.400  24.848  25.787  1.00  0.00     0.014 A 
ATOM     13  C   UNL A   1      30.391  24.385  26.631  1.00  0.00     0.001 A 
BRANCH   9  14
ATOM     14  O   UNL A   1      32.428  21.721  24.179  1.00  0.00    -0.493 OA
BRANCH  14  15
ATOM     15  C   UNL A   1      32.841  20.449  24.676  1.00  0.00     0.226 C 
ATOM     16  C   UNL A   1      33.895  20.693  25.751  1.00  0.00     0.049 C 
ENDBRANCH  14  15
ENDBRANCH   9  14
ENDBRANCH   7   8
BRANCH   7  17
ATOM     17  N   UNL A   1      34.623  23.796  24.538  1.00  0.00    -0.320 N 
ATOM     18  C   UNL A   1      35.572  23.656  23.428  1.00  0.00     0.269 C 
ATOM     19  C   UNL A   1      35.296  24.296  25.745  1.00  0.00     0.269 C 
ATOM     20  H   UNL A   1      34.289  22.859  24.762  1.00  0.00     0.349 HD
ATOM     21  C   UNL A   1      36.781  22.793  23.768  1.00  0.00     0.126 C 
ATOM     22  C   UNL A   1      36.482  23.414  26.163  1.00  0.00     0.126 C 
ATOM     23  C   UNL A   1      37.506  23.310  25.015  1.00  0.00     0.195 C 
BRANCH  23  24
ATOM     24  N   UNL A   1      38.729  22.544  25.385  1.00  0.00    -0.331 N 
ATOM     25  C   UNL A   1      38.419  21.102  25.532  1.00  0.00     0.273 C 
ATOM     26  C   UNL A   1      39.406  23.071  26.585  1.00  0.00     0.273 C 
ATOM     27  H   UNL A   1      39.389  22.661  24.616  1.00  0.00     0.348 HD
ATOM     28  C   UNL A   1      39.638  20.195  25.754  1.00  0.00     0.131 C 
ATOM     29  C   UNL A   1      40.745  22.395  26.901  1.00  0.00     0.131 C 
ATOM     30  S   UNL A   1      40.548  20.626  27.268  1.00  0.00    -0.150 SA
ENDBRANCH  23  24
ENDBRANCH   7  17
ENDBRANCH   4   7
ENDBRANCH   2   3
ENDBRANCH   1   2
BRANCH   1  31
ATOM     31  C   UNL A   1      32.893  28.395  25.066  1.00  0.00     0.023 C 
BRANCH  31  32
ATOM     32  C   UNL A   1      34.005  29.096  25.845  1.00  0.00     0.116 C 
BRANCH  32  33
ATOM     33  N   UNL A   1      33.631  30.454  26.221  1.00  0.00    -0.352 N 
ATOM     34  C   UNL A   1      34.093  31.219  27.265  1.00  0.00     0.251 C 
ATOM     35  H   UNL A   1      32.953  30.882  25.649  1.00  0.00     0.163 HD
ATOM     36  O   UNL A   1      33.512  32.255  27.582  1.00  0.00    -0.269 OA
BRANCH  34  37
ATOM     37  C   UNL A   1      35.293  30.782  28.006  1.00  0.00     0.039 A 
ATOM     38  C   UNL A   1      36.447  31.570  27.977  1.00  0.00     0.014 A 
ATOM     39  C   UNL A   1      35.264  29.594  28.741  1.00  0.00     0.014 A 
ATOM     40  C   UNL A   1      37.554  31.199  28.745  1.00  0.00     0.010 A 
ATOM     41  C   UNL A   1      36.341  29.264  29.555  1.00  0.00     0.010 A 
ATOM     42  C   UNL A   1      37.497  30.061  29.565  1.00  0.00    -0.014 A 
BRANCH  42  43
ATOM     43  C   UNL A   1      38.623  29.669  30.451  1.00  0.00     0.031 A 
ATOM     44  C   UNL A   1      38.772  30.322  31.798  1.00  0.00     0.074 A 
ATOM     45  C   UNL A   1      39.575  28.831  29.995  1.00  0.00     0.049 A 
ATOM     46  N   UNL A   1      39.760  30.243  32.649  1.00  0.00    -0.248 NA
ATOM     47  C   UNL A   1      37.677  31.207  32.229  1.00  0.00     0.031 C 
ATOM     48  C   UNL A   1      39.574  28.182  28.682  1.00  0.00     0.029 A 
ATOM     49  N   UNL A   1      40.752  28.415  30.568  1.00  0.00    -0.354 N 
ATOM     50  C   UNL A   1      39.431  31.102  33.691  1.00  0.00     0.074 A 
ATOM     51  C   UNL A   1      38.162  31.710  33.355  1.00  0.00     0.031 C 
ATOM     52  C   UNL A   1      40.699  27.461  28.546  1.00  0.00     0.029 A 
ATOM     53  C   UNL A   1      41.520  27.628  29.742  1.00  0.00     0.049 A 
ATOM     54  H   UNL A   1      41.020  28.658  31.484  1.00  0.00     0.167 HD
ATOM     55  C   UNL A   1      40.113  31.345  34.836  1.00  0.00     0.034 A 
ATOM     56  C   UNL A   1      42.755  27.116  29.917  1.00  0.00     0.034 A 
ATOM     57  C   UNL A   1      41.350  30.702  35.185  1.00  0.00     0.049 A 
ATOM     58  C   UNL A   1      43.478  27.378  31.212  1.00  0.00     0.074 A 
ATOM     59  C   UNL A   1      42.075  30.815  36.357  1.00  0.00     0.029 A 
ATOM     60  N   UNL A   1      42.048  29.831  34.362  1.00  0.00    -0.354 N 
ATOM     61  N   UNL A   1      43.088  28.083  32.246  1.00  0.00    -0.248 NA
ATOM     62  C   UNL A   1      44.798  26.751  31.378  1.00  0.00     0.031 C 
ATOM     63  C   UNL A   1      43.226  30.029  36.234  1.00  0.00     0.029 A 
ATOM     64  C   UNL A   1      43.198  29.402  34.999  1.00  0.00     0.049 A 
ATOM     65  H   UNL A   1      41.765  29.558  33.460  1.00  0.00     0.167 HD
ATOM     66  C   UNL A   1      44.087  27.946  33.202  1.00  0.00     0.074 A 
ATOM     67  C   UNL A   1      45.101  27.085  32.626  1.00  0.00     0.031 C 
ATOM     68  C   UNL A   1      44.163  28.490  34.440  1.00  0.00     0.034 A 
BRANCH  55  69
ATOM     69  C   UNL A   1      39.514  32.317  35.818  1.00  0.00     0.023 A 
ATOM     70  C   UNL A   1      38.503  31.884  36.699  1.00  0.00     0.012 A 
ATOM     71  C   UNL A   1      39.992  33.639  35.913  1.00  0.00     0.148 A 
ATOM     72  C   UNL A   1      37.950  32.758  37.633  1.00  0.00     0.002 A 
ATOM     73  C   UNL A   1      39.469  34.492  36.879  1.00  0.00     0.091 A 
ATOM     74  F   UNL A   1      40.940  34.040  35.055  1.00  0.00    -0.205 F 
ATOM     75  C   UNL A   1      38.441  34.058  37.730  1.00  0.00     0.022 A 
BRANCH  73  76
ATOM     76  S   UNL A   1      40.091  36.157  37.138  1.00  0.00     0.127 S 
ATOM     77  O   UNL A   1      39.740  36.803  35.872  1.00  0.00    -0.237 OA
ATOM     78  O   UNL A   1      39.303  36.604  38.288  1.00  0.00    -0.237 OA
ATOM     79  O   UNL A   1      41.517  36.019  37.395  1.00  0.00    -0.744 OA
ENDBRANCH  73  76
ENDBRANCH  55  69
BRANCH  56  80
ATOM     80  C   UNL A   1      43.364  26.258  28.861  1.00  0.00     0.023 A 
ATOM     81  C   UNL A   1      43.073  24.879  28.840  1.00  0.00     0.012 A 
ATOM     82  C   UNL A   1      44.204  26.797  27.868  1.00  0.00     0.148 A 
ATOM     83  C   UNL A   1      43.633  24.049  27.870  1.00  0.00     0.002 A 
ATOM     84  C   UNL A   1      44.715  25.973  26.872  1.00  0.00     0.091 A 
ATOM     85  F   UNL A   1      44.477  28.109  27.911  1.00  0.00    -0.205 F 
ATOM     86  C   UNL A   1      44.446  24.596  26.881  1.00  0.00     0.022 A 
BRANCH  84  87
ATOM     87  S   UNL A   1      45.664  26.610  25.486  1.00  0.00     0.127 S 
ATOM     88  O   UNL A   1      44.756  27.614  24.939  1.00  0.00    -0.237 OA
ATOM     89  O   UNL A   1      46.849  27.148  26.155  1.00  0.00    -0.237 OA
ATOM     90  O   UNL A   1      45.929  25.462  24.629  1.00  0.00    -0.744 OA
ENDBRANCH  84  87
ENDBRANCH  56  80
BRANCH  68  91
ATOM     91  C   UNL A   1      45.343  28.131  35.302  1.00  0.00     0.023 A 
ATOM     92  C   UNL A   1      46.486  28.954  35.312  1.00  0.00     0.012 A 
ATOM     93  C   UNL A   1      45.266  27.040  36.191  1.00  0.00     0.148 A 
ATOM     94  C   UNL A   1      47.542  28.685  36.182  1.00  0.00     0.002 A 
ATOM     95  C   UNL A   1      46.299  26.808  37.089  1.00  0.00     0.091 A 
ATOM     96  F   UNL A   1      44.175  26.261  36.151  1.00  0.00    -0.205 F 
ATOM     97  C   UNL A   1      47.443  27.624  37.080  1.00  0.00     0.022 A 
BRANCH  95  98
ATOM     98  S   UNL A   1      46.215  25.531  38.350  1.00  0.00     0.127 S 
ATOM     99  O   UNL A   1      47.512  25.679  39.009  1.00  0.00    -0.237 OA
ATOM    100  O   UNL A   1      45.069  25.964  39.151  1.00  0.00    -0.237 OA
ATOM    101  O   UNL A   1      46.018  24.275  37.640  1.00  0.00    -0.744 OA
ENDBRANCH  95  98
ENDBRANCH  68  91
ENDBRANCH  42  43
ENDBRANCH  34  37
ENDBRANCH  32  33
ENDBRANCH  31  32
ENDBRANCH   1  31
TORSDOF 19
ENDMDL
MODEL 3
REMARK VINA RESULT:     -10.5      4.653      8.495
REMARK SMILES CCOc1ccccc1[C@H](C(=O)NCCCCNC(=O)c1ccc(-c2c3nc(c(-c4cccc(S(=O)(=O)[O-])c4F)c4ccc([nH]4)c(-c4cccc(S(=O)(=O)[O-])c4F)c4nc(c(-c5cccc(S(=O)(=O)[O-])c5F)c5ccc2[nH]5)C=C4)C=C3)cc1)[NH+]1CCC([NH+]2CCSCC2)CC1
REMARK SMILES IDX 15 1 14 2 13 3 11 4 12 5 10 7 9 8 4 9 5 10 6 11 8 12 7 13
REMARK SMILES IDX 3 14 2 15 1 16 84 17 85 18 95 19 86 21 94 22 87 23 88 24
REMARK SMILES IDX 89 25 93 26 90 28 92 29 91 30 16 31 17 32 18 33 19 34 20 36
REMARK SMILES IDX 21 37 22 38 83 39 23 40 82 41 24 42 25 43 26 44 76 45 27 46
REMARK SMILES IDX 81 47 75 48 77 49 28 50 80 51 74 52 73 53 29 55 61 56 41 57
REMARK SMILES IDX 60 58 42 59 45 60 59 61 78 62 43 63 44 64 58 66 79 67 46 68
REMARK SMILES IDX 30 69 31 70 39 71 32 72 34 73 40 74 33 75 35 76 36 77 37 78
REMARK SMILES IDX 38 79 62 80 63 81 71 82 64 83 66 84 72 85 65 86 67 87 68 88
REMARK SMILES IDX 69 89 70 90 47 91 48 92 56 93 49 94 51 95 57 96 50 97 52 98
REMARK SMILES IDX 53 99 54 100 55 101
REMARK H PARENT 13 6 84 20 88 27 18 35 77 54 45 65
REMARK Flexibility Score: inf
ROOT
ATOM      1  C   UNL A   1      38.705  21.882  25.759  1.00  0.00     0.023 C 
ENDROOT
BRANCH   1   2
ATOM      2  C   UNL A   1      37.317  22.246  25.238  1.00  0.00     0.116 C 
BRANCH   2   3
ATOM      3  N   UNL A   1      36.385  22.462  26.327  1.00  0.00    -0.351 N 
ATOM      4  C   UNL A   1      35.023  22.585  26.332  1.00  0.00     0.283 C 
ATOM      5  O   UNL A   1      34.547  22.804  27.451  1.00  0.00    -0.268 OA
ATOM      6  H   UNL A   1      36.805  22.531  27.215  1.00  0.00     0.163 HD
BRANCH   4   7
ATOM      7  C   UNL A   1      34.194  22.577  24.998  1.00  0.00     0.309 C 
BRANCH   7   8
ATOM      8  C   UNL A   1      33.498  21.243  24.682  1.00  0.00     0.061 A 
ATOM      9  C   UNL A   1      32.700  21.047  23.537  1.00  0.00     0.128 A 
ATOM     10  C   UNL A   1      32.186  19.783  23.240  1.00  0.00     0.047 A 
ATOM     11  C   UNL A   1      32.477  18.698  24.071  1.00  0.00     0.004 A 
ATOM     12  C   UNL A   1      33.780  20.134  25.506  1.00  0.00     0.014 A 
ATOM     13  C   UNL A   1      33.268  18.873  25.204  1.00  0.00     0.001 A 
BRANCH   9  14
ATOM     14  O   UNL A   1      32.265  22.138  22.840  1.00  0.00    -0.493 OA
BRANCH  14  15
ATOM     15  C   UNL A   1      32.633  22.208  21.463  1.00  0.00     0.226 C 
ATOM     16  C   UNL A   1      33.183  23.606  21.202  1.00  0.00     0.049 C 
ENDBRANCH  14  15
ENDBRANCH   9  14
ENDBRANCH   7   8
BRANCH   7  17
ATOM     17  N   UNL A   1      33.263  23.757  24.739  1.00  0.00    -0.320 N 
ATOM     18  C   UNL A   1      32.171  23.901  25.708  1.00  0.00     0.269 C 
ATOM     19  C   UNL A   1      33.934  25.045  24.511  1.00  0.00     0.269 C 
ATOM     20  H   UNL A   1      32.837  23.494  23.852  1.00  0.00     0.349 HD
ATOM     21  C   UNL A   1      31.161  24.978  25.330  1.00  0.00     0.126 C 
ATOM     22  C   UNL A   1      32.960  26.143  24.061  1.00  0.00     0.126 C 
ATOM     23  C   UNL A   1      31.842  26.331  25.105  1.00  0.00     0.195 C 
BRANCH  23  24
ATOM     24  N   UNL A   1      30.912  27.448  24.776  1.00  0.00    -0.331 N 
ATOM     25  C   UNL A   1      30.066  27.099  23.611  1.00  0.00     0.273 C 
ATOM     26  C   UNL A   1      31.598  28.738  24.572  1.00  0.00     0.273 C 
ATOM     27  H   UNL A   1      30.312  27.576  25.591  1.00  0.00     0.348 HD
ATOM     28  C   UNL A   1      28.960  28.113  23.285  1.00  0.00     0.131 C 
ATOM     29  C   UNL A   1      30.655  29.931  24.380  1.00  0.00     0.131 C 
ATOM     30  S   UNL A   1      29.629  29.757  22.891  1.00  0.00    -0.150 SA
ENDBRANCH  23  24
ENDBRANCH   7  17
ENDBRANCH   4   7
ENDBRANCH   2   3
ENDBRANCH   1   2
BRANCH   1  31
ATOM     31  C   UNL A   1      39.042  20.386  25.695  1.00  0.00     0.023 C 
BRANCH  31  32
ATOM     32  C   UNL A   1      40.066  19.907  26.721  1.00  0.00     0.116 C 
BRANCH  32  33
ATOM     33  N   UNL A   1      41.230  19.301  26.085  1.00  0.00    -0.352 N 
ATOM     34  C   UNL A   1      42.405  19.895  25.692  1.00  0.00     0.251 C 
ATOM     35  H   UNL A   1      41.164  18.334  25.913  1.00  0.00     0.163 HD
ATOM     36  O   UNL A   1      43.193  19.293  24.965  1.00  0.00    -0.269 OA
BRANCH  34  37
ATOM     37  C   UNL A   1      42.713  21.264  26.149  1.00  0.00     0.039 A 
ATOM     38  C   UNL A   1      43.021  21.490  27.493  1.00  0.00     0.014 A 
ATOM     39  C   UNL A   1      42.706  22.321  25.236  1.00  0.00     0.014 A 
ATOM     40  C   UNL A   1      43.393  22.772  27.909  1.00  0.00     0.010 A 
ATOM     41  C   UNL A   1      43.141  23.578  25.638  1.00  0.00     0.010 A 
ATOM     42  C   UNL A   1      43.487  23.818  26.977  1.00  0.00    -0.014 A 
BRANCH  42  43
ATOM     43  C   UNL A   1      43.946  25.178  27.362  1.00  0.00     0.031 A 
ATOM     44  C   UNL A   1      42.951  26.179  27.881  1.00  0.00     0.074 A 
ATOM     45  C   UNL A   1      45.220  25.548  27.124  1.00  0.00     0.049 A 
ATOM     46  N   UNL A   1      43.110  27.454  28.120  1.00  0.00    -0.248 NA
ATOM     47  C   UNL A   1      41.586  25.687  28.133  1.00  0.00     0.031 C 
ATOM     48  C   UNL A   1      46.263  24.685  26.567  1.00  0.00     0.029 A 
ATOM     49  N   UNL A   1      45.844  26.762  27.282  1.00  0.00    -0.354 N 
ATOM     50  C   UNL A   1      41.860  27.927  28.502  1.00  0.00     0.074 A 
ATOM     51  C   UNL A   1      40.947  26.806  28.441  1.00  0.00     0.031 C 
ATOM     52  C   UNL A   1      47.391  25.398  26.418  1.00  0.00     0.029 A 
ATOM     53  C   UNL A   1      47.143  26.776  26.830  1.00  0.00     0.049 A 
ATOM     54  H   UNL A   1      45.403  27.546  27.681  1.00  0.00     0.167 HD
ATOM     55  C   UNL A   1      41.509  29.175  28.891  1.00  0.00     0.034 A 
ATOM     56  C   UNL A   1      48.027  27.789  26.735  1.00  0.00     0.034 A 
ATOM     57  C   UNL A   1      42.432  30.272  28.994  1.00  0.00     0.049 A 
ATOM     58  C   UNL A   1      47.620  29.162  27.202  1.00  0.00     0.074 A 
ATOM     59  C   UNL A   1      42.194  31.553  29.460  1.00  0.00     0.029 A 
ATOM     60  N   UNL A   1      43.766  30.221  28.622  1.00  0.00    -0.354 N 
ATOM     61  N   UNL A   1      46.471  29.558  27.693  1.00  0.00    -0.248 NA
ATOM     62  C   UNL A   1      48.639  30.221  27.133  1.00  0.00     0.031 C 
ATOM     63  C   UNL A   1      43.381  32.284  29.346  1.00  0.00     0.029 A 
ATOM     64  C   UNL A   1      44.364  31.449  28.842  1.00  0.00     0.049 A 
ATOM     65  H   UNL A   1      44.221  29.428  28.256  1.00  0.00     0.167 HD
ATOM     66  C   UNL A   1      46.641  30.894  28.035  1.00  0.00     0.074 A 
ATOM     67  C   UNL A   1      48.007  31.241  27.700  1.00  0.00     0.031 C 
ATOM     68  C   UNL A   1      45.744  31.758  28.569  1.00  0.00     0.034 A 
BRANCH  55  69
ATOM     69  C   UNL A   1      40.073  29.414  29.279  1.00  0.00     0.023 A 
ATOM     70  C   UNL A   1      39.112  29.654  28.276  1.00  0.00     0.012 A 
ATOM     71  C   UNL A   1      39.663  29.338  30.625  1.00  0.00     0.148 A 
ATOM     72  C   UNL A   1      37.773  29.853  28.608  1.00  0.00     0.002 A 
ATOM     73  C   UNL A   1      38.319  29.490  30.944  1.00  0.00     0.091 A 
ATOM     74  F   UNL A   1      40.594  29.128  31.566  1.00  0.00    -0.205 F 
ATOM     75  C   UNL A   1      37.376  29.761  29.940  1.00  0.00     0.022 A 
BRANCH  73  76
ATOM     76  S   UNL A   1      37.695  29.307  32.618  1.00  0.00     0.127 S 
ATOM     77  O   UNL A   1      38.618  30.156  33.371  1.00  0.00    -0.237 OA
ATOM     78  O   UNL A   1      36.337  29.840  32.500  1.00  0.00    -0.237 OA
ATOM     79  O   UNL A   1      37.766  27.885  32.921  1.00  0.00    -0.744 OA
ENDBRANCH  73  76
ENDBRANCH  55  69
BRANCH  56  80
ATOM     80  C   UNL A   1      49.405  27.532  26.226  1.00  0.00     0.023 A 
ATOM     81  C   UNL A   1      49.623  27.446  24.837  1.00  0.00     0.012 A 
ATOM     82  C   UNL A   1      50.500  27.398  27.102  1.00  0.00     0.148 A 
ATOM     83  C   UNL A   1      50.899  27.198  24.331  1.00  0.00     0.002 A 
ATOM     84  C   UNL A   1      51.778  27.206  26.588  1.00  0.00     0.091 A 
ATOM     85  F   UNL A   1      50.270  27.473  28.421  1.00  0.00    -0.205 F 
ATOM     86  C   UNL A   1      51.977  27.088  25.205  1.00  0.00     0.022 A 
BRANCH  84  87
ATOM     87  S   UNL A   1      53.241  27.181  27.629  1.00  0.00     0.127 S 
ATOM     88  O   UNL A   1      54.295  26.903  26.657  1.00  0.00    -0.237 OA
ATOM     89  O   UNL A   1      53.247  28.540  28.173  1.00  0.00    -0.237 OA
ATOM     90  O   UNL A   1      53.003  26.140  28.620  1.00  0.00    -0.744 OA
ENDBRANCH  84  87
ENDBRANCH  56  80
BRANCH  68  91
ATOM     91  C   UNL A   1      46.210  33.151  28.896  1.00  0.00     0.023 A 
ATOM     92  C   UNL A   1      46.927  33.395  30.083  1.00  0.00     0.012 A 
ATOM     93  C   UNL A   1      46.035  34.194  27.964  1.00  0.00     0.148 A 
ATOM     94  C   UNL A   1      47.449  34.661  30.345  1.00  0.00     0.002 A 
ATOM     95  C   UNL A   1      46.600  35.438  28.208  1.00  0.00     0.091 A 
ATOM     96  F   UNL A   1      45.334  33.941  26.849  1.00  0.00    -0.205 F 
ATOM     97  C   UNL A   1      47.300  35.677  29.403  1.00  0.00     0.022 A 
BRANCH  95  98
ATOM     98  S   UNL A   1      46.549  36.774  27.008  1.00  0.00     0.127 S 
ATOM     99  O   UNL A   1      47.141  36.140  25.831  1.00  0.00    -0.237 OA
ATOM    100  O   UNL A   1      45.113  37.039  26.903  1.00  0.00    -0.237 OA
ATOM    101  O   UNL A   1      47.326  37.864  27.582  1.00  0.00    -0.744 OA
ENDBRANCH  95  98
ENDBRANCH  68  91
ENDBRANCH  42  43
ENDBRANCH  34  37
ENDBRANCH  32  33
ENDBRANCH  31  32
ENDBRANCH   1  31
TORSDOF 19
ENDMDL
