MODEL 1
REMARK VINA RESULT:      -9.6      0.000      0.000
REMARK SMILES Cc1cs/c(=N\S(=O)(=O)c2ccc(/C=C/C(=O)NCCCCNC(=O)c3ccc(-c4c5nc(c(-c6cccc(S(=O)(=O)[O-])c6F)c6ccc([nH]6)c(-c6cccc(S(=O)(=O)[O-])c6F)c6nc(c(-c7cccc(S(=O)(=O)[O-])c7F)c7ccc4[nH]7)C=C6)C=C5)cc3)cc2)[nH]1
REMARK SMILES IDX 20 1 19 2 18 3 16 4 17 5 15 7 14 8 13 9 10 10 11 11 90 12
REMARK SMILES IDX 12 13 89 14 7 15 8 16 9 17 6 18 1 19 2 20 3 21 91 22 4 23
REMARK SMILES IDX 5 24 21 26 22 27 23 28 24 29 25 31 26 32 27 33 88 34 28 35
REMARK SMILES IDX 87 36 29 37 30 38 31 39 81 40 32 41 86 42 80 43 82 44 33 45
REMARK SMILES IDX 85 46 79 47 78 48 34 50 66 51 46 52 65 53 47 54 50 55 64 56
REMARK SMILES IDX 83 57 48 58 49 59 63 61 84 62 51 63 35 64 36 65 44 66 37 67
REMARK SMILES IDX 39 68 45 69 38 70 40 71 41 72 42 73 43 74 67 75 68 76 76 77
REMARK SMILES IDX 69 78 71 79 77 80 70 81 72 82 73 83 74 84 75 85 52 86 53 87
REMARK SMILES IDX 61 88 54 89 56 90 62 91 55 92 57 93 58 94 59 95 60 96
REMARK H PARENT 18 6 91 25 23 30 82 49 50 60
REMARK Flexibility Score: inf
ROOT
ATOM      1  C   UNL A   1      33.893  35.333  28.985  1.00  0.00     0.023 C 
ENDROOT
BRANCH   1   2
ATOM      2  C   UNL A   1      33.176  35.964  30.178  1.00  0.00     0.116 C 
BRANCH   2   3
ATOM      3  N   UNL A   1      33.035  35.015  31.268  1.00  0.00    -0.353 N 
ATOM      4  C   UNL A   1      33.985  34.392  32.016  1.00  0.00     0.243 C 
ATOM      5  O   UNL A   1      33.661  33.699  32.977  1.00  0.00    -0.270 OA
ATOM      6  H   UNL A   1      32.107  34.787  31.503  1.00  0.00     0.163 HD
BRANCH   4   7
ATOM      7  C   UNL A   1      35.421  34.609  31.740  1.00  0.00     0.072 C 
ATOM      8  C   UNL A   1      36.177  33.777  31.007  1.00  0.00     0.014 C 
BRANCH   8   9
ATOM      9  C   UNL A   1      37.611  33.990  30.783  1.00  0.00    -0.025 A 
ATOM     10  C   UNL A   1      40.355  34.290  30.322  1.00  0.00     0.089 A 
ATOM     11  C   UNL A   1      39.832  34.545  31.592  1.00  0.00     0.023 A 
ATOM     12  C   UNL A   1      39.522  33.884  29.277  1.00  0.00     0.023 A 
ATOM     13  C   UNL A   1      38.463  34.394  31.820  1.00  0.00     0.009 A 
ATOM     14  C   UNL A   1      38.152  33.730  29.515  1.00  0.00     0.009 A 
BRANCH  10  15
ATOM     15  S   UNL A   1      42.119  34.446  30.098  1.00  0.00     0.285 S 
ATOM     16  O   UNL A   1      42.580  35.201  31.252  1.00  0.00    -0.199 OA
ATOM     17  O   UNL A   1      42.291  34.946  28.752  1.00  0.00    -0.199 OA
BRANCH  15  18
ATOM     18  N   UNL A   1      42.692  32.938  30.189  1.00  0.00    -0.130 NA
ATOM     19  C   UNL A   1      46.623  30.106  30.327  1.00  0.00     0.065 C 
ATOM     20  C   UNL A   1      45.912  31.413  30.253  1.00  0.00     0.024 A 
ATOM     21  C   UNL A   1      46.493  32.622  30.184  1.00  0.00     0.089 A 
ATOM     22  N   UNL A   1      44.532  31.472  30.253  1.00  0.00    -0.334 N 
ATOM     23  S   UNL A   1      45.300  33.900  30.103  1.00  0.00    -0.104 S 
ATOM     24  C   UNL A   1      43.960  32.721  30.186  1.00  0.00     0.199 A 
ATOM     25  H   UNL A   1      43.982  30.656  30.297  1.00  0.00     0.169 HD
ENDBRANCH  15  18
ENDBRANCH  10  15
ENDBRANCH   8   9
ENDBRANCH   4   7
ENDBRANCH   2   3
ENDBRANCH   1   2
BRANCH   1  26
ATOM     26  C   UNL A   1      33.283  34.012  28.503  1.00  0.00     0.023 C 
BRANCH  26  27
ATOM     27  C   UNL A   1      34.275  32.866  28.315  1.00  0.00     0.116 C 
BRANCH  27  28
ATOM     28  N   UNL A   1      33.697  31.708  27.648  1.00  0.00    -0.352 N 
ATOM     29  C   UNL A   1      34.252  30.465  27.458  1.00  0.00     0.251 C 
ATOM     30  H   UNL A   1      32.791  31.832  27.285  1.00  0.00     0.163 HD
ATOM     31  O   UNL A   1      33.665  29.628  26.778  1.00  0.00    -0.269 OA
BRANCH  29  32
ATOM     32  C   UNL A   1      35.575  30.160  28.042  1.00  0.00     0.039 A 
ATOM     33  C   UNL A   1      35.636  29.659  29.346  1.00  0.00     0.014 A 
ATOM     34  C   UNL A   1      36.744  30.340  27.299  1.00  0.00     0.014 A 
ATOM     35  C   UNL A   1      36.866  29.274  29.880  1.00  0.00     0.010 A 
ATOM     36  C   UNL A   1      37.961  29.901  27.812  1.00  0.00     0.010 A 
ATOM     37  C   UNL A   1      38.035  29.361  29.105  1.00  0.00    -0.014 A 
BRANCH  37  38
ATOM     38  C   UNL A   1      39.337  28.868  29.617  1.00  0.00     0.031 A 
ATOM     39  C   UNL A   1      40.030  29.584  30.744  1.00  0.00     0.074 A 
ATOM     40  C   UNL A   1      39.944  27.837  28.998  1.00  0.00     0.049 A 
ATOM     41  N   UNL A   1      41.198  29.340  31.279  1.00  0.00    -0.248 NA
ATOM     42  C   UNL A   1      39.330  30.740  31.329  1.00  0.00     0.031 C 
ATOM     43  C   UNL A   1      39.415  27.118  27.837  1.00  0.00     0.029 A 
ATOM     44  N   UNL A   1      41.154  27.234  29.236  1.00  0.00    -0.354 N 
ATOM     45  C   UNL A   1      41.391  30.331  32.234  1.00  0.00     0.074 A 
ATOM     46  C   UNL A   1      40.233  31.195  32.187  1.00  0.00     0.031 C 
ATOM     47  C   UNL A   1      40.295  26.174  27.464  1.00  0.00     0.029 A 
ATOM     48  C   UNL A   1      41.458  26.231  28.344  1.00  0.00     0.049 A 
ATOM     49  H   UNL A   1      41.749  27.495  29.977  1.00  0.00     0.167 HD
ATOM     50  C   UNL A   1      42.424  30.487  33.096  1.00  0.00     0.034 A 
ATOM     51  C   UNL A   1      42.551  25.450  28.246  1.00  0.00     0.034 A 
ATOM     52  C   UNL A   1      43.547  29.593  33.179  1.00  0.00     0.049 A 
ATOM     53  C   UNL A   1      43.654  25.605  29.256  1.00  0.00     0.074 A 
ATOM     54  C   UNL A   1      44.595  29.610  34.082  1.00  0.00     0.029 A 
ATOM     55  N   UNL A   1      43.768  28.521  32.329  1.00  0.00    -0.354 N 
ATOM     56  N   UNL A   1      43.738  26.439  30.265  1.00  0.00    -0.248 NA
ATOM     57  C   UNL A   1      44.796  24.685  29.143  1.00  0.00     0.031 C 
ATOM     58  C   UNL A   1      45.455  28.550  33.774  1.00  0.00     0.029 A 
ATOM     59  C   UNL A   1      44.936  27.869  32.684  1.00  0.00     0.049 A 
ATOM     60  H   UNL A   1      43.181  28.262  31.583  1.00  0.00     0.167 HD
ATOM     61  C   UNL A   1      44.921  26.125  30.923  1.00  0.00     0.074 A 
ATOM     62  C   UNL A   1      45.510  25.009  30.213  1.00  0.00     0.031 C 
ATOM     63  C   UNL A   1      45.479  26.720  32.005  1.00  0.00     0.034 A 
BRANCH  50  64
ATOM     64  C   UNL A   1      42.351  31.631  34.072  1.00  0.00     0.023 A 
ATOM     65  C   UNL A   1      43.007  32.841  33.764  1.00  0.00     0.012 A 
ATOM     66  C   UNL A   1      41.594  31.537  35.256  1.00  0.00     0.148 A 
ATOM     67  C   UNL A   1      42.936  33.929  34.632  1.00  0.00     0.002 A 
ATOM     68  C   UNL A   1      41.496  32.639  36.097  1.00  0.00     0.091 A 
ATOM     69  F   UNL A   1      40.996  30.372  35.543  1.00  0.00    -0.205 F 
ATOM     70  C   UNL A   1      42.173  33.832  35.791  1.00  0.00     0.022 A 
BRANCH  68  71
ATOM     71  S   UNL A   1      40.479  32.637  37.579  1.00  0.00     0.127 S 
ATOM     72  O   UNL A   1      39.312  31.876  37.135  1.00  0.00    -0.237 OA
ATOM     73  O   UNL A   1      41.333  31.937  38.539  1.00  0.00    -0.237 OA
ATOM     74  O   UNL A   1      40.234  34.037  37.896  1.00  0.00    -0.744 OA
ENDBRANCH  68  71
ENDBRANCH  50  64
BRANCH  51  75
ATOM     75  C   UNL A   1      42.613  24.390  27.200  1.00  0.00     0.023 A 
ATOM     76  C   UNL A   1      43.453  24.573  26.085  1.00  0.00     0.012 A 
ATOM     77  C   UNL A   1      41.879  23.194  27.317  1.00  0.00     0.148 A 
ATOM     78  C   UNL A   1      43.541  23.600  25.091  1.00  0.00     0.002 A 
ATOM     79  C   UNL A   1      42.011  22.204  26.348  1.00  0.00     0.091 A 
ATOM     80  F   UNL A   1      41.073  23.042  28.377  1.00  0.00    -0.205 F 
ATOM     81  C   UNL A   1      42.830  22.411  25.227  1.00  0.00     0.022 A 
BRANCH  79  82
ATOM     82  S   UNL A   1      41.233  20.593  26.518  1.00  0.00     0.127 S 
ATOM     83  O   UNL A   1      41.599  20.226  27.882  1.00  0.00    -0.237 OA
ATOM     84  O   UNL A   1      39.818  20.913  26.322  1.00  0.00    -0.237 OA
ATOM     85  O   UNL A   1      41.810  19.774  25.458  1.00  0.00    -0.744 OA
ENDBRANCH  79  82
ENDBRANCH  51  75
BRANCH  63  86
ATOM     86  C   UNL A   1      46.783  26.165  32.512  1.00  0.00     0.023 A 
ATOM     87  C   UNL A   1      47.995  26.719  32.059  1.00  0.00     0.012 A 
ATOM     88  C   UNL A   1      46.806  25.156  33.495  1.00  0.00     0.148 A 
ATOM     89  C   UNL A   1      49.214  26.260  32.558  1.00  0.00     0.002 A 
ATOM     90  C   UNL A   1      48.023  24.733  34.018  1.00  0.00     0.091 A 
ATOM     91  F   UNL A   1      45.642  24.626  33.898  1.00  0.00    -0.205 F 
ATOM     92  C   UNL A   1      49.227  25.277  33.544  1.00  0.00     0.022 A 
BRANCH  90  93
ATOM     93  S   UNL A   1      48.124  23.538  35.357  1.00  0.00     0.127 S 
ATOM     94  O   UNL A   1      47.633  22.323  34.708  1.00  0.00    -0.237 OA
ATOM     95  O   UNL A   1      49.555  23.531  35.664  1.00  0.00    -0.237 OA
ATOM     96  O   UNL A   1      47.284  24.066  36.424  1.00  0.00    -0.744 OA
ENDBRANCH  90  93
ENDBRANCH  63  86
ENDBRANCH  37  38
ENDBRANCH  29  32
ENDBRANCH  27  28
ENDBRANCH  26  27
ENDBRANCH   1  26
TORSDOF 17
ENDMDL
MODEL 2
REMARK VINA RESULT:      -9.4      1.880      2.425
REMARK SMILES Cc1cs/c(=N\S(=O)(=O)c2ccc(/C=C/C(=O)NCCCCNC(=O)c3ccc(-c4c5nc(c(-c6cccc(S(=O)(=O)[O-])c6F)c6ccc([nH]6)c(-c6cccc(S(=O)(=O)[O-])c6F)c6nc(c(-c7cccc(S(=O)(=O)[O-])c7F)c7ccc4[nH]7)C=C6)C=C5)cc3)cc2)[nH]1
REMARK SMILES IDX 20 1 19 2 18 3 16 4 17 5 15 7 14 8 13 9 10 10 11 11 90 12
REMARK SMILES IDX 12 13 89 14 7 15 8 16 9 17 6 18 1 19 2 20 3 21 91 22 4 23
REMARK SMILES IDX 5 24 21 26 22 27 23 28 24 29 25 31 26 32 27 33 88 34 28 35
REMARK SMILES IDX 87 36 29 37 30 38 31 39 81 40 32 41 86 42 80 43 82 44 33 45
REMARK SMILES IDX 85 46 79 47 78 48 34 50 66 51 46 52 65 53 47 54 50 55 64 56
REMARK SMILES IDX 83 57 48 58 49 59 63 61 84 62 51 63 35 64 36 65 44 66 37 67
REMARK SMILES IDX 39 68 45 69 38 70 40 71 41 72 42 73 43 74 67 75 68 76 76 77
REMARK SMILES IDX 69 78 71 79 77 80 70 81 72 82 73 83 74 84 75 85 52 86 53 87
REMARK SMILES IDX 61 88 54 89 56 90 62 91 55 92 57 93 58 94 59 95 60 96
REMARK H PARENT 18 6 91 25 23 30 82 49 50 60
REMARK Flexibility Score: inf
ROOT
ATOM      1  C   UNL A   1      34.403  34.316  31.076  1.00  0.00     0.023 C 
ENDROOT
BRANCH   1   2
ATOM      2  C   UNL A   1      34.536  32.906  31.653  1.00  0.00     0.116 C 
BRANCH   2   3
ATOM      3  N   UNL A   1      34.835  32.946  33.072  1.00  0.00    -0.353 N 
ATOM      4  C   UNL A   1      36.026  33.085  33.714  1.00  0.00     0.243 C 
ATOM      5  O   UNL A   1      36.061  33.207  34.936  1.00  0.00    -0.270 OA
ATOM      6  H   UNL A   1      34.052  32.860  33.664  1.00  0.00     0.163 HD
BRANCH   4   7
ATOM      7  C   UNL A   1      37.287  33.179  32.948  1.00  0.00     0.072 C 
ATOM      8  C   UNL A   1      37.776  34.324  32.447  1.00  0.00     0.014 C 
BRANCH   8   9
ATOM      9  C   UNL A   1      39.007  34.386  31.653  1.00  0.00    -0.025 A 
ATOM     10  C   UNL A   1      41.392  34.588  30.202  1.00  0.00     0.089 A 
ATOM     11  C   UNL A   1      40.166  34.750  29.551  1.00  0.00     0.023 A 
ATOM     12  C   UNL A   1      41.440  34.328  31.574  1.00  0.00     0.023 A 
ATOM     13  C   UNL A   1      38.979  34.650  30.277  1.00  0.00     0.009 A 
ATOM     14  C   UNL A   1      40.245  34.234  32.295  1.00  0.00     0.009 A 
BRANCH  10  15
ATOM     15  S   UNL A   1      42.882  34.780  29.239  1.00  0.00     0.285 S 
ATOM     16  O   UNL A   1      43.868  35.303  30.171  1.00  0.00    -0.199 OA
ATOM     17  O   UNL A   1      42.485  35.526  28.065  1.00  0.00    -0.199 OA
BRANCH  15  18
ATOM     18  N   UNL A   1      43.303  33.281  28.809  1.00  0.00    -0.130 NA
ATOM     19  C   UNL A   1      46.403  30.508  26.319  1.00  0.00     0.065 C 
ATOM     20  C   UNL A   1      45.866  31.804  26.821  1.00  0.00     0.024 A 
ATOM     21  C   UNL A   1      46.379  33.019  26.568  1.00  0.00     0.089 A 
ATOM     22  N   UNL A   1      44.745  31.844  27.627  1.00  0.00    -0.334 N 
ATOM     23  S   UNL A   1      45.443  34.281  27.340  1.00  0.00    -0.104 S 
ATOM     24  C   UNL A   1      44.321  33.084  28.047  1.00  0.00     0.199 A 
ATOM     25  H   UNL A   1      44.269  31.022  27.887  1.00  0.00     0.169 HD
ENDBRANCH  15  18
ENDBRANCH  10  15
ENDBRANCH   8   9
ENDBRANCH   4   7
ENDBRANCH   2   3
ENDBRANCH   1   2
BRANCH   1  26
ATOM     26  C   UNL A   1      34.486  34.386  29.547  1.00  0.00     0.023 C 
BRANCH  26  27
ATOM     27  C   UNL A   1      35.233  33.233  28.880  1.00  0.00     0.116 C 
BRANCH  27  28
ATOM     28  N   UNL A   1      34.376  32.389  28.061  1.00  0.00    -0.352 N 
ATOM     29  C   UNL A   1      34.589  31.093  27.652  1.00  0.00     0.251 C 
ATOM     30  H   UNL A   1      33.533  32.799  27.760  1.00  0.00     0.163 HD
ATOM     31  O   UNL A   1      33.806  30.559  26.872  1.00  0.00    -0.269 OA
BRANCH  29  32
ATOM     32  C   UNL A   1      35.786  30.367  28.125  1.00  0.00     0.039 A 
ATOM     33  C   UNL A   1      36.937  30.379  27.332  1.00  0.00     0.014 A 
ATOM     34  C   UNL A   1      35.781  29.703  29.354  1.00  0.00     0.014 A 
ATOM     35  C   UNL A   1      38.107  29.781  27.806  1.00  0.00     0.010 A 
ATOM     36  C   UNL A   1      36.962  29.160  29.849  1.00  0.00     0.010 A 
ATOM     37  C   UNL A   1      38.137  29.196  29.082  1.00  0.00    -0.014 A 
BRANCH  37  38
ATOM     38  C   UNL A   1      39.393  28.641  29.646  1.00  0.00     0.031 A 
ATOM     39  C   UNL A   1      40.037  29.286  30.842  1.00  0.00     0.074 A 
ATOM     40  C   UNL A   1      40.007  27.619  29.018  1.00  0.00     0.049 A 
ATOM     41  N   UNL A   1      41.163  28.985  31.433  1.00  0.00    -0.248 NA
ATOM     42  C   UNL A   1      39.336  30.437  31.437  1.00  0.00     0.031 C 
ATOM     43  C   UNL A   1      39.527  26.967  27.797  1.00  0.00     0.029 A 
ATOM     44  N   UNL A   1      41.183  26.970  29.300  1.00  0.00    -0.354 N 
ATOM     45  C   UNL A   1      41.327  29.927  32.441  1.00  0.00     0.074 A 
ATOM     46  C   UNL A   1      40.198  30.828  32.365  1.00  0.00     0.031 C 
ATOM     47  C   UNL A   1      40.401  26.013  27.435  1.00  0.00     0.029 A 
ATOM     48  C   UNL A   1      41.511  25.998  28.383  1.00  0.00     0.049 A 
ATOM     49  H   UNL A   1      41.739  27.181  30.084  1.00  0.00     0.167 HD
ATOM     50  C   UNL A   1      42.311  30.015  33.368  1.00  0.00     0.034 A 
ATOM     51  C   UNL A   1      42.585  25.188  28.314  1.00  0.00     0.034 A 
ATOM     52  C   UNL A   1      43.402  29.084  33.476  1.00  0.00     0.049 A 
ATOM     53  C   UNL A   1      43.630  25.266  29.393  1.00  0.00     0.074 A 
ATOM     54  C   UNL A   1      44.394  29.030  34.439  1.00  0.00     0.029 A 
ATOM     55  N   UNL A   1      43.642  28.043  32.594  1.00  0.00    -0.354 N 
ATOM     56  N   UNL A   1      43.677  26.053  30.441  1.00  0.00    -0.248 NA
ATOM     57  C   UNL A   1      44.750  24.317  29.305  1.00  0.00     0.031 C 
ATOM     58  C   UNL A   1      45.240  27.958  34.135  1.00  0.00     0.029 A 
ATOM     59  C   UNL A   1      44.769  27.341  32.987  1.00  0.00     0.049 A 
ATOM     60  H   UNL A   1      43.094  27.834  31.804  1.00  0.00     0.167 HD
ATOM     61  C   UNL A   1      44.809  25.675  31.152  1.00  0.00     0.074 A 
ATOM     62  C   UNL A   1      45.409  24.573  30.428  1.00  0.00     0.031 C 
ATOM     63  C   UNL A   1      45.319  26.206  32.291  1.00  0.00     0.034 A 
BRANCH  50  64
ATOM     64  C   UNL A   1      42.212  31.117  34.388  1.00  0.00     0.023 A 
ATOM     65  C   UNL A   1      41.372  30.946  35.508  1.00  0.00     0.012 A 
ATOM     66  C   UNL A   1      42.985  32.290  34.276  1.00  0.00     0.148 A 
ATOM     67  C   UNL A   1      41.278  31.935  36.485  1.00  0.00     0.002 A 
ATOM     68  C   UNL A   1      42.915  33.255  35.275  1.00  0.00     0.091 A 
ATOM     69  F   UNL A   1      43.760  32.446  33.194  1.00  0.00    -0.205 F 
ATOM     70  C   UNL A   1      42.057  33.083  36.374  1.00  0.00     0.022 A 
BRANCH  68  71
ATOM     71  S   UNL A   1      43.932  34.737  35.259  1.00  0.00     0.127 S 
ATOM     72  O   UNL A   1      43.388  35.455  34.107  1.00  0.00    -0.237 OA
ATOM     73  O   UNL A   1      43.620  35.340  36.555  1.00  0.00    -0.237 OA
ATOM     74  O   UNL A   1      45.306  34.275  35.122  1.00  0.00    -0.744 OA
ENDBRANCH  68  71
ENDBRANCH  50  64
BRANCH  51  75
ATOM     75  C   UNL A   1      42.680  24.173  27.228  1.00  0.00     0.023 A 
ATOM     76  C   UNL A   1      43.436  24.466  26.077  1.00  0.00     0.012 A 
ATOM     77  C   UNL A   1      42.061  22.913  27.339  1.00  0.00     0.148 A 
ATOM     78  C   UNL A   1      43.552  23.537  25.044  1.00  0.00     0.002 A 
ATOM     79  C   UNL A   1      42.223  21.971  26.328  1.00  0.00     0.091 A 
ATOM     80  F   UNL A   1      41.332  22.656  28.434  1.00  0.00    -0.205 F 
ATOM     81  C   UNL A   1      42.955  22.286  25.173  1.00  0.00     0.022 A 
BRANCH  79  82
ATOM     82  S   UNL A   1      41.599  20.292  26.478  1.00  0.00     0.127 S 
ATOM     83  O   UNL A   1      40.157  20.498  26.375  1.00  0.00    -0.237 OA
ATOM     84  O   UNL A   1      42.213  19.632  25.325  1.00  0.00    -0.237 OA
ATOM     85  O   UNL A   1      42.086  19.815  27.766  1.00  0.00    -0.744 OA
ENDBRANCH  79  82
ENDBRANCH  51  75
BRANCH  63  86
ATOM     86  C   UNL A   1      46.574  25.590  32.847  1.00  0.00     0.023 A 
ATOM     87  C   UNL A   1      46.478  24.604  33.848  1.00  0.00     0.012 A 
ATOM     88  C   UNL A   1      47.838  25.926  32.325  1.00  0.00     0.148 A 
ATOM     89  C   UNL A   1      47.624  23.978  34.338  1.00  0.00     0.002 A 
ATOM     90  C   UNL A   1      48.972  25.269  32.788  1.00  0.00     0.091 A 
ATOM     91  F   UNL A   1      47.911  26.884  31.389  1.00  0.00    -0.205 F 
ATOM     92  C   UNL A   1      48.867  24.302  33.801  1.00  0.00     0.022 A 
BRANCH  90  93
ATOM     93  S   UNL A   1      50.600  25.559  32.086  1.00  0.00     0.127 S 
ATOM     94  O   UNL A   1      50.707  27.015  32.174  1.00  0.00    -0.237 OA
ATOM     95  O   UNL A   1      51.473  24.826  33.004  1.00  0.00    -0.237 OA
ATOM     96  O   UNL A   1      50.553  25.011  30.736  1.00  0.00    -0.744 OA
ENDBRANCH  90  93
ENDBRANCH  63  86
ENDBRANCH  37  38
ENDBRANCH  29  32
ENDBRANCH  27  28
ENDBRANCH  26  27
ENDBRANCH   1  26
TORSDOF 17
ENDMDL
MODEL 3
REMARK VINA RESULT:      -9.4      1.586      1.971
REMARK SMILES Cc1cs/c(=N\S(=O)(=O)c2ccc(/C=C/C(=O)NCCCCNC(=O)c3ccc(-c4c5nc(c(-c6cccc(S(=O)(=O)[O-])c6F)c6ccc([nH]6)c(-c6cccc(S(=O)(=O)[O-])c6F)c6nc(c(-c7cccc(S(=O)(=O)[O-])c7F)c7ccc4[nH]7)C=C6)C=C5)cc3)cc2)[nH]1
REMARK SMILES IDX 20 1 19 2 18 3 16 4 17 5 15 7 14 8 13 9 10 10 11 11 90 12
REMARK SMILES IDX 12 13 89 14 7 15 8 16 9 17 6 18 1 19 2 20 3 21 91 22 4 23
REMARK SMILES IDX 5 24 21 26 22 27 23 28 24 29 25 31 26 32 27 33 88 34 28 35
REMARK SMILES IDX 87 36 29 37 30 38 31 39 81 40 32 41 86 42 80 43 82 44 33 45
REMARK SMILES IDX 85 46 79 47 78 48 34 50 66 51 46 52 65 53 47 54 50 55 64 56
REMARK SMILES IDX 83 57 48 58 49 59 63 61 84 62 51 63 35 64 36 65 44 66 37 67
REMARK SMILES IDX 39 68 45 69 38 70 40 71 41 72 42 73 43 74 67 75 68 76 76 77
REMARK SMILES IDX 69 78 71 79 77 80 70 81 72 82 73 83 74 84 75 85 52 86 53 87
REMARK SMILES IDX 61 88 54 89 56 90 62 91 55 92 57 93 58 94 59 95 60 96
REMARK H PARENT 18 6 91 25 23 30 82 49 50 60
REMARK Flexibility Score: inf
ROOT
ATOM      1  C   UNL A   1      34.736  34.465  31.542  1.00  0.00     0.023 C 
ENDROOT
BRANCH   1   2
ATOM      2  C   UNL A   1      34.529  33.128  32.253  1.00  0.00     0.116 C 
BRANCH   2   3
ATOM      3  N   UNL A   1      34.889  33.219  33.656  1.00  0.00    -0.353 N 
ATOM      4  C   UNL A   1      36.110  33.344  34.242  1.00  0.00     0.243 C 
ATOM      5  O   UNL A   1      36.200  33.518  35.455  1.00  0.00    -0.270 OA
ATOM      6  H   UNL A   1      34.130  33.185  34.282  1.00  0.00     0.163 HD
BRANCH   4   7
ATOM      7  C   UNL A   1      37.340  33.361  33.421  1.00  0.00     0.072 C 
ATOM      8  C   UNL A   1      37.987  34.481  33.065  1.00  0.00     0.014 C 
BRANCH   8   9
ATOM      9  C   UNL A   1      39.182  34.476  32.214  1.00  0.00    -0.025 A 
ATOM     10  C   UNL A   1      41.424  34.375  30.542  1.00  0.00     0.089 A 
ATOM     11  C   UNL A   1      41.590  34.374  31.930  1.00  0.00     0.023 A 
ATOM     12  C   UNL A   1      40.147  34.423  29.979  1.00  0.00     0.023 A 
ATOM     13  C   UNL A   1      40.471  34.424  32.761  1.00  0.00     0.009 A 
ATOM     14  C   UNL A   1      39.029  34.468  30.820  1.00  0.00     0.009 A 
BRANCH  10  15
ATOM     15  S   UNL A   1      42.885  34.255  29.524  1.00  0.00     0.285 S 
ATOM     16  O   UNL A   1      43.976  34.692  30.380  1.00  0.00    -0.199 OA
ATOM     17  O   UNL A   1      42.558  34.956  28.302  1.00  0.00    -0.199 OA
BRANCH  15  18
ATOM     18  N   UNL A   1      43.055  32.679  29.213  1.00  0.00    -0.130 NA
ATOM     19  C   UNL A   1      45.471  29.284  26.736  1.00  0.00     0.065 C 
ATOM     20  C   UNL A   1      45.168  30.682  27.151  1.00  0.00     0.024 A 
ATOM     21  C   UNL A   1      45.805  31.785  26.726  1.00  0.00     0.089 A 
ATOM     22  N   UNL A   1      44.157  30.952  28.052  1.00  0.00    -0.334 N 
ATOM     23  S   UNL A   1      45.134  33.230  27.450  1.00  0.00    -0.104 S 
ATOM     24  C   UNL A   1      43.949  32.272  28.381  1.00  0.00     0.199 A 
ATOM     25  H   UNL A   1      43.608  30.233  28.441  1.00  0.00     0.169 HD
ENDBRANCH  15  18
ENDBRANCH  10  15
ENDBRANCH   8   9
ENDBRANCH   4   7
ENDBRANCH   2   3
ENDBRANCH   1   2
BRANCH   1  26
ATOM     26  C   UNL A   1      34.412  34.444  30.044  1.00  0.00     0.023 C 
BRANCH  26  27
ATOM     27  C   UNL A   1      35.178  33.406  29.226  1.00  0.00     0.116 C 
BRANCH  27  28
ATOM     28  N   UNL A   1      34.318  32.580  28.392  1.00  0.00    -0.352 N 
ATOM     29  C   UNL A   1      34.541  31.304  27.931  1.00  0.00     0.251 C 
ATOM     30  H   UNL A   1      33.464  32.988  28.122  1.00  0.00     0.163 HD
ATOM     31  O   UNL A   1      33.751  30.787  27.146  1.00  0.00    -0.269 OA
BRANCH  29  32
ATOM     32  C   UNL A   1      35.758  30.578  28.354  1.00  0.00     0.039 A 
ATOM     33  C   UNL A   1      36.945  30.784  27.645  1.00  0.00     0.014 A 
ATOM     34  C   UNL A   1      35.733  29.724  29.458  1.00  0.00     0.014 A 
ATOM     35  C   UNL A   1      38.125  30.185  28.087  1.00  0.00     0.010 A 
ATOM     36  C   UNL A   1      36.921  29.174  29.931  1.00  0.00     0.010 A 
ATOM     37  C   UNL A   1      38.129  29.401  29.253  1.00  0.00    -0.014 A 
BRANCH  37  38
ATOM     38  C   UNL A   1      39.388  28.834  29.797  1.00  0.00     0.031 A 
ATOM     39  C   UNL A   1      40.037  29.449  31.006  1.00  0.00     0.074 A 
ATOM     40  C   UNL A   1      39.999  27.829  29.140  1.00  0.00     0.049 A 
ATOM     41  N   UNL A   1      41.166  29.133  31.584  1.00  0.00    -0.248 NA
ATOM     42  C   UNL A   1      39.338  30.583  31.633  1.00  0.00     0.031 C 
ATOM     43  C   UNL A   1      39.515  27.207  27.905  1.00  0.00     0.029 A 
ATOM     44  N   UNL A   1      41.177  27.174  29.399  1.00  0.00    -0.354 N 
ATOM     45  C   UNL A   1      41.334  30.049  32.615  1.00  0.00     0.074 A 
ATOM     46  C   UNL A   1      40.204  30.951  32.567  1.00  0.00     0.031 C 
ATOM     47  C   UNL A   1      40.387  26.264  27.515  1.00  0.00     0.029 A 
ATOM     48  C   UNL A   1      41.502  26.225  28.457  1.00  0.00     0.049 A 
ATOM     49  H   UNL A   1      41.737  27.365  30.187  1.00  0.00     0.167 HD
ATOM     50  C   UNL A   1      42.323  30.115  33.539  1.00  0.00     0.034 A 
ATOM     51  C   UNL A   1      42.577  25.419  28.362  1.00  0.00     0.034 A 
ATOM     52  C   UNL A   1      43.414  29.183  33.618  1.00  0.00     0.049 A 
ATOM     53  C   UNL A   1      43.627  25.470  29.438  1.00  0.00     0.074 A 
ATOM     54  C   UNL A   1      44.411  29.105  34.575  1.00  0.00     0.029 A 
ATOM     55  N   UNL A   1      43.652  28.164  32.708  1.00  0.00    -0.354 N 
ATOM     56  N   UNL A   1      43.678  26.230  30.505  1.00  0.00    -0.248 NA
ATOM     57  C   UNL A   1      44.747  24.525  29.321  1.00  0.00     0.031 C 
ATOM     58  C   UNL A   1      45.257  28.042  34.239  1.00  0.00     0.029 A 
ATOM     59  C   UNL A   1      44.781  27.454  33.078  1.00  0.00     0.049 A 
ATOM     60  H   UNL A   1      43.099  27.975  31.916  1.00  0.00     0.167 HD
ATOM     61  C   UNL A   1      44.814  25.835  31.201  1.00  0.00     0.074 A 
ATOM     62  C   UNL A   1      45.411  24.753  30.447  1.00  0.00     0.031 C 
ATOM     63  C   UNL A   1      45.328  26.338  32.350  1.00  0.00     0.034 A 
BRANCH  50  64
ATOM     64  C   UNL A   1      42.227  31.191  34.587  1.00  0.00     0.023 A 
ATOM     65  C   UNL A   1      41.346  31.017  35.675  1.00  0.00     0.012 A 
ATOM     66  C   UNL A   1      43.042  32.339  34.534  1.00  0.00     0.148 A 
ATOM     67  C   UNL A   1      41.254  31.981  36.676  1.00  0.00     0.002 A 
ATOM     68  C   UNL A   1      42.973  33.277  35.558  1.00  0.00     0.091 A 
ATOM     69  F   UNL A   1      43.856  32.499  33.481  1.00  0.00    -0.205 F 
ATOM     70  C   UNL A   1      42.074  33.104  36.624  1.00  0.00     0.022 A 
BRANCH  68  71
ATOM     71  S   UNL A   1      44.038  34.724  35.617  1.00  0.00     0.127 S 
ATOM     72  O   UNL A   1      43.830  35.186  36.989  1.00  0.00    -0.237 OA
ATOM     73  O   UNL A   1      45.358  34.147  35.362  1.00  0.00    -0.237 OA
ATOM     74  O   UNL A   1      43.555  35.616  34.573  1.00  0.00    -0.744 OA
ENDBRANCH  68  71
ENDBRANCH  50  64
BRANCH  51  75
ATOM     75  C   UNL A   1      42.667  24.431  27.250  1.00  0.00     0.023 A 
ATOM     76  C   UNL A   1      43.400  24.763  26.094  1.00  0.00     0.012 A 
ATOM     77  C   UNL A   1      42.066  23.161  27.340  1.00  0.00     0.148 A 
ATOM     78  C   UNL A   1      43.511  23.861  25.037  1.00  0.00     0.002 A 
ATOM     79  C   UNL A   1      42.224  22.246  26.304  1.00  0.00     0.091 A 
ATOM     80  F   UNL A   1      41.359  22.867  28.440  1.00  0.00    -0.205 F 
ATOM     81  C   UNL A   1      42.934  22.599  25.145  1.00  0.00     0.022 A 
BRANCH  79  82
ATOM     82  S   UNL A   1      41.625  20.556  26.423  1.00  0.00     0.127 S 
ATOM     83  O   UNL A   1      42.060  20.177  27.764  1.00  0.00    -0.237 OA
ATOM     84  O   UNL A   1      40.180  20.730  26.269  1.00  0.00    -0.237 OA
ATOM     85  O   UNL A   1      42.260  19.844  25.320  1.00  0.00    -0.744 OA
ENDBRANCH  79  82
ENDBRANCH  51  75
BRANCH  63  86
ATOM     86  C   UNL A   1      46.586  25.709  32.885  1.00  0.00     0.023 A 
ATOM     87  C   UNL A   1      47.837  26.245  32.524  1.00  0.00     0.012 A 
ATOM     88  C   UNL A   1      46.529  24.645  33.807  1.00  0.00     0.148 A 
ATOM     89  C   UNL A   1      49.015  25.716  33.052  1.00  0.00     0.002 A 
ATOM     90  C   UNL A   1      47.703  24.150  34.362  1.00  0.00     0.091 A 
ATOM     91  F   UNL A   1      45.329  24.134  34.121  1.00  0.00    -0.205 F 
ATOM     92  C   UNL A   1      48.946  24.678  33.978  1.00  0.00     0.022 A 
BRANCH  90  93
ATOM     93  S   UNL A   1      47.699  22.878  35.630  1.00  0.00     0.127 S 
ATOM     94  O   UNL A   1      46.522  22.093  35.261  1.00  0.00    -0.237 OA
ATOM     95  O   UNL A   1      48.978  22.203  35.403  1.00  0.00    -0.237 OA
ATOM     96  O   UNL A   1      47.612  23.585  36.901  1.00  0.00    -0.744 OA
ENDBRANCH  90  93
ENDBRANCH  63  86
ENDBRANCH  37  38
ENDBRANCH  29  32
ENDBRANCH  27  28
ENDBRANCH  26  27
ENDBRANCH   1  26
TORSDOF 17
ENDMDL
