MODEL 1
REMARK VINA RESULT:     -13.5      0.000      0.000
REMARK SMILES O=C(NCCCCNC(=O)c1ccc(-c2c3nc(c(-c4cccc(S(=O)(=O)[O-])c4F)c4ccc([nH]4)c(-c4cccc(S(=O)(=O)[O-])c4F)c4nc(c(-c5cccc(S(=O)(=O)[O-])c5F)c5ccc2[nH]5)C=C4)C=C3)cc1)C1=Cc2cc(Cl)c(Cl)c(Cl)c2O[C@@H]1C(F)(F)F
REMARK SMILES IDX 6 1 5 2 4 3 3 4 1 5 2 6 74 8 75 9 86 10 76 11 85 12 77 13
REMARK SMILES IDX 84 14 78 15 82 16 79 17 80 18 83 19 81 20 87 21 88 22 89 23
REMARK SMILES IDX 90 24 7 25 8 26 9 27 10 29 11 30 12 31 73 32 13 33 72 34
REMARK SMILES IDX 14 35 15 36 16 37 66 38 17 39 71 40 65 41 67 42 18 43 70 44
REMARK SMILES IDX 64 45 63 46 19 48 51 49 31 50 50 51 32 52 35 53 49 54 68 55
REMARK SMILES IDX 33 56 34 57 48 59 69 60 36 61 20 62 21 63 29 64 22 65 24 66
REMARK SMILES IDX 30 67 23 68 25 69 26 70 27 71 28 72 52 73 53 74 61 75 54 76
REMARK SMILES IDX 56 77 62 78 55 79 57 80 58 81 59 82 60 83 37 84 38 85 46 86
REMARK SMILES IDX 39 87 41 88 47 89 40 90 42 91 43 92 44 93 45 94
REMARK H PARENT 3 7 8 28 67 47 35 58
REMARK Flexibility Score: inf
ROOT
ATOM      1  C   UNL A   1      31.519  28.915  27.007  1.00  0.00     0.023 C 
ENDROOT
BRANCH   1   2
ATOM      2  C   UNL A   1      31.935  27.454  26.897  1.00  0.00     0.023 C 
BRANCH   2   3
ATOM      3  C   UNL A   1      31.149  26.604  25.906  1.00  0.00     0.116 C 
BRANCH   3   4
ATOM      4  N   UNL A   1      30.507  25.427  26.469  1.00  0.00    -0.352 N 
ATOM      5  O   UNL A   1      30.349  23.340  27.298  1.00  0.00    -0.270 OA
ATOM      6  C   UNL A   1      30.995  24.159  26.647  1.00  0.00     0.251 C 
ATOM      7  H   UNL A   1      29.579  25.562  26.768  1.00  0.00     0.163 HD
BRANCH   6   8
ATOM      8  C   UNL A   1      32.341  23.751  26.150  1.00  0.00     0.067 C 
ATOM      9  C   UNL A   1      32.952  22.647  26.609  1.00  0.00     0.025 C 
ATOM     10  C   UNL A   1      32.631  24.227  24.748  1.00  0.00     0.314 C 
ATOM     11  C   UNL A   1      33.049  21.590  25.578  1.00  0.00     0.020 A 
ATOM     12  O   UNL A   1      32.521  23.146  23.786  1.00  0.00    -0.474 OA
ATOM     13  C   UNL A   1      33.187  20.269  26.013  1.00  0.00     0.034 A 
ATOM     14  C   UNL A   1      32.711  21.861  24.243  1.00  0.00     0.148 A 
ATOM     15  C   UNL A   1      32.900  19.215  25.142  1.00  0.00     0.062 A 
ATOM     16  C   UNL A   1      32.451  20.799  23.360  1.00  0.00     0.103 A 
ATOM     17  Cl  UNL A   1      32.955  17.620  25.810  1.00  0.00    -0.083 Cl
ATOM     18  C   UNL A   1      32.516  19.470  23.816  1.00  0.00     0.082 A 
ATOM     19  Cl  UNL A   1      31.960  21.170  21.735  1.00  0.00    -0.079 Cl
ATOM     20  Cl  UNL A   1      32.073  18.157  22.772  1.00  0.00    -0.081 Cl
BRANCH  10  21
ATOM     21  C   UNL A   1      34.002  24.916  24.654  1.00  0.00     0.429 C 
ATOM     22  F   UNL A   1      34.021  25.859  23.681  1.00  0.00    -0.167 F 
ATOM     23  F   UNL A   1      34.338  25.535  25.811  1.00  0.00    -0.167 F 
ATOM     24  F   UNL A   1      34.996  24.037  24.375  1.00  0.00    -0.167 F 
ENDBRANCH  10  21
ENDBRANCH   6   8
ENDBRANCH   3   4
ENDBRANCH   2   3
ENDBRANCH   1   2
BRANCH   1  25
ATOM     25  C   UNL A   1      32.388  29.938  26.275  1.00  0.00     0.116 C 
BRANCH  25  26
ATOM     26  N   UNL A   1      32.260  31.310  26.750  1.00  0.00    -0.352 N 
ATOM     27  C   UNL A   1      33.181  32.099  27.408  1.00  0.00     0.251 C 
ATOM     28  H   UNL A   1      31.389  31.736  26.577  1.00  0.00     0.163 HD
ATOM     29  O   UNL A   1      32.867  33.235  27.758  1.00  0.00    -0.269 OA
BRANCH  27  30
ATOM     30  C   UNL A   1      34.516  31.560  27.753  1.00  0.00     0.039 A 
ATOM     31  C   UNL A   1      35.572  32.457  27.932  1.00  0.00     0.014 A 
ATOM     32  C   UNL A   1      34.715  30.196  27.977  1.00  0.00     0.014 A 
ATOM     33  C   UNL A   1      36.787  32.003  28.453  1.00  0.00     0.010 A 
ATOM     34  C   UNL A   1      35.895  29.759  28.578  1.00  0.00     0.010 A 
ATOM     35  C   UNL A   1      36.934  30.661  28.845  1.00  0.00    -0.014 A 
BRANCH  35  36
ATOM     36  C   UNL A   1      38.129  30.226  29.618  1.00  0.00     0.031 A 
ATOM     37  C   UNL A   1      38.362  30.692  31.028  1.00  0.00     0.074 A 
ATOM     38  C   UNL A   1      39.060  29.466  29.005  1.00  0.00     0.049 A 
ATOM     39  N   UNL A   1      39.323  30.362  31.852  1.00  0.00    -0.248 NA
ATOM     40  C   UNL A   1      37.416  31.677  31.574  1.00  0.00     0.031 C 
ATOM     41  C   UNL A   1      39.019  29.048  27.600  1.00  0.00     0.029 A 
ATOM     42  N   UNL A   1      40.228  28.919  29.475  1.00  0.00    -0.354 N 
ATOM     43  C   UNL A   1      39.116  31.116  33.000  1.00  0.00     0.074 A 
ATOM     44  C   UNL A   1      37.961  31.951  32.751  1.00  0.00     0.031 C 
ATOM     45  C   UNL A   1      40.090  28.286  27.335  1.00  0.00     0.029 A 
ATOM     46  C   UNL A   1      40.904  28.170  28.539  1.00  0.00     0.049 A 
ATOM     47  H   UNL A   1      40.551  29.050  30.396  1.00  0.00     0.167 HD
ATOM     48  C   UNL A   1      39.803  31.092  34.169  1.00  0.00     0.034 A 
ATOM     49  C   UNL A   1      42.038  27.449  28.644  1.00  0.00     0.034 A 
ATOM     50  C   UNL A   1      40.922  30.227  34.429  1.00  0.00     0.049 A 
ATOM     51  C   UNL A   1      42.731  27.371  29.977  1.00  0.00     0.074 A 
ATOM     52  C   UNL A   1      41.612  30.042  35.615  1.00  0.00     0.029 A 
ATOM     53  N   UNL A   1      41.526  29.409  33.487  1.00  0.00    -0.354 N 
ATOM     54  N   UNL A   1      42.396  27.927  31.116  1.00  0.00    -0.248 NA
ATOM     55  C   UNL A   1      43.933  26.528  30.049  1.00  0.00     0.031 C 
ATOM     56  C   UNL A   1      42.642  29.122  35.384  1.00  0.00     0.029 A 
ATOM     57  C   UNL A   1      42.586  28.724  34.058  1.00  0.00     0.049 A 
ATOM     58  H   UNL A   1      41.242  29.326  32.548  1.00  0.00     0.167 HD
ATOM     59  C   UNL A   1      43.328  27.481  32.046  1.00  0.00     0.074 A 
ATOM     60  C   UNL A   1      44.222  26.583  31.343  1.00  0.00     0.031 C 
ATOM     61  C   UNL A   1      43.443  27.801  33.359  1.00  0.00     0.034 A 
BRANCH  48  62
ATOM     62  C   UNL A   1      39.313  31.985  35.279  1.00  0.00     0.023 A 
ATOM     63  C   UNL A   1      38.350  31.494  36.187  1.00  0.00     0.012 A 
ATOM     64  C   UNL A   1      39.826  33.285  35.455  1.00  0.00     0.148 A 
ATOM     65  C   UNL A   1      37.878  32.294  37.226  1.00  0.00     0.002 A 
ATOM     66  C   UNL A   1      39.381  34.062  36.520  1.00  0.00     0.091 A 
ATOM     67  F   UNL A   1      40.722  33.746  34.571  1.00  0.00    -0.205 F 
ATOM     68  C   UNL A   1      38.399  33.573  37.398  1.00  0.00     0.022 A 
BRANCH  66  69
ATOM     69  S   UNL A   1      40.047  35.694  36.866  1.00  0.00     0.127 S 
ATOM     70  O   UNL A   1      39.365  36.034  38.113  1.00  0.00    -0.237 OA
ATOM     71  O   UNL A   1      41.478  35.423  37.008  1.00  0.00    -0.237 OA
ATOM     72  O   UNL A   1      39.700  36.514  35.713  1.00  0.00    -0.744 OA
ENDBRANCH  66  69
ENDBRANCH  48  62
BRANCH  49  73
ATOM     73  C   UNL A   1      42.519  26.652  27.481  1.00  0.00     0.023 A 
ATOM     74  C   UNL A   1      43.375  27.262  26.542  1.00  0.00     0.012 A 
ATOM     75  C   UNL A   1      42.178  25.296  27.320  1.00  0.00     0.148 A 
ATOM     76  C   UNL A   1      43.863  26.543  25.451  1.00  0.00     0.002 A 
ATOM     77  C   UNL A   1      42.711  24.570  26.259  1.00  0.00     0.091 A 
ATOM     78  F   UNL A   1      41.353  24.737  28.216  1.00  0.00    -0.205 F 
ATOM     79  C   UNL A   1      43.541  25.196  25.315  1.00  0.00     0.022 A 
BRANCH  77  80
ATOM     80  S   UNL A   1      42.459  22.800  26.082  1.00  0.00     0.127 S 
ATOM     81  O   UNL A   1      43.126  22.282  27.272  1.00  0.00    -0.237 OA
ATOM     82  O   UNL A   1      40.999  22.697  26.098  1.00  0.00    -0.237 OA
ATOM     83  O   UNL A   1      43.069  22.445  24.806  1.00  0.00    -0.744 OA
ENDBRANCH  77  80
ENDBRANCH  49  73
BRANCH  61  84
ATOM     84  C   UNL A   1      44.576  27.171  34.126  1.00  0.00     0.023 A 
ATOM     85  C   UNL A   1      45.848  27.778  34.110  1.00  0.00     0.012 A 
ATOM     86  C   UNL A   1      44.375  26.012  34.900  1.00  0.00     0.148 A 
ATOM     87  C   UNL A   1      46.911  27.220  34.819  1.00  0.00     0.002 A 
ATOM     88  C   UNL A   1      45.428  25.487  35.641  1.00  0.00     0.091 A 
ATOM     89  F   UNL A   1      43.166  25.432  34.887  1.00  0.00    -0.205 F 
ATOM     90  C   UNL A   1      46.699  26.082  35.593  1.00  0.00     0.022 A 
BRANCH  88  91
ATOM     91  S   UNL A   1      45.208  24.078  36.734  1.00  0.00     0.127 S 
ATOM     92  O   UNL A   1      44.644  23.080  35.827  1.00  0.00    -0.237 OA
ATOM     93  O   UNL A   1      46.576  23.799  37.173  1.00  0.00    -0.237 OA
ATOM     94  O   UNL A   1      44.324  24.541  37.796  1.00  0.00    -0.744 OA
ENDBRANCH  88  91
ENDBRANCH  61  84
ENDBRANCH  35  36
ENDBRANCH  27  30
ENDBRANCH  25  26
ENDBRANCH   1  25
TORSDOF 15
ENDMDL
MODEL 2
REMARK VINA RESULT:     -13.4      5.021     10.058
REMARK SMILES O=C(NCCCCNC(=O)c1ccc(-c2c3nc(c(-c4cccc(S(=O)(=O)[O-])c4F)c4ccc([nH]4)c(-c4cccc(S(=O)(=O)[O-])c4F)c4nc(c(-c5cccc(S(=O)(=O)[O-])c5F)c5ccc2[nH]5)C=C4)C=C3)cc1)C1=Cc2cc(Cl)c(Cl)c(Cl)c2O[C@@H]1C(F)(F)F
REMARK SMILES IDX 6 1 5 2 4 3 3 4 1 5 2 6 74 8 75 9 86 10 76 11 85 12 77 13
REMARK SMILES IDX 84 14 78 15 82 16 79 17 80 18 83 19 81 20 87 21 88 22 89 23
REMARK SMILES IDX 90 24 7 25 8 26 9 27 10 29 11 30 12 31 73 32 13 33 72 34
REMARK SMILES IDX 14 35 15 36 16 37 66 38 17 39 71 40 65 41 67 42 18 43 70 44
REMARK SMILES IDX 64 45 63 46 19 48 51 49 31 50 50 51 32 52 35 53 49 54 68 55
REMARK SMILES IDX 33 56 34 57 48 59 69 60 36 61 20 62 21 63 29 64 22 65 24 66
REMARK SMILES IDX 30 67 23 68 25 69 26 70 27 71 28 72 52 73 53 74 61 75 54 76
REMARK SMILES IDX 56 77 62 78 55 79 57 80 58 81 59 82 60 83 37 84 38 85 46 86
REMARK SMILES IDX 39 87 41 88 47 89 40 90 42 91 43 92 44 93 45 94
REMARK H PARENT 3 7 8 28 67 47 35 58
REMARK Flexibility Score: inf
ROOT
ATOM      1  C   UNL A   1      35.699  20.964  25.280  1.00  0.00     0.023 C 
ENDROOT
BRANCH   1   2
ATOM      2  C   UNL A   1      34.933  21.558  26.456  1.00  0.00     0.023 C 
BRANCH   2   3
ATOM      3  C   UNL A   1      33.421  21.374  26.435  1.00  0.00     0.116 C 
BRANCH   3   4
ATOM      4  N   UNL A   1      32.658  22.423  27.092  1.00  0.00    -0.352 N 
ATOM      5  O   UNL A   1      31.285  24.198  27.268  1.00  0.00    -0.270 OA
ATOM      6  C   UNL A   1      32.021  23.514  26.561  1.00  0.00     0.251 C 
ATOM      7  H   UNL A   1      32.588  22.336  28.070  1.00  0.00     0.163 HD
BRANCH   6   8
ATOM      8  C   UNL A   1      32.118  23.860  25.113  1.00  0.00     0.067 C 
ATOM      9  C   UNL A   1      31.022  24.094  24.374  1.00  0.00     0.025 C 
ATOM     10  C   UNL A   1      33.415  24.538  24.745  1.00  0.00     0.314 C 
ATOM     11  C   UNL A   1      30.914  25.511  23.963  1.00  0.00     0.020 A 
ATOM     12  O   UNL A   1      33.232  25.962  24.541  1.00  0.00    -0.474 OA
ATOM     13  C   UNL A   1      29.644  26.000  23.644  1.00  0.00     0.034 A 
ATOM     14  C   UNL A   1      31.978  26.400  24.179  1.00  0.00     0.148 A 
ATOM     15  C   UNL A   1      29.411  27.378  23.628  1.00  0.00     0.062 A 
ATOM     16  C   UNL A   1      31.749  27.786  24.134  1.00  0.00     0.103 A 
ATOM     17  Cl  UNL A   1      27.778  27.885  23.368  1.00  0.00    -0.083 Cl
ATOM     18  C   UNL A   1      30.455  28.280  23.888  1.00  0.00     0.082 A 
ATOM     19  Cl  UNL A   1      33.070  28.859  24.482  1.00  0.00    -0.079 Cl
ATOM     20  Cl  UNL A   1      30.133  29.984  23.956  1.00  0.00    -0.081 Cl
BRANCH  10  21
ATOM     21  C   UNL A   1      34.071  23.880  23.519  1.00  0.00     0.429 C 
ATOM     22  F   UNL A   1      33.689  22.589  23.381  1.00  0.00    -0.167 F 
ATOM     23  F   UNL A   1      33.744  24.515  22.368  1.00  0.00    -0.167 F 
ATOM     24  F   UNL A   1      35.425  23.887  23.601  1.00  0.00    -0.167 F 
ENDBRANCH  10  21
ENDBRANCH   6   8
ENDBRANCH   3   4
ENDBRANCH   2   3
ENDBRANCH   1   2
BRANCH   1  25
ATOM     25  C   UNL A   1      37.105  21.507  25.027  1.00  0.00     0.116 C 
BRANCH  25  26
ATOM     26  N   UNL A   1      38.185  20.556  25.264  1.00  0.00    -0.352 N 
ATOM     27  C   UNL A   1      39.355  20.719  25.976  1.00  0.00     0.251 C 
ATOM     28  H   UNL A   1      38.062  19.669  24.856  1.00  0.00     0.163 HD
ATOM     29  O   UNL A   1      40.165  19.796  26.034  1.00  0.00    -0.269 OA
BRANCH  27  30
ATOM     30  C   UNL A   1      39.670  22.020  26.610  1.00  0.00     0.039 A 
ATOM     31  C   UNL A   1      40.622  22.051  27.632  1.00  0.00     0.014 A 
ATOM     32  C   UNL A   1      39.096  23.209  26.155  1.00  0.00     0.014 A 
ATOM     33  C   UNL A   1      41.087  23.280  28.108  1.00  0.00     0.010 A 
ATOM     34  C   UNL A   1      39.622  24.433  26.568  1.00  0.00     0.010 A 
ATOM     35  C   UNL A   1      40.640  24.482  27.530  1.00  0.00    -0.014 A 
BRANCH  35  36
ATOM     36  C   UNL A   1      41.303  25.772  27.861  1.00  0.00     0.031 A 
ATOM     37  C   UNL A   1      42.720  26.053  27.447  1.00  0.00     0.074 A 
ATOM     38  C   UNL A   1      40.641  26.668  28.622  1.00  0.00     0.049 A 
ATOM     39  N   UNL A   1      43.421  27.146  27.610  1.00  0.00    -0.248 NA
ATOM     40  C   UNL A   1      43.458  24.962  26.792  1.00  0.00     0.031 C 
ATOM     41  C   UNL A   1      39.307  26.467  29.197  1.00  0.00     0.029 A 
ATOM     42  N   UNL A   1      40.999  27.921  29.054  1.00  0.00    -0.354 N 
ATOM     43  C   UNL A   1      44.685  26.868  27.108  1.00  0.00     0.074 A 
ATOM     44  C   UNL A   1      44.668  25.488  26.670  1.00  0.00     0.031 C 
ATOM     45  C   UNL A   1      38.948  27.567  29.875  1.00  0.00     0.029 A 
ATOM     46  C   UNL A   1      40.026  28.547  29.800  1.00  0.00     0.049 A 
ATOM     47  H   UNL A   1      41.870  28.333  28.850  1.00  0.00     0.167 HD
ATOM     48  C   UNL A   1      45.754  27.692  26.989  1.00  0.00     0.034 A 
ATOM     49  C   UNL A   1      39.993  29.781  30.341  1.00  0.00     0.034 A 
ATOM     50  C   UNL A   1      45.753  29.076  27.383  1.00  0.00     0.049 A 
ATOM     51  C   UNL A   1      41.159  30.706  30.119  1.00  0.00     0.074 A 
ATOM     52  C   UNL A   1      46.742  30.026  27.199  1.00  0.00     0.029 A 
ATOM     53  N   UNL A   1      44.716  29.708  28.052  1.00  0.00    -0.354 N 
ATOM     54  N   UNL A   1      42.267  30.491  29.453  1.00  0.00    -0.248 NA
ATOM     55  C   UNL A   1      41.048  32.058  30.685  1.00  0.00     0.031 C 
ATOM     56  C   UNL A   1      46.307  31.229  27.769  1.00  0.00     0.029 A 
ATOM     57  C   UNL A   1      45.043  31.031  28.298  1.00  0.00     0.049 A 
ATOM     58  H   UNL A   1      43.870  29.278  28.313  1.00  0.00     0.167 HD
ATOM     59  C   UNL A   1      42.974  31.688  29.495  1.00  0.00     0.074 A 
ATOM     60  C   UNL A   1      42.152  32.631  30.226  1.00  0.00     0.031 C 
ATOM     61  C   UNL A   1      44.200  31.972  28.990  1.00  0.00     0.034 A 
BRANCH  48  62
ATOM     62  C   UNL A   1      46.994  27.132  26.343  1.00  0.00     0.023 A 
ATOM     63  C   UNL A   1      47.163  27.256  24.947  1.00  0.00     0.012 A 
ATOM     64  C   UNL A   1      48.008  26.523  27.108  1.00  0.00     0.148 A 
ATOM     65  C   UNL A   1      48.299  26.749  24.319  1.00  0.00     0.002 A 
ATOM     66  C   UNL A   1      49.159  26.058  26.480  1.00  0.00     0.091 A 
ATOM     67  F   UNL A   1      47.823  26.391  28.429  1.00  0.00    -0.205 F 
ATOM     68  C   UNL A   1      49.301  26.159  25.085  1.00  0.00     0.022 A 
BRANCH  66  69
ATOM     69  S   UNL A   1      50.535  25.349  27.392  1.00  0.00     0.127 S 
ATOM     70  O   UNL A   1      49.912  24.178  28.006  1.00  0.00    -0.237 OA
ATOM     71  O   UNL A   1      51.491  25.043  26.326  1.00  0.00    -0.237 OA
ATOM     72  O   UNL A   1      50.974  26.387  28.315  1.00  0.00    -0.744 OA
ENDBRANCH  66  69
ENDBRANCH  48  62
BRANCH  49  73
ATOM     73  C   UNL A   1      38.765  30.248  31.044  1.00  0.00     0.023 A 
ATOM     74  C   UNL A   1      38.655  30.046  32.434  1.00  0.00     0.012 A 
ATOM     75  C   UNL A   1      37.735  30.926  30.365  1.00  0.00     0.148 A 
ATOM     76  C   UNL A   1      37.531  30.489  33.131  1.00  0.00     0.002 A 
ATOM     77  C   UNL A   1      36.641  31.411  31.075  1.00  0.00     0.091 A 
ATOM     78  F   UNL A   1      37.852  31.098  29.041  1.00  0.00    -0.205 F 
ATOM     79  C   UNL A   1      36.530  31.180  32.455  1.00  0.00     0.022 A 
BRANCH  77  80
ATOM     80  S   UNL A   1      35.373  32.428  30.311  1.00  0.00     0.127 S 
ATOM     81  O   UNL A   1      34.436  32.619  31.415  1.00  0.00    -0.237 OA
ATOM     82  O   UNL A   1      36.129  33.622  29.929  1.00  0.00    -0.237 OA
ATOM     83  O   UNL A   1      34.875  31.651  29.183  1.00  0.00    -0.744 OA
ENDBRANCH  77  80
ENDBRANCH  49  73
BRANCH  61  84
ATOM     84  C   UNL A   1      44.729  33.366  29.206  1.00  0.00     0.023 A 
ATOM     85  C   UNL A   1      45.391  33.679  30.410  1.00  0.00     0.012 A 
ATOM     86  C   UNL A   1      44.615  34.351  28.205  1.00  0.00     0.148 A 
ATOM     87  C   UNL A   1      45.897  34.960  30.631  1.00  0.00     0.002 A 
ATOM     88  C   UNL A   1      45.163  35.612  28.414  1.00  0.00     0.091 A 
ATOM     89  F   UNL A   1      43.962  34.046  27.075  1.00  0.00    -0.205 F 
ATOM     90  C   UNL A   1      45.794  35.922  29.629  1.00  0.00     0.022 A 
BRANCH  88  91
ATOM     91  S   UNL A   1      45.151  36.875  27.135  1.00  0.00     0.127 S 
ATOM     92  O   UNL A   1      45.975  36.257  26.097  1.00  0.00    -0.237 OA
ATOM     93  O   UNL A   1      43.729  36.978  26.804  1.00  0.00    -0.237 OA
ATOM     94  O   UNL A   1      45.707  38.068  27.759  1.00  0.00    -0.744 OA
ENDBRANCH  88  91
ENDBRANCH  61  84
ENDBRANCH  35  36
ENDBRANCH  27  30
ENDBRANCH  25  26
ENDBRANCH   1  25
TORSDOF 15
ENDMDL
MODEL 3
REMARK VINA RESULT:     -13.4      1.353      1.932
REMARK SMILES O=C(NCCCCNC(=O)c1ccc(-c2c3nc(c(-c4cccc(S(=O)(=O)[O-])c4F)c4ccc([nH]4)c(-c4cccc(S(=O)(=O)[O-])c4F)c4nc(c(-c5cccc(S(=O)(=O)[O-])c5F)c5ccc2[nH]5)C=C4)C=C3)cc1)C1=Cc2cc(Cl)c(Cl)c(Cl)c2O[C@@H]1C(F)(F)F
REMARK SMILES IDX 6 1 5 2 4 3 3 4 1 5 2 6 74 8 75 9 86 10 76 11 85 12 77 13
REMARK SMILES IDX 84 14 78 15 82 16 79 17 80 18 83 19 81 20 87 21 88 22 89 23
REMARK SMILES IDX 90 24 7 25 8 26 9 27 10 29 11 30 12 31 73 32 13 33 72 34
REMARK SMILES IDX 14 35 15 36 16 37 66 38 17 39 71 40 65 41 67 42 18 43 70 44
REMARK SMILES IDX 64 45 63 46 19 48 51 49 31 50 50 51 32 52 35 53 49 54 68 55
REMARK SMILES IDX 33 56 34 57 48 59 69 60 36 61 20 62 21 63 29 64 22 65 24 66
REMARK SMILES IDX 30 67 23 68 25 69 26 70 27 71 28 72 52 73 53 74 61 75 54 76
REMARK SMILES IDX 56 77 62 78 55 79 57 80 58 81 59 82 60 83 37 84 38 85 46 86
REMARK SMILES IDX 39 87 41 88 47 89 40 90 42 91 43 92 44 93 45 94
REMARK H PARENT 3 7 8 28 67 47 35 58
REMARK Flexibility Score: inf
ROOT
ATOM      1  C   UNL A   1      31.683  30.019  25.028  1.00  0.00     0.023 C 
ENDROOT
BRANCH   1   2
ATOM      2  C   UNL A   1      32.646  29.314  24.081  1.00  0.00     0.023 C 
BRANCH   2   3
ATOM      3  C   UNL A   1      32.012  28.540  22.931  1.00  0.00     0.116 C 
BRANCH   3   4
ATOM      4  N   UNL A   1      32.883  27.577  22.277  1.00  0.00    -0.352 N 
ATOM      5  O   UNL A   1      33.737  25.559  21.761  1.00  0.00    -0.270 OA
ATOM      6  C   UNL A   1      33.078  26.247  22.539  1.00  0.00     0.251 C 
ATOM      7  H   UNL A   1      33.413  27.936  21.529  1.00  0.00     0.163 HD
BRANCH   6   8
ATOM      8  C   UNL A   1      32.441  25.567  23.704  1.00  0.00     0.067 C 
ATOM      9  C   UNL A   1      31.700  24.458  23.549  1.00  0.00     0.025 C 
ATOM     10  C   UNL A   1      33.179  25.786  25.002  1.00  0.00     0.314 C 
ATOM     11  C   UNL A   1      32.349  23.262  24.130  1.00  0.00     0.020 A 
ATOM     12  O   UNL A   1      33.934  24.609  25.390  1.00  0.00    -0.474 OA
ATOM     13  C   UNL A   1      31.974  22.012  23.631  1.00  0.00     0.034 A 
ATOM     14  C   UNL A   1      33.503  23.389  24.918  1.00  0.00     0.148 A 
ATOM     15  C   UNL A   1      32.795  20.902  23.842  1.00  0.00     0.062 A 
ATOM     16  C   UNL A   1      34.313  22.265  25.154  1.00  0.00     0.103 A 
ATOM     17  Cl  UNL A   1      32.324  19.430  23.064  1.00  0.00    -0.083 Cl
ATOM     18  C   UNL A   1      33.977  21.021  24.590  1.00  0.00     0.082 A 
ATOM     19  Cl  UNL A   1      35.775  22.471  26.070  1.00  0.00    -0.079 Cl
ATOM     20  Cl  UNL A   1      35.034  19.657  24.767  1.00  0.00    -0.081 Cl
BRANCH  10  21
ATOM     21  C   UNL A   1      32.230  26.233  26.127  1.00  0.00     0.429 C 
ATOM     22  F   UNL A   1      31.118  26.827  25.634  1.00  0.00    -0.167 F 
ATOM     23  F   UNL A   1      31.818  25.190  26.886  1.00  0.00    -0.167 F 
ATOM     24  F   UNL A   1      32.818  27.123  26.965  1.00  0.00    -0.167 F 
ENDBRANCH  10  21
ENDBRANCH   6   8
ENDBRANCH   3   4
ENDBRANCH   2   3
ENDBRANCH   1   2
BRANCH   1  25
ATOM     25  C   UNL A   1      32.186  30.297  26.444  1.00  0.00     0.116 C 
BRANCH  25  26
ATOM     26  N   UNL A   1      32.143  31.697  26.851  1.00  0.00    -0.352 N 
ATOM     27  C   UNL A   1      33.123  32.467  27.443  1.00  0.00     0.251 C 
ATOM     28  H   UNL A   1      31.292  32.160  26.678  1.00  0.00     0.163 HD
ATOM     29  O   UNL A   1      32.879  33.635  27.741  1.00  0.00    -0.269 OA
BRANCH  27  30
ATOM     30  C   UNL A   1      34.437  31.875  27.782  1.00  0.00     0.039 A 
ATOM     31  C   UNL A   1      35.535  32.727  27.925  1.00  0.00     0.014 A 
ATOM     32  C   UNL A   1      34.577  30.509  28.034  1.00  0.00     0.014 A 
ATOM     33  C   UNL A   1      36.736  32.230  28.439  1.00  0.00     0.010 A 
ATOM     34  C   UNL A   1      35.744  30.032  28.628  1.00  0.00     0.010 A 
ATOM     35  C   UNL A   1      36.828  30.891  28.860  1.00  0.00    -0.014 A 
BRANCH  35  36
ATOM     36  C   UNL A   1      38.013  30.419  29.626  1.00  0.00     0.031 A 
ATOM     37  C   UNL A   1      38.259  30.864  31.040  1.00  0.00     0.074 A 
ATOM     38  C   UNL A   1      38.925  29.645  29.002  1.00  0.00     0.049 A 
ATOM     39  N   UNL A   1      39.213  30.501  31.860  1.00  0.00    -0.248 NA
ATOM     40  C   UNL A   1      37.337  31.864  31.600  1.00  0.00     0.031 C 
ATOM     41  C   UNL A   1      38.872  29.245  27.593  1.00  0.00     0.029 A 
ATOM     42  N   UNL A   1      40.081  29.065  29.465  1.00  0.00    -0.354 N 
ATOM     43  C   UNL A   1      39.025  31.246  33.017  1.00  0.00     0.074 A 
ATOM     44  C   UNL A   1      37.889  32.111  32.779  1.00  0.00     0.031 C 
ATOM     45  C   UNL A   1      39.925  28.461  27.317  1.00  0.00     0.029 A 
ATOM     46  C   UNL A   1      40.738  28.312  28.519  1.00  0.00     0.049 A 
ATOM     47  H   UNL A   1      40.408  29.178  30.386  1.00  0.00     0.167 HD
ATOM     48  C   UNL A   1      39.713  31.193  34.184  1.00  0.00     0.034 A 
ATOM     49  C   UNL A   1      41.855  27.564  28.613  1.00  0.00     0.034 A 
ATOM     50  C   UNL A   1      40.812  30.299  34.432  1.00  0.00     0.049 A 
ATOM     51  C   UNL A   1      42.548  27.453  29.944  1.00  0.00     0.074 A 
ATOM     52  C   UNL A   1      41.499  30.083  35.614  1.00  0.00     0.029 A 
ATOM     53  N   UNL A   1      41.395  29.477  33.479  1.00  0.00    -0.354 N 
ATOM     54  N   UNL A   1      42.227  28.004  31.090  1.00  0.00    -0.248 NA
ATOM     55  C   UNL A   1      43.730  26.582  30.004  1.00  0.00     0.031 C 
ATOM     56  C   UNL A   1      42.506  29.142  35.371  1.00  0.00     0.029 A 
ATOM     57  C   UNL A   1      42.440  28.762  34.041  1.00  0.00     0.049 A 
ATOM     58  H   UNL A   1      41.108  29.413  32.540  1.00  0.00     0.167 HD
ATOM     59  C   UNL A   1      43.149  27.526  32.013  1.00  0.00     0.074 A 
ATOM     60  C   UNL A   1      44.021  26.616  31.298  1.00  0.00     0.031 C 
ATOM     61  C   UNL A   1      43.274  27.828  33.330  1.00  0.00     0.034 A 
BRANCH  48  62
ATOM     62  C   UNL A   1      39.245  32.083  35.306  1.00  0.00     0.023 A 
ATOM     63  C   UNL A   1      38.294  31.594  36.226  1.00  0.00     0.012 A 
ATOM     64  C   UNL A   1      39.768  33.380  35.479  1.00  0.00     0.148 A 
ATOM     65  C   UNL A   1      37.842  32.392  37.275  1.00  0.00     0.002 A 
ATOM     66  C   UNL A   1      39.344  34.155  36.553  1.00  0.00     0.091 A 
ATOM     67  F   UNL A   1      40.653  33.840  34.583  1.00  0.00    -0.205 F 
ATOM     68  C   UNL A   1      38.373  33.668  37.445  1.00  0.00     0.022 A 
BRANCH  66  69
ATOM     69  S   UNL A   1      40.025  35.782  36.895  1.00  0.00     0.127 S 
ATOM     70  O   UNL A   1      39.346  36.131  38.142  1.00  0.00    -0.237 OA
ATOM     71  O   UNL A   1      41.454  35.498  37.038  1.00  0.00    -0.237 OA
ATOM     72  O   UNL A   1      39.686  36.602  35.741  1.00  0.00    -0.744 OA
ENDBRANCH  66  69
ENDBRANCH  48  62
BRANCH  49  73
ATOM     73  C   UNL A   1      42.315  26.769  27.440  1.00  0.00     0.023 A 
ATOM     74  C   UNL A   1      43.117  27.395  26.464  1.00  0.00     0.012 A 
ATOM     75  C   UNL A   1      42.009  25.402  27.304  1.00  0.00     0.148 A 
ATOM     76  C   UNL A   1      43.586  26.679  25.362  1.00  0.00     0.002 A 
ATOM     77  C   UNL A   1      42.523  24.682  26.230  1.00  0.00     0.091 A 
ATOM     78  F   UNL A   1      41.234  24.829  28.235  1.00  0.00    -0.205 F 
ATOM     79  C   UNL A   1      43.298  25.322  25.250  1.00  0.00     0.022 A 
BRANCH  77  80
ATOM     80  S   UNL A   1      42.317  22.904  26.078  1.00  0.00     0.127 S 
ATOM     81  O   UNL A   1      42.923  22.642  24.775  1.00  0.00    -0.237 OA
ATOM     82  O   UNL A   1      43.082  22.410  27.225  1.00  0.00    -0.237 OA
ATOM     83  O   UNL A   1      40.882  22.667  26.171  1.00  0.00    -0.744 OA
ENDBRANCH  77  80
ENDBRANCH  49  73
BRANCH  61  84
ATOM     84  C   UNL A   1      44.393  27.162  34.088  1.00  0.00     0.023 A 
ATOM     85  C   UNL A   1      45.635  27.816  34.207  1.00  0.00     0.012 A 
ATOM     86  C   UNL A   1      44.204  25.918  34.721  1.00  0.00     0.148 A 
ATOM     87  C   UNL A   1      46.685  27.226  34.911  1.00  0.00     0.002 A 
ATOM     88  C   UNL A   1      45.240  25.357  35.460  1.00  0.00     0.091 A 
ATOM     89  F   UNL A   1      43.024  25.297  34.578  1.00  0.00    -0.205 F 
ATOM     90  C   UNL A   1      46.484  26.003  35.546  1.00  0.00     0.022 A 
BRANCH  88  91
ATOM     91  S   UNL A   1      45.028  23.830  36.382  1.00  0.00     0.127 S 
ATOM     92  O   UNL A   1      43.920  23.200  35.666  1.00  0.00    -0.237 OA
ATOM     93  O   UNL A   1      46.321  23.169  36.206  1.00  0.00    -0.237 OA
ATOM     94  O   UNL A   1      44.746  24.237  37.753  1.00  0.00    -0.744 OA
ENDBRANCH  88  91
ENDBRANCH  61  84
ENDBRANCH  35  36
ENDBRANCH  27  30
ENDBRANCH  25  26
ENDBRANCH   1  25
TORSDOF 15
ENDMDL
