MODEL 1
REMARK VINA RESULT:     -12.4      0.000      0.000
REMARK SMILES [NH3+][C@H]1C=C[C@@H](C(=O)NC2(CC(=O)NCCCCNC(=O)c3ccc(-c4c5nc(c(-c6cccc(S(=O)(=O)[O-])c6F)c6ccc([nH]6)c(-c6cccc(S(=O)(=O)[O-])c6F)c6nc(c(-c7cccc(S(=O)(=O)[O-])c7F)c7ccc4[nH]7)C=C6)C=C5)cc3)CCCCC2)C1
REMARK SMILES IDX 15 1 14 2 13 3 11 4 12 5 10 7 9 8 84 9 88 10 85 11 87 12
REMARK SMILES IDX 86 13 8 14 6 15 7 16 5 18 2 19 3 20 89 21 4 22 1 23 16 27
REMARK SMILES IDX 17 28 18 29 19 30 20 32 21 33 22 34 83 35 23 36 82 37 24 38
REMARK SMILES IDX 25 39 26 40 76 41 27 42 81 43 75 44 77 45 28 46 80 47 74 48
REMARK SMILES IDX 73 49 29 51 61 52 41 53 60 54 42 55 45 56 59 57 78 58 43 59
REMARK SMILES IDX 44 60 58 62 79 63 46 64 30 65 31 66 39 67 32 68 34 69 40 70
REMARK SMILES IDX 33 71 35 72 36 73 37 74 38 75 62 76 63 77 71 78 64 79 66 80
REMARK SMILES IDX 72 81 65 82 67 83 68 84 69 85 70 86 47 87 48 88 56 89 49 90
REMARK SMILES IDX 51 91 57 92 50 93 52 94 53 95 54 96 55 97
REMARK H PARENT 13 6 8 17 1 24 1 25 1 26 18 31 77 50 45 61
REMARK Flexibility Score: inf
ROOT
ATOM      1  C   UNL A   1      31.613  27.922  26.608  1.00  0.00     0.023 C 
ENDROOT
BRANCH   1   2
ATOM      2  C   UNL A   1      30.863  26.685  26.105  1.00  0.00     0.116 C 
BRANCH   2   3
ATOM      3  N   UNL A   1      31.250  25.511  26.862  1.00  0.00    -0.356 N 
ATOM      4  C   UNL A   1      31.650  24.286  26.433  1.00  0.00     0.222 C 
ATOM      5  O   UNL A   1      31.778  23.386  27.267  1.00  0.00    -0.275 OA
ATOM      6  H   UNL A   1      31.218  25.619  27.840  1.00  0.00     0.163 HD
BRANCH   4   7
ATOM      7  C   UNL A   1      31.957  24.000  24.972  1.00  0.00     0.128 C 
BRANCH   7   8
ATOM      8  C   UNL A   1      33.471  23.949  24.560  1.00  0.00     0.049 C 
ATOM      9  C   UNL A   1      34.082  25.368  24.743  1.00  0.00     0.029 C 
ATOM     10  C   UNL A   1      33.607  23.591  23.077  1.00  0.00     0.029 C 
ATOM     11  C   UNL A   1      33.537  26.410  23.758  1.00  0.00     0.002 C 
ATOM     12  C   UNL A   1      33.017  24.595  22.093  1.00  0.00     0.002 C 
ATOM     13  C   UNL A   1      33.651  25.960  22.304  1.00  0.00     0.000 C 
BRANCH   8  14
ATOM     14  N   UNL A   1      34.181  23.002  25.469  1.00  0.00    -0.350 N 
ATOM     15  C   UNL A   1      34.463  21.682  25.581  1.00  0.00     0.227 C 
ATOM     16  O   UNL A   1      35.294  21.406  26.461  1.00  0.00    -0.274 OA
ATOM     17  H   UNL A   1      34.569  23.492  26.229  1.00  0.00     0.164 HD
BRANCH  15  18
ATOM     18  C   UNL A   1      33.858  20.516  24.790  1.00  0.00     0.107 C 
ATOM     19  C   UNL A   1      33.801  18.072  24.637  1.00  0.00     0.205 C 
ATOM     20  C   UNL A   1      32.527  18.631  25.188  1.00  0.00     0.033 C 
ATOM     21  C   UNL A   1      34.753  19.283  24.626  1.00  0.00     0.087 C 
ATOM     22  C   UNL A   1      32.555  19.967  25.270  1.00  0.00    -0.012 C 
BRANCH  19  23
ATOM     23  N   UNL A   1      34.317  16.968  25.426  1.00  0.00    -0.352 N 
ATOM     24  H   UNL A   1      34.343  17.237  26.411  1.00  0.00     0.345 HD
ATOM     25  H   UNL A   1      35.259  16.735  25.112  1.00  0.00     0.345 HD
ATOM     26  H   UNL A   1      33.710  16.156  25.312  1.00  0.00     0.345 HD
ENDBRANCH  19  23
ENDBRANCH  15  18
ENDBRANCH   8  14
ENDBRANCH   7   8
ENDBRANCH   4   7
ENDBRANCH   2   3
ENDBRANCH   1   2
BRANCH   1  27
ATOM     27  C   UNL A   1      31.654  29.097  25.641  1.00  0.00     0.023 C 
BRANCH  27  28
ATOM     28  C   UNL A   1      32.849  30.017  25.840  1.00  0.00     0.116 C 
BRANCH  28  29
ATOM     29  N   UNL A   1      32.522  31.302  26.449  1.00  0.00    -0.352 N 
ATOM     30  C   UNL A   1      33.281  32.035  27.339  1.00  0.00     0.251 C 
ATOM     31  H   UNL A   1      31.654  31.694  26.195  1.00  0.00     0.163 HD
ATOM     32  O   UNL A   1      32.870  33.082  27.808  1.00  0.00    -0.269 OA
BRANCH  30  33
ATOM     33  C   UNL A   1      34.589  31.480  27.749  1.00  0.00     0.039 A 
ATOM     34  C   UNL A   1      35.645  32.359  27.998  1.00  0.00     0.014 A 
ATOM     35  C   UNL A   1      34.714  30.116  28.016  1.00  0.00     0.014 A 
ATOM     36  C   UNL A   1      36.804  31.877  28.609  1.00  0.00     0.010 A 
ATOM     37  C   UNL A   1      35.827  29.659  28.706  1.00  0.00     0.010 A 
ATOM     38  C   UNL A   1      36.881  30.534  29.014  1.00  0.00    -0.014 A 
BRANCH  38  39
ATOM     39  C   UNL A   1      38.047  30.012  29.769  1.00  0.00     0.031 A 
ATOM     40  C   UNL A   1      38.304  30.500  31.170  1.00  0.00     0.074 A 
ATOM     41  C   UNL A   1      38.931  29.193  29.162  1.00  0.00     0.049 A 
ATOM     42  N   UNL A   1      39.322  30.262  31.952  1.00  0.00    -0.248 NA
ATOM     43  C   UNL A   1      37.301  31.412  31.751  1.00  0.00     0.031 C 
ATOM     44  C   UNL A   1      38.844  28.723  27.778  1.00  0.00     0.029 A 
ATOM     45  N   UNL A   1      40.096  28.635  29.627  1.00  0.00    -0.354 N 
ATOM     46  C   UNL A   1      39.109  31.026  33.093  1.00  0.00     0.074 A 
ATOM     47  C   UNL A   1      37.885  31.768  32.887  1.00  0.00     0.031 C 
ATOM     48  C   UNL A   1      39.903  27.941  27.509  1.00  0.00     0.029 A 
ATOM     49  C   UNL A   1      40.756  27.871  28.690  1.00  0.00     0.049 A 
ATOM     50  H   UNL A   1      40.428  28.766  30.544  1.00  0.00     0.167 HD
ATOM     51  C   UNL A   1      39.841  31.076  34.230  1.00  0.00     0.034 A 
ATOM     52  C   UNL A   1      41.917  27.191  28.779  1.00  0.00     0.034 A 
ATOM     53  C   UNL A   1      41.011  30.277  34.464  1.00  0.00     0.049 A 
ATOM     54  C   UNL A   1      42.664  27.197  30.086  1.00  0.00     0.074 A 
ATOM     55  C   UNL A   1      41.777  30.188  35.613  1.00  0.00     0.029 A 
ATOM     56  N   UNL A   1      41.575  29.414  33.537  1.00  0.00    -0.354 N 
ATOM     57  N   UNL A   1      42.363  27.808  31.207  1.00  0.00    -0.248 NA
ATOM     58  C   UNL A   1      43.890  26.387  30.156  1.00  0.00     0.031 C 
ATOM     59  C   UNL A   1      42.801  29.264  35.382  1.00  0.00     0.029 A 
ATOM     60  C   UNL A   1      42.670  28.777  34.091  1.00  0.00     0.049 A 
ATOM     61  H   UNL A   1      41.244  29.276  32.620  1.00  0.00     0.167 HD
ATOM     62  C   UNL A   1      43.336  27.426  32.123  1.00  0.00     0.074 A 
ATOM     63  C   UNL A   1      44.225  26.514  31.433  1.00  0.00     0.031 C 
ATOM     64  C   UNL A   1      43.494  27.812  33.412  1.00  0.00     0.034 A 
BRANCH  51  65
ATOM     65  C   UNL A   1      39.343  31.957  35.342  1.00  0.00     0.023 A 
ATOM     66  C   UNL A   1      39.576  33.346  35.273  1.00  0.00     0.012 A 
ATOM     67  C   UNL A   1      38.604  31.432  36.419  1.00  0.00     0.148 A 
ATOM     68  C   UNL A   1      39.110  34.196  36.273  1.00  0.00     0.002 A 
ATOM     69  C   UNL A   1      38.107  32.292  37.392  1.00  0.00     0.091 A 
ATOM     70  F   UNL A   1      38.412  30.107  36.478  1.00  0.00    -0.205 F 
ATOM     71  C   UNL A   1      38.366  33.671  37.326  1.00  0.00     0.022 A 
BRANCH  69  72
ATOM     72  S   UNL A   1      37.079  31.727  38.753  1.00  0.00     0.127 S 
ATOM     73  O   UNL A   1      37.956  31.956  39.900  1.00  0.00    -0.237 OA
ATOM     74  O   UNL A   1      35.933  32.636  38.671  1.00  0.00    -0.237 OA
ATOM     75  O   UNL A   1      36.769  30.333  38.472  1.00  0.00    -0.744 OA
ENDBRANCH  69  72
ENDBRANCH  51  65
BRANCH  52  76
ATOM     76  C   UNL A   1      42.399  26.373  27.631  1.00  0.00     0.023 A 
ATOM     77  C   UNL A   1      43.262  26.963  26.685  1.00  0.00     0.012 A 
ATOM     78  C   UNL A   1      42.024  25.026  27.468  1.00  0.00     0.148 A 
ATOM     79  C   UNL A   1      43.711  26.239  25.580  1.00  0.00     0.002 A 
ATOM     80  C   UNL A   1      42.517  24.295  26.391  1.00  0.00     0.091 A 
ATOM     81  F   UNL A   1      41.189  24.483  28.366  1.00  0.00    -0.205 F 
ATOM     82  C   UNL A   1      43.347  24.903  25.438  1.00  0.00     0.022 A 
BRANCH  80  83
ATOM     83  S   UNL A   1      42.190  22.537  26.213  1.00  0.00     0.127 S 
ATOM     84  O   UNL A   1      42.937  22.215  25.002  1.00  0.00    -0.237 OA
ATOM     85  O   UNL A   1      42.753  21.989  27.448  1.00  0.00    -0.237 OA
ATOM     86  O   UNL A   1      40.740  22.431  26.124  1.00  0.00    -0.744 OA
ENDBRANCH  80  83
ENDBRANCH  52  76
BRANCH  64  87
ATOM     87  C   UNL A   1      44.642  27.223  34.183  1.00  0.00     0.023 A 
ATOM     88  C   UNL A   1      45.877  27.899  34.217  1.00  0.00     0.012 A 
ATOM     89  C   UNL A   1      44.470  26.051  34.946  1.00  0.00     0.148 A 
ATOM     90  C   UNL A   1      46.932  27.404  34.981  1.00  0.00     0.002 A 
ATOM     91  C   UNL A   1      45.513  25.588  35.738  1.00  0.00     0.091 A 
ATOM     92  F   UNL A   1      43.293  25.411  34.882  1.00  0.00    -0.205 F 
ATOM     93  C   UNL A   1      46.747  26.259  35.751  1.00  0.00     0.022 A 
BRANCH  91  94
ATOM     94  S   UNL A   1      45.328  24.173  36.831  1.00  0.00     0.127 S 
ATOM     95  O   UNL A   1      46.690  24.004  37.333  1.00  0.00    -0.237 OA
ATOM     96  O   UNL A   1      44.369  24.664  37.821  1.00  0.00    -0.237 OA
ATOM     97  O   UNL A   1      44.826  23.090  35.995  1.00  0.00    -0.744 OA
ENDBRANCH  91  94
ENDBRANCH  64  87
ENDBRANCH  38  39
ENDBRANCH  30  33
ENDBRANCH  28  29
ENDBRANCH  27  28
ENDBRANCH   1  27
TORSDOF 18
ENDMDL
MODEL 2
REMARK VINA RESULT:     -12.2      5.129     10.482
REMARK SMILES [NH3+][C@H]1C=C[C@@H](C(=O)NC2(CC(=O)NCCCCNC(=O)c3ccc(-c4c5nc(c(-c6cccc(S(=O)(=O)[O-])c6F)c6ccc([nH]6)c(-c6cccc(S(=O)(=O)[O-])c6F)c6nc(c(-c7cccc(S(=O)(=O)[O-])c7F)c7ccc4[nH]7)C=C6)C=C5)cc3)CCCCC2)C1
REMARK SMILES IDX 15 1 14 2 13 3 11 4 12 5 10 7 9 8 84 9 88 10 85 11 87 12
REMARK SMILES IDX 86 13 8 14 6 15 7 16 5 18 2 19 3 20 89 21 4 22 1 23 16 27
REMARK SMILES IDX 17 28 18 29 19 30 20 32 21 33 22 34 83 35 23 36 82 37 24 38
REMARK SMILES IDX 25 39 26 40 76 41 27 42 81 43 75 44 77 45 28 46 80 47 74 48
REMARK SMILES IDX 73 49 29 51 61 52 41 53 60 54 42 55 45 56 59 57 78 58 43 59
REMARK SMILES IDX 44 60 58 62 79 63 46 64 30 65 31 66 39 67 32 68 34 69 40 70
REMARK SMILES IDX 33 71 35 72 36 73 37 74 38 75 62 76 63 77 71 78 64 79 66 80
REMARK SMILES IDX 72 81 65 82 67 83 68 84 69 85 70 86 47 87 48 88 56 89 49 90
REMARK SMILES IDX 51 91 57 92 50 93 52 94 53 95 54 96 55 97
REMARK H PARENT 13 6 8 17 1 24 1 25 1 26 18 31 77 50 45 61
REMARK Flexibility Score: inf
ROOT
ATOM      1  C   UNL A   1      34.776  21.513  26.415  1.00  0.00     0.023 C 
ENDROOT
BRANCH   1   2
ATOM      2  C   UNL A   1      33.326  21.039  26.268  1.00  0.00     0.116 C 
BRANCH   2   3
ATOM      3  N   UNL A   1      32.424  21.942  26.954  1.00  0.00    -0.356 N 
ATOM      4  C   UNL A   1      31.587  22.889  26.457  1.00  0.00     0.222 C 
ATOM      5  O   UNL A   1      31.028  23.651  27.249  1.00  0.00    -0.275 OA
ATOM      6  H   UNL A   1      32.416  21.855  27.936  1.00  0.00     0.163 HD
BRANCH   4   7
ATOM      7  C   UNL A   1      31.312  23.025  24.968  1.00  0.00     0.128 C 
BRANCH   7   8
ATOM      8  C   UNL A   1      31.474  24.456  24.343  1.00  0.00     0.049 C 
ATOM      9  C   UNL A   1      31.845  24.302  22.841  1.00  0.00     0.029 C 
ATOM     10  C   UNL A   1      32.629  25.203  25.017  1.00  0.00     0.029 C 
ATOM     11  C   UNL A   1      33.241  23.711  22.604  1.00  0.00     0.002 C 
ATOM     12  C   UNL A   1      34.013  24.591  24.833  1.00  0.00     0.002 C 
ATOM     13  C   UNL A   1      34.334  24.470  23.352  1.00  0.00     0.000 C 
BRANCH   8  14
ATOM     14  N   UNL A   1      30.166  25.170  24.442  1.00  0.00    -0.350 N 
ATOM     15  C   UNL A   1      29.611  26.369  24.146  1.00  0.00     0.227 C 
ATOM     16  O   UNL A   1      28.375  26.404  24.250  1.00  0.00    -0.274 OA
ATOM     17  H   UNL A   1      29.493  24.582  24.853  1.00  0.00     0.164 HD
BRANCH  15  18
ATOM     18  C   UNL A   1      30.323  27.666  23.743  1.00  0.00     0.107 C 
ATOM     19  C   UNL A   1      32.364  28.974  24.098  1.00  0.00     0.205 C 
ATOM     20  C   UNL A   1      32.339  28.324  22.750  1.00  0.00     0.033 C 
ATOM     21  C   UNL A   1      31.173  28.329  24.833  1.00  0.00     0.087 C 
ATOM     22  C   UNL A   1      31.224  27.611  22.553  1.00  0.00    -0.012 C 
BRANCH  19  23
ATOM     23  N   UNL A   1      33.621  28.771  24.795  1.00  0.00    -0.352 N 
ATOM     24  H   UNL A   1      33.914  27.798  24.693  1.00  0.00     0.345 HD
ATOM     25  H   UNL A   1      33.501  28.987  25.785  1.00  0.00     0.345 HD
ATOM     26  H   UNL A   1      34.333  29.383  24.397  1.00  0.00     0.345 HD
ENDBRANCH  19  23
ENDBRANCH  15  18
ENDBRANCH   8  14
ENDBRANCH   7   8
ENDBRANCH   4   7
ENDBRANCH   2   3
ENDBRANCH   1   2
BRANCH   1  27
ATOM     27  C   UNL A   1      35.701  21.141  25.265  1.00  0.00     0.023 C 
BRANCH  27  28
ATOM     28  C   UNL A   1      37.098  21.735  25.381  1.00  0.00     0.116 C 
BRANCH  28  29
ATOM     29  N   UNL A   1      38.162  20.745  25.502  1.00  0.00    -0.352 N 
ATOM     30  C   UNL A   1      39.405  20.906  26.079  1.00  0.00     0.251 C 
ATOM     31  H   UNL A   1      37.971  19.854  25.126  1.00  0.00     0.163 HD
ATOM     32  O   UNL A   1      40.225  20.003  26.077  1.00  0.00    -0.269 OA
BRANCH  30  33
ATOM     33  C   UNL A   1      39.734  22.228  26.652  1.00  0.00     0.039 A 
ATOM     34  C   UNL A   1      40.732  22.312  27.625  1.00  0.00     0.014 A 
ATOM     35  C   UNL A   1      39.153  23.381  26.122  1.00  0.00     0.014 A 
ATOM     36  C   UNL A   1      41.215  23.567  28.000  1.00  0.00     0.010 A 
ATOM     37  C   UNL A   1      39.698  24.619  26.428  1.00  0.00     0.010 A 
ATOM     38  C   UNL A   1      40.737  24.725  27.366  1.00  0.00    -0.014 A 
BRANCH  38  39
ATOM     39  C   UNL A   1      41.308  26.065  27.653  1.00  0.00     0.031 A 
ATOM     40  C   UNL A   1      42.714  26.382  27.217  1.00  0.00     0.074 A 
ATOM     41  C   UNL A   1      40.612  26.948  28.398  1.00  0.00     0.049 A 
ATOM     42  N   UNL A   1      43.436  27.441  27.470  1.00  0.00    -0.248 NA
ATOM     43  C   UNL A   1      43.414  25.354  26.427  1.00  0.00     0.031 C 
ATOM     44  C   UNL A   1      39.277  26.723  28.959  1.00  0.00     0.029 A 
ATOM     45  N   UNL A   1      40.944  28.205  28.836  1.00  0.00    -0.354 N 
ATOM     46  C   UNL A   1      44.684  27.188  26.915  1.00  0.00     0.074 A 
ATOM     47  C   UNL A   1      44.636  25.860  26.345  1.00  0.00     0.031 C 
ATOM     48  C   UNL A   1      38.903  27.807  29.658  1.00  0.00     0.029 A 
ATOM     49  C   UNL A   1      39.975  28.795  29.615  1.00  0.00     0.049 A 
ATOM     50  H   UNL A   1      41.797  28.645  28.614  1.00  0.00     0.167 HD
ATOM     51  C   UNL A   1      45.762  28.003  26.845  1.00  0.00     0.034 A 
ATOM     52  C   UNL A   1      39.956  29.998  30.224  1.00  0.00     0.034 A 
ATOM     53  C   UNL A   1      45.780  29.352  27.339  1.00  0.00     0.049 A 
ATOM     54  C   UNL A   1      41.137  30.917  30.055  1.00  0.00     0.074 A 
ATOM     55  C   UNL A   1      46.791  30.290  27.243  1.00  0.00     0.029 A 
ATOM     56  N   UNL A   1      44.728  29.960  28.007  1.00  0.00    -0.354 N 
ATOM     57  N   UNL A   1      42.251  30.715  29.394  1.00  0.00    -0.248 NA
ATOM     58  C   UNL A   1      41.042  32.245  30.680  1.00  0.00     0.031 C 
ATOM     59  C   UNL A   1      46.348  31.471  27.847  1.00  0.00     0.029 A 
ATOM     60  C   UNL A   1      45.060  31.266  28.317  1.00  0.00     0.049 A 
ATOM     61  H   UNL A   1      43.873  29.526  28.228  1.00  0.00     0.167 HD
ATOM     62  C   UNL A   1      42.971  31.900  29.490  1.00  0.00     0.074 A 
ATOM     63  C   UNL A   1      42.158  32.823  30.255  1.00  0.00     0.031 C 
ATOM     64  C   UNL A   1      44.203  32.192  29.009  1.00  0.00     0.034 A 
BRANCH  51  65
ATOM     65  C   UNL A   1      46.980  27.488  26.128  1.00  0.00     0.023 A 
ATOM     66  C   UNL A   1      47.885  26.661  26.823  1.00  0.00     0.012 A 
ATOM     67  C   UNL A   1      47.204  27.771  24.767  1.00  0.00     0.148 A 
ATOM     68  C   UNL A   1      49.012  26.147  26.185  1.00  0.00     0.002 A 
ATOM     69  C   UNL A   1      48.309  27.221  24.126  1.00  0.00     0.091 A 
ATOM     70  F   UNL A   1      46.343  28.578  24.130  1.00  0.00    -0.205 F 
ATOM     71  C   UNL A   1      49.218  26.418  24.835  1.00  0.00     0.022 A 
BRANCH  69  72
ATOM     72  S   UNL A   1      48.628  27.451  22.374  1.00  0.00     0.127 S 
ATOM     73  O   UNL A   1      48.655  26.069  21.895  1.00  0.00    -0.237 OA
ATOM     74  O   UNL A   1      47.459  28.221  21.946  1.00  0.00    -0.237 OA
ATOM     75  O   UNL A   1      49.893  28.166  22.286  1.00  0.00    -0.744 OA
ENDBRANCH  69  72
ENDBRANCH  51  65
BRANCH  52  76
ATOM     76  C   UNL A   1      38.745  30.445  30.969  1.00  0.00     0.023 A 
ATOM     77  C   UNL A   1      38.645  30.159  32.346  1.00  0.00     0.012 A 
ATOM     78  C   UNL A   1      37.703  31.150  30.340  1.00  0.00     0.148 A 
ATOM     79  C   UNL A   1      37.515  30.534  33.073  1.00  0.00     0.002 A 
ATOM     80  C   UNL A   1      36.601  31.566  31.083  1.00  0.00     0.091 A 
ATOM     81  F   UNL A   1      37.802  31.400  29.027  1.00  0.00    -0.205 F 
ATOM     82  C   UNL A   1      36.497  31.245  32.444  1.00  0.00     0.022 A 
BRANCH  80  83
ATOM     83  S   UNL A   1      35.312  32.594  30.368  1.00  0.00     0.127 S 
ATOM     84  O   UNL A   1      34.394  32.748  31.491  1.00  0.00    -0.237 OA
ATOM     85  O   UNL A   1      36.046  33.805  30.001  1.00  0.00    -0.237 OA
ATOM     86  O   UNL A   1      34.814  31.834  29.228  1.00  0.00    -0.744 OA
ENDBRANCH  80  83
ENDBRANCH  52  76
BRANCH  64  87
ATOM     87  C   UNL A   1      44.739  33.576  29.252  1.00  0.00     0.023 A 
ATOM     88  C   UNL A   1      45.451  33.848  30.436  1.00  0.00     0.012 A 
ATOM     89  C   UNL A   1      44.617  34.578  28.269  1.00  0.00     0.148 A 
ATOM     90  C   UNL A   1      46.014  35.105  30.649  1.00  0.00     0.002 A 
ATOM     91  C   UNL A   1      45.217  35.815  28.470  1.00  0.00     0.091 A 
ATOM     92  F   UNL A   1      43.916  34.305  27.159  1.00  0.00    -0.205 F 
ATOM     93  C   UNL A   1      45.909  36.082  29.662  1.00  0.00     0.022 A 
BRANCH  91  94
ATOM     94  S   UNL A   1      45.209  37.097  27.211  1.00  0.00     0.127 S 
ATOM     95  O   UNL A   1      45.919  38.182  27.885  1.00  0.00    -0.237 OA
ATOM     96  O   UNL A   1      45.950  36.469  26.117  1.00  0.00    -0.237 OA
ATOM     97  O   UNL A   1      43.805  37.352  26.915  1.00  0.00    -0.744 OA
ENDBRANCH  91  94
ENDBRANCH  64  87
ENDBRANCH  38  39
ENDBRANCH  30  33
ENDBRANCH  28  29
ENDBRANCH  27  28
ENDBRANCH   1  27
TORSDOF 18
ENDMDL
MODEL 3
REMARK VINA RESULT:     -12.2      1.904      2.427
REMARK SMILES [NH3+][C@H]1C=C[C@@H](C(=O)NC2(CC(=O)NCCCCNC(=O)c3ccc(-c4c5nc(c(-c6cccc(S(=O)(=O)[O-])c6F)c6ccc([nH]6)c(-c6cccc(S(=O)(=O)[O-])c6F)c6nc(c(-c7cccc(S(=O)(=O)[O-])c7F)c7ccc4[nH]7)C=C6)C=C5)cc3)CCCCC2)C1
REMARK SMILES IDX 15 1 14 2 13 3 11 4 12 5 10 7 9 8 84 9 88 10 85 11 87 12
REMARK SMILES IDX 86 13 8 14 6 15 7 16 5 18 2 19 3 20 89 21 4 22 1 23 16 27
REMARK SMILES IDX 17 28 18 29 19 30 20 32 21 33 22 34 83 35 23 36 82 37 24 38
REMARK SMILES IDX 25 39 26 40 76 41 27 42 81 43 75 44 77 45 28 46 80 47 74 48
REMARK SMILES IDX 73 49 29 51 61 52 41 53 60 54 42 55 45 56 59 57 78 58 43 59
REMARK SMILES IDX 44 60 58 62 79 63 46 64 30 65 31 66 39 67 32 68 34 69 40 70
REMARK SMILES IDX 33 71 35 72 36 73 37 74 38 75 62 76 63 77 71 78 64 79 66 80
REMARK SMILES IDX 72 81 65 82 67 83 68 84 69 85 70 86 47 87 48 88 56 89 49 90
REMARK SMILES IDX 51 91 57 92 50 93 52 94 53 95 54 96 55 97
REMARK H PARENT 13 6 8 17 1 24 1 25 1 26 18 31 77 50 45 61
REMARK Flexibility Score: inf
ROOT
ATOM      1  C   UNL A   1      32.725  28.963  23.950  1.00  0.00     0.023 C 
ENDROOT
BRANCH   1   2
ATOM      2  C   UNL A   1      31.948  28.676  22.661  1.00  0.00     0.116 C 
BRANCH   2   3
ATOM      3  N   UNL A   1      32.632  27.675  21.866  1.00  0.00    -0.356 N 
ATOM      4  C   UNL A   1      32.519  26.322  21.877  1.00  0.00     0.222 C 
ATOM      5  O   UNL A   1      33.325  25.661  21.217  1.00  0.00    -0.275 OA
ATOM      6  H   UNL A   1      33.281  28.033  21.217  1.00  0.00     0.163 HD
BRANCH   4   7
ATOM      7  C   UNL A   1      31.429  25.607  22.658  1.00  0.00     0.128 C 
BRANCH   7   8
ATOM      8  C   UNL A   1      31.874  24.397  23.555  1.00  0.00     0.049 C 
ATOM      9  C   UNL A   1      30.779  24.149  24.632  1.00  0.00     0.029 C 
ATOM     10  C   UNL A   1      33.168  24.737  24.301  1.00  0.00     0.029 C 
ATOM     11  C   UNL A   1      30.668  25.271  25.673  1.00  0.00     0.002 C 
ATOM     12  C   UNL A   1      33.080  25.888  25.297  1.00  0.00     0.002 C 
ATOM     13  C   UNL A   1      32.005  25.595  26.332  1.00  0.00     0.000 C 
BRANCH   8  14
ATOM     14  N   UNL A   1      31.984  23.181  22.697  1.00  0.00    -0.350 N 
ATOM     15  C   UNL A   1      32.164  21.844  22.806  1.00  0.00     0.227 C 
ATOM     16  O   UNL A   1      31.976  21.211  21.754  1.00  0.00    -0.274 OA
ATOM     17  H   UNL A   1      31.899  23.431  21.748  1.00  0.00     0.164 HD
BRANCH  15  18
ATOM     18  C   UNL A   1      32.597  21.046  24.042  1.00  0.00     0.107 C 
ATOM     19  C   UNL A   1      33.640  18.947  24.753  1.00  0.00     0.205 C 
ATOM     20  C   UNL A   1      34.555  20.119  24.931  1.00  0.00     0.033 C 
ATOM     21  C   UNL A   1      32.470  19.523  23.934  1.00  0.00     0.087 C 
ATOM     22  C   UNL A   1      33.986  21.267  24.546  1.00  0.00    -0.012 C 
BRANCH  19  23
ATOM     23  N   UNL A   1      34.285  17.829  24.089  1.00  0.00    -0.352 N 
ATOM     24  H   UNL A   1      33.673  17.470  23.356  1.00  0.00     0.345 HD
ATOM     25  H   UNL A   1      34.471  17.091  24.769  1.00  0.00     0.345 HD
ATOM     26  H   UNL A   1      35.164  18.140  23.676  1.00  0.00     0.345 HD
ENDBRANCH  19  23
ENDBRANCH  15  18
ENDBRANCH   8  14
ENDBRANCH   7   8
ENDBRANCH   4   7
ENDBRANCH   2   3
ENDBRANCH   1   2
BRANCH   1  27
ATOM     27  C   UNL A   1      31.905  29.561  25.084  1.00  0.00     0.023 C 
BRANCH  27  28
ATOM     28  C   UNL A   1      32.730  29.949  26.303  1.00  0.00     0.116 C 
BRANCH  28  29
ATOM     29  N   UNL A   1      32.539  31.327  26.743  1.00  0.00    -0.352 N 
ATOM     30  C   UNL A   1      33.419  32.117  27.453  1.00  0.00     0.251 C 
ATOM     31  H   UNL A   1      31.679  31.743  26.504  1.00  0.00     0.163 HD
ATOM     32  O   UNL A   1      33.118  33.247  27.797  1.00  0.00    -0.269 OA
BRANCH  30  33
ATOM     33  C   UNL A   1      34.721  31.530  27.835  1.00  0.00     0.039 A 
ATOM     34  C   UNL A   1      35.822  32.375  27.991  1.00  0.00     0.014 A 
ATOM     35  C   UNL A   1      34.804  30.177  28.168  1.00  0.00     0.014 A 
ATOM     36  C   UNL A   1      36.987  31.875  28.576  1.00  0.00     0.010 A 
ATOM     37  C   UNL A   1      35.928  29.709  28.832  1.00  0.00     0.010 A 
ATOM     38  C   UNL A   1      37.029  30.553  29.047  1.00  0.00    -0.014 A 
BRANCH  38  39
ATOM     39  C   UNL A   1      38.207  30.020  29.778  1.00  0.00     0.031 A 
ATOM     40  C   UNL A   1      38.503  30.515  31.168  1.00  0.00     0.074 A 
ATOM     41  C   UNL A   1      39.064  29.186  29.155  1.00  0.00     0.049 A 
ATOM     42  N   UNL A   1      39.538  30.269  31.927  1.00  0.00    -0.248 NA
ATOM     43  C   UNL A   1      37.527  31.444  31.767  1.00  0.00     0.031 C 
ATOM     44  C   UNL A   1      38.938  28.707  27.776  1.00  0.00     0.029 A 
ATOM     45  N   UNL A   1      40.233  28.616  29.595  1.00  0.00    -0.354 N 
ATOM     46  C   UNL A   1      39.362  31.044  33.066  1.00  0.00     0.074 A 
ATOM     47  C   UNL A   1      38.143  31.799  32.885  1.00  0.00     0.031 C 
ATOM     48  C   UNL A   1      39.979  27.910  27.488  1.00  0.00     0.029 A 
ATOM     49  C   UNL A   1      40.860  27.837  28.648  1.00  0.00     0.049 A 
ATOM     50  H   UNL A   1      40.589  28.750  30.502  1.00  0.00     0.167 HD
ATOM     51  C   UNL A   1      40.122  31.092  34.185  1.00  0.00     0.034 A 
ATOM     52  C   UNL A   1      42.014  27.144  28.713  1.00  0.00     0.034 A 
ATOM     53  C   UNL A   1      41.288  30.279  34.396  1.00  0.00     0.049 A 
ATOM     54  C   UNL A   1      42.794  27.148  30.002  1.00  0.00     0.074 A 
ATOM     55  C   UNL A   1      42.081  30.189  35.527  1.00  0.00     0.029 A 
ATOM     56  N   UNL A   1      41.818  29.403  33.462  1.00  0.00    -0.354 N 
ATOM     57  N   UNL A   1      42.527  27.771  31.124  1.00  0.00    -0.248 NA
ATOM     58  C   UNL A   1      44.010  26.323  30.047  1.00  0.00     0.031 C 
ATOM     59  C   UNL A   1      43.087  29.250  35.277  1.00  0.00     0.029 A 
ATOM     60  C   UNL A   1      42.918  28.756  33.994  1.00  0.00     0.049 A 
ATOM     61  H   UNL A   1      41.463  29.262  32.554  1.00  0.00     0.167 HD
ATOM     62  C   UNL A   1      43.518  27.383  32.019  1.00  0.00     0.074 A 
ATOM     63  C   UNL A   1      44.378  26.455  31.315  1.00  0.00     0.031 C 
ATOM     64  C   UNL A   1      43.712  27.776  33.301  1.00  0.00     0.034 A 
BRANCH  51  65
ATOM     65  C   UNL A   1      39.663  31.987  35.303  1.00  0.00     0.023 A 
ATOM     66  C   UNL A   1      38.759  31.481  36.259  1.00  0.00     0.012 A 
ATOM     67  C   UNL A   1      40.158  33.298  35.443  1.00  0.00     0.148 A 
ATOM     68  C   UNL A   1      38.329  32.273  37.321  1.00  0.00     0.002 A 
ATOM     69  C   UNL A   1      39.756  34.068  36.528  1.00  0.00     0.091 A 
ATOM     70  F   UNL A   1      40.999  33.768  34.512  1.00  0.00    -0.205 F 
ATOM     71  C   UNL A   1      38.836  33.562  37.461  1.00  0.00     0.022 A 
BRANCH  69  72
ATOM     72  S   UNL A   1      40.401  35.715  36.841  1.00  0.00     0.127 S 
ATOM     73  O   UNL A   1      39.733  36.496  35.801  1.00  0.00    -0.237 OA
ATOM     74  O   UNL A   1      39.926  35.979  38.201  1.00  0.00    -0.237 OA
ATOM     75  O   UNL A   1      41.848  35.612  36.712  1.00  0.00    -0.744 OA
ENDBRANCH  69  72
ENDBRANCH  51  65
BRANCH  52  76
ATOM     76  C   UNL A   1      42.457  26.311  27.559  1.00  0.00     0.023 A 
ATOM     77  C   UNL A   1      43.271  26.895  26.567  1.00  0.00     0.012 A 
ATOM     78  C   UNL A   1      42.094  24.957  27.436  1.00  0.00     0.148 A 
ATOM     79  C   UNL A   1      43.682  26.157  25.456  1.00  0.00     0.002 A 
ATOM     80  C   UNL A   1      42.550  24.214  26.351  1.00  0.00     0.091 A 
ATOM     81  F   UNL A   1      41.306  24.419  28.378  1.00  0.00    -0.205 F 
ATOM     82  C   UNL A   1      43.330  24.815  25.353  1.00  0.00     0.022 A 
BRANCH  80  83
ATOM     83  S   UNL A   1      42.239  22.449  26.217  1.00  0.00     0.127 S 
ATOM     84  O   UNL A   1      40.783  22.404  26.154  1.00  0.00    -0.237 OA
ATOM     85  O   UNL A   1      42.921  22.106  24.969  1.00  0.00    -0.237 OA
ATOM     86  O   UNL A   1      42.852  21.868  27.406  1.00  0.00    -0.744 OA
ENDBRANCH  80  83
ENDBRANCH  52  76
BRANCH  64  87
ATOM     87  C   UNL A   1      44.871  27.176  34.049  1.00  0.00     0.023 A 
ATOM     88  C   UNL A   1      46.122  27.823  34.026  1.00  0.00     0.012 A 
ATOM     89  C   UNL A   1      44.698  26.027  34.844  1.00  0.00     0.148 A 
ATOM     90  C   UNL A   1      47.191  27.321  34.767  1.00  0.00     0.002 A 
ATOM     91  C   UNL A   1      45.755  25.558  35.613  1.00  0.00     0.091 A 
ATOM     92  F   UNL A   1      43.505  25.414  34.834  1.00  0.00    -0.205 F 
ATOM     93  C   UNL A   1      47.004  26.198  35.570  1.00  0.00     0.022 A 
BRANCH  91  94
ATOM     94  S   UNL A   1      45.574  24.173  36.745  1.00  0.00     0.127 S 
ATOM     95  O   UNL A   1      45.086  23.122  35.855  1.00  0.00    -0.237 OA
ATOM     96  O   UNL A   1      46.942  23.980  37.226  1.00  0.00    -0.237 OA
ATOM     97  O   UNL A   1      44.636  24.618  37.767  1.00  0.00    -0.744 OA
ENDBRANCH  91  94
ENDBRANCH  64  87
ENDBRANCH  38  39
ENDBRANCH  30  33
ENDBRANCH  28  29
ENDBRANCH  27  28
ENDBRANCH   1  27
TORSDOF 18
ENDMDL
