MODEL 1
REMARK VINA RESULT:     -12.1      0.000      0.000
REMARK SMILES CC(C)(C)OC(=O)N1CCC[C@H]1C(=O)N[C@@H](Cc1ccccc1)C(=O)NCCCCNC(=O)c1ccc(-c2c3nc(c(-c4cccc(S(=O)(=O)[O-])c4F)c4ccc([nH]4)c(-c4cccc(S(=O)(=O)[O-])c4F)c4nc(c(-c5cccc(S(=O)(=O)[O-])c5F)c5ccc2[nH]5)C=C4)C=C3)cc1
REMARK SMILES IDX 27 1 26 2 24 3 25 4 16 6 15 7 13 8 14 9 12 11 8 12 9 13
REMARK SMILES IDX 10 14 11 15 6 16 7 17 5 18 2 19 1 20 3 21 4 22 17 23 18 24
REMARK SMILES IDX 19 25 23 26 20 27 22 28 21 29 28 30 29 31 30 32 31 33 32 34
REMARK SMILES IDX 33 36 34 37 35 38 96 39 36 40 95 41 37 42 38 43 39 44 89 45
REMARK SMILES IDX 40 46 94 47 88 48 90 49 41 50 93 51 87 52 86 53 42 55 74 56
REMARK SMILES IDX 54 57 73 58 55 59 58 60 72 61 91 62 56 63 57 64 71 66 92 67
REMARK SMILES IDX 59 68 43 69 44 70 52 71 45 72 47 73 53 74 46 75 48 76 49 77
REMARK SMILES IDX 50 78 51 79 75 80 76 81 84 82 77 83 79 84 85 85 78 86 80 87
REMARK SMILES IDX 81 88 82 89 83 90 60 91 61 92 69 93 62 94 64 95 70 96 63 97
REMARK SMILES IDX 65 98 66 99 67 100 68 101
REMARK H PARENT 26 5 15 10 31 35 90 54 58 65
REMARK Flexibility Score: inf
ROOT
ATOM      1  C   UNL A   1      35.208  22.846  24.436  1.00  0.00     0.116 C 
ENDROOT
BRANCH   1   2
ATOM      2  N   UNL A   1      35.079  22.886  25.872  1.00  0.00    -0.354 N 
ATOM      3  C   UNL A   1      34.164  22.298  26.688  1.00  0.00     0.242 C 
ATOM      4  O   UNL A   1      34.432  22.293  27.893  1.00  0.00    -0.273 OA
ATOM      5  H   UNL A   1      35.763  23.423  26.335  1.00  0.00     0.163 HD
BRANCH   3   6
ATOM      6  C   UNL A   1      32.870  21.626  26.184  1.00  0.00     0.175 C 
BRANCH   6   7
ATOM      7  N   UNL A   1      31.671  22.188  26.794  1.00  0.00    -0.342 N 
ATOM      8  C   UNL A   1      31.005  23.347  26.534  1.00  0.00     0.243 C 
ATOM      9  O   UNL A   1      29.969  23.498  27.198  1.00  0.00    -0.273 OA
ATOM     10  H   UNL A   1      31.279  21.640  27.511  1.00  0.00     0.164 HD
BRANCH   8  11
ATOM     11  C   UNL A   1      31.582  24.521  25.671  1.00  0.00     0.178 C 
ATOM     12  N   UNL A   1      30.651  25.536  25.166  1.00  0.00    -0.296 N 
ATOM     13  C   UNL A   1      30.686  26.714  26.009  1.00  0.00     0.124 C 
ATOM     14  C   UNL A   1      32.165  26.806  26.342  1.00  0.00     0.024 C 
ATOM     15  C   UNL A   1      32.587  25.346  26.511  1.00  0.00     0.037 C 
BRANCH  12  16
ATOM     16  C   UNL A   1      30.225  25.586  23.857  1.00  0.00     0.410 C 
ATOM     17  O   UNL A   1      29.095  25.973  23.549  1.00  0.00    -0.224 OA
BRANCH  16  18
ATOM     18  O   UNL A   1      31.194  25.229  22.987  1.00  0.00    -0.444 OA
BRANCH  18  19
ATOM     19  C   UNL A   1      32.125  26.151  22.344  1.00  0.00     0.106 C 
ATOM     20  C   UNL A   1      32.080  25.859  20.841  1.00  0.00     0.056 C 
ATOM     21  C   UNL A   1      33.522  25.786  22.871  1.00  0.00     0.056 C 
ATOM     22  C   UNL A   1      31.889  27.645  22.597  1.00  0.00     0.056 C 
ENDBRANCH  18  19
ENDBRANCH  16  18
ENDBRANCH  12  16
ENDBRANCH   8  11
ENDBRANCH   6   7
BRANCH   6  23
ATOM     23  C   UNL A   1      32.771  21.352  24.671  1.00  0.00     0.070 C 
BRANCH  23  24
ATOM     24  C   UNL A   1      32.984  19.949  24.165  1.00  0.00    -0.045 A 
ATOM     25  C   UNL A   1      32.181  19.414  23.148  1.00  0.00     0.004 A 
ATOM     26  C   UNL A   1      34.002  19.154  24.713  1.00  0.00     0.004 A 
ATOM     27  C   UNL A   1      32.433  18.133  22.650  1.00  0.00     0.000 A 
ATOM     28  C   UNL A   1      34.243  17.869  24.223  1.00  0.00     0.000 A 
ATOM     29  C   UNL A   1      33.468  17.365  23.181  1.00  0.00     0.000 A 
ENDBRANCH  23  24
ENDBRANCH   6  23
ENDBRANCH   3   6
ENDBRANCH   1   2
BRANCH   1  30
ATOM     30  C   UNL A   1      36.564  22.356  23.957  1.00  0.00     0.023 C 
BRANCH  30  31
ATOM     31  C   UNL A   1      37.098  21.123  24.681  1.00  0.00     0.023 C 
BRANCH  31  32
ATOM     32  C   UNL A   1      38.359  21.331  25.516  1.00  0.00     0.116 C 
BRANCH  32  33
ATOM     33  N   UNL A   1      39.139  20.116  25.722  1.00  0.00    -0.352 N 
ATOM     34  C   UNL A   1      40.441  19.985  26.146  1.00  0.00     0.251 C 
ATOM     35  H   UNL A   1      38.668  19.273  25.531  1.00  0.00     0.163 HD
ATOM     36  O   UNL A   1      40.973  18.881  26.203  1.00  0.00    -0.269 OA
BRANCH  34  37
ATOM     37  C   UNL A   1      41.199  21.200  26.503  1.00  0.00     0.039 A 
ATOM     38  C   UNL A   1      41.924  21.866  25.513  1.00  0.00     0.014 A 
ATOM     39  C   UNL A   1      41.116  21.720  27.797  1.00  0.00     0.014 A 
ATOM     40  C   UNL A   1      42.491  23.109  25.799  1.00  0.00     0.010 A 
ATOM     41  C   UNL A   1      41.613  22.992  28.055  1.00  0.00     0.010 A 
ATOM     42  C   UNL A   1      42.299  23.703  27.059  1.00  0.00    -0.014 A 
BRANCH  42  43
ATOM     43  C   UNL A   1      42.775  25.080  27.347  1.00  0.00     0.031 A 
ATOM     44  C   UNL A   1      41.859  26.074  28.003  1.00  0.00     0.074 A 
ATOM     45  C   UNL A   1      43.993  25.466  26.920  1.00  0.00     0.049 A 
ATOM     46  N   UNL A   1      42.073  27.333  28.285  1.00  0.00    -0.248 NA
ATOM     47  C   UNL A   1      40.511  25.601  28.360  1.00  0.00     0.031 C 
ATOM     48  C   UNL A   1      44.945  24.620  26.196  1.00  0.00     0.029 A 
ATOM     49  N   UNL A   1      44.633  26.677  27.015  1.00  0.00    -0.354 N 
ATOM     50  C   UNL A   1      40.882  27.811  28.816  1.00  0.00     0.074 A 
ATOM     51  C   UNL A   1      39.935  26.718  28.777  1.00  0.00     0.031 C 
ATOM     52  C   UNL A   1      46.052  25.331  25.930  1.00  0.00     0.029 A 
ATOM     53  C   UNL A   1      45.882  26.689  26.438  1.00  0.00     0.049 A 
ATOM     54  H   UNL A   1      44.236  27.463  27.455  1.00  0.00     0.167 HD
ATOM     55  C   UNL A   1      40.608  29.037  29.323  1.00  0.00     0.034 A 
ATOM     56  C   UNL A   1      46.788  27.681  26.333  1.00  0.00     0.034 A 
ATOM     57  C   UNL A   1      41.566  30.106  29.402  1.00  0.00     0.049 A 
ATOM     58  C   UNL A   1      46.473  29.025  26.930  1.00  0.00     0.074 A 
ATOM     59  C   UNL A   1      41.423  31.349  29.990  1.00  0.00     0.029 A 
ATOM     60  N   UNL A   1      42.844  30.062  28.865  1.00  0.00    -0.354 N 
ATOM     61  N   UNL A   1      45.403  29.408  27.584  1.00  0.00    -0.248 NA
ATOM     62  C   UNL A   1      47.504  30.065  26.802  1.00  0.00     0.031 C 
ATOM     63  C   UNL A   1      42.608  32.066  29.790  1.00  0.00     0.029 A 
ATOM     64  C   UNL A   1      43.497  31.262  29.094  1.00  0.00     0.049 A 
ATOM     65  H   UNL A   1      43.230  29.291  28.391  1.00  0.00     0.167 HD
ATOM     66  C   UNL A   1      45.643  30.720  27.975  1.00  0.00     0.074 A 
ATOM     67  C   UNL A   1      46.969  31.059  27.499  1.00  0.00     0.031 C 
ATOM     68  C   UNL A   1      44.834  31.571  28.654  1.00  0.00     0.034 A 
BRANCH  55  69
ATOM     69  C   UNL A   1      39.225  29.257  29.880  1.00  0.00     0.023 A 
ATOM     70  C   UNL A   1      38.900  28.742  31.153  1.00  0.00     0.012 A 
ATOM     71  C   UNL A   1      38.254  29.977  29.160  1.00  0.00     0.148 A 
ATOM     72  C   UNL A   1      37.617  28.895  31.676  1.00  0.00     0.002 A 
ATOM     73  C   UNL A   1      36.990  30.166  29.709  1.00  0.00     0.091 A 
ATOM     74  F   UNL A   1      38.569  30.438  27.941  1.00  0.00    -0.205 F 
ATOM     75  C   UNL A   1      36.665  29.613  30.959  1.00  0.00     0.022 A 
BRANCH  73  76
ATOM     76  S   UNL A   1      35.725  31.143  28.890  1.00  0.00     0.127 S 
ATOM     77  O   UNL A   1      35.075  30.140  28.049  1.00  0.00    -0.237 OA
ATOM     78  O   UNL A   1      34.915  31.614  30.014  1.00  0.00    -0.237 OA
ATOM     79  O   UNL A   1      36.441  32.196  28.182  1.00  0.00    -0.744 OA
ENDBRANCH  73  76
ENDBRANCH  55  69
BRANCH  56  80
ATOM     80  C   UNL A   1      48.119  27.405  25.723  1.00  0.00     0.023 A 
ATOM     81  C   UNL A   1      49.159  26.929  26.547  1.00  0.00     0.012 A 
ATOM     82  C   UNL A   1      48.352  27.557  24.343  1.00  0.00     0.148 A 
ATOM     83  C   UNL A   1      50.412  26.630  26.012  1.00  0.00     0.002 A 
ATOM     84  C   UNL A   1      49.588  27.210  23.808  1.00  0.00     0.091 A 
ATOM     85  F   UNL A   1      47.350  28.017  23.579  1.00  0.00    -0.205 F 
ATOM     86  C   UNL A   1      50.623  26.761  24.643  1.00  0.00     0.022 A 
BRANCH  84  87
ATOM     87  S   UNL A   1      49.919  27.227  22.043  1.00  0.00     0.127 S 
ATOM     88  O   UNL A   1      48.892  26.320  21.537  1.00  0.00    -0.237 OA
ATOM     89  O   UNL A   1      49.713  28.637  21.712  1.00  0.00    -0.237 OA
ATOM     90  O   UNL A   1      51.293  26.767  21.893  1.00  0.00    -0.744 OA
ENDBRANCH  84  87
ENDBRANCH  56  80
BRANCH  68  91
ATOM     91  C   UNL A   1      45.362  32.951  28.947  1.00  0.00     0.023 A 
ATOM     92  C   UNL A   1      46.099  33.179  30.127  1.00  0.00     0.012 A 
ATOM     93  C   UNL A   1      45.196  34.000  28.022  1.00  0.00     0.148 A 
ATOM     94  C   UNL A   1      46.635  34.439  30.395  1.00  0.00     0.002 A 
ATOM     95  C   UNL A   1      45.773  35.239  28.273  1.00  0.00     0.091 A 
ATOM     96  F   UNL A   1      44.475  33.769  26.916  1.00  0.00    -0.205 F 
ATOM     97  C   UNL A   1      46.484  35.464  29.464  1.00  0.00     0.022 A 
BRANCH  95  98
ATOM     98  S   UNL A   1      45.712  36.588  27.088  1.00  0.00     0.127 S 
ATOM     99  O   UNL A   1      44.272  36.796  26.947  1.00  0.00    -0.237 OA
ATOM    100  O   UNL A   1      46.416  37.658  27.796  1.00  0.00    -0.237 OA
ATOM    101  O   UNL A   1      46.394  36.103  25.896  1.00  0.00    -0.744 OA
ENDBRANCH  95  98
ENDBRANCH  68  91
ENDBRANCH  42  43
ENDBRANCH  34  37
ENDBRANCH  32  33
ENDBRANCH  31  32
ENDBRANCH  30  31
ENDBRANCH   1  30
TORSDOF 21
ENDMDL
MODEL 2
REMARK VINA RESULT:     -11.7      2.000      7.744
REMARK SMILES CC(C)(C)OC(=O)N1CCC[C@H]1C(=O)N[C@@H](Cc1ccccc1)C(=O)NCCCCNC(=O)c1ccc(-c2c3nc(c(-c4cccc(S(=O)(=O)[O-])c4F)c4ccc([nH]4)c(-c4cccc(S(=O)(=O)[O-])c4F)c4nc(c(-c5cccc(S(=O)(=O)[O-])c5F)c5ccc2[nH]5)C=C4)C=C3)cc1
REMARK SMILES IDX 27 1 26 2 24 3 25 4 16 6 15 7 13 8 14 9 12 11 8 12 9 13
REMARK SMILES IDX 10 14 11 15 6 16 7 17 5 18 2 19 1 20 3 21 4 22 17 23 18 24
REMARK SMILES IDX 19 25 23 26 20 27 22 28 21 29 28 30 29 31 30 32 31 33 32 34
REMARK SMILES IDX 33 36 34 37 35 38 96 39 36 40 95 41 37 42 38 43 39 44 89 45
REMARK SMILES IDX 40 46 94 47 88 48 90 49 41 50 93 51 87 52 86 53 42 55 74 56
REMARK SMILES IDX 54 57 73 58 55 59 58 60 72 61 91 62 56 63 57 64 71 66 92 67
REMARK SMILES IDX 59 68 43 69 44 70 52 71 45 72 47 73 53 74 46 75 48 76 49 77
REMARK SMILES IDX 50 78 51 79 75 80 76 81 84 82 77 83 79 84 85 85 78 86 80 87
REMARK SMILES IDX 81 88 82 89 83 90 60 91 61 92 69 93 62 94 64 95 70 96 63 97
REMARK SMILES IDX 65 98 66 99 67 100 68 101
REMARK H PARENT 26 5 15 10 31 35 90 54 58 65
REMARK Flexibility Score: inf
ROOT
ATOM      1  C   UNL A   1      37.729  23.523  25.944  1.00  0.00     0.116 C 
ENDROOT
BRANCH   1   2
ATOM      2  N   UNL A   1      37.547  23.311  24.529  1.00  0.00    -0.354 N 
ATOM      3  C   UNL A   1      36.494  22.783  23.850  1.00  0.00     0.242 C 
ATOM      4  O   UNL A   1      36.499  22.947  22.626  1.00  0.00    -0.273 OA
ATOM      5  H   UNL A   1      38.305  23.594  23.967  1.00  0.00     0.163 HD
BRANCH   3   6
ATOM      6  C   UNL A   1      35.316  22.050  24.524  1.00  0.00     0.175 C 
BRANCH   6   7
ATOM      7  N   UNL A   1      34.092  22.109  23.734  1.00  0.00    -0.342 N 
ATOM      8  C   UNL A   1      32.994  22.905  23.859  1.00  0.00     0.243 C 
ATOM      9  O   UNL A   1      32.145  22.742  22.971  1.00  0.00    -0.273 OA
ATOM     10  H   UNL A   1      34.053  21.467  22.989  1.00  0.00     0.164 HD
BRANCH   8  11
ATOM     11  C   UNL A   1      32.678  23.779  25.120  1.00  0.00     0.178 C 
ATOM     12  N   UNL A   1      32.186  25.146  24.914  1.00  0.00    -0.296 N 
ATOM     13  C   UNL A   1      30.745  25.189  25.058  1.00  0.00     0.124 C 
ATOM     14  C   UNL A   1      30.525  24.222  26.208  1.00  0.00     0.024 C 
ATOM     15  C   UNL A   1      31.550  23.117  25.949  1.00  0.00     0.037 C 
BRANCH  12  16
ATOM     16  C   UNL A   1      32.971  26.265  25.083  1.00  0.00     0.410 C 
ATOM     17  O   UNL A   1      33.712  26.688  24.192  1.00  0.00    -0.224 OA
BRANCH  16  18
ATOM     18  O   UNL A   1      32.781  26.849  26.286  1.00  0.00    -0.444 OA
BRANCH  18  19
ATOM     19  C   UNL A   1      32.443  28.254  26.491  1.00  0.00     0.106 C 
ATOM     20  C   UNL A   1      33.750  28.990  26.797  1.00  0.00     0.056 C 
ATOM     21  C   UNL A   1      31.551  28.302  27.741  1.00  0.00     0.056 C 
ATOM     22  C   UNL A   1      31.702  28.952  25.343  1.00  0.00     0.056 C 
ENDBRANCH  18  19
ENDBRANCH  16  18
ENDBRANCH  12  16
ENDBRANCH   8  11
ENDBRANCH   6   7
BRANCH   6  23
ATOM     23  C   UNL A   1      35.621  20.682  25.163  1.00  0.00     0.070 C 
BRANCH  23  24
ATOM     24  C   UNL A   1      34.685  19.529  24.908  1.00  0.00    -0.045 A 
ATOM     25  C   UNL A   1      35.116  18.380  24.232  1.00  0.00     0.004 A 
ATOM     26  C   UNL A   1      33.356  19.596  25.353  1.00  0.00     0.004 A 
ATOM     27  C   UNL A   1      34.249  17.297  24.059  1.00  0.00     0.000 A 
ATOM     28  C   UNL A   1      32.488  18.518  25.167  1.00  0.00     0.000 A 
ATOM     29  C   UNL A   1      32.940  17.362  24.534  1.00  0.00     0.000 A 
ENDBRANCH  23  24
ENDBRANCH   6  23
ENDBRANCH   3   6
ENDBRANCH   1   2
BRANCH   1  30
ATOM     30  C   UNL A   1      39.002  22.904  26.497  1.00  0.00     0.023 C 
BRANCH  30  31
ATOM     31  C   UNL A   1      39.393  21.566  25.873  1.00  0.00     0.023 C 
BRANCH  31  32
ATOM     32  C   UNL A   1      39.988  20.532  26.826  1.00  0.00     0.116 C 
BRANCH  32  33
ATOM     33  N   UNL A   1      40.881  19.578  26.180  1.00  0.00    -0.352 N 
ATOM     34  C   UNL A   1      42.185  19.749  25.776  1.00  0.00     0.251 C 
ATOM     35  H   UNL A   1      40.498  18.687  26.010  1.00  0.00     0.163 HD
ATOM     36  O   UNL A   1      42.779  18.855  25.181  1.00  0.00    -0.269 OA
BRANCH  34  37
ATOM     37  C   UNL A   1      42.850  21.040  26.044  1.00  0.00     0.039 A 
ATOM     38  C   UNL A   1      43.058  21.930  24.988  1.00  0.00     0.014 A 
ATOM     39  C   UNL A   1      43.182  21.396  27.353  1.00  0.00     0.014 A 
ATOM     40  C   UNL A   1      43.517  23.220  25.261  1.00  0.00     0.010 A 
ATOM     41  C   UNL A   1      43.562  22.704  27.629  1.00  0.00     0.010 A 
ATOM     42  C   UNL A   1      43.727  23.631  26.589  1.00  0.00    -0.014 A 
BRANCH  42  43
ATOM     43  C   UNL A   1      44.084  25.035  26.918  1.00  0.00     0.031 A 
ATOM     44  C   UNL A   1      45.498  25.515  26.747  1.00  0.00     0.074 A 
ATOM     45  C   UNL A   1      43.160  25.844  27.472  1.00  0.00     0.049 A 
ATOM     46  N   UNL A   1      46.012  26.683  27.030  1.00  0.00    -0.248 NA
ATOM     47  C   UNL A   1      46.469  24.544  26.218  1.00  0.00     0.031 C 
ATOM     48  C   UNL A   1      41.775  25.471  27.769  1.00  0.00     0.029 A 
ATOM     49  N   UNL A   1      43.253  27.143  27.905  1.00  0.00    -0.354 N 
ATOM     50  C   UNL A   1      47.369  26.577  26.751  1.00  0.00     0.074 A 
ATOM     51  C   UNL A   1      47.605  25.218  26.317  1.00  0.00     0.031 C 
ATOM     52  C   UNL A   1      41.143  26.521  28.315  1.00  0.00     0.029 A 
ATOM     53  C   UNL A   1      42.081  27.633  28.437  1.00  0.00     0.049 A 
ATOM     54  H   UNL A   1      44.078  27.674  27.843  1.00  0.00     0.167 HD
ATOM     55  C   UNL A   1      48.327  27.532  26.816  1.00  0.00     0.034 A 
ATOM     56  C   UNL A   1      41.795  28.842  28.958  1.00  0.00     0.034 A 
ATOM     57  C   UNL A   1      48.080  28.894  27.204  1.00  0.00     0.049 A 
ATOM     58  C   UNL A   1      42.868  29.896  28.992  1.00  0.00     0.074 A 
ATOM     59  C   UNL A   1      48.957  29.963  27.204  1.00  0.00     0.029 A 
ATOM     60  N   UNL A   1      46.865  29.373  27.674  1.00  0.00    -0.354 N 
ATOM     61  N   UNL A   1      44.105  29.830  28.560  1.00  0.00    -0.248 NA
ATOM     62  C   UNL A   1      42.496  31.202  29.554  1.00  0.00     0.031 C 
ATOM     63  C   UNL A   1      48.278  31.085  27.694  1.00  0.00     0.029 A 
ATOM     64  C   UNL A   1      46.972  30.719  27.982  1.00  0.00     0.049 A 
ATOM     65  H   UNL A   1      46.048  28.834  27.774  1.00  0.00     0.167 HD
ATOM     66  C   UNL A   1      44.650  31.091  28.769  1.00  0.00     0.074 A 
ATOM     67  C   UNL A   1      43.601  31.907  29.347  1.00  0.00     0.031 C 
ATOM     68  C   UNL A   1      45.908  31.531  28.516  1.00  0.00     0.034 A 
BRANCH  55  69
ATOM     69  C   UNL A   1      49.721  27.136  26.403  1.00  0.00     0.023 A 
ATOM     70  C   UNL A   1      50.566  26.495  27.334  1.00  0.00     0.012 A 
ATOM     71  C   UNL A   1      50.195  27.385  25.101  1.00  0.00     0.148 A 
ATOM     72  C   UNL A   1      51.873  26.155  26.993  1.00  0.00     0.002 A 
ATOM     73  C   UNL A   1      51.486  27.000  24.754  1.00  0.00     0.091 A 
ATOM     74  F   UNL A   1      49.391  28.018  24.235  1.00  0.00    -0.205 F 
ATOM     75  C   UNL A   1      52.331  26.400  25.702  1.00  0.00     0.022 A 
BRANCH  73  76
ATOM     76  S   UNL A   1      52.132  27.206  23.091  1.00  0.00     0.127 S 
ATOM     77  O   UNL A   1      53.271  26.289  23.100  1.00  0.00    -0.237 OA
ATOM     78  O   UNL A   1      51.008  26.773  22.261  1.00  0.00    -0.237 OA
ATOM     79  O   UNL A   1      52.459  28.621  22.969  1.00  0.00    -0.744 OA
ENDBRANCH  73  76
ENDBRANCH  55  69
BRANCH  56  80
ATOM     80  C   UNL A   1      40.404  29.149  29.394  1.00  0.00     0.023 A 
ATOM     81  C   UNL A   1      39.470  29.584  28.433  1.00  0.00     0.012 A 
ATOM     82  C   UNL A   1      39.985  28.967  30.727  1.00  0.00     0.148 A 
ATOM     83  C   UNL A   1      38.150  29.854  28.794  1.00  0.00     0.002 A 
ATOM     84  C   UNL A   1      38.656  29.190  31.070  1.00  0.00     0.091 A 
ATOM     85  F   UNL A   1      40.893  28.558  31.625  1.00  0.00    -0.205 F 
ATOM     86  C   UNL A   1      37.741  29.648  30.108  1.00  0.00     0.022 A 
BRANCH  84  87
ATOM     87  S   UNL A   1      38.004  28.836  32.705  1.00  0.00     0.127 S 
ATOM     88  O   UNL A   1      38.868  29.653  33.555  1.00  0.00    -0.237 OA
ATOM     89  O   UNL A   1      36.626  29.313  32.588  1.00  0.00    -0.237 OA
ATOM     90  O   UNL A   1      38.131  27.396  32.879  1.00  0.00    -0.744 OA
ENDBRANCH  84  87
ENDBRANCH  56  80
BRANCH  68  91
ATOM     91  C   UNL A   1      46.224  32.967  28.842  1.00  0.00     0.023 A 
ATOM     92  C   UNL A   1      46.870  33.282  30.054  1.00  0.00     0.012 A 
ATOM     93  C   UNL A   1      45.951  33.994  27.917  1.00  0.00     0.148 A 
ATOM     94  C   UNL A   1      47.211  34.600  30.355  1.00  0.00     0.002 A 
ATOM     95  C   UNL A   1      46.337  35.299  28.202  1.00  0.00     0.091 A 
ATOM     96  F   UNL A   1      45.318  33.679  26.779  1.00  0.00    -0.205 F 
ATOM     97  C   UNL A   1      46.957  35.606  29.425  1.00  0.00     0.022 A 
BRANCH  95  98
ATOM     98  S   UNL A   1      46.137  36.641  27.024  1.00  0.00     0.127 S 
ATOM     99  O   UNL A   1      46.810  36.104  25.843  1.00  0.00    -0.237 OA
ATOM    100  O   UNL A   1      44.681  36.737  26.906  1.00  0.00    -0.237 OA
ATOM    101  O   UNL A   1      46.770  37.803  27.632  1.00  0.00    -0.744 OA
ENDBRANCH  95  98
ENDBRANCH  68  91
ENDBRANCH  42  43
ENDBRANCH  34  37
ENDBRANCH  32  33
ENDBRANCH  31  32
ENDBRANCH  30  31
ENDBRANCH   1  30
TORSDOF 21
ENDMDL
MODEL 3
REMARK VINA RESULT:     -11.4      1.348      7.427
REMARK SMILES CC(C)(C)OC(=O)N1CCC[C@H]1C(=O)N[C@@H](Cc1ccccc1)C(=O)NCCCCNC(=O)c1ccc(-c2c3nc(c(-c4cccc(S(=O)(=O)[O-])c4F)c4ccc([nH]4)c(-c4cccc(S(=O)(=O)[O-])c4F)c4nc(c(-c5cccc(S(=O)(=O)[O-])c5F)c5ccc2[nH]5)C=C4)C=C3)cc1
REMARK SMILES IDX 27 1 26 2 24 3 25 4 16 6 15 7 13 8 14 9 12 11 8 12 9 13
REMARK SMILES IDX 10 14 11 15 6 16 7 17 5 18 2 19 1 20 3 21 4 22 17 23 18 24
REMARK SMILES IDX 19 25 23 26 20 27 22 28 21 29 28 30 29 31 30 32 31 33 32 34
REMARK SMILES IDX 33 36 34 37 35 38 96 39 36 40 95 41 37 42 38 43 39 44 89 45
REMARK SMILES IDX 40 46 94 47 88 48 90 49 41 50 93 51 87 52 86 53 42 55 74 56
REMARK SMILES IDX 54 57 73 58 55 59 58 60 72 61 91 62 56 63 57 64 71 66 92 67
REMARK SMILES IDX 59 68 43 69 44 70 52 71 45 72 47 73 53 74 46 75 48 76 49 77
REMARK SMILES IDX 50 78 51 79 75 80 76 81 84 82 77 83 79 84 85 85 78 86 80 87
REMARK SMILES IDX 81 88 82 89 83 90 60 91 61 92 69 93 62 94 64 95 70 96 63 97
REMARK SMILES IDX 65 98 66 99 67 100 68 101
REMARK H PARENT 26 5 15 10 31 35 90 54 58 65
REMARK Flexibility Score: inf
ROOT
ATOM      1  C   UNL A   1      35.218  20.191  25.324  1.00  0.00     0.116 C 
ENDROOT
BRANCH   1   2
ATOM      2  N   UNL A   1      35.040  21.280  26.253  1.00  0.00    -0.354 N 
ATOM      3  C   UNL A   1      33.901  21.867  26.708  1.00  0.00     0.242 C 
ATOM      4  O   UNL A   1      34.025  22.611  27.685  1.00  0.00    -0.273 OA
ATOM      5  H   UNL A   1      35.875  21.656  26.615  1.00  0.00     0.163 HD
BRANCH   3   6
ATOM      6  C   UNL A   1      32.504  21.619  26.101  1.00  0.00     0.175 C 
BRANCH   6   7
ATOM      7  N   UNL A   1      31.464  22.415  26.742  1.00  0.00    -0.342 N 
ATOM      8  C   UNL A   1      31.068  23.699  26.521  1.00  0.00     0.243 C 
ATOM      9  O   UNL A   1      30.097  24.056  27.205  1.00  0.00    -0.273 OA
ATOM     10  H   UNL A   1      30.969  21.947  27.452  1.00  0.00     0.164 HD
BRANCH   8  11
ATOM     11  C   UNL A   1      31.881  24.739  25.678  1.00  0.00     0.178 C 
ATOM     12  N   UNL A   1      31.140  25.771  24.943  1.00  0.00    -0.296 N 
ATOM     13  C   UNL A   1      31.144  27.016  25.684  1.00  0.00     0.124 C 
ATOM     14  C   UNL A   1      32.552  27.027  26.255  1.00  0.00     0.024 C 
ATOM     15  C   UNL A   1      32.807  25.561  26.608  1.00  0.00     0.037 C 
BRANCH  12  16
ATOM     16  C   UNL A   1      30.939  25.731  23.582  1.00  0.00     0.410 C 
ATOM     17  O   UNL A   1      30.250  26.570  22.995  1.00  0.00    -0.224 OA
BRANCH  16  18
ATOM     18  O   UNL A   1      31.621  24.727  22.990  1.00  0.00    -0.444 OA
BRANCH  18  19
ATOM     19  C   UNL A   1      32.702  24.902  22.027  1.00  0.00     0.106 C 
ATOM     20  C   UNL A   1      33.280  23.512  21.744  1.00  0.00     0.056 C 
ATOM     21  C   UNL A   1      33.776  25.742  22.736  1.00  0.00     0.056 C 
ATOM     22  C   UNL A   1      32.338  25.599  20.710  1.00  0.00     0.056 C 
ENDBRANCH  18  19
ENDBRANCH  16  18
ENDBRANCH  12  16
ENDBRANCH   8  11
ENDBRANCH   6   7
BRANCH   6  23
ATOM     23  C   UNL A   1      32.416  21.539  24.565  1.00  0.00     0.070 C 
BRANCH  23  24
ATOM     24  C   UNL A   1      32.374  20.186  23.903  1.00  0.00    -0.045 A 
ATOM     25  C   UNL A   1      32.248  20.061  22.513  1.00  0.00     0.004 A 
ATOM     26  C   UNL A   1      32.462  19.022  24.683  1.00  0.00     0.004 A 
ATOM     27  C   UNL A   1      32.271  18.799  21.913  1.00  0.00     0.000 A 
ATOM     28  C   UNL A   1      32.471  17.762  24.082  1.00  0.00     0.000 A 
ATOM     29  C   UNL A   1      32.391  17.652  22.696  1.00  0.00     0.000 A 
ENDBRANCH  23  24
ENDBRANCH   6  23
ENDBRANCH   3   6
ENDBRANCH   1   2
BRANCH   1  30
ATOM     30  C   UNL A   1      36.658  19.997  24.878  1.00  0.00     0.023 C 
BRANCH  30  31
ATOM     31  C   UNL A   1      37.381  21.274  24.456  1.00  0.00     0.023 C 
BRANCH  31  32
ATOM     32  C   UNL A   1      38.331  21.876  25.488  1.00  0.00     0.116 C 
BRANCH  32  33
ATOM     33  N   UNL A   1      39.269  20.915  26.058  1.00  0.00    -0.352 N 
ATOM     34  C   UNL A   1      40.329  21.139  26.907  1.00  0.00     0.251 C 
ATOM     35  H   UNL A   1      39.124  19.977  25.800  1.00  0.00     0.163 HD
ATOM     36  O   UNL A   1      41.067  20.219  27.243  1.00  0.00    -0.269 OA
BRANCH  34  37
ATOM     37  C   UNL A   1      40.581  22.514  27.384  1.00  0.00     0.039 A 
ATOM     38  C   UNL A   1      41.585  22.733  28.328  1.00  0.00     0.014 A 
ATOM     39  C   UNL A   1      39.879  23.586  26.827  1.00  0.00     0.014 A 
ATOM     40  C   UNL A   1      41.951  24.042  28.647  1.00  0.00     0.010 A 
ATOM     41  C   UNL A   1      40.300  24.885  27.086  1.00  0.00     0.010 A 
ATOM     42  C   UNL A   1      41.344  25.127  27.992  1.00  0.00    -0.014 A 
BRANCH  42  43
ATOM     43  C   UNL A   1      41.805  26.522  28.211  1.00  0.00     0.031 A 
ATOM     44  C   UNL A   1      43.194  26.929  27.809  1.00  0.00     0.074 A 
ATOM     45  C   UNL A   1      41.012  27.389  28.870  1.00  0.00     0.049 A 
ATOM     46  N   UNL A   1      43.795  28.080  27.968  1.00  0.00    -0.248 NA
ATOM     47  C   UNL A   1      44.032  25.899  27.175  1.00  0.00     0.031 C 
ATOM     48  C   UNL A   1      39.675  27.090  29.387  1.00  0.00     0.029 A 
ATOM     49  N   UNL A   1      41.224  28.695  29.235  1.00  0.00    -0.354 N 
ATOM     50  C   UNL A   1      45.087  27.903  27.490  1.00  0.00     0.074 A 
ATOM     51  C   UNL A   1      45.197  26.521  27.076  1.00  0.00     0.031 C 
ATOM     52  C   UNL A   1      39.178  28.185  29.984  1.00  0.00     0.029 A 
ATOM     53  C   UNL A   1      40.170  29.255  29.920  1.00  0.00     0.049 A 
ATOM     54  H   UNL A   1      42.052  29.185  29.028  1.00  0.00     0.167 HD
ATOM     55  C   UNL A   1      46.083  28.813  27.373  1.00  0.00     0.034 A 
ATOM     56  C   UNL A   1      40.017  30.491  30.434  1.00  0.00     0.034 A 
ATOM     57  C   UNL A   1      45.954  30.196  27.744  1.00  0.00     0.049 A 
ATOM     58  C   UNL A   1      41.126  31.495  30.265  1.00  0.00     0.074 A 
ATOM     59  C   UNL A   1      46.865  31.223  27.570  1.00  0.00     0.029 A 
ATOM     60  N   UNL A   1      44.848  30.745  28.375  1.00  0.00    -0.354 N 
ATOM     61  N   UNL A   1      42.277  31.357  29.653  1.00  0.00    -0.248 NA
ATOM     62  C   UNL A   1      40.899  32.833  30.829  1.00  0.00     0.031 C 
ATOM     63  C   UNL A   1      46.317  32.390  28.117  1.00  0.00     0.029 A 
ATOM     64  C   UNL A   1      45.057  32.094  28.613  1.00  0.00     0.049 A 
ATOM     65  H   UNL A   1      44.034  30.249  28.618  1.00  0.00     0.167 HD
ATOM     66  C   UNL A   1      42.900  32.598  29.730  1.00  0.00     0.074 A 
ATOM     67  C   UNL A   1      41.988  33.479  30.431  1.00  0.00     0.031 C 
ATOM     68  C   UNL A   1      44.122  32.970  29.273  1.00  0.00     0.034 A 
BRANCH  55  69
ATOM     69  C   UNL A   1      47.379  28.341  26.767  1.00  0.00     0.023 A 
ATOM     70  C   UNL A   1      48.503  28.145  27.598  1.00  0.00     0.012 A 
ATOM     71  C   UNL A   1      47.488  28.079  25.389  1.00  0.00     0.148 A 
ATOM     72  C   UNL A   1      49.726  27.749  27.060  1.00  0.00     0.002 A 
ATOM     73  C   UNL A   1      48.700  27.639  24.866  1.00  0.00     0.091 A 
ATOM     74  F   UNL A   1      46.420  28.294  24.607  1.00  0.00    -0.205 F 
ATOM     75  C   UNL A   1      49.823  27.488  25.696  1.00  0.00     0.022 A 
BRANCH  73  76
ATOM     76  S   UNL A   1      48.895  27.204  23.134  1.00  0.00     0.127 S 
ATOM     77  O   UNL A   1      48.279  28.352  22.470  1.00  0.00    -0.237 OA
ATOM     78  O   UNL A   1      50.349  27.127  22.992  1.00  0.00    -0.237 OA
ATOM     79  O   UNL A   1      48.206  25.931  22.969  1.00  0.00    -0.744 OA
ENDBRANCH  73  76
ENDBRANCH  55  69
BRANCH  56  80
ATOM     80  C   UNL A   1      38.724  30.876  31.065  1.00  0.00     0.023 A 
ATOM     81  C   UNL A   1      38.574  30.718  32.458  1.00  0.00     0.012 A 
ATOM     82  C   UNL A   1      37.670  31.438  30.320  1.00  0.00     0.148 A 
ATOM     83  C   UNL A   1      37.391  31.093  33.094  1.00  0.00     0.002 A 
ATOM     84  C   UNL A   1      36.512  31.855  30.967  1.00  0.00     0.091 A 
ATOM     85  F   UNL A   1      37.832  31.573  28.996  1.00  0.00    -0.205 F 
ATOM     86  C   UNL A   1      36.364  31.670  32.351  1.00  0.00     0.022 A 
BRANCH  84  87
ATOM     87  S   UNL A   1      35.185  32.720  30.120  1.00  0.00     0.127 S 
ATOM     88  O   UNL A   1      34.221  32.920  31.199  1.00  0.00    -0.237 OA
ATOM     89  O   UNL A   1      35.862  33.935  29.666  1.00  0.00    -0.237 OA
ATOM     90  O   UNL A   1      34.755  31.833  29.048  1.00  0.00    -0.744 OA
ENDBRANCH  84  87
ENDBRANCH  56  80
BRANCH  68  91
ATOM     91  C   UNL A   1      44.544  34.399  29.493  1.00  0.00     0.023 A 
ATOM     92  C   UNL A   1      45.146  34.768  30.713  1.00  0.00     0.012 A 
ATOM     93  C   UNL A   1      44.414  35.357  28.469  1.00  0.00     0.148 A 
ATOM     94  C   UNL A   1      45.584  36.076  30.921  1.00  0.00     0.002 A 
ATOM     95  C   UNL A   1      44.896  36.646  28.665  1.00  0.00     0.091 A 
ATOM     96  F   UNL A   1      43.820  34.993  27.323  1.00  0.00    -0.205 F 
ATOM     97  C   UNL A   1      45.471  37.011  29.893  1.00  0.00     0.022 A 
BRANCH  95  98
ATOM     98  S   UNL A   1      44.880  37.887  27.366  1.00  0.00     0.127 S 
ATOM     99  O   UNL A   1      45.347  39.074  28.081  1.00  0.00    -0.237 OA
ATOM    100  O   UNL A   1      45.837  37.342  26.401  1.00  0.00    -0.237 OA
ATOM    101  O   UNL A   1      43.507  37.945  26.886  1.00  0.00    -0.744 OA
ENDBRANCH  95  98
ENDBRANCH  68  91
ENDBRANCH  42  43
ENDBRANCH  34  37
ENDBRANCH  32  33
ENDBRANCH  31  32
ENDBRANCH  30  31
ENDBRANCH   1  30
TORSDOF 21
ENDMDL
