MODEL 1
REMARK VINA RESULT:     -11.0      0.000      0.000
REMARK SMILES O=C(C[NH+]1CCN(c2nccc(N3CCCCC3)n2)CC1)NCCCCNC(=O)c1ccc(-c2c3nc(c(-c4cccc(S(=O)(=O)[O-])c4F)c4ccc([nH]4)c(-c4cccc(S(=O)(=O)[O-])c4F)c4nc(c(-c5cccc(S(=O)(=O)[O-])c5F)c5ccc2[nH]5)C=C4)C=C3)cc1
REMARK SMILES IDX 24 1 23 2 22 3 1 4 2 5 3 7 4 8 5 9 21 10 6 12 20 13 7 14
REMARK SMILES IDX 8 15 9 16 19 17 10 18 12 19 11 20 13 21 14 22 18 23 15 24
REMARK SMILES IDX 17 25 16 26 25 27 26 28 27 29 28 30 29 32 30 33 31 34 92 35
REMARK SMILES IDX 32 36 91 37 33 38 34 39 35 40 85 41 36 42 90 43 84 44 86 45
REMARK SMILES IDX 37 46 89 47 83 48 82 49 38 51 70 52 50 53 69 54 51 55 54 56
REMARK SMILES IDX 68 57 87 58 52 59 53 60 67 62 88 63 55 64 39 65 40 66 48 67
REMARK SMILES IDX 41 68 43 69 49 70 42 71 44 72 45 73 46 74 47 75 71 76 72 77
REMARK SMILES IDX 80 78 73 79 75 80 81 81 74 82 76 83 77 84 78 85 79 86 56 87
REMARK SMILES IDX 57 88 65 89 58 90 60 91 66 92 59 93 61 94 62 95 63 96 64 97
REMARK H PARENT 22 6 4 11 27 31 86 50 54 61
REMARK Flexibility Score: inf
ROOT
ATOM      1  C   UNL A   1      31.779  29.234  26.686  1.00  0.00     0.023 C 
ENDROOT
BRANCH   1   2
ATOM      2  C   UNL A   1      31.720  29.822  25.276  1.00  0.00     0.116 C 
BRANCH   2   3
ATOM      3  N   UNL A   1      31.689  28.782  24.272  1.00  0.00    -0.351 N 
ATOM      4  O   UNL A   1      33.957  28.622  23.932  1.00  0.00    -0.269 OA
ATOM      5  C   UNL A   1      32.821  28.212  23.722  1.00  0.00     0.275 C 
ATOM      6  H   UNL A   1      30.810  28.463  23.963  1.00  0.00     0.163 HD
BRANCH   5   7
ATOM      7  C   UNL A   1      32.496  26.985  22.850  1.00  0.00     0.363 C 
BRANCH   7   8
ATOM      8  N   UNL A   1      31.802  25.929  23.616  1.00  0.00    -0.324 N 
ATOM      9  C   UNL A   1      31.787  24.599  22.955  1.00  0.00     0.284 C 
ATOM     10  C   UNL A   1      32.407  25.771  24.969  1.00  0.00     0.284 C 
ATOM     11  H   UNL A   1      30.834  26.249  23.679  1.00  0.00     0.348 HD
ATOM     12  C   UNL A   1      33.153  23.879  22.894  1.00  0.00     0.181 C 
ATOM     13  C   UNL A   1      33.751  24.993  25.037  1.00  0.00     0.181 C 
ATOM     14  N   UNL A   1      33.665  23.786  24.238  1.00  0.00    -0.329 N 
BRANCH  14  15
ATOM     15  C   UNL A   1      34.456  22.716  24.550  1.00  0.00     0.227 A 
ATOM     16  N   UNL A   1      35.788  22.858  24.504  1.00  0.00    -0.221 NA
ATOM     17  N   UNL A   1      33.827  21.550  24.745  1.00  0.00    -0.196 NA
ATOM     18  C   UNL A   1      36.513  21.747  24.727  1.00  0.00     0.119 A 
ATOM     19  C   UNL A   1      34.575  20.446  24.896  1.00  0.00     0.134 A 
ATOM     20  C   UNL A   1      35.952  20.511  24.932  1.00  0.00     0.067 A 
BRANCH  19  21
ATOM     21  N   UNL A   1      33.942  19.222  24.920  1.00  0.00    -0.356 N 
ATOM     22  C   UNL A   1      34.758  18.017  24.842  1.00  0.00     0.118 C 
ATOM     23  C   UNL A   1      32.526  19.131  24.610  1.00  0.00     0.118 C 
ATOM     24  C   UNL A   1      34.568  17.313  23.502  1.00  0.00     0.022 C 
ATOM     25  C   UNL A   1      32.337  18.445  23.254  1.00  0.00     0.022 C 
ATOM     26  C   UNL A   1      33.086  17.112  23.194  1.00  0.00     0.004 C 
ENDBRANCH  19  21
ENDBRANCH  14  15
ENDBRANCH   7   8
ENDBRANCH   5   7
ENDBRANCH   2   3
ENDBRANCH   1   2
BRANCH   1  27
ATOM     27  C   UNL A   1      33.179  29.157  27.314  1.00  0.00     0.023 C 
BRANCH  27  28
ATOM     28  C   UNL A   1      34.161  30.241  26.876  1.00  0.00     0.116 C 
BRANCH  28  29
ATOM     29  N   UNL A   1      34.059  31.435  27.697  1.00  0.00    -0.352 N 
ATOM     30  C   UNL A   1      34.792  31.817  28.795  1.00  0.00     0.251 C 
ATOM     31  H   UNL A   1      33.356  32.069  27.426  1.00  0.00     0.163 HD
ATOM     32  O   UNL A   1      34.406  32.772  29.469  1.00  0.00    -0.269 OA
BRANCH  30  33
ATOM     33  C   UNL A   1      36.024  31.093  29.186  1.00  0.00     0.039 A 
ATOM     34  C   UNL A   1      37.257  31.564  28.720  1.00  0.00     0.014 A 
ATOM     35  C   UNL A   1      35.977  29.935  29.967  1.00  0.00     0.014 A 
ATOM     36  C   UNL A   1      38.439  30.911  29.084  1.00  0.00     0.010 A 
ATOM     37  C   UNL A   1      37.162  29.324  30.384  1.00  0.00     0.010 A 
ATOM     38  C   UNL A   1      38.407  29.803  29.947  1.00  0.00    -0.014 A 
BRANCH  38  39
ATOM     39  C   UNL A   1      39.661  29.155  30.417  1.00  0.00     0.031 A 
ATOM     40  C   UNL A   1      40.372  29.655  31.647  1.00  0.00     0.074 A 
ATOM     41  C   UNL A   1      40.210  28.161  29.688  1.00  0.00     0.049 A 
ATOM     42  N   UNL A   1      41.500  29.247  32.170  1.00  0.00    -0.248 NA
ATOM     43  C   UNL A   1      39.747  30.773  32.371  1.00  0.00     0.031 C 
ATOM     44  C   UNL A   1      39.662  27.626  28.440  1.00  0.00     0.029 A 
ATOM     45  N   UNL A   1      41.365  27.442  29.877  1.00  0.00    -0.354 N 
ATOM     46  C   UNL A   1      41.740  30.078  33.258  1.00  0.00     0.074 A 
ATOM     47  C   UNL A   1      40.652  31.031  33.306  1.00  0.00     0.031 C 
ATOM     48  C   UNL A   1      40.474  26.662  27.979  1.00  0.00     0.029 A 
ATOM     49  C   UNL A   1      41.619  26.532  28.876  1.00  0.00     0.049 A 
ATOM     50  H   UNL A   1      41.955  27.565  30.655  1.00  0.00     0.167 HD
ATOM     51  C   UNL A   1      42.760  30.042  34.149  1.00  0.00     0.034 A 
ATOM     52  C   UNL A   1      42.660  25.696  28.692  1.00  0.00     0.034 A 
ATOM     53  C   UNL A   1      43.821  29.069  34.127  1.00  0.00     0.049 A 
ATOM     54  C   UNL A   1      43.764  25.656  29.712  1.00  0.00     0.074 A 
ATOM     55  C   UNL A   1      44.846  28.895  35.042  1.00  0.00     0.029 A 
ATOM     56  N   UNL A   1      44.004  28.116  33.138  1.00  0.00    -0.354 N 
ATOM     57  N   UNL A   1      43.891  26.347  30.819  1.00  0.00    -0.248 NA
ATOM     58  C   UNL A   1      44.854  24.698  29.476  1.00  0.00     0.031 C 
ATOM     59  C   UNL A   1      45.667  27.859  34.588  1.00  0.00     0.029 A 
ATOM     60  C   UNL A   1      45.134  27.362  33.410  1.00  0.00     0.049 A 
ATOM     61  H   UNL A   1      43.417  27.993  32.358  1.00  0.00     0.167 HD
ATOM     62  C   UNL A   1      45.048  25.880  31.429  1.00  0.00     0.074 A 
ATOM     63  C   UNL A   1      45.578  24.834  30.579  1.00  0.00     0.031 C 
ATOM     64  C   UNL A   1      45.626  26.289  32.586  1.00  0.00     0.034 A 
BRANCH  51  65
ATOM     65  C   UNL A   1      42.763  31.062  35.260  1.00  0.00     0.023 A 
ATOM     66  C   UNL A   1      42.254  30.715  36.529  1.00  0.00     0.012 A 
ATOM     67  C   UNL A   1      43.336  32.334  35.071  1.00  0.00     0.148 A 
ATOM     68  C   UNL A   1      42.283  31.629  37.581  1.00  0.00     0.002 A 
ATOM     69  C   UNL A   1      43.404  33.224  36.137  1.00  0.00     0.091 A 
ATOM     70  F   UNL A   1      43.800  32.653  33.854  1.00  0.00    -0.205 F 
ATOM     71  C   UNL A   1      42.867  32.879  37.388  1.00  0.00     0.022 A 
BRANCH  69  72
ATOM     72  S   UNL A   1      44.212  34.825  36.013  1.00  0.00     0.127 S 
ATOM     73  O   UNL A   1      43.796  35.462  37.263  1.00  0.00    -0.237 OA
ATOM     74  O   UNL A   1      45.626  34.451  35.961  1.00  0.00    -0.237 OA
ATOM     75  O   UNL A   1      43.701  35.441  34.799  1.00  0.00    -0.744 OA
ENDBRANCH  69  72
ENDBRANCH  51  65
BRANCH  52  76
ATOM     76  C   UNL A   1      42.683  24.782  27.515  1.00  0.00     0.023 A 
ATOM     77  C   UNL A   1      43.309  25.201  26.325  1.00  0.00     0.012 A 
ATOM     78  C   UNL A   1      42.102  23.501  27.571  1.00  0.00     0.148 A 
ATOM     79  C   UNL A   1      43.324  24.374  25.200  1.00  0.00     0.002 A 
ATOM     80  C   UNL A   1      42.171  22.660  26.467  1.00  0.00     0.091 A 
ATOM     81  F   UNL A   1      41.500  23.127  28.709  1.00  0.00    -0.205 F 
ATOM     82  C   UNL A   1      42.765  23.102  25.274  1.00  0.00     0.022 A 
BRANCH  80  83
ATOM     83  S   UNL A   1      41.591  20.961  26.517  1.00  0.00     0.127 S 
ATOM     84  O   UNL A   1      42.296  20.372  25.379  1.00  0.00    -0.237 OA
ATOM     85  O   UNL A   1      42.066  20.520  27.830  1.00  0.00    -0.237 OA
ATOM     86  O   UNL A   1      40.145  21.037  26.395  1.00  0.00    -0.744 OA
ENDBRANCH  80  83
ENDBRANCH  52  76
BRANCH  64  87
ATOM     87  C   UNL A   1      46.881  25.581  33.033  1.00  0.00     0.023 A 
ATOM     88  C   UNL A   1      48.143  26.076  32.650  1.00  0.00     0.012 A 
ATOM     89  C   UNL A   1      46.806  24.467  33.891  1.00  0.00     0.148 A 
ATOM     90  C   UNL A   1      49.311  25.453  33.088  1.00  0.00     0.002 A 
ATOM     91  C   UNL A   1      47.975  23.882  34.365  1.00  0.00     0.091 A 
ATOM     92  F   UNL A   1      45.596  23.999  34.228  1.00  0.00    -0.205 F 
ATOM     93  C   UNL A   1      49.228  24.365  33.953  1.00  0.00     0.022 A 
BRANCH  91  94
ATOM     94  S   UNL A   1      47.965  22.540  35.559  1.00  0.00     0.127 S 
ATOM     95  O   UNL A   1      47.378  21.451  34.779  1.00  0.00    -0.237 OA
ATOM     96  O   UNL A   1      49.389  22.379  35.854  1.00  0.00    -0.237 OA
ATOM     97  O   UNL A   1      47.164  23.007  36.682  1.00  0.00    -0.744 OA
ENDBRANCH  91  94
ENDBRANCH  64  87
ENDBRANCH  38  39
ENDBRANCH  30  33
ENDBRANCH  28  29
ENDBRANCH  27  28
ENDBRANCH   1  27
TORSDOF 17
ENDMDL
MODEL 2
REMARK VINA RESULT:     -10.7      5.637     10.639
REMARK SMILES O=C(C[NH+]1CCN(c2nccc(N3CCCCC3)n2)CC1)NCCCCNC(=O)c1ccc(-c2c3nc(c(-c4cccc(S(=O)(=O)[O-])c4F)c4ccc([nH]4)c(-c4cccc(S(=O)(=O)[O-])c4F)c4nc(c(-c5cccc(S(=O)(=O)[O-])c5F)c5ccc2[nH]5)C=C4)C=C3)cc1
REMARK SMILES IDX 24 1 23 2 22 3 1 4 2 5 3 7 4 8 5 9 21 10 6 12 20 13 7 14
REMARK SMILES IDX 8 15 9 16 19 17 10 18 12 19 11 20 13 21 14 22 18 23 15 24
REMARK SMILES IDX 17 25 16 26 25 27 26 28 27 29 28 30 29 32 30 33 31 34 92 35
REMARK SMILES IDX 32 36 91 37 33 38 34 39 35 40 85 41 36 42 90 43 84 44 86 45
REMARK SMILES IDX 37 46 89 47 83 48 82 49 38 51 70 52 50 53 69 54 51 55 54 56
REMARK SMILES IDX 68 57 87 58 52 59 53 60 67 62 88 63 55 64 39 65 40 66 48 67
REMARK SMILES IDX 41 68 43 69 49 70 42 71 44 72 45 73 46 74 47 75 71 76 72 77
REMARK SMILES IDX 80 78 73 79 75 80 81 81 74 82 76 83 77 84 78 85 79 86 56 87
REMARK SMILES IDX 57 88 65 89 58 90 60 91 66 92 59 93 61 94 62 95 63 96 64 97
REMARK H PARENT 22 6 4 11 27 31 86 50 54 61
REMARK Flexibility Score: inf
ROOT
ATOM      1  C   UNL A   1      41.311  20.943  27.372  1.00  0.00     0.023 C 
ENDROOT
BRANCH   1   2
ATOM      2  C   UNL A   1      41.214  22.068  26.341  1.00  0.00     0.116 C 
BRANCH   2   3
ATOM      3  N   UNL A   1      39.874  22.605  26.272  1.00  0.00    -0.351 N 
ATOM      4  O   UNL A   1      38.852  20.752  25.372  1.00  0.00    -0.269 OA
ATOM      5  C   UNL A   1      38.776  21.878  25.852  1.00  0.00     0.275 C 
ATOM      6  H   UNL A   1      39.736  23.543  26.539  1.00  0.00     0.163 HD
BRANCH   5   7
ATOM      7  C   UNL A   1      37.451  22.625  26.090  1.00  0.00     0.363 C 
BRANCH   7   8
ATOM      8  N   UNL A   1      36.316  21.972  25.405  1.00  0.00    -0.324 N 
ATOM      9  C   UNL A   1      35.145  21.702  26.277  1.00  0.00     0.284 C 
ATOM     10  C   UNL A   1      35.856  22.789  24.246  1.00  0.00     0.284 C 
ATOM     11  H   UNL A   1      36.683  21.070  25.099  1.00  0.00     0.348 HD
ATOM     12  C   UNL A   1      34.358  22.952  26.729  1.00  0.00     0.181 C 
ATOM     13  C   UNL A   1      34.990  24.035  24.579  1.00  0.00     0.181 C 
ATOM     14  N   UNL A   1      33.970  23.683  25.549  1.00  0.00    -0.329 N 
BRANCH  14  15
ATOM     15  C   UNL A   1      32.808  24.401  25.593  1.00  0.00     0.227 A 
ATOM     16  N   UNL A   1      31.739  23.870  26.202  1.00  0.00    -0.221 NA
ATOM     17  N   UNL A   1      32.788  25.541  24.890  1.00  0.00    -0.196 NA
ATOM     18  C   UNL A   1      30.599  24.580  26.130  1.00  0.00     0.119 A 
ATOM     19  C   UNL A   1      31.620  26.193  24.777  1.00  0.00     0.134 A 
ATOM     20  C   UNL A   1      30.487  25.754  25.429  1.00  0.00     0.067 A 
BRANCH  19  21
ATOM     21  N   UNL A   1      31.548  27.266  23.914  1.00  0.00    -0.356 N 
ATOM     22  C   UNL A   1      32.064  28.552  24.362  1.00  0.00     0.118 C 
ATOM     23  C   UNL A   1      30.629  27.231  22.790  1.00  0.00     0.118 C 
ATOM     24  C   UNL A   1      30.930  29.546  24.592  1.00  0.00     0.022 C 
ATOM     25  C   UNL A   1      29.479  28.213  23.033  1.00  0.00     0.022 C 
ATOM     26  C   UNL A   1      30.001  29.607  23.382  1.00  0.00     0.004 C 
ENDBRANCH  19  21
ENDBRANCH  14  15
ENDBRANCH   7   8
ENDBRANCH   5   7
ENDBRANCH   2   3
ENDBRANCH   1   2
BRANCH   1  27
ATOM     27  C   UNL A   1      42.077  19.691  26.916  1.00  0.00     0.023 C 
BRANCH  27  28
ATOM     28  C   UNL A   1      42.149  19.473  25.406  1.00  0.00     0.116 C 
BRANCH  28  29
ATOM     29  N   UNL A   1      43.476  19.065  24.977  1.00  0.00    -0.352 N 
ATOM     30  C   UNL A   1      44.604  19.818  24.759  1.00  0.00     0.251 C 
ATOM     31  H   UNL A   1      43.584  18.099  24.816  1.00  0.00     0.163 HD
ATOM     32  O   UNL A   1      45.570  19.301  24.199  1.00  0.00    -0.269 OA
BRANCH  30  33
ATOM     33  C   UNL A   1      44.670  21.240  25.173  1.00  0.00     0.039 A 
ATOM     34  C   UNL A   1      45.031  21.539  26.492  1.00  0.00     0.014 A 
ATOM     35  C   UNL A   1      44.339  22.276  24.296  1.00  0.00     0.014 A 
ATOM     36  C   UNL A   1      45.118  22.871  26.911  1.00  0.00     0.010 A 
ATOM     37  C   UNL A   1      44.490  23.605  24.695  1.00  0.00     0.010 A 
ATOM     38  C   UNL A   1      44.879  23.920  26.007  1.00  0.00    -0.014 A 
BRANCH  38  39
ATOM     39  C   UNL A   1      45.057  25.341  26.410  1.00  0.00     0.031 A 
ATOM     40  C   UNL A   1      46.417  25.988  26.373  1.00  0.00     0.074 A 
ATOM     41  C   UNL A   1      44.003  26.032  26.892  1.00  0.00     0.049 A 
ATOM     42  N   UNL A   1      46.765  27.196  26.738  1.00  0.00    -0.248 NA
ATOM     43  C   UNL A   1      47.534  25.166  25.882  1.00  0.00     0.031 C 
ATOM     44  C   UNL A   1      42.646  25.505  27.046  1.00  0.00     0.029 A 
ATOM     45  N   UNL A   1      43.914  27.318  27.366  1.00  0.00    -0.354 N 
ATOM     46  C   UNL A   1      48.142  27.267  26.559  1.00  0.00     0.074 A 
ATOM     47  C   UNL A   1      48.569  25.972  26.075  1.00  0.00     0.031 C 
ATOM     48  C   UNL A   1      41.860  26.458  27.571  1.00  0.00     0.029 A 
ATOM     49  C   UNL A   1      42.660  27.653  27.825  1.00  0.00     0.049 A 
ATOM     50  H   UNL A   1      44.676  27.943  27.376  1.00  0.00     0.167 HD
ATOM     51  C   UNL A   1      48.973  28.318  26.758  1.00  0.00     0.034 A 
ATOM     52  C   UNL A   1      42.207  28.786  28.395  1.00  0.00     0.034 A 
ATOM     53  C   UNL A   1      48.543  29.619  27.199  1.00  0.00     0.049 A 
ATOM     54  C   UNL A   1      43.145  29.947  28.577  1.00  0.00     0.074 A 
ATOM     55  C   UNL A   1      49.297  30.771  27.339  1.00  0.00     0.029 A 
ATOM     56  N   UNL A   1      47.251  29.940  27.584  1.00  0.00    -0.354 N 
ATOM     57  N   UNL A   1      44.412  30.043  28.256  1.00  0.00    -0.248 NA
ATOM     58  C   UNL A   1      42.584  31.169  29.173  1.00  0.00     0.031 C 
ATOM     59  C   UNL A   1      48.469  31.780  27.840  1.00  0.00     0.029 A 
ATOM     60  C   UNL A   1      47.190  31.267  27.979  1.00  0.00     0.049 A 
ATOM     61  H   UNL A   1      46.489  29.317  27.578  1.00  0.00     0.167 HD
ATOM     62  C   UNL A   1      44.787  31.344  28.570  1.00  0.00     0.074 A 
ATOM     63  C   UNL A   1      43.610  32.006  29.091  1.00  0.00     0.031 C 
ATOM     64  C   UNL A   1      46.002  31.933  28.448  1.00  0.00     0.034 A 
BRANCH  51  65
ATOM     65  C   UNL A   1      50.438  28.125  26.459  1.00  0.00     0.023 A 
ATOM     66  C   UNL A   1      51.335  27.846  27.511  1.00  0.00     0.012 A 
ATOM     67  C   UNL A   1      50.914  28.145  25.134  1.00  0.00     0.148 A 
ATOM     68  C   UNL A   1      52.687  27.625  27.253  1.00  0.00     0.002 A 
ATOM     69  C   UNL A   1      52.255  27.878  24.880  1.00  0.00     0.091 A 
ATOM     70  F   UNL A   1      50.051  28.429  24.148  1.00  0.00    -0.205 F 
ATOM     71  C   UNL A   1      53.144  27.630  25.938  1.00  0.00     0.022 A 
BRANCH  69  72
ATOM     72  S   UNL A   1      52.924  27.778  23.214  1.00  0.00     0.127 S 
ATOM     73  O   UNL A   1      52.803  29.166  22.766  1.00  0.00    -0.237 OA
ATOM     74  O   UNL A   1      54.298  27.336  23.462  1.00  0.00    -0.237 OA
ATOM     75  O   UNL A   1      52.095  26.818  22.504  1.00  0.00    -0.744 OA
ENDBRANCH  69  72
ENDBRANCH  51  65
BRANCH  52  76
ATOM     76  C   UNL A   1      40.774  28.900  28.789  1.00  0.00     0.023 A 
ATOM     77  C   UNL A   1      39.791  29.049  27.791  1.00  0.00     0.012 A 
ATOM     78  C   UNL A   1      40.380  28.848  30.140  1.00  0.00     0.148 A 
ATOM     79  C   UNL A   1      38.444  29.181  28.134  1.00  0.00     0.002 A 
ATOM     80  C   UNL A   1      39.032  28.922  30.471  1.00  0.00     0.091 A 
ATOM     81  F   UNL A   1      41.332  28.719  31.074  1.00  0.00    -0.205 F 
ATOM     82  C   UNL A   1      38.064  29.108  29.471  1.00  0.00     0.022 A 
BRANCH  80  83
ATOM     83  S   UNL A   1      38.444  28.708  32.154  1.00  0.00     0.127 S 
ATOM     84  O   UNL A   1      39.200  29.737  32.867  1.00  0.00    -0.237 OA
ATOM     85  O   UNL A   1      37.013  28.983  32.010  1.00  0.00    -0.237 OA
ATOM     86  O   UNL A   1      38.759  27.333  32.508  1.00  0.00    -0.744 OA
ENDBRANCH  80  83
ENDBRANCH  52  76
BRANCH  64  87
ATOM     87  C   UNL A   1      46.123  33.383  28.844  1.00  0.00     0.023 A 
ATOM     88  C   UNL A   1      46.609  33.725  30.122  1.00  0.00     0.012 A 
ATOM     89  C   UNL A   1      45.822  34.404  27.923  1.00  0.00     0.148 A 
ATOM     90  C   UNL A   1      46.760  35.063  30.487  1.00  0.00     0.002 A 
ATOM     91  C   UNL A   1      46.024  35.734  28.275  1.00  0.00     0.091 A 
ATOM     92  F   UNL A   1      45.343  34.059  26.719  1.00  0.00    -0.205 F 
ATOM     93  C   UNL A   1      46.480  36.065  29.562  1.00  0.00     0.022 A 
BRANCH  91  94
ATOM     94  S   UNL A   1      45.784  37.086  27.117  1.00  0.00     0.127 S 
ATOM     95  O   UNL A   1      44.350  36.993  26.845  1.00  0.00    -0.237 OA
ATOM     96  O   UNL A   1      46.180  38.248  27.913  1.00  0.00    -0.237 OA
ATOM     97  O   UNL A   1      46.654  36.804  25.984  1.00  0.00    -0.744 OA
ENDBRANCH  91  94
ENDBRANCH  64  87
ENDBRANCH  38  39
ENDBRANCH  30  33
ENDBRANCH  28  29
ENDBRANCH  27  28
ENDBRANCH   1  27
TORSDOF 17
ENDMDL
MODEL 3
REMARK VINA RESULT:     -10.3      5.870     15.346
REMARK SMILES O=C(C[NH+]1CCN(c2nccc(N3CCCCC3)n2)CC1)NCCCCNC(=O)c1ccc(-c2c3nc(c(-c4cccc(S(=O)(=O)[O-])c4F)c4ccc([nH]4)c(-c4cccc(S(=O)(=O)[O-])c4F)c4nc(c(-c5cccc(S(=O)(=O)[O-])c5F)c5ccc2[nH]5)C=C4)C=C3)cc1
REMARK SMILES IDX 24 1 23 2 22 3 1 4 2 5 3 7 4 8 5 9 21 10 6 12 20 13 7 14
REMARK SMILES IDX 8 15 9 16 19 17 10 18 12 19 11 20 13 21 14 22 18 23 15 24
REMARK SMILES IDX 17 25 16 26 25 27 26 28 27 29 28 30 29 32 30 33 31 34 92 35
REMARK SMILES IDX 32 36 91 37 33 38 34 39 35 40 85 41 36 42 90 43 84 44 86 45
REMARK SMILES IDX 37 46 89 47 83 48 82 49 38 51 70 52 50 53 69 54 51 55 54 56
REMARK SMILES IDX 68 57 87 58 52 59 53 60 67 62 88 63 55 64 39 65 40 66 48 67
REMARK SMILES IDX 41 68 43 69 49 70 42 71 44 72 45 73 46 74 47 75 71 76 72 77
REMARK SMILES IDX 80 78 73 79 75 80 81 81 74 82 76 83 77 84 78 85 79 86 56 87
REMARK SMILES IDX 57 88 65 89 58 90 60 91 66 92 59 93 61 94 62 95 63 96 64 97
REMARK H PARENT 22 6 4 11 27 31 86 50 54 61
REMARK Flexibility Score: inf
ROOT
ATOM      1  C   UNL A   1      50.095  22.959  34.579  1.00  0.00     0.023 C 
ENDROOT
BRANCH   1   2
ATOM      2  C   UNL A   1      51.076  21.842  34.931  1.00  0.00     0.116 C 
BRANCH   2   3
ATOM      3  N   UNL A   1      50.457  20.841  35.771  1.00  0.00    -0.351 N 
ATOM      4  O   UNL A   1      51.005  21.771  37.801  1.00  0.00    -0.269 OA
ATOM      5  C   UNL A   1      50.411  20.918  37.150  1.00  0.00     0.275 C 
ATOM      6  H   UNL A   1      50.045  20.060  35.335  1.00  0.00     0.163 HD
BRANCH   5   7
ATOM      7  C   UNL A   1      49.503  19.839  37.769  1.00  0.00     0.363 C 
BRANCH   7   8
ATOM      8  N   UNL A   1      48.459  20.424  38.635  1.00  0.00    -0.324 N 
ATOM      9  C   UNL A   1      47.120  20.527  38.001  1.00  0.00     0.284 C 
ATOM     10  C   UNL A   1      48.319  19.643  39.897  1.00  0.00     0.284 C 
ATOM     11  H   UNL A   1      48.781  21.374  38.823  1.00  0.00     0.348 HD
ATOM     12  C   UNL A   1      46.397  19.181  37.768  1.00  0.00     0.181 C 
ATOM     13  C   UNL A   1      47.540  18.301  39.796  1.00  0.00     0.181 C 
ATOM     14  N   UNL A   1      46.322  18.493  39.032  1.00  0.00    -0.329 N 
BRANCH  14  15
ATOM     15  C   UNL A   1      45.256  17.668  39.251  1.00  0.00     0.227 A 
ATOM     16  N   UNL A   1      44.494  17.302  38.210  1.00  0.00    -0.221 NA
ATOM     17  N   UNL A   1      44.968  17.395  40.530  1.00  0.00    -0.196 NA
ATOM     18  C   UNL A   1      43.405  16.568  38.499  1.00  0.00     0.119 A 
ATOM     19  C   UNL A   1      43.838  16.720  40.793  1.00  0.00     0.134 A 
ATOM     20  C   UNL A   1      43.032  16.246  39.780  1.00  0.00     0.067 A 
BRANCH  19  21
ATOM     21  N   UNL A   1      43.443  16.588  42.108  1.00  0.00    -0.356 N 
ATOM     22  C   UNL A   1      44.151  17.353  43.125  1.00  0.00     0.118 C 
ATOM     23  C   UNL A   1      42.653  15.440  42.516  1.00  0.00     0.118 C 
ATOM     24  C   UNL A   1      44.992  16.438  44.010  1.00  0.00     0.022 C 
ATOM     25  C   UNL A   1      43.505  14.510  43.385  1.00  0.00     0.022 C 
ATOM     26  C   UNL A   1      44.161  15.271  44.538  1.00  0.00     0.004 C 
ENDBRANCH  19  21
ENDBRANCH  14  15
ENDBRANCH   7   8
ENDBRANCH   5   7
ENDBRANCH   2   3
ENDBRANCH   1   2
BRANCH   1  27
ATOM     27  C   UNL A   1      48.668  22.504  34.235  1.00  0.00     0.023 C 
BRANCH  27  28
ATOM     28  C   UNL A   1      47.553  23.143  35.061  1.00  0.00     0.116 C 
BRANCH  28  29
ATOM     29  N   UNL A   1      48.070  24.087  36.037  1.00  0.00    -0.352 N 
ATOM     30  C   UNL A   1      47.745  25.405  36.248  1.00  0.00     0.251 C 
ATOM     31  H   UNL A   1      48.759  23.727  36.641  1.00  0.00     0.163 HD
ATOM     32  O   UNL A   1      48.450  26.083  36.996  1.00  0.00    -0.269 OA
BRANCH  30  33
ATOM     33  C   UNL A   1      46.575  26.024  35.583  1.00  0.00     0.039 A 
ATOM     34  C   UNL A   1      46.775  27.167  34.799  1.00  0.00     0.014 A 
ATOM     35  C   UNL A   1      45.282  25.523  35.755  1.00  0.00     0.014 A 
ATOM     36  C   UNL A   1      45.693  27.767  34.145  1.00  0.00     0.010 A 
ATOM     37  C   UNL A   1      44.215  26.081  35.049  1.00  0.00     0.010 A 
ATOM     38  C   UNL A   1      44.406  27.211  34.238  1.00  0.00    -0.014 A 
BRANCH  38  39
ATOM     39  C   UNL A   1      43.263  27.782  33.475  1.00  0.00     0.031 A 
ATOM     40  C   UNL A   1      43.067  27.451  32.018  1.00  0.00     0.074 A 
ATOM     41  C   UNL A   1      42.441  28.669  34.073  1.00  0.00     0.049 A 
ATOM     42  N   UNL A   1      42.161  27.897  31.186  1.00  0.00    -0.248 NA
ATOM     43  C   UNL A   1      44.026  26.514  31.412  1.00  0.00     0.031 C 
ATOM     44  C   UNL A   1      42.558  29.129  35.458  1.00  0.00     0.029 A 
ATOM     45  N   UNL A   1      41.361  29.362  33.584  1.00  0.00    -0.354 N 
ATOM     46  C   UNL A   1      42.460  27.329  29.953  1.00  0.00     0.074 A 
ATOM     47  C   UNL A   1      43.648  26.524  30.140  1.00  0.00     0.031 C 
ATOM     48  C   UNL A   1      41.588  30.022  35.709  1.00  0.00     0.029 A 
ATOM     49  C   UNL A   1      40.800  30.226  34.497  1.00  0.00     0.049 A 
ATOM     50  H   UNL A   1      41.019  29.251  32.668  1.00  0.00     0.167 HD
ATOM     51  C   UNL A   1      41.798  27.448  28.778  1.00  0.00     0.034 A 
ATOM     52  C   UNL A   1      39.775  31.093  34.373  1.00  0.00     0.034 A 
ATOM     53  C   UNL A   1      40.593  28.216  28.600  1.00  0.00     0.049 A 
ATOM     54  C   UNL A   1      39.040  31.183  33.064  1.00  0.00     0.074 A 
ATOM     55  C   UNL A   1      39.800  28.320  27.470  1.00  0.00     0.029 A 
ATOM     56  N   UNL A   1      40.014  29.019  29.569  1.00  0.00    -0.354 N 
ATOM     57  N   UNL A   1      39.247  30.518  31.953  1.00  0.00    -0.248 NA
ATOM     58  C   UNL A   1      37.909  32.121  33.000  1.00  0.00     0.031 C 
ATOM     59  C   UNL A   1      38.760  29.212  27.746  1.00  0.00     0.029 A 
ATOM     60  C   UNL A   1      38.884  29.637  29.059  1.00  0.00     0.049 A 
ATOM     61  H   UNL A   1      40.355  29.134  30.485  1.00  0.00     0.167 HD
ATOM     62  C   UNL A   1      38.250  30.925  31.075  1.00  0.00     0.074 A 
ATOM     63  C   UNL A   1      37.428  31.881  31.787  1.00  0.00     0.031 C 
ATOM     64  C   UNL A   1      38.041  30.548  29.790  1.00  0.00     0.034 A 
BRANCH  51  65
ATOM     65  C   UNL A   1      42.335  26.695  27.587  1.00  0.00     0.023 A 
ATOM     66  C   UNL A   1      43.203  27.343  26.684  1.00  0.00     0.012 A 
ATOM     67  C   UNL A   1      42.041  25.330  27.402  1.00  0.00     0.148 A 
ATOM     68  C   UNL A   1      43.743  26.655  25.598  1.00  0.00     0.002 A 
ATOM     69  C   UNL A   1      42.620  24.639  26.344  1.00  0.00     0.091 A 
ATOM     70  F   UNL A   1      41.201  24.735  28.260  1.00  0.00    -0.205 F 
ATOM     71  C   UNL A   1      43.460  25.302  25.434  1.00  0.00     0.022 A 
BRANCH  69  72
ATOM     72  S   UNL A   1      42.385  22.874  26.096  1.00  0.00     0.127 S 
ATOM     73  O   UNL A   1      43.025  22.672  24.795  1.00  0.00    -0.237 OA
ATOM     74  O   UNL A   1      43.116  22.305  27.230  1.00  0.00    -0.237 OA
ATOM     75  O   UNL A   1      40.948  22.651  26.126  1.00  0.00    -0.744 OA
ENDBRANCH  69  72
ENDBRANCH  51  65
BRANCH  52  76
ATOM     76  C   UNL A   1      39.346  31.912  35.542  1.00  0.00     0.023 A 
ATOM     77  C   UNL A   1      39.736  33.263  35.622  1.00  0.00     0.012 A 
ATOM     78  C   UNL A   1      38.545  31.366  36.563  1.00  0.00     0.148 A 
ATOM     79  C   UNL A   1      39.366  34.045  36.718  1.00  0.00     0.002 A 
ATOM     80  C   UNL A   1      38.132  32.166  37.621  1.00  0.00     0.091 A 
ATOM     81  F   UNL A   1      38.195  30.074  36.473  1.00  0.00    -0.205 F 
ATOM     82  C   UNL A   1      38.557  33.501  37.710  1.00  0.00     0.022 A 
BRANCH  80  83
ATOM     83  S   UNL A   1      36.986  31.582  38.875  1.00  0.00     0.127 S 
ATOM     84  O   UNL A   1      36.668  30.241  38.387  1.00  0.00    -0.237 OA
ATOM     85  O   UNL A   1      37.817  31.617  40.081  1.00  0.00    -0.237 OA
ATOM     86  O   UNL A   1      35.887  32.533  38.876  1.00  0.00    -0.744 OA
ENDBRANCH  80  83
ENDBRANCH  52  76
BRANCH  64  87
ATOM     87  C   UNL A   1      36.853  31.134  29.070  1.00  0.00     0.023 A 
ATOM     88  C   UNL A   1      36.775  32.525  28.856  1.00  0.00     0.012 A 
ATOM     89  C   UNL A   1      35.851  30.297  28.543  1.00  0.00     0.148 A 
ATOM     90  C   UNL A   1      35.700  33.075  28.159  1.00  0.00     0.002 A 
ATOM     91  C   UNL A   1      34.809  30.847  27.805  1.00  0.00     0.091 A 
ATOM     92  F   UNL A   1      35.933  28.978  28.773  1.00  0.00    -0.205 F 
ATOM     93  C   UNL A   1      34.725  32.237  27.624  1.00  0.00     0.022 A 
BRANCH  91  94
ATOM     94  S   UNL A   1      33.563  29.837  26.995  1.00  0.00     0.127 S 
ATOM     95  O   UNL A   1      32.590  30.846  26.575  1.00  0.00    -0.237 OA
ATOM     96  O   UNL A   1      34.321  29.230  25.901  1.00  0.00    -0.237 OA
ATOM     97  O   UNL A   1      33.092  28.896  28.001  1.00  0.00    -0.744 OA
ENDBRANCH  91  94
ENDBRANCH  64  87
ENDBRANCH  38  39
ENDBRANCH  30  33
ENDBRANCH  28  29
ENDBRANCH  27  28
ENDBRANCH   1  27
TORSDOF 17
ENDMDL
