MODEL 1
REMARK VINA RESULT:     -12.3      0.000      0.000
REMARK SMILES O=C(NCCCCNC(=O)[C@H]1CCCN(S(=O)(=O)c2cccc(Br)c2)C1)c1ccc(-c2c3nc(c(-c4cccc(S(=O)(=O)[O-])c4F)c4ccc([nH]4)c(-c4cccc(S(=O)(=O)[O-])c4F)c4nc(c(-c5cccc(S(=O)(=O)[O-])c5F)c5ccc2[nH]5)C=C4)C=C3)cc1
REMARK SMILES IDX 5 1 4 2 3 3 1 4 2 5 27 7 28 8 89 9 29 10 88 11 30 12 31 13
REMARK SMILES IDX 32 14 82 15 33 16 87 17 81 18 83 19 34 20 86 21 80 22 79 23
REMARK SMILES IDX 35 25 67 26 47 27 66 28 48 29 51 30 65 31 84 32 49 33 50 34
REMARK SMILES IDX 64 36 85 37 52 38 36 39 37 40 45 41 38 42 40 43 46 44 39 45
REMARK SMILES IDX 41 46 42 47 43 48 44 49 68 50 69 51 77 52 70 53 72 54 78 55
REMARK SMILES IDX 71 56 73 57 74 58 75 59 76 60 53 61 54 62 62 63 55 64 57 65
REMARK SMILES IDX 63 66 56 67 58 68 59 69 60 70 61 71 6 72 7 73 8 74 9 75
REMARK SMILES IDX 10 77 11 78 12 79 26 80 13 81 15 82 14 83 16 84 17 85 18 86
REMARK SMILES IDX 19 87 20 88 25 89 21 90 23 91 22 92 24 93
REMARK H PARENT 3 6 83 24 51 35 8 76
REMARK Flexibility Score: inf
ROOT
ATOM      1  C   UNL A   1      37.787  19.464  24.894  1.00  0.00     0.023 C 
ENDROOT
BRANCH   1   2
ATOM      2  C   UNL A   1      38.886  20.075  25.756  1.00  0.00     0.116 C 
BRANCH   2   3
ATOM      3  N   UNL A   1      40.038  19.200  25.901  1.00  0.00    -0.352 N 
ATOM      4  O   UNL A   1      42.213  18.644  26.045  1.00  0.00    -0.269 OA
ATOM      5  C   UNL A   1      41.356  19.518  26.132  1.00  0.00     0.251 C 
ATOM      6  H   UNL A   1      39.846  18.237  25.823  1.00  0.00     0.163 HD
BRANCH   5   7
ATOM      7  C   UNL A   1      41.734  20.911  26.457  1.00  0.00     0.039 A 
ATOM      8  C   UNL A   1      41.827  21.330  27.787  1.00  0.00     0.014 A 
ATOM      9  C   UNL A   1      42.018  21.804  25.421  1.00  0.00     0.014 A 
ATOM     10  C   UNL A   1      42.056  22.671  28.077  1.00  0.00     0.010 A 
ATOM     11  C   UNL A   1      42.336  23.133  25.717  1.00  0.00     0.010 A 
ATOM     12  C   UNL A   1      42.334  23.583  27.047  1.00  0.00    -0.014 A 
BRANCH  12  13
ATOM     13  C   UNL A   1      42.734  24.971  27.389  1.00  0.00     0.031 A 
ATOM     14  C   UNL A   1      41.777  25.929  28.043  1.00  0.00     0.074 A 
ATOM     15  C   UNL A   1      43.980  25.372  27.065  1.00  0.00     0.049 A 
ATOM     16  N   UNL A   1      41.974  27.176  28.384  1.00  0.00    -0.248 NA
ATOM     17  C   UNL A   1      40.425  25.433  28.347  1.00  0.00     0.031 C 
ATOM     18  C   UNL A   1      44.975  24.544  26.378  1.00  0.00     0.029 A 
ATOM     19  N   UNL A   1      44.617  26.573  27.245  1.00  0.00    -0.354 N 
ATOM     20  C   UNL A   1      40.765  27.631  28.897  1.00  0.00     0.074 A 
ATOM     21  C   UNL A   1      39.838  26.522  28.832  1.00  0.00     0.031 C 
ATOM     22  C   UNL A   1      46.094  25.257  26.196  1.00  0.00     0.029 A 
ATOM     23  C   UNL A   1      45.879  26.608  26.699  1.00  0.00     0.049 A 
ATOM     24  H   UNL A   1      44.212  27.335  27.718  1.00  0.00     0.167 HD
ATOM     25  C   UNL A   1      40.465  28.858  29.385  1.00  0.00     0.034 A 
ATOM     26  C   UNL A   1      46.757  27.622  26.581  1.00  0.00     0.034 A 
ATOM     27  C   UNL A   1      41.409  29.939  29.490  1.00  0.00     0.049 A 
ATOM     28  C   UNL A   1      46.396  28.964  27.146  1.00  0.00     0.074 A 
ATOM     29  C   UNL A   1      41.233  31.178  30.083  1.00  0.00     0.029 A 
ATOM     30  N   UNL A   1      42.694  29.924  28.973  1.00  0.00    -0.354 N 
ATOM     31  N   UNL A   1      45.311  29.318  27.791  1.00  0.00    -0.248 NA
ATOM     32  C   UNL A   1      47.383  30.040  26.987  1.00  0.00     0.031 C 
ATOM     33  C   UNL A   1      42.401  31.924  29.895  1.00  0.00     0.029 A 
ATOM     34  C   UNL A   1      43.311  31.143  29.202  1.00  0.00     0.049 A 
ATOM     35  H   UNL A   1      43.108  29.160  28.511  1.00  0.00     0.167 HD
ATOM     36  C   UNL A   1      45.489  30.654  28.125  1.00  0.00     0.074 A 
ATOM     37  C   UNL A   1      46.801  31.035  27.644  1.00  0.00     0.031 C 
ATOM     38  C   UNL A   1      44.632  31.497  28.752  1.00  0.00     0.034 A 
BRANCH  25  39
ATOM     39  C   UNL A   1      39.066  29.111  29.882  1.00  0.00     0.023 A 
ATOM     40  C   UNL A   1      38.722  28.767  31.204  1.00  0.00     0.012 A 
ATOM     41  C   UNL A   1      38.131  29.796  29.078  1.00  0.00     0.148 A 
ATOM     42  C   UNL A   1      37.465  29.090  31.717  1.00  0.00     0.002 A 
ATOM     43  C   UNL A   1      36.894  30.145  29.607  1.00  0.00     0.091 A 
ATOM     44  F   UNL A   1      38.473  30.098  27.818  1.00  0.00    -0.205 F 
ATOM     45  C   UNL A   1      36.557  29.789  30.923  1.00  0.00     0.022 A 
BRANCH  43  46
ATOM     46  S   UNL A   1      35.682  31.108  28.693  1.00  0.00     0.127 S 
ATOM     47  O   UNL A   1      35.086  30.088  27.832  1.00  0.00    -0.237 OA
ATOM     48  O   UNL A   1      34.806  31.594  29.759  1.00  0.00    -0.237 OA
ATOM     49  O   UNL A   1      36.433  32.147  28.002  1.00  0.00    -0.744 OA
ENDBRANCH  43  46
ENDBRANCH  25  39
BRANCH  26  50
ATOM     50  C   UNL A   1      48.063  27.391  25.904  1.00  0.00     0.023 A 
ATOM     51  C   UNL A   1      49.175  26.973  26.657  1.00  0.00     0.012 A 
ATOM     52  C   UNL A   1      48.194  27.537  24.508  1.00  0.00     0.148 A 
ATOM     53  C   UNL A   1      50.401  26.728  26.035  1.00  0.00     0.002 A 
ATOM     54  C   UNL A   1      49.399  27.232  23.888  1.00  0.00     0.091 A 
ATOM     55  F   UNL A   1      47.130  27.959  23.808  1.00  0.00    -0.205 F 
ATOM     56  C   UNL A   1      50.510  26.844  24.652  1.00  0.00     0.022 A 
BRANCH  54  57
ATOM     57  S   UNL A   1      49.562  27.209  22.100  1.00  0.00     0.127 S 
ATOM     58  O   UNL A   1      49.198  28.578  21.747  1.00  0.00    -0.237 OA
ATOM     59  O   UNL A   1      50.979  26.882  21.922  1.00  0.00    -0.237 OA
ATOM     60  O   UNL A   1      48.653  26.165  21.647  1.00  0.00    -0.744 OA
ENDBRANCH  54  57
ENDBRANCH  26  50
BRANCH  38  61
ATOM     61  C   UNL A   1      45.083  32.917  28.955  1.00  0.00     0.023 A 
ATOM     62  C   UNL A   1      45.965  33.217  30.012  1.00  0.00     0.012 A 
ATOM     63  C   UNL A   1      44.695  33.936  28.063  1.00  0.00     0.148 A 
ATOM     64  C   UNL A   1      46.438  34.516  30.193  1.00  0.00     0.002 A 
ATOM     65  C   UNL A   1      45.206  35.218  28.222  1.00  0.00     0.091 A 
ATOM     66  F   UNL A   1      43.841  33.631  27.076  1.00  0.00    -0.205 F 
ATOM     67  C   UNL A   1      46.068  35.512  29.293  1.00  0.00     0.022 A 
BRANCH  65  68
ATOM     68  S   UNL A   1      44.859  36.547  27.064  1.00  0.00     0.127 S 
ATOM     69  O   UNL A   1      44.918  37.721  27.931  1.00  0.00    -0.237 OA
ATOM     70  O   UNL A   1      45.968  36.429  26.117  1.00  0.00    -0.237 OA
ATOM     71  O   UNL A   1      43.548  36.255  26.499  1.00  0.00    -0.744 OA
ENDBRANCH  65  68
ENDBRANCH  38  61
ENDBRANCH  12  13
ENDBRANCH   5   7
ENDBRANCH   2   3
ENDBRANCH   1   2
BRANCH   1  72
ATOM     72  C   UNL A   1      36.514  20.300  24.757  1.00  0.00     0.023 C 
BRANCH  72  73
ATOM     73  C   UNL A   1      36.474  21.573  25.594  1.00  0.00     0.116 C 
BRANCH  73  74
ATOM     74  N   UNL A   1      35.497  21.548  26.667  1.00  0.00    -0.356 N 
ATOM     75  C   UNL A   1      34.167  21.856  26.619  1.00  0.00     0.224 C 
ATOM     76  H   UNL A   1      35.839  21.272  27.547  1.00  0.00     0.163 HD
ATOM     77  O   UNL A   1      33.492  21.671  27.631  1.00  0.00    -0.275 OA
BRANCH  75  78
ATOM     78  C   UNL A   1      33.573  22.442  25.341  1.00  0.00     0.093 C 
ATOM     79  C   UNL A   1      32.804  21.395  24.536  1.00  0.00     0.016 C 
ATOM     80  C   UNL A   1      32.621  23.602  25.682  1.00  0.00     0.116 C 
ATOM     81  C   UNL A   1      32.310  22.034  23.254  1.00  0.00     0.018 C 
ATOM     82  N   UNL A   1      31.982  24.204  24.442  1.00  0.00    -0.197 NA
ATOM     83  C   UNL A   1      31.356  23.170  23.568  1.00  0.00     0.102 C 
BRANCH  82  84
ATOM     84  S   UNL A   1      30.878  25.469  24.902  1.00  0.00     0.243 S 
ATOM     85  O   UNL A   1      29.851  25.548  23.881  1.00  0.00    -0.207 OA
ATOM     86  O   UNL A   1      30.533  25.270  26.291  1.00  0.00    -0.207 OA
BRANCH  84  87
ATOM     87  C   UNL A   1      31.835  26.968  24.793  1.00  0.00     0.083 A 
ATOM     88  C   UNL A   1      32.846  27.075  23.828  1.00  0.00     0.022 A 
ATOM     89  C   UNL A   1      31.506  28.062  25.595  1.00  0.00     0.037 A 
ATOM     90  C   UNL A   1      33.596  28.245  23.731  1.00  0.00     0.003 A 
ATOM     91  C   UNL A   1      32.235  29.243  25.460  1.00  0.00     0.019 A 
ATOM     92  C   UNL A   1      33.291  29.332  24.550  1.00  0.00     0.016 A 
ATOM     93  Br  UNL A   1      31.779  30.753  26.501  1.00  0.00    -0.051 Br
ENDBRANCH  84  87
ENDBRANCH  82  84
ENDBRANCH  75  78
ENDBRANCH  73  74
ENDBRANCH  72  73
ENDBRANCH   1  72
TORSDOF 16
ENDMDL
MODEL 2
REMARK VINA RESULT:     -12.2      5.894     11.264
REMARK SMILES O=C(NCCCCNC(=O)[C@H]1CCCN(S(=O)(=O)c2cccc(Br)c2)C1)c1ccc(-c2c3nc(c(-c4cccc(S(=O)(=O)[O-])c4F)c4ccc([nH]4)c(-c4cccc(S(=O)(=O)[O-])c4F)c4nc(c(-c5cccc(S(=O)(=O)[O-])c5F)c5ccc2[nH]5)C=C4)C=C3)cc1
REMARK SMILES IDX 5 1 4 2 3 3 1 4 2 5 27 7 28 8 89 9 29 10 88 11 30 12 31 13
REMARK SMILES IDX 32 14 82 15 33 16 87 17 81 18 83 19 34 20 86 21 80 22 79 23
REMARK SMILES IDX 35 25 67 26 47 27 66 28 48 29 51 30 65 31 84 32 49 33 50 34
REMARK SMILES IDX 64 36 85 37 52 38 36 39 37 40 45 41 38 42 40 43 46 44 39 45
REMARK SMILES IDX 41 46 42 47 43 48 44 49 68 50 69 51 77 52 70 53 72 54 78 55
REMARK SMILES IDX 71 56 73 57 74 58 75 59 76 60 53 61 54 62 62 63 55 64 57 65
REMARK SMILES IDX 63 66 56 67 58 68 59 69 60 70 61 71 6 72 7 73 8 74 9 75
REMARK SMILES IDX 10 77 11 78 12 79 26 80 13 81 15 82 14 83 16 84 17 85 18 86
REMARK SMILES IDX 19 87 20 88 25 89 21 90 23 91 22 92 24 93
REMARK H PARENT 3 6 83 24 51 35 8 76
REMARK Flexibility Score: inf
ROOT
ATOM      1  C   UNL A   1      31.326  31.806  26.433  1.00  0.00     0.023 C 
ENDROOT
BRANCH   1   2
ATOM      2  C   UNL A   1      32.654  32.392  26.901  1.00  0.00     0.116 C 
BRANCH   2   3
ATOM      3  N   UNL A   1      32.517  33.736  27.441  1.00  0.00    -0.352 N 
ATOM      4  O   UNL A   1      32.828  35.429  28.889  1.00  0.00    -0.269 OA
ATOM      5  C   UNL A   1      33.213  34.346  28.457  1.00  0.00     0.251 C 
ATOM      6  H   UNL A   1      31.823  34.290  27.015  1.00  0.00     0.163 HD
BRANCH   5   7
ATOM      7  C   UNL A   1      34.402  33.686  29.040  1.00  0.00     0.039 A 
ATOM      8  C   UNL A   1      34.258  32.679  29.997  1.00  0.00     0.014 A 
ATOM      9  C   UNL A   1      35.676  34.067  28.611  1.00  0.00     0.014 A 
ATOM     10  C   UNL A   1      35.383  32.159  30.631  1.00  0.00     0.010 A 
ATOM     11  C   UNL A   1      36.808  33.478  29.185  1.00  0.00     0.010 A 
ATOM     12  C   UNL A   1      36.670  32.537  30.218  1.00  0.00    -0.014 A 
BRANCH  12  13
ATOM     13  C   UNL A   1      37.852  31.850  30.795  1.00  0.00     0.031 A 
ATOM     14  C   UNL A   1      38.607  30.801  30.028  1.00  0.00     0.074 A 
ATOM     15  C   UNL A   1      38.219  32.166  32.054  1.00  0.00     0.049 A 
ATOM     16  N   UNL A   1      39.647  30.101  30.405  1.00  0.00    -0.248 NA
ATOM     17  C   UNL A   1      38.138  30.488  28.669  1.00  0.00     0.031 C 
ATOM     18  C   UNL A   1      37.525  33.129  32.914  1.00  0.00     0.029 A 
ATOM     19  N   UNL A   1      39.244  31.701  32.839  1.00  0.00    -0.354 N 
ATOM     20  C   UNL A   1      39.927  29.234  29.356  1.00  0.00     0.074 A 
ATOM     21  C   UNL A   1      38.954  29.500  28.319  1.00  0.00     0.031 C 
ATOM     22  C   UNL A   1      38.141  33.187  34.101  1.00  0.00     0.029 A 
ATOM     23  C   UNL A   1      39.237  32.225  34.111  1.00  0.00     0.049 A 
ATOM     24  H   UNL A   1      39.918  31.057  32.523  1.00  0.00     0.167 HD
ATOM     25  C   UNL A   1      40.913  28.309  29.268  1.00  0.00     0.034 A 
ATOM     26  C   UNL A   1      40.001  31.940  35.182  1.00  0.00     0.034 A 
ATOM     27  C   UNL A   1      41.906  28.087  30.286  1.00  0.00     0.049 A 
ATOM     28  C   UNL A   1      41.093  30.921  35.043  1.00  0.00     0.074 A 
ATOM     29  C   UNL A   1      43.016  27.261  30.237  1.00  0.00     0.029 A 
ATOM     30  N   UNL A   1      41.899  28.671  31.543  1.00  0.00    -0.354 N 
ATOM     31  N   UNL A   1      41.454  30.243  33.981  1.00  0.00    -0.248 NA
ATOM     32  C   UNL A   1      41.896  30.639  36.241  1.00  0.00     0.031 C 
ATOM     33  C   UNL A   1      43.661  27.320  31.477  1.00  0.00     0.029 A 
ATOM     34  C   UNL A   1      42.964  28.198  32.291  1.00  0.00     0.049 A 
ATOM     35  H   UNL A   1      41.235  29.325  31.858  1.00  0.00     0.167 HD
ATOM     36  C   UNL A   1      42.532  29.464  34.377  1.00  0.00     0.074 A 
ATOM     37  C   UNL A   1      42.789  29.781  35.767  1.00  0.00     0.031 C 
ATOM     38  C   UNL A   1      43.232  28.550  33.661  1.00  0.00     0.034 A 
BRANCH  25  39
ATOM     39  C   UNL A   1      41.008  27.477  28.017  1.00  0.00     0.023 A 
ATOM     40  C   UNL A   1      41.626  28.010  26.869  1.00  0.00     0.012 A 
ATOM     41  C   UNL A   1      40.591  26.129  28.018  1.00  0.00     0.148 A 
ATOM     42  C   UNL A   1      41.820  27.218  25.736  1.00  0.00     0.002 A 
ATOM     43  C   UNL A   1      40.819  25.338  26.898  1.00  0.00     0.091 A 
ATOM     44  F   UNL A   1      39.989  25.648  29.115  1.00  0.00    -0.205 F 
ATOM     45  C   UNL A   1      41.427  25.881  25.755  1.00  0.00     0.022 A 
BRANCH  43  46
ATOM     46  S   UNL A   1      40.417  23.586  26.847  1.00  0.00     0.127 S 
ATOM     47  O   UNL A   1      41.253  23.125  25.740  1.00  0.00    -0.237 OA
ATOM     48  O   UNL A   1      40.850  23.133  28.169  1.00  0.00    -0.237 OA
ATOM     49  O   UNL A   1      38.981  23.510  26.619  1.00  0.00    -0.744 OA
ENDBRANCH  43  46
ENDBRANCH  25  39
BRANCH  26  50
ATOM     50  C   UNL A   1      39.754  32.642  36.472  1.00  0.00     0.023 A 
ATOM     51  C   UNL A   1      40.479  33.808  36.780  1.00  0.00     0.012 A 
ATOM     52  C   UNL A   1      38.769  32.186  37.371  1.00  0.00     0.148 A 
ATOM     53  C   UNL A   1      40.243  34.493  37.973  1.00  0.00     0.002 A 
ATOM     54  C   UNL A   1      38.498  32.908  38.526  1.00  0.00     0.091 A 
ATOM     55  F   UNL A   1      38.104  31.061  37.072  1.00  0.00    -0.205 F 
ATOM     56  C   UNL A   1      39.245  34.053  38.839  1.00  0.00     0.022 A 
BRANCH  54  57
ATOM     57  S   UNL A   1      37.124  32.484  39.603  1.00  0.00     0.127 S 
ATOM     58  O   UNL A   1      37.234  33.501  40.645  1.00  0.00    -0.237 OA
ATOM     59  O   UNL A   1      35.972  32.638  38.711  1.00  0.00    -0.237 OA
ATOM     60  O   UNL A   1      37.372  31.109  40.016  1.00  0.00    -0.744 OA
ENDBRANCH  54  57
ENDBRANCH  26  50
BRANCH  38  61
ATOM     61  C   UNL A   1      44.344  27.822  34.365  1.00  0.00     0.023 A 
ATOM     62  C   UNL A   1      45.636  28.383  34.380  1.00  0.00     0.012 A 
ATOM     63  C   UNL A   1      44.096  26.629  35.071  1.00  0.00     0.148 A 
ATOM     64  C   UNL A   1      46.673  27.755  35.068  1.00  0.00     0.002 A 
ATOM     65  C   UNL A   1      45.124  26.032  35.793  1.00  0.00     0.091 A 
ATOM     66  F   UNL A   1      42.863  26.104  35.028  1.00  0.00    -0.205 F 
ATOM     67  C   UNL A   1      46.414  26.588  35.782  1.00  0.00     0.022 A 
BRANCH  65  68
ATOM     68  S   UNL A   1      44.868  24.577  36.814  1.00  0.00     0.127 S 
ATOM     69  O   UNL A   1      43.836  25.040  37.739  1.00  0.00    -0.237 OA
ATOM     70  O   UNL A   1      44.413  23.589  35.835  1.00  0.00    -0.237 OA
ATOM     71  O   UNL A   1      46.158  24.278  37.420  1.00  0.00    -0.744 OA
ENDBRANCH  65  68
ENDBRANCH  38  61
ENDBRANCH  12  13
ENDBRANCH   5   7
ENDBRANCH   2   3
ENDBRANCH   1   2
BRANCH   1  72
ATOM     72  C   UNL A   1      31.396  30.394  25.851  1.00  0.00     0.023 C 
BRANCH  72  73
ATOM     73  C   UNL A   1      32.780  29.754  25.853  1.00  0.00     0.116 C 
BRANCH  73  74
ATOM     74  N   UNL A   1      33.413  29.704  24.548  1.00  0.00    -0.356 N 
ATOM     75  C   UNL A   1      33.292  28.752  23.575  1.00  0.00     0.224 C 
ATOM     76  H   UNL A   1      34.008  30.459  24.335  1.00  0.00     0.163 HD
ATOM     77  O   UNL A   1      33.843  28.955  22.494  1.00  0.00    -0.275 OA
BRANCH  75  78
ATOM     78  C   UNL A   1      32.518  27.470  23.865  1.00  0.00     0.093 C 
ATOM     79  C   UNL A   1      31.181  27.430  23.126  1.00  0.00     0.016 C 
ATOM     80  C   UNL A   1      33.350  26.243  23.452  1.00  0.00     0.116 C 
ATOM     81  C   UNL A   1      30.445  26.166  23.522  1.00  0.00     0.018 C 
ATOM     82  N   UNL A   1      32.611  24.939  23.697  1.00  0.00    -0.197 NA
ATOM     83  C   UNL A   1      31.240  24.944  23.107  1.00  0.00     0.102 C 
BRANCH  82  84
ATOM     84  S   UNL A   1      33.582  23.599  23.156  1.00  0.00     0.243 S 
ATOM     85  O   UNL A   1      32.851  22.924  22.100  1.00  0.00    -0.207 OA
ATOM     86  O   UNL A   1      34.924  24.087  22.936  1.00  0.00    -0.207 OA
BRANCH  84  87
ATOM     87  C   UNL A   1      33.633  22.486  24.546  1.00  0.00     0.083 A 
ATOM     88  C   UNL A   1      33.878  22.991  25.829  1.00  0.00     0.022 A 
ATOM     89  C   UNL A   1      33.325  21.136  24.365  1.00  0.00     0.037 A 
ATOM     90  C   UNL A   1      33.914  22.128  26.924  1.00  0.00     0.003 A 
ATOM     91  C   UNL A   1      33.321  20.289  25.474  1.00  0.00     0.019 A 
ATOM     92  C   UNL A   1      33.635  20.773  26.745  1.00  0.00     0.016 A 
ATOM     93  Br  UNL A   1      32.862  18.467  25.262  1.00  0.00    -0.051 Br
ENDBRANCH  84  87
ENDBRANCH  82  84
ENDBRANCH  75  78
ENDBRANCH  73  74
ENDBRANCH  72  73
ENDBRANCH   1  72
TORSDOF 16
ENDMDL
MODEL 3
REMARK VINA RESULT:     -11.9      5.197      8.621
REMARK SMILES O=C(NCCCCNC(=O)[C@H]1CCCN(S(=O)(=O)c2cccc(Br)c2)C1)c1ccc(-c2c3nc(c(-c4cccc(S(=O)(=O)[O-])c4F)c4ccc([nH]4)c(-c4cccc(S(=O)(=O)[O-])c4F)c4nc(c(-c5cccc(S(=O)(=O)[O-])c5F)c5ccc2[nH]5)C=C4)C=C3)cc1
REMARK SMILES IDX 5 1 4 2 3 3 1 4 2 5 27 7 28 8 89 9 29 10 88 11 30 12 31 13
REMARK SMILES IDX 32 14 82 15 33 16 87 17 81 18 83 19 34 20 86 21 80 22 79 23
REMARK SMILES IDX 35 25 67 26 47 27 66 28 48 29 51 30 65 31 84 32 49 33 50 34
REMARK SMILES IDX 64 36 85 37 52 38 36 39 37 40 45 41 38 42 40 43 46 44 39 45
REMARK SMILES IDX 41 46 42 47 43 48 44 49 68 50 69 51 77 52 70 53 72 54 78 55
REMARK SMILES IDX 71 56 73 57 74 58 75 59 76 60 53 61 54 62 62 63 55 64 57 65
REMARK SMILES IDX 63 66 56 67 58 68 59 69 60 70 61 71 6 72 7 73 8 74 9 75
REMARK SMILES IDX 10 77 11 78 12 79 26 80 13 81 15 82 14 83 16 84 17 85 18 86
REMARK SMILES IDX 19 87 20 88 25 89 21 90 23 91 22 92 24 93
REMARK H PARENT 3 6 83 24 51 35 8 76
REMARK Flexibility Score: inf
ROOT
ATOM      1  C   UNL A   1      33.713  28.192  25.654  1.00  0.00     0.023 C 
ENDROOT
BRANCH   1   2
ATOM      2  C   UNL A   1      33.822  28.545  27.133  1.00  0.00     0.116 C 
BRANCH   2   3
ATOM      3  N   UNL A   1      33.717  29.975  27.379  1.00  0.00    -0.352 N 
ATOM      4  O   UNL A   1      34.213  31.959  28.318  1.00  0.00    -0.269 OA
ATOM      5  C   UNL A   1      34.566  30.810  28.065  1.00  0.00     0.251 C 
ATOM      6  H   UNL A   1      32.919  30.408  26.997  1.00  0.00     0.163 HD
BRANCH   5   7
ATOM      7  C   UNL A   1      35.886  30.316  28.516  1.00  0.00     0.039 A 
ATOM      8  C   UNL A   1      37.022  30.498  27.723  1.00  0.00     0.014 A 
ATOM      9  C   UNL A   1      35.992  29.678  29.754  1.00  0.00     0.014 A 
ATOM     10  C   UNL A   1      38.229  29.915  28.097  1.00  0.00     0.010 A 
ATOM     11  C   UNL A   1      37.227  29.170  30.171  1.00  0.00     0.010 A 
ATOM     12  C   UNL A   1      38.350  29.263  29.334  1.00  0.00    -0.014 A 
BRANCH  12  13
ATOM     13  C   UNL A   1      39.685  28.792  29.782  1.00  0.00     0.031 A 
ATOM     14  C   UNL A   1      40.436  29.486  30.883  1.00  0.00     0.074 A 
ATOM     15  C   UNL A   1      40.232  27.734  29.148  1.00  0.00     0.049 A 
ATOM     16  N   UNL A   1      41.617  29.204  31.372  1.00  0.00    -0.248 NA
ATOM     17  C   UNL A   1      39.791  30.648  31.515  1.00  0.00     0.031 C 
ATOM     18  C   UNL A   1      39.616  27.017  28.028  1.00  0.00     0.029 A 
ATOM     19  N   UNL A   1      41.429  27.092  29.333  1.00  0.00    -0.354 N 
ATOM     20  C   UNL A   1      41.879  30.175  32.330  1.00  0.00     0.074 A 
ATOM     21  C   UNL A   1      40.729  31.053  32.364  1.00  0.00     0.031 C 
ATOM     22  C   UNL A   1      40.435  26.037  27.627  1.00  0.00     0.029 A 
ATOM     23  C   UNL A   1      41.658  26.089  28.420  1.00  0.00     0.049 A 
ATOM     24  H   UNL A   1      42.064  27.326  30.049  1.00  0.00     0.167 HD
ATOM     25  C   UNL A   1      42.976  30.312  33.113  1.00  0.00     0.034 A 
ATOM     26  C   UNL A   1      42.742  25.318  28.214  1.00  0.00     0.034 A 
ATOM     27  C   UNL A   1      44.093  29.404  33.106  1.00  0.00     0.049 A 
ATOM     28  C   UNL A   1      43.932  25.488  29.111  1.00  0.00     0.074 A 
ATOM     29  C   UNL A   1      45.192  29.388  33.947  1.00  0.00     0.029 A 
ATOM     30  N   UNL A   1      44.268  28.369  32.202  1.00  0.00    -0.354 N 
ATOM     31  N   UNL A   1      44.084  26.296  30.132  1.00  0.00    -0.248 NA
ATOM     32  C   UNL A   1      45.094  24.629  28.844  1.00  0.00     0.031 C 
ATOM     33  C   UNL A   1      46.048  28.364  33.530  1.00  0.00     0.029 A 
ATOM     34  C   UNL A   1      45.473  27.729  32.442  1.00  0.00     0.049 A 
ATOM     35  H   UNL A   1      43.631  28.124  31.493  1.00  0.00     0.167 HD
ATOM     36  C   UNL A   1      45.351  26.036  30.636  1.00  0.00     0.074 A 
ATOM     37  C   UNL A   1      45.911  24.970  29.832  1.00  0.00     0.031 C 
ATOM     38  C   UNL A   1      46.002  26.644  31.658  1.00  0.00     0.034 A 
BRANCH  25  39
ATOM     39  C   UNL A   1      43.028  31.464  34.081  1.00  0.00     0.023 A 
ATOM     40  C   UNL A   1      43.578  32.695  33.672  1.00  0.00     0.012 A 
ATOM     41  C   UNL A   1      42.423  31.363  35.351  1.00  0.00     0.148 A 
ATOM     42  C   UNL A   1      43.538  33.805  34.517  1.00  0.00     0.002 A 
ATOM     43  C   UNL A   1      42.356  32.482  36.173  1.00  0.00     0.091 A 
ATOM     44  F   UNL A   1      41.922  30.178  35.727  1.00  0.00    -0.205 F 
ATOM     45  C   UNL A   1      42.917  33.701  35.760  1.00  0.00     0.022 A 
BRANCH  43  46
ATOM     46  S   UNL A   1      41.515  32.473  37.761  1.00  0.00     0.127 S 
ATOM     47  O   UNL A   1      42.343  31.543  38.527  1.00  0.00    -0.237 OA
ATOM     48  O   UNL A   1      41.626  33.871  38.177  1.00  0.00    -0.237 OA
ATOM     49  O   UNL A   1      40.156  32.024  37.494  1.00  0.00    -0.744 OA
ENDBRANCH  43  46
ENDBRANCH  25  39
BRANCH  26  50
ATOM     50  C   UNL A   1      42.735  24.315  27.115  1.00  0.00     0.023 A 
ATOM     51  C   UNL A   1      43.410  24.594  25.911  1.00  0.00     0.012 A 
ATOM     52  C   UNL A   1      42.105  23.064  27.276  1.00  0.00     0.148 A 
ATOM     53  C   UNL A   1      43.435  23.654  24.880  1.00  0.00     0.002 A 
ATOM     54  C   UNL A   1      42.188  22.111  26.269  1.00  0.00     0.091 A 
ATOM     55  F   UNL A   1      41.448  22.823  28.420  1.00  0.00    -0.205 F 
ATOM     56  C   UNL A   1      42.838  22.410  25.062  1.00  0.00     0.022 A 
BRANCH  54  57
ATOM     57  S   UNL A   1      41.577  20.438  26.499  1.00  0.00     0.127 S 
ATOM     58  O   UNL A   1      42.075  20.117  27.833  1.00  0.00    -0.237 OA
ATOM     59  O   UNL A   1      40.126  20.623  26.411  1.00  0.00    -0.237 OA
ATOM     60  O   UNL A   1      42.143  19.670  25.398  1.00  0.00    -0.744 OA
ENDBRANCH  54  57
ENDBRANCH  26  50
BRANCH  38  61
ATOM     61  C   UNL A   1      47.396  26.172  31.968  1.00  0.00     0.023 A 
ATOM     62  C   UNL A   1      48.483  26.711  31.251  1.00  0.00     0.012 A 
ATOM     63  C   UNL A   1      47.637  25.258  33.012  1.00  0.00     0.148 A 
ATOM     64  C   UNL A   1      49.789  26.329  31.552  1.00  0.00     0.002 A 
ATOM     65  C   UNL A   1      48.945  24.916  33.336  1.00  0.00     0.091 A 
ATOM     66  F   UNL A   1      46.587  24.744  33.668  1.00  0.00    -0.205 F 
ATOM     67  C   UNL A   1      50.020  25.442  32.601  1.00  0.00     0.022 A 
BRANCH  65  68
ATOM     68  S   UNL A   1      49.347  23.850  34.725  1.00  0.00     0.127 S 
ATOM     69  O   UNL A   1      48.297  24.197  35.681  1.00  0.00    -0.237 OA
ATOM     70  O   UNL A   1      49.223  22.516  34.137  1.00  0.00    -0.237 OA
ATOM     71  O   UNL A   1      50.700  24.210  35.129  1.00  0.00    -0.744 OA
ENDBRANCH  65  68
ENDBRANCH  38  61
ENDBRANCH  12  13
ENDBRANCH   5   7
ENDBRANCH   2   3
ENDBRANCH   1   2
BRANCH   1  72
ATOM     72  C   UNL A   1      33.320  29.343  24.728  1.00  0.00     0.023 C 
BRANCH  72  73
ATOM     73  C   UNL A   1      33.484  29.068  23.237  1.00  0.00     0.116 C 
BRANCH  73  74
ATOM     74  N   UNL A   1      32.234  29.031  22.500  1.00  0.00    -0.356 N 
ATOM     75  C   UNL A   1      31.190  28.159  22.629  1.00  0.00     0.224 C 
ATOM     76  H   UNL A   1      32.125  29.729  21.814  1.00  0.00     0.163 HD
ATOM     77  O   UNL A   1      30.175  28.367  21.967  1.00  0.00    -0.275 OA
BRANCH  75  78
ATOM     78  C   UNL A   1      31.325  26.952  23.553  1.00  0.00     0.093 C 
ATOM     79  C   UNL A   1      29.965  26.429  24.012  1.00  0.00     0.016 C 
ATOM     80  C   UNL A   1      32.076  25.816  22.835  1.00  0.00     0.116 C 
ATOM     81  C   UNL A   1      30.186  25.282  24.978  1.00  0.00     0.018 C 
ATOM     82  N   UNL A   1      32.214  24.579  23.706  1.00  0.00    -0.197 NA
ATOM     83  C   UNL A   1      30.909  24.145  24.285  1.00  0.00     0.102 C 
BRANCH  82  84
ATOM     84  S   UNL A   1      33.020  23.318  22.816  1.00  0.00     0.243 S 
ATOM     85  O   UNL A   1      32.034  22.300  22.507  1.00  0.00    -0.207 OA
ATOM     86  O   UNL A   1      33.796  23.943  21.770  1.00  0.00    -0.207 OA
BRANCH  84  87
ATOM     87  C   UNL A   1      34.161  22.600  23.980  1.00  0.00     0.083 A 
ATOM     88  C   UNL A   1      33.993  21.269  24.383  1.00  0.00     0.022 A 
ATOM     89  C   UNL A   1      35.273  23.332  24.404  1.00  0.00     0.037 A 
ATOM     90  C   UNL A   1      34.884  20.697  25.289  1.00  0.00     0.003 A 
ATOM     91  C   UNL A   1      36.182  22.735  25.277  1.00  0.00     0.019 A 
ATOM     92  C   UNL A   1      35.981  21.432  25.738  1.00  0.00     0.016 A 
ATOM     93  Br  UNL A   1      37.719  23.687  25.828  1.00  0.00    -0.051 Br
ENDBRANCH  84  87
ENDBRANCH  82  84
ENDBRANCH  75  78
ENDBRANCH  73  74
ENDBRANCH  72  73
ENDBRANCH   1  72
TORSDOF 16
ENDMDL
