MODEL 1
REMARK VINA RESULT:     -11.7      0.000      0.000
REMARK SMILES O=C(CCc1nc(-c2ccccc2)c(-c2ccccc2)o1)NCCCCNC(=O)c1ccc(-c2c3nc(c(-c4cccc(S(=O)(=O)[O-])c4F)c4ccc([nH]4)c(-c4cccc(S(=O)(=O)[O-])c4F)c4nc(c(-c5cccc(S(=O)(=O)[O-])c5F)c5ccc2[nH]5)C=C4)C=C3)cc1
REMARK SMILES IDX 24 1 23 2 22 3 1 4 2 5 3 7 4 8 5 9 6 10 21 11 7 12 14 13
REMARK SMILES IDX 8 14 9 15 13 16 10 17 12 18 11 19 15 20 16 21 20 22 17 23
REMARK SMILES IDX 19 24 18 25 25 26 26 27 27 28 28 29 29 31 30 32 31 33 92 34
REMARK SMILES IDX 32 35 91 36 33 37 34 38 35 39 85 40 36 41 90 42 84 43 86 44
REMARK SMILES IDX 37 45 89 46 83 47 82 48 38 50 70 51 50 52 69 53 51 54 54 55
REMARK SMILES IDX 68 56 87 57 52 58 53 59 67 61 88 62 55 63 39 64 40 65 48 66
REMARK SMILES IDX 41 67 43 68 49 69 42 70 44 71 45 72 46 73 47 74 71 75 72 76
REMARK SMILES IDX 80 77 73 78 75 79 81 80 74 81 76 82 77 83 78 84 79 85 56 86
REMARK SMILES IDX 57 87 65 88 58 89 60 90 66 91 59 92 61 93 62 94 63 95 64 96
REMARK H PARENT 22 6 27 30 86 49 54 60
REMARK Flexibility Score: inf
ROOT
ATOM      1  C   UNL A   1      35.288  21.831  26.489  1.00  0.00     0.023 C 
ENDROOT
BRANCH   1   2
ATOM      2  C   UNL A   1      34.179  20.935  25.934  1.00  0.00     0.116 C 
BRANCH   2   3
ATOM      3  N   UNL A   1      32.854  21.436  26.243  1.00  0.00    -0.356 N 
ATOM      4  O   UNL A   1      32.217  21.870  24.075  1.00  0.00    -0.275 OA
ATOM      5  C   UNL A   1      31.963  21.845  25.276  1.00  0.00     0.220 C 
ATOM      6  H   UNL A   1      32.578  21.485  27.187  1.00  0.00     0.163 HD
BRANCH   5   7
ATOM      7  C   UNL A   1      30.616  22.288  25.813  1.00  0.00     0.110 C 
BRANCH   7   8
ATOM      8  C   UNL A   1      30.735  23.428  26.819  1.00  0.00     0.107 C 
BRANCH   8   9
ATOM      9  C   UNL A   1      30.901  24.751  26.166  1.00  0.00     0.196 A 
ATOM     10  N   UNL A   1      30.185  25.271  25.192  1.00  0.00    -0.213 NA
ATOM     11  O   UNL A   1      31.844  25.593  26.693  1.00  0.00    -0.440 OA
ATOM     12  C   UNL A   1      30.717  26.530  25.026  1.00  0.00     0.117 A 
ATOM     13  C   UNL A   1      31.708  26.749  25.966  1.00  0.00     0.162 A 
BRANCH  12  14
ATOM     14  C   UNL A   1      30.209  27.477  24.054  1.00  0.00     0.004 A 
ATOM     15  C   UNL A   1      31.066  28.336  23.355  1.00  0.00     0.010 A 
ATOM     16  C   UNL A   1      28.831  27.535  23.798  1.00  0.00     0.010 A 
ATOM     17  C   UNL A   1      30.554  29.253  22.435  1.00  0.00     0.001 A 
ATOM     18  C   UNL A   1      28.317  28.465  22.889  1.00  0.00     0.001 A 
ATOM     19  C   UNL A   1      29.180  29.325  22.212  1.00  0.00     0.000 A 
ENDBRANCH  12  14
BRANCH  13  20
ATOM     20  C   UNL A   1      32.475  27.896  26.424  1.00  0.00     0.020 A 
ATOM     21  C   UNL A   1      31.872  29.081  26.849  1.00  0.00     0.012 A 
ATOM     22  C   UNL A   1      33.871  27.811  26.448  1.00  0.00     0.012 A 
ATOM     23  C   UNL A   1      32.662  30.147  27.301  1.00  0.00     0.001 A 
ATOM     24  C   UNL A   1      34.661  28.876  26.874  1.00  0.00     0.001 A 
ATOM     25  C   UNL A   1      34.053  30.046  27.309  1.00  0.00     0.000 A 
ENDBRANCH  13  20
ENDBRANCH   8   9
ENDBRANCH   7   8
ENDBRANCH   5   7
ENDBRANCH   2   3
ENDBRANCH   1   2
BRANCH   1  26
ATOM     26  C   UNL A   1      35.593  23.091  25.677  1.00  0.00     0.023 C 
BRANCH  26  27
ATOM     27  C   UNL A   1      36.997  23.192  25.092  1.00  0.00     0.116 C 
BRANCH  27  28
ATOM     28  N   UNL A   1      37.966  22.275  25.655  1.00  0.00    -0.352 N 
ATOM     29  C   UNL A   1      39.101  22.563  26.388  1.00  0.00     0.251 C 
ATOM     30  H   UNL A   1      37.793  21.319  25.494  1.00  0.00     0.163 HD
ATOM     31  O   UNL A   1      39.863  21.648  26.696  1.00  0.00    -0.269 OA
BRANCH  29  32
ATOM     32  C   UNL A   1      39.436  23.959  26.789  1.00  0.00     0.039 A 
ATOM     33  C   UNL A   1      39.088  24.402  28.070  1.00  0.00     0.014 A 
ATOM     34  C   UNL A   1      40.064  24.850  25.917  1.00  0.00     0.014 A 
ATOM     35  C   UNL A   1      39.423  25.700  28.487  1.00  0.00     0.010 A 
ATOM     36  C   UNL A   1      40.452  26.120  26.353  1.00  0.00     0.010 A 
ATOM     37  C   UNL A   1      40.136  26.566  27.641  1.00  0.00    -0.014 A 
BRANCH  37  38
ATOM     38  C   UNL A   1      40.603  27.905  28.102  1.00  0.00     0.031 A 
ATOM     39  C   UNL A   1      42.072  28.239  28.176  1.00  0.00     0.074 A 
ATOM     40  C   UNL A   1      39.702  28.803  28.551  1.00  0.00     0.049 A 
ATOM     41  N   UNL A   1      42.646  29.354  28.553  1.00  0.00    -0.248 NA
ATOM     42  C   UNL A   1      43.022  27.181  27.794  1.00  0.00     0.031 C 
ATOM     43  C   UNL A   1      38.256  28.585  28.620  1.00  0.00     0.029 A 
ATOM     44  N   UNL A   1      39.870  30.066  29.064  1.00  0.00    -0.354 N 
ATOM     45  C   UNL A   1      44.016  29.131  28.474  1.00  0.00     0.074 A 
ATOM     46  C   UNL A   1      44.189  27.759  28.045  1.00  0.00     0.031 C 
ATOM     47  C   UNL A   1      37.671  29.670  29.152  1.00  0.00     0.029 A 
ATOM     48  C   UNL A   1      38.697  30.656  29.476  1.00  0.00     0.049 A 
ATOM     49  H   UNL A   1      40.747  30.508  29.132  1.00  0.00     0.167 HD
ATOM     50  C   UNL A   1      45.038  29.993  28.707  1.00  0.00     0.034 A 
ATOM     51  C   UNL A   1      38.467  31.854  30.051  1.00  0.00     0.034 A 
ATOM     52  C   UNL A   1      44.867  31.365  29.114  1.00  0.00     0.049 A 
ATOM     53  C   UNL A   1      39.614  32.799  30.280  1.00  0.00     0.074 A 
ATOM     54  C   UNL A   1      45.837  32.340  29.272  1.00  0.00     0.029 A 
ATOM     55  N   UNL A   1      43.657  31.949  29.450  1.00  0.00    -0.354 N 
ATOM     56  N   UNL A   1      40.886  32.633  30.014  1.00  0.00    -0.248 NA
ATOM     57  C   UNL A   1      39.289  34.116  30.850  1.00  0.00     0.031 C 
ATOM     58  C   UNL A   1      45.218  33.503  29.744  1.00  0.00     0.029 A 
ATOM     59  C   UNL A   1      43.858  33.265  29.839  1.00  0.00     0.049 A 
ATOM     60  H   UNL A   1      42.784  31.496  29.419  1.00  0.00     0.167 HD
ATOM     61  C   UNL A   1      41.505  33.835  30.340  1.00  0.00     0.074 A 
ATOM     62  C   UNL A   1      40.464  34.727  30.810  1.00  0.00     0.031 C 
ATOM     63  C   UNL A   1      42.816  34.166  30.263  1.00  0.00     0.034 A 
BRANCH  50  64
ATOM     64  C   UNL A   1      46.446  29.498  28.484  1.00  0.00     0.023 A 
ATOM     65  C   UNL A   1      47.093  29.767  27.259  1.00  0.00     0.012 A 
ATOM     66  C   UNL A   1      47.159  28.846  29.510  1.00  0.00     0.148 A 
ATOM     67  C   UNL A   1      48.411  29.365  27.047  1.00  0.00     0.002 A 
ATOM     68  C   UNL A   1      48.488  28.491  29.307  1.00  0.00     0.091 A 
ATOM     69  F   UNL A   1      46.525  28.585  30.662  1.00  0.00    -0.205 F 
ATOM     70  C   UNL A   1      49.111  28.737  28.074  1.00  0.00     0.022 A 
BRANCH  68  71
ATOM     71  S   UNL A   1      49.501  27.752  30.594  1.00  0.00     0.127 S 
ATOM     72  O   UNL A   1      50.800  27.662  29.930  1.00  0.00    -0.237 OA
ATOM     73  O   UNL A   1      49.429  28.759  31.656  1.00  0.00    -0.237 OA
ATOM     74  O   UNL A   1      48.876  26.480  30.919  1.00  0.00    -0.744 OA
ENDBRANCH  68  71
ENDBRANCH  50  64
BRANCH  51  75
ATOM     75  C   UNL A   1      37.073  32.257  30.388  1.00  0.00     0.023 A 
ATOM     76  C   UNL A   1      36.559  31.975  31.669  1.00  0.00     0.012 A 
ATOM     77  C   UNL A   1      36.264  32.933  29.455  1.00  0.00     0.148 A 
ATOM     78  C   UNL A   1      35.251  32.328  32.004  1.00  0.00     0.002 A 
ATOM     79  C   UNL A   1      34.982  33.331  29.814  1.00  0.00     0.091 A 
ATOM     80  F   UNL A   1      36.773  33.188  28.242  1.00  0.00    -0.205 F 
ATOM     81  C   UNL A   1      34.467  33.014  31.080  1.00  0.00     0.022 A 
BRANCH  79  82
ATOM     82  S   UNL A   1      33.948  34.328  28.737  1.00  0.00     0.127 S 
ATOM     83  O   UNL A   1      32.854  34.699  29.632  1.00  0.00    -0.237 OA
ATOM     84  O   UNL A   1      34.852  35.422  28.380  1.00  0.00    -0.237 OA
ATOM     85  O   UNL A   1      33.586  33.460  27.627  1.00  0.00    -0.744 OA
ENDBRANCH  79  82
ENDBRANCH  51  75
BRANCH  63  86
ATOM     86  C   UNL A   1      43.213  35.568  30.653  1.00  0.00     0.023 A 
ATOM     87  C   UNL A   1      43.623  35.846  31.972  1.00  0.00     0.012 A 
ATOM     88  C   UNL A   1      43.240  36.598  29.692  1.00  0.00     0.148 A 
ATOM     89  C   UNL A   1      44.017  37.134  32.336  1.00  0.00     0.002 A 
ATOM     90  C   UNL A   1      43.684  37.866  30.049  1.00  0.00     0.091 A 
ATOM     91  F   UNL A   1      42.829  36.320  28.445  1.00  0.00    -0.205 F 
ATOM     92  C   UNL A   1      44.059  38.140  31.373  1.00  0.00     0.022 A 
BRANCH  90  93
ATOM     93  S   UNL A   1      43.865  39.197  28.855  1.00  0.00     0.127 S 
ATOM     94  O   UNL A   1      44.743  38.586  27.859  1.00  0.00    -0.237 OA
ATOM     95  O   UNL A   1      42.486  39.401  28.409  1.00  0.00    -0.237 OA
ATOM     96  O   UNL A   1      44.437  40.319  29.587  1.00  0.00    -0.744 OA
ENDBRANCH  90  93
ENDBRANCH  63  86
ENDBRANCH  37  38
ENDBRANCH  29  32
ENDBRANCH  27  28
ENDBRANCH  26  27
ENDBRANCH   1  26
TORSDOF 18
ENDMDL
MODEL 2
REMARK VINA RESULT:     -11.7      0.952      2.466
REMARK SMILES O=C(CCc1nc(-c2ccccc2)c(-c2ccccc2)o1)NCCCCNC(=O)c1ccc(-c2c3nc(c(-c4cccc(S(=O)(=O)[O-])c4F)c4ccc([nH]4)c(-c4cccc(S(=O)(=O)[O-])c4F)c4nc(c(-c5cccc(S(=O)(=O)[O-])c5F)c5ccc2[nH]5)C=C4)C=C3)cc1
REMARK SMILES IDX 24 1 23 2 22 3 1 4 2 5 3 7 4 8 5 9 6 10 21 11 7 12 14 13
REMARK SMILES IDX 8 14 9 15 13 16 10 17 12 18 11 19 15 20 16 21 20 22 17 23
REMARK SMILES IDX 19 24 18 25 25 26 26 27 27 28 28 29 29 31 30 32 31 33 92 34
REMARK SMILES IDX 32 35 91 36 33 37 34 38 35 39 85 40 36 41 90 42 84 43 86 44
REMARK SMILES IDX 37 45 89 46 83 47 82 48 38 50 70 51 50 52 69 53 51 54 54 55
REMARK SMILES IDX 68 56 87 57 52 58 53 59 67 61 88 62 55 63 39 64 40 65 48 66
REMARK SMILES IDX 41 67 43 68 49 69 42 70 44 71 45 72 46 73 47 74 71 75 72 76
REMARK SMILES IDX 80 77 73 78 75 79 81 80 74 81 76 82 77 83 78 84 79 85 56 86
REMARK SMILES IDX 57 87 65 88 58 89 60 90 66 91 59 92 61 93 62 94 63 95 64 96
REMARK H PARENT 22 6 27 30 86 49 54 60
REMARK Flexibility Score: inf
ROOT
ATOM      1  C   UNL A   1      34.882  21.761  26.566  1.00  0.00     0.023 C 
ENDROOT
BRANCH   1   2
ATOM      2  C   UNL A   1      33.695  21.015  25.952  1.00  0.00     0.116 C 
BRANCH   2   3
ATOM      3  N   UNL A   1      33.071  21.757  24.875  1.00  0.00    -0.356 N 
ATOM      4  O   UNL A   1      32.501  19.937  23.588  1.00  0.00    -0.275 OA
ATOM      5  C   UNL A   1      32.498  21.149  23.780  1.00  0.00     0.220 C 
ATOM      6  H   UNL A   1      33.055  22.740  24.928  1.00  0.00     0.163 HD
BRANCH   5   7
ATOM      7  C   UNL A   1      31.859  22.109  22.795  1.00  0.00     0.110 C 
BRANCH   7   8
ATOM      8  C   UNL A   1      32.746  23.311  22.492  1.00  0.00     0.107 C 
BRANCH   8   9
ATOM      9  C   UNL A   1      32.339  24.525  23.245  1.00  0.00     0.196 A 
ATOM     10  N   UNL A   1      32.933  25.072  24.283  1.00  0.00    -0.213 NA
ATOM     11  O   UNL A   1      31.278  25.237  22.754  1.00  0.00    -0.440 OA
ATOM     12  C   UNL A   1      32.189  26.204  24.533  1.00  0.00     0.117 A 
ATOM     13  C   UNL A   1      31.196  26.331  23.578  1.00  0.00     0.162 A 
BRANCH  12  14
ATOM     14  C   UNL A   1      32.505  27.135  25.598  1.00  0.00     0.004 A 
ATOM     15  C   UNL A   1      31.556  27.485  26.566  1.00  0.00     0.010 A 
ATOM     16  C   UNL A   1      33.788  27.695  25.669  1.00  0.00     0.010 A 
ATOM     17  C   UNL A   1      31.875  28.397  27.573  1.00  0.00     0.001 A 
ATOM     18  C   UNL A   1      34.102  28.622  26.668  1.00  0.00     0.001 A 
ATOM     19  C   UNL A   1      33.143  28.974  27.616  1.00  0.00     0.000 A 
ENDBRANCH  12  14
BRANCH  13  20
ATOM     20  C   UNL A   1      30.253  27.367  23.188  1.00  0.00     0.020 A 
ATOM     21  C   UNL A   1      30.633  28.490  22.451  1.00  0.00     0.012 A 
ATOM     22  C   UNL A   1      28.910  27.233  23.557  1.00  0.00     0.012 A 
ATOM     23  C   UNL A   1      29.676  29.445  22.085  1.00  0.00     0.001 A 
ATOM     24  C   UNL A   1      27.960  28.193  23.216  1.00  0.00     0.001 A 
ATOM     25  C   UNL A   1      28.343  29.299  22.470  1.00  0.00     0.000 A 
ENDBRANCH  13  20
ENDBRANCH   8   9
ENDBRANCH   7   8
ENDBRANCH   5   7
ENDBRANCH   2   3
ENDBRANCH   1   2
BRANCH   1  26
ATOM     26  C   UNL A   1      35.069  23.207  26.105  1.00  0.00     0.023 C 
BRANCH  26  27
ATOM     27  C   UNL A   1      36.508  23.672  25.910  1.00  0.00     0.116 C 
BRANCH  27  28
ATOM     28  N   UNL A   1      37.509  22.628  25.997  1.00  0.00    -0.352 N 
ATOM     29  C   UNL A   1      38.834  22.735  26.372  1.00  0.00     0.251 C 
ATOM     30  H   UNL A   1      37.204  21.723  25.757  1.00  0.00     0.163 HD
ATOM     31  O   UNL A   1      39.561  21.746  26.285  1.00  0.00    -0.269 OA
BRANCH  29  32
ATOM     32  C   UNL A   1      39.407  24.024  26.853  1.00  0.00     0.039 A 
ATOM     33  C   UNL A   1      39.965  24.909  25.924  1.00  0.00     0.014 A 
ATOM     34  C   UNL A   1      39.427  24.368  28.206  1.00  0.00     0.014 A 
ATOM     35  C   UNL A   1      40.480  26.146  26.344  1.00  0.00     0.010 A 
ATOM     36  C   UNL A   1      39.882  25.624  28.615  1.00  0.00     0.010 A 
ATOM     37  C   UNL A   1      40.417  26.531  27.693  1.00  0.00    -0.014 A 
BRANCH  37  38
ATOM     38  C   UNL A   1      40.852  27.884  28.145  1.00  0.00     0.031 A 
ATOM     39  C   UNL A   1      42.312  28.257  28.207  1.00  0.00     0.074 A 
ATOM     40  C   UNL A   1      39.930  28.759  28.598  1.00  0.00     0.049 A 
ATOM     41  N   UNL A   1      42.859  29.389  28.576  1.00  0.00    -0.248 NA
ATOM     42  C   UNL A   1      43.287  27.223  27.822  1.00  0.00     0.031 C 
ATOM     43  C   UNL A   1      38.491  28.503  28.679  1.00  0.00     0.029 A 
ATOM     44  N   UNL A   1      40.068  30.028  29.106  1.00  0.00    -0.354 N 
ATOM     45  C   UNL A   1      44.234  29.201  28.487  1.00  0.00     0.074 A 
ATOM     46  C   UNL A   1      44.440  27.833  28.061  1.00  0.00     0.031 C 
ATOM     47  C   UNL A   1      37.881  29.574  29.212  1.00  0.00     0.029 A 
ATOM     48  C   UNL A   1      38.883  30.589  29.525  1.00  0.00     0.049 A 
ATOM     49  H   UNL A   1      40.934  30.494  29.165  1.00  0.00     0.167 HD
ATOM     50  C   UNL A   1      45.233  30.091  28.710  1.00  0.00     0.034 A 
ATOM     51  C   UNL A   1      38.626  31.782  30.097  1.00  0.00     0.034 A 
ATOM     52  C   UNL A   1      45.030  31.459  29.113  1.00  0.00     0.049 A 
ATOM     53  C   UNL A   1      39.749  32.758  30.314  1.00  0.00     0.074 A 
ATOM     54  C   UNL A   1      45.974  32.461  29.260  1.00  0.00     0.029 A 
ATOM     55  N   UNL A   1      43.807  32.013  29.456  1.00  0.00    -0.354 N 
ATOM     56  N   UNL A   1      41.023  32.625  30.039  1.00  0.00    -0.248 NA
ATOM     57  C   UNL A   1      39.393  34.067  30.882  1.00  0.00     0.031 C 
ATOM     58  C   UNL A   1      45.329  33.608  29.732  1.00  0.00     0.029 A 
ATOM     59  C   UNL A   1      43.975  33.334  29.839  1.00  0.00     0.049 A 
ATOM     60  H   UNL A   1      42.946  31.537  29.433  1.00  0.00     0.167 HD
ATOM     61  C   UNL A   1      41.612  33.844  30.356  1.00  0.00     0.074 A 
ATOM     62  C   UNL A   1      40.552  34.710  30.830  1.00  0.00     0.031 C 
ATOM     63  C   UNL A   1      42.914  34.209  30.268  1.00  0.00     0.034 A 
BRANCH  50  64
ATOM     64  C   UNL A   1      46.652  29.633  28.477  1.00  0.00     0.023 A 
ATOM     65  C   UNL A   1      47.281  29.911  27.245  1.00  0.00     0.012 A 
ATOM     66  C   UNL A   1      47.392  29.007  29.502  1.00  0.00     0.148 A 
ATOM     67  C   UNL A   1      48.608  29.543  27.024  1.00  0.00     0.002 A 
ATOM     68  C   UNL A   1      48.728  28.687  29.290  1.00  0.00     0.091 A 
ATOM     69  F   UNL A   1      46.775  28.738  30.661  1.00  0.00    -0.205 F 
ATOM     70  C   UNL A   1      49.334  28.942  28.049  1.00  0.00     0.022 A 
BRANCH  68  71
ATOM     71  S   UNL A   1      49.772  27.985  30.573  1.00  0.00     0.127 S 
ATOM     72  O   UNL A   1      49.779  29.059  31.565  1.00  0.00    -0.237 OA
ATOM     73  O   UNL A   1      49.014  26.796  30.969  1.00  0.00    -0.237 OA
ATOM     74  O   UNL A   1      51.053  27.708  29.943  1.00  0.00    -0.744 OA
ENDBRANCH  68  71
ENDBRANCH  50  64
BRANCH  51  75
ATOM     75  C   UNL A   1      37.224  32.149  30.443  1.00  0.00     0.023 A 
ATOM     76  C   UNL A   1      36.739  31.891  31.740  1.00  0.00     0.012 A 
ATOM     77  C   UNL A   1      36.380  32.769  29.503  1.00  0.00     0.148 A 
ATOM     78  C   UNL A   1      35.425  32.210  32.084  1.00  0.00     0.002 A 
ATOM     79  C   UNL A   1      35.090  33.135  29.869  1.00  0.00     0.091 A 
ATOM     80  F   UNL A   1      36.862  33.002  28.274  1.00  0.00    -0.205 F 
ATOM     81  C   UNL A   1      34.605  32.841  31.153  1.00  0.00     0.022 A 
BRANCH  79  82
ATOM     82  S   UNL A   1      34.008  34.063  28.778  1.00  0.00     0.127 S 
ATOM     83  O   UNL A   1      34.898  35.120  28.303  1.00  0.00    -0.237 OA
ATOM     84  O   UNL A   1      33.655  33.056  27.777  1.00  0.00    -0.237 OA
ATOM     85  O   UNL A   1      32.896  34.503  29.608  1.00  0.00    -0.744 OA
ENDBRANCH  79  82
ENDBRANCH  51  75
BRANCH  63  86
ATOM     86  C   UNL A   1      43.276  35.623  30.650  1.00  0.00     0.023 A 
ATOM     87  C   UNL A   1      43.675  35.919  31.968  1.00  0.00     0.012 A 
ATOM     88  C   UNL A   1      43.281  36.647  29.682  1.00  0.00     0.148 A 
ATOM     89  C   UNL A   1      44.038  37.218  32.325  1.00  0.00     0.002 A 
ATOM     90  C   UNL A   1      43.694  37.927  30.032  1.00  0.00     0.091 A 
ATOM     91  F   UNL A   1      42.880  36.352  28.436  1.00  0.00    -0.205 F 
ATOM     92  C   UNL A   1      44.059  38.218  31.355  1.00  0.00     0.022 A 
BRANCH  90  93
ATOM     93  S   UNL A   1      43.846  39.255  28.831  1.00  0.00     0.127 S 
ATOM     94  O   UNL A   1      44.490  40.301  29.624  1.00  0.00    -0.237 OA
ATOM     95  O   UNL A   1      44.703  38.651  27.809  1.00  0.00    -0.237 OA
ATOM     96  O   UNL A   1      42.492  39.553  28.386  1.00  0.00    -0.744 OA
ENDBRANCH  90  93
ENDBRANCH  63  86
ENDBRANCH  37  38
ENDBRANCH  29  32
ENDBRANCH  27  28
ENDBRANCH  26  27
ENDBRANCH   1  26
TORSDOF 18
ENDMDL
MODEL 3
REMARK VINA RESULT:     -11.1      5.188     11.120
REMARK SMILES O=C(CCc1nc(-c2ccccc2)c(-c2ccccc2)o1)NCCCCNC(=O)c1ccc(-c2c3nc(c(-c4cccc(S(=O)(=O)[O-])c4F)c4ccc([nH]4)c(-c4cccc(S(=O)(=O)[O-])c4F)c4nc(c(-c5cccc(S(=O)(=O)[O-])c5F)c5ccc2[nH]5)C=C4)C=C3)cc1
REMARK SMILES IDX 24 1 23 2 22 3 1 4 2 5 3 7 4 8 5 9 6 10 21 11 7 12 14 13
REMARK SMILES IDX 8 14 9 15 13 16 10 17 12 18 11 19 15 20 16 21 20 22 17 23
REMARK SMILES IDX 19 24 18 25 25 26 26 27 27 28 28 29 29 31 30 32 31 33 92 34
REMARK SMILES IDX 32 35 91 36 33 37 34 38 35 39 85 40 36 41 90 42 84 43 86 44
REMARK SMILES IDX 37 45 89 46 83 47 82 48 38 50 70 51 50 52 69 53 51 54 54 55
REMARK SMILES IDX 68 56 87 57 52 58 53 59 67 61 88 62 55 63 39 64 40 65 48 66
REMARK SMILES IDX 41 67 43 68 49 69 42 70 44 71 45 72 46 73 47 74 71 75 72 76
REMARK SMILES IDX 80 77 73 78 75 79 81 80 74 81 76 82 77 83 78 84 79 85 56 86
REMARK SMILES IDX 57 87 65 88 58 89 60 90 66 91 59 92 61 93 62 94 63 95 64 96
REMARK H PARENT 22 6 27 30 86 49 54 60
REMARK Flexibility Score: inf
ROOT
ATOM      1  C   UNL A   1      33.913  35.353  33.005  1.00  0.00     0.023 C 
ENDROOT
BRANCH   1   2
ATOM      2  C   UNL A   1      34.101  33.840  33.133  1.00  0.00     0.116 C 
BRANCH   2   3
ATOM      3  N   UNL A   1      34.896  33.475  34.289  1.00  0.00    -0.356 N 
ATOM      4  O   UNL A   1      36.682  34.852  33.836  1.00  0.00    -0.275 OA
ATOM      5  C   UNL A   1      36.125  34.035  34.561  1.00  0.00     0.220 C 
ATOM      6  H   UNL A   1      34.541  32.797  34.909  1.00  0.00     0.163 HD
BRANCH   5   7
ATOM      7  C   UNL A   1      36.764  33.545  35.846  1.00  0.00     0.110 C 
BRANCH   7   8
ATOM      8  C   UNL A   1      38.264  33.816  35.892  1.00  0.00     0.107 C 
BRANCH   8   9
ATOM      9  C   UNL A   1      39.070  32.633  35.497  1.00  0.00     0.196 A 
ATOM     10  N   UNL A   1      40.081  32.089  36.140  1.00  0.00    -0.213 NA
ATOM     11  O   UNL A   1      38.666  31.946  34.384  1.00  0.00    -0.440 OA
ATOM     12  C   UNL A   1      40.405  30.988  35.378  1.00  0.00     0.117 A 
ATOM     13  C   UNL A   1      39.519  30.873  34.322  1.00  0.00     0.162 A 
BRANCH  12  14
ATOM     14  C   UNL A   1      41.469  30.071  35.733  1.00  0.00     0.004 A 
ATOM     15  C   UNL A   1      41.213  28.715  35.974  1.00  0.00     0.010 A 
ATOM     16  C   UNL A   1      42.785  30.543  35.831  1.00  0.00     0.010 A 
ATOM     17  C   UNL A   1      42.250  27.852  36.332  1.00  0.00     0.001 A 
ATOM     18  C   UNL A   1      43.821  29.681  36.205  1.00  0.00     0.001 A 
ATOM     19  C   UNL A   1      43.551  28.337  36.459  1.00  0.00     0.000 A 
ENDBRANCH  12  14
BRANCH  13  20
ATOM     20  C   UNL A   1      39.215  29.860  33.324  1.00  0.00     0.020 A 
ATOM     21  C   UNL A   1      40.180  28.983  32.826  1.00  0.00     0.012 A 
ATOM     22  C   UNL A   1      37.904  29.752  32.847  1.00  0.00     0.012 A 
ATOM     23  C   UNL A   1      39.824  28.011  31.881  1.00  0.00     0.001 A 
ATOM     24  C   UNL A   1      37.551  28.804  31.890  1.00  0.00     0.001 A 
ATOM     25  C   UNL A   1      38.513  27.925  31.410  1.00  0.00     0.000 A 
ENDBRANCH  13  20
ENDBRANCH   8   9
ENDBRANCH   7   8
ENDBRANCH   5   7
ENDBRANCH   2   3
ENDBRANCH   1   2
BRANCH   1  26
ATOM     26  C   UNL A   1      32.957  35.813  31.903  1.00  0.00     0.023 C 
BRANCH  26  27
ATOM     27  C   UNL A   1      33.539  35.893  30.496  1.00  0.00     0.116 C 
BRANCH  27  28
ATOM     28  N   UNL A   1      32.870  35.072  29.507  1.00  0.00    -0.352 N 
ATOM     29  C   UNL A   1      33.363  33.981  28.817  1.00  0.00     0.251 C 
ATOM     30  H   UNL A   1      31.941  35.326  29.299  1.00  0.00     0.163 HD
ATOM     31  O   UNL A   1      32.674  33.472  27.933  1.00  0.00    -0.269 OA
BRANCH  29  32
ATOM     32  C   UNL A   1      34.717  33.428  29.099  1.00  0.00     0.039 A 
ATOM     33  C   UNL A   1      35.812  33.903  28.370  1.00  0.00     0.014 A 
ATOM     34  C   UNL A   1      34.926  32.430  30.053  1.00  0.00     0.014 A 
ATOM     35  C   UNL A   1      37.105  33.425  28.639  1.00  0.00     0.010 A 
ATOM     36  C   UNL A   1      36.220  32.000  30.363  1.00  0.00     0.010 A 
ATOM     37  C   UNL A   1      37.327  32.488  29.661  1.00  0.00    -0.014 A 
BRANCH  37  38
ATOM     38  C   UNL A   1      38.702  32.052  30.042  1.00  0.00     0.031 A 
ATOM     39  C   UNL A   1      39.530  32.844  31.023  1.00  0.00     0.074 A 
ATOM     40  C   UNL A   1      39.252  30.984  29.429  1.00  0.00     0.049 A 
ATOM     41  N   UNL A   1      40.741  32.605  31.462  1.00  0.00    -0.248 NA
ATOM     42  C   UNL A   1      38.932  34.073  31.569  1.00  0.00     0.031 C 
ATOM     43  C   UNL A   1      38.602  30.175  28.397  1.00  0.00     0.029 A 
ATOM     44  N   UNL A   1      40.496  30.415  29.560  1.00  0.00    -0.354 N 
ATOM     45  C   UNL A   1      41.057  33.655  32.317  1.00  0.00     0.074 A 
ATOM     46  C   UNL A   1      39.923  34.554  32.309  1.00  0.00     0.031 C 
ATOM     47  C   UNL A   1      39.451  29.222  27.983  1.00  0.00     0.029 A 
ATOM     48  C   UNL A   1      40.712  29.357  28.706  1.00  0.00     0.049 A 
ATOM     49  H   UNL A   1      41.170  30.733  30.204  1.00  0.00     0.167 HD
ATOM     50  C   UNL A   1      42.175  33.842  33.063  1.00  0.00     0.034 A 
ATOM     51  C   UNL A   1      41.799  28.581  28.521  1.00  0.00     0.034 A 
ATOM     52  C   UNL A   1      43.296  32.938  33.089  1.00  0.00     0.049 A 
ATOM     53  C   UNL A   1      43.018  28.796  29.376  1.00  0.00     0.074 A 
ATOM     54  C   UNL A   1      44.424  32.990  33.891  1.00  0.00     0.029 A 
ATOM     55  N   UNL A   1      43.447  31.835  32.264  1.00  0.00    -0.354 N 
ATOM     56  N   UNL A   1      43.219  29.683  30.320  1.00  0.00    -0.248 NA
ATOM     57  C   UNL A   1      44.146  27.875  29.170  1.00  0.00     0.031 C 
ATOM     58  C   UNL A   1      45.275  31.943  33.522  1.00  0.00     0.029 A 
ATOM     59  C   UNL A   1      44.660  31.213  32.519  1.00  0.00     0.049 A 
ATOM     60  H   UNL A   1      42.790  31.538  31.593  1.00  0.00     0.167 HD
ATOM     61  C   UNL A   1      44.472  29.400  30.849  1.00  0.00     0.074 A 
ATOM     62  C   UNL A   1      44.980  28.248  30.132  1.00  0.00     0.031 C 
ATOM     63  C   UNL A   1      45.144  30.041  31.836  1.00  0.00     0.034 A 
BRANCH  50  64
ATOM     64  C   UNL A   1      42.231  35.053  33.961  1.00  0.00     0.023 A 
ATOM     65  C   UNL A   1      41.752  34.962  35.285  1.00  0.00     0.012 A 
ATOM     66  C   UNL A   1      42.834  36.252  33.528  1.00  0.00     0.148 A 
ATOM     67  C   UNL A   1      41.839  36.052  36.150  1.00  0.00     0.002 A 
ATOM     68  C   UNL A   1      42.959  37.318  34.412  1.00  0.00     0.091 A 
ATOM     69  F   UNL A   1      43.272  36.327  32.263  1.00  0.00    -0.205 F 
ATOM     70  C   UNL A   1      42.452  37.225  35.717  1.00  0.00     0.022 A 
BRANCH  68  71
ATOM     71  S   UNL A   1      43.807  38.842  33.978  1.00  0.00     0.127 S 
ATOM     72  O   UNL A   1      45.022  38.332  33.345  1.00  0.00    -0.237 OA
ATOM     73  O   UNL A   1      42.857  39.469  33.055  1.00  0.00    -0.237 OA
ATOM     74  O   UNL A   1      44.007  39.561  35.226  1.00  0.00    -0.744 OA
ENDBRANCH  68  71
ENDBRANCH  50  64
BRANCH  51  75
ATOM     75  C   UNL A   1      41.758  27.476  27.524  1.00  0.00     0.023 A 
ATOM     76  C   UNL A   1      42.206  27.710  26.209  1.00  0.00     0.012 A 
ATOM     77  C   UNL A   1      41.298  26.193  27.875  1.00  0.00     0.148 A 
ATOM     78  C   UNL A   1      42.162  26.696  25.251  1.00  0.00     0.002 A 
ATOM     79  C   UNL A   1      41.309  25.173  26.932  1.00  0.00     0.091 A 
ATOM     80  F   UNL A   1      40.873  25.994  29.131  1.00  0.00    -0.205 F 
ATOM     81  C   UNL A   1      41.723  25.427  25.615  1.00  0.00     0.022 A 
BRANCH  79  82
ATOM     82  S   UNL A   1      40.882  23.478  27.343  1.00  0.00     0.127 S 
ATOM     83  O   UNL A   1      39.445  23.582  27.585  1.00  0.00    -0.237 OA
ATOM     84  O   UNL A   1      41.253  22.769  26.118  1.00  0.00    -0.237 OA
ATOM     85  O   UNL A   1      41.692  23.140  28.504  1.00  0.00    -0.744 OA
ENDBRANCH  79  82
ENDBRANCH  51  75
BRANCH  63  86
ATOM     86  C   UNL A   1      46.490  29.494  32.243  1.00  0.00     0.023 A 
ATOM     87  C   UNL A   1      46.585  28.550  33.285  1.00  0.00     0.012 A 
ATOM     88  C   UNL A   1      47.656  29.871  31.546  1.00  0.00     0.148 A 
ATOM     89  C   UNL A   1      47.822  28.018  33.650  1.00  0.00     0.002 A 
ATOM     90  C   UNL A   1      48.877  29.298  31.881  1.00  0.00     0.091 A 
ATOM     91  F   UNL A   1      47.550  30.785  30.570  1.00  0.00    -0.205 F 
ATOM     92  C   UNL A   1      48.965  28.383  32.942  1.00  0.00     0.022 A 
BRANCH  90  93
ATOM     93  S   UNL A   1      50.384  29.632  30.962  1.00  0.00     0.127 S 
ATOM     94  O   UNL A   1      51.363  28.828  31.693  1.00  0.00    -0.237 OA
ATOM     95  O   UNL A   1      50.053  29.126  29.630  1.00  0.00    -0.237 OA
ATOM     96  O   UNL A   1      50.587  31.073  31.030  1.00  0.00    -0.744 OA
ENDBRANCH  90  93
ENDBRANCH  63  86
ENDBRANCH  37  38
ENDBRANCH  29  32
ENDBRANCH  27  28
ENDBRANCH  26  27
ENDBRANCH   1  26
TORSDOF 18
ENDMDL
