MODEL 1
REMARK VINA RESULT:     -12.8      0.000      0.000
REMARK SMILES Cc1cc(C)n(C)c(=O)c1C(=O)N1CCC2(CC1)C[NH2+][C@@H](C(=O)NCCCCNC(=O)c1ccc(-c3c4nc(c(-c5cccc(S(=O)(=O)[O-])c5F)c5ccc([nH]5)c(-c5cccc(S(=O)(=O)[O-])c5F)c5nc(c(-c6cccc(S(=O)(=O)[O-])c6F)c6ccc3[nH]6)C=C5)C=C4)cc1)C2
REMARK SMILES IDX 27 1 26 2 25 3 24 4 22 5 23 6 21 8 11 9 12 10 13 11 14 12
REMARK SMILES IDX 18 13 15 14 17 15 16 16 19 17 95 18 20 19 10 22 1 23 2 24
REMARK SMILES IDX 3 25 4 26 8 27 5 28 6 29 9 30 7 31 28 32 29 33 30 34 31 36
REMARK SMILES IDX 32 37 33 38 94 39 34 40 93 41 35 42 36 43 37 44 87 45 38 46
REMARK SMILES IDX 92 47 86 48 88 49 39 50 91 51 85 52 84 53 40 55 72 56 52 57
REMARK SMILES IDX 71 58 53 59 56 60 70 61 89 62 54 63 55 64 69 66 90 67 57 68
REMARK SMILES IDX 41 69 42 70 50 71 43 72 45 73 51 74 44 75 46 76 47 77 48 78
REMARK SMILES IDX 49 79 73 80 74 81 82 82 75 83 77 84 83 85 76 86 78 87 79 88
REMARK SMILES IDX 80 89 81 90 58 91 59 92 67 93 60 94 62 95 68 96 61 97 63 98
REMARK SMILES IDX 64 99 65 100 66 101
REMARK H PARENT 24 7 20 20 20 21 29 35 88 54 56 65
REMARK Flexibility Score: inf
ROOT
ATOM      1  C   UNL A   1      31.718  32.006  27.233  1.00  0.00     0.023 C 
ENDROOT
BRANCH   1   2
ATOM      2  C   UNL A   1      32.237  30.578  27.084  1.00  0.00     0.023 C 
BRANCH   2   3
ATOM      3  C   UNL A   1      32.293  30.067  25.647  1.00  0.00     0.116 C 
BRANCH   3   4
ATOM      4  N   UNL A   1      31.037  30.261  24.947  1.00  0.00    -0.351 N 
ATOM      5  C   UNL A   1      30.536  29.610  23.858  1.00  0.00     0.278 C 
ATOM      6  O   UNL A   1      29.406  29.918  23.466  1.00  0.00    -0.268 OA
ATOM      7  H   UNL A   1      30.459  30.968  25.314  1.00  0.00     0.163 HD
BRANCH   5   8
ATOM      8  C   UNL A   1      31.342  28.542  23.109  1.00  0.00     0.273 C 
ATOM      9  C   UNL A   1      34.261  22.797  24.199  1.00  0.00     0.259 C 
ATOM     10  O   UNL A   1      35.476  22.819  23.976  1.00  0.00    -0.269 OA
ATOM     11  N   UNL A   1      33.548  23.981  24.339  1.00  0.00    -0.338 N 
ATOM     12  C   UNL A   1      34.229  25.215  23.973  1.00  0.00     0.120 C 
ATOM     13  C   UNL A   1      32.196  24.191  24.857  1.00  0.00     0.120 C 
ATOM     14  C   UNL A   1      33.490  25.832  22.796  1.00  0.00     0.034 C 
ATOM     15  C   UNL A   1      31.320  25.034  23.902  1.00  0.00     0.034 C 
ATOM     16  C   UNL A   1      32.039  26.203  23.161  1.00  0.00     0.029 C 
ATOM     17  C   UNL A   1      31.293  26.586  21.858  1.00  0.00     0.268 C 
ATOM     18  C   UNL A   1      32.004  27.502  24.004  1.00  0.00     0.088 C 
ATOM     19  N   UNL A   1      30.502  27.761  22.185  1.00  0.00    -0.336 N 
ATOM     20  H   UNL A   1      29.628  27.490  22.635  1.00  0.00     0.346 HD
ATOM     21  H   UNL A   1      30.248  28.295  21.353  1.00  0.00     0.346 HD
BRANCH   9  22
ATOM     22  C   UNL A   1      33.602  21.451  24.176  1.00  0.00     0.108 A 
ATOM     23  C   UNL A   1      32.063  21.970  22.205  1.00  0.00     0.045 C 
ATOM     24  C   UNL A   1      32.687  21.093  23.247  1.00  0.00    -0.031 A 
ATOM     25  C   UNL A   1      32.341  19.696  23.059  1.00  0.00     0.026 A 
ATOM     26  C   UNL A   1      33.097  18.713  23.567  1.00  0.00     0.018 A 
ATOM     27  C   UNL A   1      34.282  20.344  24.948  1.00  0.00     0.263 A 
ATOM     28  C   UNL A   1      32.820  17.294  23.151  1.00  0.00     0.064 C 
ATOM     29  N   UNL A   1      34.112  19.034  24.463  1.00  0.00    -0.315 N 
ATOM     30  O   UNL A   1      34.970  20.599  25.936  1.00  0.00    -0.268 OA
ATOM     31  C   UNL A   1      35.014  18.008  24.968  1.00  0.00     0.153 C 
ENDBRANCH   9  22
ENDBRANCH   5   8
ENDBRANCH   3   4
ENDBRANCH   2   3
ENDBRANCH   1   2
BRANCH   1  32
ATOM     32  C   UNL A   1      32.708  33.096  26.844  1.00  0.00     0.116 C 
BRANCH  32  33
ATOM     33  N   UNL A   1      32.596  34.293  27.668  1.00  0.00    -0.352 N 
ATOM     34  C   UNL A   1      33.343  34.640  28.767  1.00  0.00     0.251 C 
ATOM     35  H   UNL A   1      31.897  34.932  27.404  1.00  0.00     0.163 HD
ATOM     36  O   UNL A   1      33.052  35.634  29.429  1.00  0.00    -0.269 OA
BRANCH  34  37
ATOM     37  C   UNL A   1      34.481  33.784  29.161  1.00  0.00     0.039 A 
ATOM     38  C   UNL A   1      35.780  34.207  28.869  1.00  0.00     0.014 A 
ATOM     39  C   UNL A   1      34.261  32.598  29.865  1.00  0.00     0.014 A 
ATOM     40  C   UNL A   1      36.866  33.475  29.354  1.00  0.00     0.010 A 
ATOM     41  C   UNL A   1      35.342  31.905  30.400  1.00  0.00     0.010 A 
ATOM     42  C   UNL A   1      36.653  32.341  30.155  1.00  0.00    -0.014 A 
BRANCH  42  43
ATOM     43  C   UNL A   1      37.784  31.601  30.768  1.00  0.00     0.031 A 
ATOM     44  C   UNL A   1      38.227  31.931  32.166  1.00  0.00     0.074 A 
ATOM     45  C   UNL A   1      38.462  30.696  30.035  1.00  0.00     0.049 A 
ATOM     46  N   UNL A   1      39.249  31.471  32.836  1.00  0.00    -0.248 NA
ATOM     47  C   UNL A   1      37.426  32.926  32.900  1.00  0.00     0.031 C 
ATOM     48  C   UNL A   1      38.153  30.326  28.651  1.00  0.00     0.029 A 
ATOM     49  N   UNL A   1      39.565  29.939  30.342  1.00  0.00    -0.354 N 
ATOM     50  C   UNL A   1      39.228  32.128  34.059  1.00  0.00     0.074 A 
ATOM     51  C   UNL A   1      38.115  33.051  34.026  1.00  0.00     0.031 C 
ATOM     52  C   UNL A   1      39.034  29.402  28.236  1.00  0.00     0.029 A 
ATOM     53  C   UNL A   1      39.991  29.139  29.306  1.00  0.00     0.049 A 
ATOM     54  H   UNL A   1      40.007  29.963  31.220  1.00  0.00     0.167 HD
ATOM     55  C   UNL A   1      40.042  31.954  35.127  1.00  0.00     0.034 A 
ATOM     56  C   UNL A   1      41.038  28.293  29.229  1.00  0.00     0.034 A 
ATOM     57  C   UNL A   1      41.127  31.012  35.167  1.00  0.00     0.049 A 
ATOM     58  C   UNL A   1      41.923  28.118  30.434  1.00  0.00     0.074 A 
ATOM     59  C   UNL A   1      41.993  30.743  36.211  1.00  0.00     0.029 A 
ATOM     60  N   UNL A   1      41.488  30.175  34.122  1.00  0.00    -0.354 N 
ATOM     61  N   UNL A   1      41.829  28.677  31.616  1.00  0.00    -0.248 NA
ATOM     62  C   UNL A   1      43.042  27.171  30.306  1.00  0.00     0.031 C 
ATOM     63  C   UNL A   1      42.881  29.746  35.797  1.00  0.00     0.029 A 
ATOM     64  C   UNL A   1      42.557  29.382  34.500  1.00  0.00     0.049 A 
ATOM     65  H   UNL A   1      41.048  30.149  33.241  1.00  0.00     0.167 HD
ATOM     66  C   UNL A   1      42.846  28.123  32.384  1.00  0.00     0.074 A 
ATOM     67  C   UNL A   1      43.535  27.170  31.538  1.00  0.00     0.031 C 
ATOM     68  C   UNL A   1      43.188  28.389  33.668  1.00  0.00     0.034 A 
BRANCH  55  69
ATOM     69  C   UNL A   1      39.741  32.743  36.374  1.00  0.00     0.023 A 
ATOM     70  C   UNL A   1      40.366  33.993  36.559  1.00  0.00     0.012 A 
ATOM     71  C   UNL A   1      38.789  32.300  37.313  1.00  0.00     0.148 A 
ATOM     72  C   UNL A   1      40.066  34.781  37.669  1.00  0.00     0.002 A 
ATOM     73  C   UNL A   1      38.463  33.111  38.395  1.00  0.00     0.091 A 
ATOM     74  F   UNL A   1      38.220  31.099  37.131  1.00  0.00    -0.205 F 
ATOM     75  C   UNL A   1      39.107  34.347  38.579  1.00  0.00     0.022 A 
BRANCH  73  76
ATOM     76  S   UNL A   1      37.185  32.683  39.583  1.00  0.00     0.127 S 
ATOM     77  O   UNL A   1      35.993  32.654  38.737  1.00  0.00    -0.237 OA
ATOM     78  O   UNL A   1      37.629  31.372  40.054  1.00  0.00    -0.237 OA
ATOM     79  O   UNL A   1      37.207  33.733  40.592  1.00  0.00    -0.744 OA
ENDBRANCH  73  76
ENDBRANCH  55  69
BRANCH  56  80
ATOM     80  C   UNL A   1      41.241  27.471  28.002  1.00  0.00     0.023 A 
ATOM     81  C   UNL A   1      41.834  28.068  26.872  1.00  0.00     0.012 A 
ATOM     82  C   UNL A   1      40.898  26.105  27.953  1.00  0.00     0.148 A 
ATOM     83  C   UNL A   1      42.059  27.331  25.710  1.00  0.00     0.002 A 
ATOM     84  C   UNL A   1      41.176  25.362  26.811  1.00  0.00     0.091 A 
ATOM     85  F   UNL A   1      40.320  25.556  29.031  1.00  0.00    -0.205 F 
ATOM     86  C   UNL A   1      41.742  25.976  25.683  1.00  0.00     0.022 A 
BRANCH  84  87
ATOM     87  S   UNL A   1      40.929  23.584  26.736  1.00  0.00     0.127 S 
ATOM     88  O   UNL A   1      39.518  23.492  26.370  1.00  0.00    -0.237 OA
ATOM     89  O   UNL A   1      41.866  23.192  25.681  1.00  0.00    -0.237 OA
ATOM     90  O   UNL A   1      41.277  23.085  28.059  1.00  0.00    -0.744 OA
ENDBRANCH  84  87
ENDBRANCH  56  80
BRANCH  68  91
ATOM     91  C   UNL A   1      44.338  27.621  34.265  1.00  0.00     0.023 A 
ATOM     92  C   UNL A   1      45.643  28.144  34.185  1.00  0.00     0.012 A 
ATOM     93  C   UNL A   1      44.108  26.438  34.997  1.00  0.00     0.148 A 
ATOM     94  C   UNL A   1      46.707  27.488  34.804  1.00  0.00     0.002 A 
ATOM     95  C   UNL A   1      45.166  25.816  35.649  1.00  0.00     0.091 A 
ATOM     96  F   UNL A   1      42.861  25.946  35.044  1.00  0.00    -0.205 F 
ATOM     97  C   UNL A   1      46.467  26.335  35.545  1.00  0.00     0.022 A 
BRANCH  95  98
ATOM     98  S   UNL A   1      44.931  24.385  36.711  1.00  0.00     0.127 S 
ATOM     99  O   UNL A   1      46.289  24.154  37.202  1.00  0.00    -0.237 OA
ATOM    100  O   UNL A   1      43.997  24.892  37.717  1.00  0.00    -0.237 OA
ATOM    101  O   UNL A   1      44.386  23.340  35.856  1.00  0.00    -0.744 OA
ENDBRANCH  95  98
ENDBRANCH  68  91
ENDBRANCH  42  43
ENDBRANCH  34  37
ENDBRANCH  32  33
ENDBRANCH   1  32
TORSDOF 15
ENDMDL
MODEL 2
REMARK VINA RESULT:     -12.7      4.654      9.204
REMARK SMILES Cc1cc(C)n(C)c(=O)c1C(=O)N1CCC2(CC1)C[NH2+][C@@H](C(=O)NCCCCNC(=O)c1ccc(-c3c4nc(c(-c5cccc(S(=O)(=O)[O-])c5F)c5ccc([nH]5)c(-c5cccc(S(=O)(=O)[O-])c5F)c5nc(c(-c6cccc(S(=O)(=O)[O-])c6F)c6ccc3[nH]6)C=C5)C=C4)cc1)C2
REMARK SMILES IDX 27 1 26 2 25 3 24 4 22 5 23 6 21 8 11 9 12 10 13 11 14 12
REMARK SMILES IDX 18 13 15 14 17 15 16 16 19 17 95 18 20 19 10 22 1 23 2 24
REMARK SMILES IDX 3 25 4 26 8 27 5 28 6 29 9 30 7 31 28 32 29 33 30 34 31 36
REMARK SMILES IDX 32 37 33 38 94 39 34 40 93 41 35 42 36 43 37 44 87 45 38 46
REMARK SMILES IDX 92 47 86 48 88 49 39 50 91 51 85 52 84 53 40 55 72 56 52 57
REMARK SMILES IDX 71 58 53 59 56 60 70 61 89 62 54 63 55 64 69 66 90 67 57 68
REMARK SMILES IDX 41 69 42 70 50 71 43 72 45 73 51 74 44 75 46 76 47 77 48 78
REMARK SMILES IDX 49 79 73 80 74 81 82 82 75 83 77 84 83 85 76 86 78 87 79 88
REMARK SMILES IDX 80 89 81 90 58 91 59 92 67 93 60 94 62 95 68 96 61 97 63 98
REMARK SMILES IDX 64 99 65 100 66 101
REMARK H PARENT 24 7 20 20 20 21 29 35 88 54 56 65
REMARK Flexibility Score: inf
ROOT
ATOM      1  C   UNL A   1      35.253  34.021  28.070  1.00  0.00     0.023 C 
ENDROOT
BRANCH   1   2
ATOM      2  C   UNL A   1      34.556  35.368  28.250  1.00  0.00     0.023 C 
BRANCH   2   3
ATOM      3  C   UNL A   1      33.135  35.281  28.800  1.00  0.00     0.116 C 
BRANCH   3   4
ATOM      4  N   UNL A   1      32.913  36.212  29.891  1.00  0.00    -0.351 N 
ATOM      5  C   UNL A   1      33.189  36.080  31.220  1.00  0.00     0.278 C 
ATOM      6  O   UNL A   1      32.956  37.040  31.960  1.00  0.00    -0.268 OA
ATOM      7  H   UNL A   1      32.501  37.068  29.633  1.00  0.00     0.163 HD
BRANCH   5   8
ATOM      8  C   UNL A   1      33.749  34.778  31.806  1.00  0.00     0.273 C 
ATOM      9  C   UNL A   1      38.646  32.701  35.603  1.00  0.00     0.259 C 
ATOM     10  O   UNL A   1      39.399  31.904  35.032  1.00  0.00    -0.269 OA
ATOM     11  N   UNL A   1      37.764  33.485  34.870  1.00  0.00    -0.338 N 
ATOM     12  C   UNL A   1      37.593  33.156  33.462  1.00  0.00     0.120 C 
ATOM     13  C   UNL A   1      36.992  34.653  35.296  1.00  0.00     0.120 C 
ATOM     14  C   UNL A   1      36.150  32.726  33.249  1.00  0.00     0.034 C 
ATOM     15  C   UNL A   1      35.492  34.533  34.942  1.00  0.00     0.034 C 
ATOM     16  C   UNL A   1      35.159  33.861  33.575  1.00  0.00     0.029 C 
ATOM     17  C   UNL A   1      33.727  33.271  33.573  1.00  0.00     0.268 C 
ATOM     18  C   UNL A   1      35.132  34.906  32.433  1.00  0.00     0.088 C 
ATOM     19  N   UNL A   1      32.897  34.245  32.885  1.00  0.00    -0.336 N 
ATOM     20  H   UNL A   1      32.617  34.991  33.522  1.00  0.00     0.346 HD
ATOM     21  H   UNL A   1      32.037  33.830  32.525  1.00  0.00     0.346 HD
BRANCH   9  22
ATOM     22  C   UNL A   1      38.652  32.669  37.101  1.00  0.00     0.108 A 
ATOM     23  C   UNL A   1      39.871  34.896  37.383  1.00  0.00     0.045 C 
ATOM     24  C   UNL A   1      39.138  33.679  37.858  1.00  0.00    -0.031 A 
ATOM     25  C   UNL A   1      38.816  33.756  39.271  1.00  0.00     0.026 A 
ATOM     26  C   UNL A   1      37.823  33.030  39.804  1.00  0.00     0.018 A 
ATOM     27  C   UNL A   1      37.723  31.682  37.768  1.00  0.00     0.263 A 
ATOM     28  C   UNL A   1      37.389  33.318  41.215  1.00  0.00     0.064 C 
ATOM     29  N   UNL A   1      37.227  32.034  39.038  1.00  0.00    -0.315 N 
ATOM     30  O   UNL A   1      37.405  30.637  37.202  1.00  0.00    -0.268 OA
ATOM     31  C   UNL A   1      36.086  31.284  39.545  1.00  0.00     0.153 C 
ENDBRANCH   9  22
ENDBRANCH   5   8
ENDBRANCH   3   4
ENDBRANCH   2   3
ENDBRANCH   1   2
BRANCH   1  32
ATOM     32  C   UNL A   1      34.632  32.864  28.844  1.00  0.00     0.116 C 
BRANCH  32  33
ATOM     33  N   UNL A   1      34.095  31.821  27.981  1.00  0.00    -0.352 N 
ATOM     34  C   UNL A   1      34.666  30.617  27.647  1.00  0.00     0.251 C 
ATOM     35  H   UNL A   1      33.212  32.002  27.586  1.00  0.00     0.163 HD
ATOM     36  O   UNL A   1      34.137  29.887  26.812  1.00  0.00    -0.269 OA
BRANCH  34  37
ATOM     37  C   UNL A   1      35.941  30.227  28.284  1.00  0.00     0.039 A 
ATOM     38  C   UNL A   1      35.910  29.440  29.437  1.00  0.00     0.014 A 
ATOM     39  C   UNL A   1      37.160  30.593  27.706  1.00  0.00     0.014 A 
ATOM     40  C   UNL A   1      37.106  28.954  29.970  1.00  0.00     0.010 A 
ATOM     41  C   UNL A   1      38.343  30.057  28.200  1.00  0.00     0.010 A 
ATOM     42  C   UNL A   1      38.327  29.228  29.332  1.00  0.00    -0.014 A 
BRANCH  42  43
ATOM     43  C   UNL A   1      39.603  28.643  29.814  1.00  0.00     0.031 A 
ATOM     44  C   UNL A   1      40.298  29.238  31.006  1.00  0.00     0.074 A 
ATOM     45  C   UNL A   1      40.175  27.637  29.125  1.00  0.00     0.049 A 
ATOM     46  N   UNL A   1      41.462  28.936  31.517  1.00  0.00    -0.248 NA
ATOM     47  C   UNL A   1      39.600  30.330  31.706  1.00  0.00     0.031 C 
ATOM     48  C   UNL A   1      39.618  27.010  27.924  1.00  0.00     0.029 A 
ATOM     49  N   UNL A   1      41.364  26.978  29.321  1.00  0.00    -0.354 N 
ATOM     50  C   UNL A   1      41.647  29.808  32.582  1.00  0.00     0.074 A 
ATOM     51  C   UNL A   1      40.493  30.679  32.622  1.00  0.00     0.031 C 
ATOM     52  C   UNL A   1      40.454  26.048  27.501  1.00  0.00     0.029 A 
ATOM     53  C   UNL A   1      41.622  26.012  28.375  1.00  0.00     0.049 A 
ATOM     54  H   UNL A   1      41.972  27.176  30.068  1.00  0.00     0.167 HD
ATOM     55  C   UNL A   1      42.669  29.855  33.469  1.00  0.00     0.034 A 
ATOM     56  C   UNL A   1      42.683  25.194  28.229  1.00  0.00     0.034 A 
ATOM     57  C   UNL A   1      43.797  28.966  33.443  1.00  0.00     0.049 A 
ATOM     58  C   UNL A   1      43.804  25.268  29.232  1.00  0.00     0.074 A 
ATOM     59  C   UNL A   1      44.873  28.918  34.312  1.00  0.00     0.029 A 
ATOM     60  N   UNL A   1      43.993  27.960  32.509  1.00  0.00    -0.354 N 
ATOM     61  N   UNL A   1      43.915  26.034  30.290  1.00  0.00    -0.248 NA
ATOM     62  C   UNL A   1      44.932  24.344  29.040  1.00  0.00     0.031 C 
ATOM     63  C   UNL A   1      45.721  27.885  33.902  1.00  0.00     0.029 A 
ATOM     64  C   UNL A   1      45.164  27.279  32.787  1.00  0.00     0.049 A 
ATOM     65  H   UNL A   1      43.387  27.760  31.760  1.00  0.00     0.167 HD
ATOM     66  C   UNL A   1      45.100  25.658  30.912  1.00  0.00     0.074 A 
ATOM     67  C   UNL A   1      45.663  24.583  30.121  1.00  0.00     0.031 C 
ATOM     68  C   UNL A   1      45.677  26.166  32.028  1.00  0.00     0.034 A 
BRANCH  55  69
ATOM     69  C   UNL A   1      42.576  30.853  34.593  1.00  0.00     0.023 A 
ATOM     70  C   UNL A   1      42.200  30.404  35.875  1.00  0.00     0.012 A 
ATOM     71  C   UNL A   1      42.938  32.202  34.411  1.00  0.00     0.148 A 
ATOM     72  C   UNL A   1      42.163  31.285  36.955  1.00  0.00     0.002 A 
ATOM     73  C   UNL A   1      42.940  33.065  35.502  1.00  0.00     0.091 A 
ATOM     74  F   UNL A   1      43.273  32.615  33.180  1.00  0.00    -0.205 F 
ATOM     75  C   UNL A   1      42.545  32.610  36.771  1.00  0.00     0.022 A 
BRANCH  73  76
ATOM     76  S   UNL A   1      43.490  34.772  35.392  1.00  0.00     0.127 S 
ATOM     77  O   UNL A   1      44.807  34.619  34.775  1.00  0.00    -0.237 OA
ATOM     78  O   UNL A   1      42.476  35.367  34.523  1.00  0.00    -0.237 OA
ATOM     79  O   UNL A   1      43.498  35.280  36.757  1.00  0.00    -0.744 OA
ENDBRANCH  73  76
ENDBRANCH  55  69
BRANCH  56  80
ATOM     80  C   UNL A   1      42.687  24.165  27.150  1.00  0.00     0.023 A 
ATOM     81  C   UNL A   1      43.382  24.433  25.955  1.00  0.00     0.012 A 
ATOM     82  C   UNL A   1      42.052  22.917  27.307  1.00  0.00     0.148 A 
ATOM     83  C   UNL A   1      43.426  23.491  24.927  1.00  0.00     0.002 A 
ATOM     84  C   UNL A   1      42.147  21.961  26.302  1.00  0.00     0.091 A 
ATOM     85  F   UNL A   1      41.381  22.684  28.445  1.00  0.00    -0.205 F 
ATOM     86  C   UNL A   1      42.819  22.251  25.105  1.00  0.00     0.022 A 
BRANCH  84  87
ATOM     87  S   UNL A   1      41.515  20.290  26.500  1.00  0.00     0.127 S 
ATOM     88  O   UNL A   1      40.075  20.496  26.370  1.00  0.00    -0.237 OA
ATOM     89  O   UNL A   1      42.143  19.593  25.375  1.00  0.00    -0.237 OA
ATOM     90  O   UNL A   1      41.979  19.850  27.808  1.00  0.00    -0.744 OA
ENDBRANCH  84  87
ENDBRANCH  56  80
BRANCH  68  91
ATOM     91  C   UNL A   1      46.970  25.552  32.495  1.00  0.00     0.023 A 
ATOM     92  C   UNL A   1      48.193  26.028  31.985  1.00  0.00     0.012 A 
ATOM     93  C   UNL A   1      46.976  24.580  33.516  1.00  0.00     0.148 A 
ATOM     94  C   UNL A   1      49.403  25.529  32.466  1.00  0.00     0.002 A 
ATOM     95  C   UNL A   1      48.186  24.122  34.023  1.00  0.00     0.091 A 
ATOM     96  F   UNL A   1      45.801  24.125  33.975  1.00  0.00    -0.205 F 
ATOM     97  C   UNL A   1      49.400  24.588  33.492  1.00  0.00     0.022 A 
BRANCH  95  98
ATOM     98  S   UNL A   1      48.277  22.989  35.415  1.00  0.00     0.127 S 
ATOM     99  O   UNL A   1      47.391  21.910  34.979  1.00  0.00    -0.237 OA
ATOM    100  O   UNL A   1      49.698  22.638  35.441  1.00  0.00    -0.237 OA
ATOM    101  O   UNL A   1      47.822  23.745  36.574  1.00  0.00    -0.744 OA
ENDBRANCH  95  98
ENDBRANCH  68  91
ENDBRANCH  42  43
ENDBRANCH  34  37
ENDBRANCH  32  33
ENDBRANCH   1  32
TORSDOF 15
ENDMDL
MODEL 3
REMARK VINA RESULT:     -12.6      5.193     11.186
REMARK SMILES Cc1cc(C)n(C)c(=O)c1C(=O)N1CCC2(CC1)C[NH2+][C@@H](C(=O)NCCCCNC(=O)c1ccc(-c3c4nc(c(-c5cccc(S(=O)(=O)[O-])c5F)c5ccc([nH]5)c(-c5cccc(S(=O)(=O)[O-])c5F)c5nc(c(-c6cccc(S(=O)(=O)[O-])c6F)c6ccc3[nH]6)C=C5)C=C4)cc1)C2
REMARK SMILES IDX 27 1 26 2 25 3 24 4 22 5 23 6 21 8 11 9 12 10 13 11 14 12
REMARK SMILES IDX 18 13 15 14 17 15 16 16 19 17 95 18 20 19 10 22 1 23 2 24
REMARK SMILES IDX 3 25 4 26 8 27 5 28 6 29 9 30 7 31 28 32 29 33 30 34 31 36
REMARK SMILES IDX 32 37 33 38 94 39 34 40 93 41 35 42 36 43 37 44 87 45 38 46
REMARK SMILES IDX 92 47 86 48 88 49 39 50 91 51 85 52 84 53 40 55 72 56 52 57
REMARK SMILES IDX 71 58 53 59 56 60 70 61 89 62 54 63 55 64 69 66 90 67 57 68
REMARK SMILES IDX 41 69 42 70 50 71 43 72 45 73 51 74 44 75 46 76 47 77 48 78
REMARK SMILES IDX 49 79 73 80 74 81 82 82 75 83 77 84 83 85 76 86 78 87 79 88
REMARK SMILES IDX 80 89 81 90 58 91 59 92 67 93 60 94 62 95 68 96 61 97 63 98
REMARK SMILES IDX 64 99 65 100 66 101
REMARK H PARENT 24 7 20 20 20 21 29 35 88 54 56 65
REMARK Flexibility Score: inf
ROOT
ATOM      1  C   UNL A   1      37.673  19.824  24.648  1.00  0.00     0.023 C 
ENDROOT
BRANCH   1   2
ATOM      2  C   UNL A   1      36.862  18.592  25.045  1.00  0.00     0.023 C 
BRANCH   2   3
ATOM      3  C   UNL A   1      35.528  18.447  24.320  1.00  0.00     0.116 C 
BRANCH   3   4
ATOM      4  N   UNL A   1      34.404  18.810  25.163  1.00  0.00    -0.351 N 
ATOM      5  C   UNL A   1      33.668  19.958  25.188  1.00  0.00     0.278 C 
ATOM      6  O   UNL A   1      32.713  20.019  25.969  1.00  0.00    -0.268 OA
ATOM      7  H   UNL A   1      34.131  18.124  25.814  1.00  0.00     0.163 HD
BRANCH   5   8
ATOM      8  C   UNL A   1      34.013  21.162  24.304  1.00  0.00     0.273 C 
ATOM      9  C   UNL A   1      31.525  26.937  22.525  1.00  0.00     0.259 C 
ATOM     10  O   UNL A   1      31.334  27.030  21.307  1.00  0.00    -0.269 OA
ATOM     11  N   UNL A   1      31.731  25.696  23.113  1.00  0.00    -0.338 N 
ATOM     12  C   UNL A   1      31.957  24.567  22.222  1.00  0.00     0.120 C 
ATOM     13  C   UNL A   1      31.711  25.329  24.529  1.00  0.00     0.120 C 
ATOM     14  C   UNL A   1      33.361  24.040  22.473  1.00  0.00     0.034 C 
ATOM     15  C   UNL A   1      32.971  24.542  24.955  1.00  0.00     0.034 C 
ATOM     16  C   UNL A   1      33.530  23.523  23.916  1.00  0.00     0.029 C 
ATOM     17  C   UNL A   1      35.035  23.242  24.158  1.00  0.00     0.268 C 
ATOM     18  C   UNL A   1      32.862  22.136  24.080  1.00  0.00     0.088 C 
ATOM     19  N   UNL A   1      35.092  21.983  24.881  1.00  0.00    -0.336 N 
ATOM     20  H   UNL A   1      34.934  22.134  25.877  1.00  0.00     0.346 HD
ATOM     21  H   UNL A   1      36.004  21.533  24.795  1.00  0.00     0.346 HD
BRANCH   9  22
ATOM     22  C   UNL A   1      31.647  28.225  23.281  1.00  0.00     0.108 A 
ATOM     23  C   UNL A   1      29.152  28.767  23.240  1.00  0.00     0.045 C 
ATOM     24  C   UNL A   1      30.581  28.975  23.639  1.00  0.00    -0.031 A 
ATOM     25  C   UNL A   1      30.718  30.010  24.647  1.00  0.00     0.026 A 
ATOM     26  C   UNL A   1      31.790  30.069  25.450  1.00  0.00     0.018 A 
ATOM     27  C   UNL A   1      32.947  28.466  24.014  1.00  0.00     0.263 A 
ATOM     28  C   UNL A   1      31.772  31.017  26.617  1.00  0.00     0.064 C 
ATOM     29  N   UNL A   1      32.883  29.254  25.178  1.00  0.00    -0.315 N 
ATOM     30  O   UNL A   1      33.997  27.968  23.610  1.00  0.00    -0.268 OA
ATOM     31  C   UNL A   1      34.030  29.220  26.076  1.00  0.00     0.153 C 
ENDBRANCH   9  22
ENDBRANCH   5   8
ENDBRANCH   3   4
ENDBRANCH   2   3
ENDBRANCH   1   2
BRANCH   1  32
ATOM     32  C   UNL A   1      38.538  20.412  25.757  1.00  0.00     0.116 C 
BRANCH  32  33
ATOM     33  N   UNL A   1      39.723  19.614  26.042  1.00  0.00    -0.352 N 
ATOM     34  C   UNL A   1      40.947  20.044  26.494  1.00  0.00     0.251 C 
ATOM     35  H   UNL A   1      39.636  18.646  25.893  1.00  0.00     0.163 HD
ATOM     36  O   UNL A   1      41.889  19.260  26.580  1.00  0.00    -0.269 OA
BRANCH  34  37
ATOM     37  C   UNL A   1      41.123  21.469  26.843  1.00  0.00     0.039 A 
ATOM     38  C   UNL A   1      41.557  21.803  28.128  1.00  0.00     0.014 A 
ATOM     39  C   UNL A   1      40.913  22.462  25.883  1.00  0.00     0.014 A 
ATOM     40  C   UNL A   1      41.856  23.134  28.428  1.00  0.00     0.010 A 
ATOM     41  C   UNL A   1      41.270  23.776  26.165  1.00  0.00     0.010 A 
ATOM     42  C   UNL A   1      41.751  24.123  27.437  1.00  0.00    -0.014 A 
BRANCH  42  43
ATOM     43  C   UNL A   1      42.156  25.527  27.694  1.00  0.00     0.031 A 
ATOM     44  C   UNL A   1      43.544  25.984  27.341  1.00  0.00     0.074 A 
ATOM     45  C   UNL A   1      41.305  26.359  28.325  1.00  0.00     0.049 A 
ATOM     46  N   UNL A   1      44.117  27.134  27.578  1.00  0.00    -0.248 NA
ATOM     47  C   UNL A   1      44.407  25.013  26.648  1.00  0.00     0.031 C 
ATOM     48  C   UNL A   1      39.949  26.014  28.759  1.00  0.00     0.029 A 
ATOM     49  N   UNL A   1      41.460  27.662  28.731  1.00  0.00    -0.354 N 
ATOM     50  C   UNL A   1      45.410  27.022  27.082  1.00  0.00     0.074 A 
ATOM     51  C   UNL A   1      45.552  25.678  26.566  1.00  0.00     0.031 C 
ATOM     52  C   UNL A   1      39.393  27.080  29.355  1.00  0.00     0.029 A 
ATOM     53  C   UNL A   1      40.359  28.173  29.379  1.00  0.00     0.049 A 
ATOM     54  H   UNL A   1      42.281  28.181  28.572  1.00  0.00     0.167 HD
ATOM     55  C   UNL A   1      46.380  27.965  27.028  1.00  0.00     0.034 A 
ATOM     56  C   UNL A   1      40.156  29.386  29.932  1.00  0.00     0.034 A 
ATOM     57  C   UNL A   1      46.222  29.309  27.513  1.00  0.00     0.049 A 
ATOM     58  C   UNL A   1      41.252  30.415  29.855  1.00  0.00     0.074 A 
ATOM     59  C   UNL A   1      47.137  30.346  27.482  1.00  0.00     0.029 A 
ATOM     60  N   UNL A   1      45.071  29.809  28.104  1.00  0.00    -0.354 N 
ATOM     61  N   UNL A   1      42.433  30.322  29.295  1.00  0.00    -0.248 NA
ATOM     62  C   UNL A   1      40.976  31.728  30.458  1.00  0.00     0.031 C 
ATOM     63  C   UNL A   1      46.542  31.472  28.058  1.00  0.00     0.029 A 
ATOM     64  C   UNL A   1      45.249  31.141  28.432  1.00  0.00     0.049 A 
ATOM     65  H   UNL A   1      44.250  29.291  28.266  1.00  0.00     0.167 HD
ATOM     66  C   UNL A   1      43.025  31.571  29.441  1.00  0.00     0.074 A 
ATOM     67  C   UNL A   1      42.065  32.410  30.127  1.00  0.00     0.031 C 
ATOM     68  C   UNL A   1      44.258  31.981  29.055  1.00  0.00     0.034 A 
BRANCH  55  69
ATOM     69  C   UNL A   1      47.675  27.602  26.351  1.00  0.00     0.023 A 
ATOM     70  C   UNL A   1      48.728  27.076  27.128  1.00  0.00     0.012 A 
ATOM     71  C   UNL A   1      47.826  27.696  24.954  1.00  0.00     0.148 A 
ATOM     72  C   UNL A   1      49.919  26.669  26.530  1.00  0.00     0.002 A 
ATOM     73  C   UNL A   1      49.001  27.248  24.359  1.00  0.00     0.091 A 
ATOM     74  F   UNL A   1      46.822  28.217  24.235  1.00  0.00    -0.205 F 
ATOM     75  C   UNL A   1      50.050  26.743  25.146  1.00  0.00     0.022 A 
BRANCH  73  76
ATOM     76  S   UNL A   1      49.244  27.225  22.579  1.00  0.00     0.127 S 
ATOM     77  O   UNL A   1      50.685  26.997  22.481  1.00  0.00    -0.237 OA
ATOM     78  O   UNL A   1      48.418  26.090  22.171  1.00  0.00    -0.237 OA
ATOM     79  O   UNL A   1      48.785  28.520  22.094  1.00  0.00    -0.744 OA
ENDBRANCH  73  76
ENDBRANCH  55  69
BRANCH  56  80
ATOM     80  C   UNL A   1      38.825  29.725  30.514  1.00  0.00     0.023 A 
ATOM     81  C   UNL A   1      38.497  29.238  31.794  1.00  0.00     0.012 A 
ATOM     82  C   UNL A   1      37.905  30.551  29.839  1.00  0.00     0.148 A 
ATOM     83  C   UNL A   1      37.271  29.546  32.383  1.00  0.00     0.002 A 
ATOM     84  C   UNL A   1      36.708  30.900  30.455  1.00  0.00     0.091 A 
ATOM     85  F   UNL A   1      38.225  30.992  28.615  1.00  0.00    -0.205 F 
ATOM     86  C   UNL A   1      36.382  30.386  31.720  1.00  0.00     0.022 A 
BRANCH  84  87
ATOM     87  S   UNL A   1      35.565  32.085  29.736  1.00  0.00     0.127 S 
ATOM     88  O   UNL A   1      36.447  33.211  29.440  1.00  0.00    -0.237 OA
ATOM     89  O   UNL A   1      35.075  31.361  28.562  1.00  0.00    -0.237 OA
ATOM     90  O   UNL A   1      34.553  32.321  30.757  1.00  0.00    -0.744 OA
ENDBRANCH  84  87
ENDBRANCH  56  80
BRANCH  68  91
ATOM     91  C   UNL A   1      44.642  33.412  29.327  1.00  0.00     0.023 A 
ATOM     92  C   UNL A   1      45.208  33.758  30.569  1.00  0.00     0.012 A 
ATOM     93  C   UNL A   1      44.540  34.388  28.315  1.00  0.00     0.148 A 
ATOM     94  C   UNL A   1      45.646  35.061  30.809  1.00  0.00     0.002 A 
ATOM     95  C   UNL A   1      45.021  35.671  28.546  1.00  0.00     0.091 A 
ATOM     96  F   UNL A   1      43.980  34.043  27.146  1.00  0.00    -0.205 F 
ATOM     97  C   UNL A   1      45.565  36.012  29.795  1.00  0.00     0.022 A 
BRANCH  95  98
ATOM     98  S   UNL A   1      45.052  36.930  27.264  1.00  0.00     0.127 S 
ATOM     99  O   UNL A   1      43.635  37.038  26.917  1.00  0.00    -0.237 OA
ATOM    100  O   UNL A   1      45.595  38.088  27.975  1.00  0.00    -0.237 OA
ATOM    101  O   UNL A   1      45.917  36.408  26.214  1.00  0.00    -0.744 OA
ENDBRANCH  95  98
ENDBRANCH  68  91
ENDBRANCH  42  43
ENDBRANCH  34  37
ENDBRANCH  32  33
ENDBRANCH   1  32
TORSDOF 15
ENDMDL
