MODEL 1
REMARK VINA RESULT:     -10.5      0.000      0.000
REMARK SMILES CCCCCC[C@H]1OCC[C@H]1C(=O)NCCCCNC(=O)c1ccc(-c2c3nc(c(-c4cccc(S(=O)(=O)[O-])c4F)c4ccc([nH]4)c(-c4cccc(S(=O)(=O)[O-])c4F)c4nc(c(-c5cccc(S(=O)(=O)[O-])c5F)c5ccc2[nH]5)C=C4)C=C3)cc1
REMARK SMILES IDX 15 1 14 2 12 3 13 4 11 6 7 7 8 8 9 9 10 10 6 11 5 12 4 13
REMARK SMILES IDX 3 14 2 15 1 16 16 17 17 18 18 19 19 20 20 21 21 23 22 24
REMARK SMILES IDX 23 25 84 26 24 27 83 28 25 29 26 30 27 31 77 32 28 33 82 34
REMARK SMILES IDX 76 35 78 36 29 37 81 38 75 39 74 40 30 42 62 43 42 44 61 45
REMARK SMILES IDX 43 46 46 47 60 48 79 49 44 50 45 51 59 53 80 54 47 55 31 56
REMARK SMILES IDX 32 57 40 58 33 59 35 60 41 61 34 62 36 63 37 64 38 65 39 66
REMARK SMILES IDX 63 67 64 68 72 69 65 70 67 71 73 72 66 73 68 74 69 75 70 76
REMARK SMILES IDX 71 77 48 78 49 79 57 80 50 81 52 82 58 83 51 84 53 85 54 86
REMARK SMILES IDX 55 87 56 88
REMARK H PARENT 14 5 19 22 78 41 46 52
REMARK Flexibility Score: inf
ROOT
ATOM      1  C   UNL A   1      33.838  28.070  23.922  1.00  0.00     0.116 C 
ENDROOT
BRANCH   1   2
ATOM      2  N   UNL A   1      33.013  27.563  22.846  1.00  0.00    -0.356 N 
ATOM      3  C   UNL A   1      32.423  26.359  22.643  1.00  0.00     0.225 C 
ATOM      4  O   UNL A   1      31.781  26.231  21.594  1.00  0.00    -0.275 OA
ATOM      5  H   UNL A   1      32.851  28.215  22.127  1.00  0.00     0.163 HD
BRANCH   3   6
ATOM      6  C   UNL A   1      32.446  25.195  23.635  1.00  0.00     0.109 C 
ATOM      7  C   UNL A   1      31.275  24.959  24.582  1.00  0.00     0.130 C 
ATOM      8  O   UNL A   1      30.508  23.881  24.026  1.00  0.00    -0.377 OA
ATOM      9  C   UNL A   1      31.354  23.097  23.178  1.00  0.00     0.161 C 
ATOM     10  C   UNL A   1      32.644  23.857  22.953  1.00  0.00     0.044 C 
BRANCH   7  11
ATOM     11  C   UNL A   1      30.433  26.183  24.966  1.00  0.00     0.033 C 
BRANCH  11  12
ATOM     12  C   UNL A   1      29.224  26.466  24.068  1.00  0.00     0.003 C 
BRANCH  12  13
ATOM     13  C   UNL A   1      29.181  27.861  23.450  1.00  0.00     0.000 C 
BRANCH  13  14
ATOM     14  C   UNL A   1      27.779  28.376  23.115  1.00  0.00    -0.000 C 
BRANCH  14  15
ATOM     15  C   UNL A   1      27.640  29.898  22.990  1.00  0.00    -0.003 C 
ATOM     16  C   UNL A   1      28.890  30.665  23.395  1.00  0.00     0.004 C 
ENDBRANCH  14  15
ENDBRANCH  13  14
ENDBRANCH  12  13
ENDBRANCH  11  12
ENDBRANCH   7  11
ENDBRANCH   3   6
ENDBRANCH   1   2
BRANCH   1  17
ATOM     17  C   UNL A   1      33.286  29.357  24.532  1.00  0.00     0.023 C 
BRANCH  17  18
ATOM     18  C   UNL A   1      32.019  29.198  25.360  1.00  0.00     0.023 C 
BRANCH  18  19
ATOM     19  C   UNL A   1      32.106  29.732  26.780  1.00  0.00     0.116 C 
BRANCH  19  20
ATOM     20  N   UNL A   1      32.069  31.188  26.865  1.00  0.00    -0.352 N 
ATOM     21  C   UNL A   1      33.036  32.051  27.327  1.00  0.00     0.251 C 
ATOM     22  H   UNL A   1      31.238  31.611  26.548  1.00  0.00     0.163 HD
ATOM     23  O   UNL A   1      32.812  33.255  27.404  1.00  0.00    -0.269 OA
BRANCH  21  24
ATOM     24  C   UNL A   1      34.333  31.499  27.768  1.00  0.00     0.039 A 
ATOM     25  C   UNL A   1      35.396  32.373  28.006  1.00  0.00     0.014 A 
ATOM     26  C   UNL A   1      34.460  30.136  28.035  1.00  0.00     0.014 A 
ATOM     27  C   UNL A   1      36.560  31.887  28.605  1.00  0.00     0.010 A 
ATOM     28  C   UNL A   1      35.576  29.677  28.721  1.00  0.00     0.010 A 
ATOM     29  C   UNL A   1      36.639  30.545  29.014  1.00  0.00    -0.014 A 
BRANCH  29  30
ATOM     30  C   UNL A   1      37.810  30.022  29.763  1.00  0.00     0.031 A 
ATOM     31  C   UNL A   1      38.062  30.482  31.174  1.00  0.00     0.074 A 
ATOM     32  C   UNL A   1      38.712  29.239  29.136  1.00  0.00     0.049 A 
ATOM     33  N   UNL A   1      39.081  30.230  31.953  1.00  0.00    -0.248 NA
ATOM     34  C   UNL A   1      37.062  31.385  31.773  1.00  0.00     0.031 C 
ATOM     35  C   UNL A   1      38.641  28.814  27.735  1.00  0.00     0.029 A 
ATOM     36  N   UNL A   1      39.888  28.690  29.586  1.00  0.00    -0.354 N 
ATOM     37  C   UNL A   1      38.875  30.985  33.101  1.00  0.00     0.074 A 
ATOM     38  C   UNL A   1      37.652  31.731  32.908  1.00  0.00     0.031 C 
ATOM     39  C   UNL A   1      39.721  28.070  27.444  1.00  0.00     0.029 A 
ATOM     40  C   UNL A   1      40.572  27.983  28.625  1.00  0.00     0.049 A 
ATOM     41  H   UNL A   1      40.209  28.793  30.511  1.00  0.00     0.167 HD
ATOM     42  C   UNL A   1      39.618  31.028  34.232  1.00  0.00     0.034 A 
ATOM     43  C   UNL A   1      41.754  27.337  28.690  1.00  0.00     0.034 A 
ATOM     44  C   UNL A   1      40.778  30.212  34.459  1.00  0.00     0.049 A 
ATOM     45  C   UNL A   1      42.498  27.309  29.997  1.00  0.00     0.074 A 
ATOM     46  C   UNL A   1      41.516  30.073  35.620  1.00  0.00     0.029 A 
ATOM     47  N   UNL A   1      41.364  29.393  33.508  1.00  0.00    -0.354 N 
ATOM     48  N   UNL A   1      42.183  27.874  31.138  1.00  0.00    -0.248 NA
ATOM     49  C   UNL A   1      43.740  26.523  30.041  1.00  0.00     0.031 C 
ATOM     50  C   UNL A   1      42.555  29.171  35.369  1.00  0.00     0.029 A 
ATOM     51  C   UNL A   1      42.458  28.745  34.054  1.00  0.00     0.049 A 
ATOM     52  H   UNL A   1      41.050  29.288  32.581  1.00  0.00     0.167 HD
ATOM     53  C   UNL A   1      43.164  27.484  32.041  1.00  0.00     0.074 A 
ATOM     54  C   UNL A   1      44.074  26.616  31.322  1.00  0.00     0.031 C 
ATOM     55  C   UNL A   1      43.312  27.830  33.344  1.00  0.00     0.034 A 
BRANCH  42  56
ATOM     56  C   UNL A   1      39.152  31.930  35.343  1.00  0.00     0.023 A 
ATOM     57  C   UNL A   1      38.205  31.452  36.272  1.00  0.00     0.012 A 
ATOM     58  C   UNL A   1      39.693  33.220  35.507  1.00  0.00     0.148 A 
ATOM     59  C   UNL A   1      37.776  32.256  37.326  1.00  0.00     0.002 A 
ATOM     60  C   UNL A   1      39.292  34.000  36.587  1.00  0.00     0.091 A 
ATOM     61  F   UNL A   1      40.574  33.665  34.601  1.00  0.00    -0.205 F 
ATOM     62  C   UNL A   1      38.328  33.523  37.491  1.00  0.00     0.022 A 
BRANCH  60  63
ATOM     63  S   UNL A   1      40.000  35.614  36.927  1.00  0.00     0.127 S 
ATOM     64  O   UNL A   1      39.343  35.965  38.186  1.00  0.00    -0.237 OA
ATOM     65  O   UNL A   1      41.425  35.308  37.050  1.00  0.00    -0.237 OA
ATOM     66  O   UNL A   1      39.656  36.451  35.786  1.00  0.00    -0.744 OA
ENDBRANCH  60  63
ENDBRANCH  42  56
BRANCH  43  67
ATOM     67  C   UNL A   1      42.262  26.590  27.504  1.00  0.00     0.023 A 
ATOM     68  C   UNL A   1      42.998  27.281  26.522  1.00  0.00     0.012 A 
ATOM     69  C   UNL A   1      42.047  25.206  27.352  1.00  0.00     0.148 A 
ATOM     70  C   UNL A   1      43.481  26.617  25.393  1.00  0.00     0.002 A 
ATOM     71  C   UNL A   1      42.576  24.540  26.251  1.00  0.00     0.091 A 
ATOM     72  F   UNL A   1      41.332  24.566  28.287  1.00  0.00    -0.205 F 
ATOM     73  C   UNL A   1      43.279  25.247  25.263  1.00  0.00     0.022 A 
BRANCH  71  74
ATOM     74  S   UNL A   1      42.472  22.756  26.079  1.00  0.00     0.127 S 
ATOM     75  O   UNL A   1      41.031  22.531  26.126  1.00  0.00    -0.237 OA
ATOM     76  O   UNL A   1      43.088  22.534  24.769  1.00  0.00    -0.237 OA
ATOM     77  O   UNL A   1      43.242  22.218  27.193  1.00  0.00    -0.744 OA
ENDBRANCH  71  74
ENDBRANCH  43  67
BRANCH  55  78
ATOM     78  C   UNL A   1      44.480  27.251  34.094  1.00  0.00     0.023 A 
ATOM     79  C   UNL A   1      45.731  27.895  34.038  1.00  0.00     0.012 A 
ATOM     80  C   UNL A   1      44.316  26.125  34.924  1.00  0.00     0.148 A 
ATOM     81  C   UNL A   1      46.809  27.413  34.779  1.00  0.00     0.002 A 
ATOM     82  C   UNL A   1      45.383  25.677  35.694  1.00  0.00     0.091 A 
ATOM     83  F   UNL A   1      43.122  25.513  34.947  1.00  0.00    -0.205 F 
ATOM     84  C   UNL A   1      46.632  26.314  35.615  1.00  0.00     0.022 A 
BRANCH  82  85
ATOM     85  S   UNL A   1      45.213  24.327  36.869  1.00  0.00     0.127 S 
ATOM     86  O   UNL A   1      44.857  23.212  35.994  1.00  0.00    -0.237 OA
ATOM     87  O   UNL A   1      46.554  24.245  37.449  1.00  0.00    -0.237 OA
ATOM     88  O   UNL A   1      44.180  24.748  37.807  1.00  0.00    -0.744 OA
ENDBRANCH  82  85
ENDBRANCH  55  78
ENDBRANCH  29  30
ENDBRANCH  21  24
ENDBRANCH  19  20
ENDBRANCH  18  19
ENDBRANCH  17  18
ENDBRANCH   1  17
TORSDOF 19
ENDMDL
MODEL 2
REMARK VINA RESULT:     -10.3      2.446      8.255
REMARK SMILES CCCCCC[C@H]1OCC[C@H]1C(=O)NCCCCNC(=O)c1ccc(-c2c3nc(c(-c4cccc(S(=O)(=O)[O-])c4F)c4ccc([nH]4)c(-c4cccc(S(=O)(=O)[O-])c4F)c4nc(c(-c5cccc(S(=O)(=O)[O-])c5F)c5ccc2[nH]5)C=C4)C=C3)cc1
REMARK SMILES IDX 15 1 14 2 12 3 13 4 11 6 7 7 8 8 9 9 10 10 6 11 5 12 4 13
REMARK SMILES IDX 3 14 2 15 1 16 16 17 17 18 18 19 19 20 20 21 21 23 22 24
REMARK SMILES IDX 23 25 84 26 24 27 83 28 25 29 26 30 27 31 77 32 28 33 82 34
REMARK SMILES IDX 76 35 78 36 29 37 81 38 75 39 74 40 30 42 62 43 42 44 61 45
REMARK SMILES IDX 43 46 46 47 60 48 79 49 44 50 45 51 59 53 80 54 47 55 31 56
REMARK SMILES IDX 32 57 40 58 33 59 35 60 41 61 34 62 36 63 37 64 38 65 39 66
REMARK SMILES IDX 63 67 64 68 72 69 65 70 67 71 73 72 66 73 68 74 69 75 70 76
REMARK SMILES IDX 71 77 48 78 49 79 57 80 50 81 52 82 58 83 51 84 53 85 54 86
REMARK SMILES IDX 55 87 56 88
REMARK H PARENT 14 5 19 22 78 41 46 52
REMARK Flexibility Score: inf
ROOT
ATOM      1  C   UNL A   1      32.521  28.700  26.068  1.00  0.00     0.116 C 
ENDROOT
BRANCH   1   2
ATOM      2  N   UNL A   1      31.554  27.624  26.113  1.00  0.00    -0.356 N 
ATOM      3  C   UNL A   1      30.976  26.880  25.137  1.00  0.00     0.225 C 
ATOM      4  O   UNL A   1      30.160  26.027  25.505  1.00  0.00    -0.275 OA
ATOM      5  H   UNL A   1      31.262  27.387  27.022  1.00  0.00     0.163 HD
BRANCH   3   6
ATOM      6  C   UNL A   1      31.308  26.981  23.647  1.00  0.00     0.109 C 
ATOM      7  C   UNL A   1      31.034  28.267  22.876  1.00  0.00     0.130 C 
ATOM      8  O   UNL A   1      32.293  28.942  22.742  1.00  0.00    -0.377 OA
ATOM      9  C   UNL A   1      33.350  27.983  22.852  1.00  0.00     0.161 C 
ATOM     10  C   UNL A   1      32.764  26.681  23.357  1.00  0.00     0.044 C 
BRANCH   7  11
ATOM     11  C   UNL A   1      29.903  29.165  23.399  1.00  0.00     0.033 C 
BRANCH  11  12
ATOM     12  C   UNL A   1      28.569  29.055  22.654  1.00  0.00     0.003 C 
BRANCH  12  13
ATOM     13  C   UNL A   1      27.548  30.142  22.980  1.00  0.00     0.000 C 
BRANCH  13  14
ATOM     14  C   UNL A   1      28.135  31.416  23.593  1.00  0.00    -0.000 C 
BRANCH  14  15
ATOM     15  C   UNL A   1      28.734  32.419  22.600  1.00  0.00    -0.003 C 
ATOM     16  C   UNL A   1      29.152  33.737  23.234  1.00  0.00     0.004 C 
ENDBRANCH  14  15
ENDBRANCH  13  14
ENDBRANCH  12  13
ENDBRANCH  11  12
ENDBRANCH   7  11
ENDBRANCH   3   6
ENDBRANCH   1   2
BRANCH   1  17
ATOM     17  C   UNL A   1      32.360  29.685  27.224  1.00  0.00     0.023 C 
BRANCH  17  18
ATOM     18  C   UNL A   1      32.199  31.144  26.824  1.00  0.00     0.023 C 
BRANCH  18  19
ATOM     19  C   UNL A   1      33.242  32.089  27.398  1.00  0.00     0.116 C 
BRANCH  19  20
ATOM     20  N   UNL A   1      32.759  33.453  27.588  1.00  0.00    -0.352 N 
ATOM     21  C   UNL A   1      33.191  34.406  28.482  1.00  0.00     0.251 C 
ATOM     22  H   UNL A   1      32.023  33.730  26.995  1.00  0.00     0.163 HD
ATOM     23  O   UNL A   1      32.618  35.488  28.565  1.00  0.00    -0.269 OA
BRANCH  21  24
ATOM     24  C   UNL A   1      34.328  34.088  29.369  1.00  0.00     0.039 A 
ATOM     25  C   UNL A   1      34.098  33.343  30.527  1.00  0.00     0.014 A 
ATOM     26  C   UNL A   1      35.626  34.445  29.000  1.00  0.00     0.014 A 
ATOM     27  C   UNL A   1      35.185  32.874  31.268  1.00  0.00     0.010 A 
ATOM     28  C   UNL A   1      36.703  33.893  29.679  1.00  0.00     0.010 A 
ATOM     29  C   UNL A   1      36.497  33.103  30.820  1.00  0.00    -0.014 A 
BRANCH  29  30
ATOM     30  C   UNL A   1      37.674  32.517  31.511  1.00  0.00     0.031 A 
ATOM     31  C   UNL A   1      38.442  31.396  30.862  1.00  0.00     0.074 A 
ATOM     32  C   UNL A   1      37.971  32.900  32.770  1.00  0.00     0.049 A 
ATOM     33  N   UNL A   1      39.424  30.683  31.347  1.00  0.00    -0.248 NA
ATOM     34  C   UNL A   1      38.021  30.992  29.509  1.00  0.00     0.031 C 
ATOM     35  C   UNL A   1      37.233  33.896  33.553  1.00  0.00     0.029 A 
ATOM     36  N   UNL A   1      38.953  32.470  33.629  1.00  0.00    -0.354 N 
ATOM     37  C   UNL A   1      39.694  29.713  30.389  1.00  0.00     0.074 A 
ATOM     38  C   UNL A   1      38.754  29.907  29.309  1.00  0.00     0.031 C 
ATOM     39  C   UNL A   1      37.791  34.002  34.770  1.00  0.00     0.029 A 
ATOM     40  C   UNL A   1      38.908  33.069  34.866  1.00  0.00     0.049 A 
ATOM     41  H   UNL A   1      39.627  31.797  33.380  1.00  0.00     0.167 HD
ATOM     42  C   UNL A   1      40.662  28.767  30.391  1.00  0.00     0.034 A 
ATOM     43  C   UNL A   1      39.680  32.885  35.956  1.00  0.00     0.034 A 
ATOM     44  C   UNL A   1      41.656  28.640  31.420  1.00  0.00     0.049 A 
ATOM     45  C   UNL A   1      40.820  31.906  35.884  1.00  0.00     0.074 A 
ATOM     46  C   UNL A   1      42.763  27.812  31.448  1.00  0.00     0.029 A 
ATOM     47  N   UNL A   1      41.665  29.365  32.601  1.00  0.00    -0.354 N 
ATOM     48  N   UNL A   1      41.182  31.133  34.889  1.00  0.00    -0.248 NA
ATOM     49  C   UNL A   1      41.686  31.801  37.069  1.00  0.00     0.031 C 
ATOM     50  C   UNL A   1      43.441  28.033  32.651  1.00  0.00     0.029 A 
ATOM     51  C   UNL A   1      42.759  29.003  33.367  1.00  0.00     0.049 A 
ATOM     52  H   UNL A   1      40.993  30.037  32.856  1.00  0.00     0.167 HD
ATOM     53  C   UNL A   1      42.332  30.478  35.312  1.00  0.00     0.074 A 
ATOM     54  C   UNL A   1      42.622  30.962  36.646  1.00  0.00     0.031 C 
ATOM     55  C   UNL A   1      43.071  29.545  34.663  1.00  0.00     0.034 A 
BRANCH  42  56
ATOM     56  C   UNL A   1      40.744  27.845  29.204  1.00  0.00     0.023 A 
ATOM     57  C   UNL A   1      39.884  26.730  29.132  1.00  0.00     0.012 A 
ATOM     58  C   UNL A   1      41.621  28.112  28.134  1.00  0.00     0.148 A 
ATOM     59  C   UNL A   1      39.919  25.875  28.033  1.00  0.00     0.002 A 
ATOM     60  C   UNL A   1      41.619  27.279  27.021  1.00  0.00     0.091 A 
ATOM     61  F   UNL A   1      42.447  29.163  28.231  1.00  0.00    -0.205 F 
ATOM     62  C   UNL A   1      40.776  26.156  26.973  1.00  0.00     0.022 A 
BRANCH  60  63
ATOM     63  S   UNL A   1      42.632  27.599  25.573  1.00  0.00     0.127 S 
ATOM     64  O   UNL A   1      42.381  26.405  24.767  1.00  0.00    -0.237 OA
ATOM     65  O   UNL A   1      42.036  28.826  25.044  1.00  0.00    -0.237 OA
ATOM     66  O   UNL A   1      43.995  27.751  26.063  1.00  0.00    -0.744 OA
ENDBRANCH  60  63
ENDBRANCH  42  56
BRANCH  43  67
ATOM     67  C   UNL A   1      39.456  33.709  37.178  1.00  0.00     0.023 A 
ATOM     68  C   UNL A   1      39.945  35.030  37.214  1.00  0.00     0.012 A 
ATOM     69  C   UNL A   1      38.746  33.211  38.288  1.00  0.00     0.148 A 
ATOM     70  C   UNL A   1      39.763  35.827  38.345  1.00  0.00     0.002 A 
ATOM     71  C   UNL A   1      38.523  34.029  39.391  1.00  0.00     0.091 A 
ATOM     72  F   UNL A   1      38.301  31.948  38.245  1.00  0.00    -0.205 F 
ATOM     73  C   UNL A   1      39.044  35.332  39.428  1.00  0.00     0.022 A 
BRANCH  71  74
ATOM     74  S   UNL A   1      37.494  33.509  40.768  1.00  0.00     0.127 S 
ATOM     75  O   UNL A   1      37.314  34.759  41.499  1.00  0.00    -0.237 OA
ATOM     76  O   UNL A   1      36.294  33.014  40.090  1.00  0.00    -0.237 OA
ATOM     77  O   UNL A   1      38.260  32.472  41.448  1.00  0.00    -0.744 OA
ENDBRANCH  71  74
ENDBRANCH  43  67
BRANCH  55  78
ATOM     78  C   UNL A   1      44.285  29.000  35.366  1.00  0.00     0.023 A 
ATOM     79  C   UNL A   1      45.535  29.620  35.174  1.00  0.00     0.012 A 
ATOM     80  C   UNL A   1      44.171  27.936  36.281  1.00  0.00     0.148 A 
ATOM     81  C   UNL A   1      46.659  29.174  35.867  1.00  0.00     0.002 A 
ATOM     82  C   UNL A   1      45.287  27.526  37.001  1.00  0.00     0.091 A 
ATOM     83  F   UNL A   1      42.976  27.345  36.433  1.00  0.00    -0.205 F 
ATOM     84  C   UNL A   1      46.533  28.137  36.787  1.00  0.00     0.022 A 
BRANCH  82  85
ATOM     85  S   UNL A   1      45.190  26.262  38.275  1.00  0.00     0.127 S 
ATOM     86  O   UNL A   1      44.117  26.775  39.124  1.00  0.00    -0.237 OA
ATOM     87  O   UNL A   1      44.843  25.066  37.506  1.00  0.00    -0.237 OA
ATOM     88  O   UNL A   1      46.512  26.217  38.887  1.00  0.00    -0.744 OA
ENDBRANCH  82  85
ENDBRANCH  55  78
ENDBRANCH  29  30
ENDBRANCH  21  24
ENDBRANCH  19  20
ENDBRANCH  18  19
ENDBRANCH  17  18
ENDBRANCH   1  17
TORSDOF 19
ENDMDL
MODEL 3
REMARK VINA RESULT:     -10.1      3.700      6.558
REMARK SMILES CCCCCC[C@H]1OCC[C@H]1C(=O)NCCCCNC(=O)c1ccc(-c2c3nc(c(-c4cccc(S(=O)(=O)[O-])c4F)c4ccc([nH]4)c(-c4cccc(S(=O)(=O)[O-])c4F)c4nc(c(-c5cccc(S(=O)(=O)[O-])c5F)c5ccc2[nH]5)C=C4)C=C3)cc1
REMARK SMILES IDX 15 1 14 2 12 3 13 4 11 6 7 7 8 8 9 9 10 10 6 11 5 12 4 13
REMARK SMILES IDX 3 14 2 15 1 16 16 17 17 18 18 19 19 20 20 21 21 23 22 24
REMARK SMILES IDX 23 25 84 26 24 27 83 28 25 29 26 30 27 31 77 32 28 33 82 34
REMARK SMILES IDX 76 35 78 36 29 37 81 38 75 39 74 40 30 42 62 43 42 44 61 45
REMARK SMILES IDX 43 46 46 47 60 48 79 49 44 50 45 51 59 53 80 54 47 55 31 56
REMARK SMILES IDX 32 57 40 58 33 59 35 60 41 61 34 62 36 63 37 64 38 65 39 66
REMARK SMILES IDX 63 67 64 68 72 69 65 70 67 71 73 72 66 73 68 74 69 75 70 76
REMARK SMILES IDX 71 77 48 78 49 79 57 80 50 81 52 82 58 83 51 84 53 85 54 86
REMARK SMILES IDX 55 87 56 88
REMARK H PARENT 14 5 19 22 78 41 46 52
REMARK Flexibility Score: inf
ROOT
ATOM      1  C   UNL A   1      33.586  34.821  30.231  1.00  0.00     0.116 C 
ENDROOT
BRANCH   1   2
ATOM      2  N   UNL A   1      34.118  35.592  31.334  1.00  0.00    -0.356 N 
ATOM      3  C   UNL A   1      34.892  35.249  32.394  1.00  0.00     0.225 C 
ATOM      4  O   UNL A   1      35.171  36.154  33.188  1.00  0.00    -0.275 OA
ATOM      5  H   UNL A   1      33.871  36.545  31.312  1.00  0.00     0.163 HD
BRANCH   3   6
ATOM      6  C   UNL A   1      35.484  33.859  32.631  1.00  0.00     0.109 C 
ATOM      7  C   UNL A   1      36.974  33.604  32.436  1.00  0.00     0.130 C 
ATOM      8  O   UNL A   1      37.562  33.585  33.745  1.00  0.00    -0.377 OA
ATOM      9  C   UNL A   1      36.552  33.254  34.704  1.00  0.00     0.161 C 
ATOM     10  C   UNL A   1      35.200  33.340  34.025  1.00  0.00     0.044 C 
BRANCH   7  11
ATOM     11  C   UNL A   1      37.711  34.513  31.442  1.00  0.00     0.033 C 
BRANCH  11  12
ATOM     12  C   UNL A   1      38.090  33.867  30.105  1.00  0.00     0.003 C 
BRANCH  12  13
ATOM     13  C   UNL A   1      39.370  34.395  29.464  1.00  0.00     0.000 C 
BRANCH  13  14
ATOM     14  C   UNL A   1      40.607  34.356  30.364  1.00  0.00    -0.000 C 
BRANCH  14  15
ATOM     15  C   UNL A   1      41.959  34.431  29.644  1.00  0.00    -0.003 C 
ATOM     16  C   UNL A   1      42.065  35.580  28.653  1.00  0.00     0.004 C 
ENDBRANCH  14  15
ENDBRANCH  13  14
ENDBRANCH  12  13
ENDBRANCH  11  12
ENDBRANCH   7  11
ENDBRANCH   3   6
ENDBRANCH   1   2
BRANCH   1  17
ATOM     17  C   UNL A   1      33.963  35.402  28.870  1.00  0.00     0.023 C 
BRANCH  17  18
ATOM     18  C   UNL A   1      35.012  34.621  28.092  1.00  0.00     0.023 C 
BRANCH  18  19
ATOM     19  C   UNL A   1      35.155  33.161  28.491  1.00  0.00     0.116 C 
BRANCH  19  20
ATOM     20  N   UNL A   1      34.128  32.293  27.924  1.00  0.00    -0.352 N 
ATOM     21  C   UNL A   1      34.178  30.941  27.680  1.00  0.00     0.251 C 
ATOM     22  H   UNL A   1      33.282  32.737  27.683  1.00  0.00     0.163 HD
ATOM     23  O   UNL A   1      33.246  30.372  27.120  1.00  0.00    -0.269 OA
BRANCH  21  24
ATOM     24  C   UNL A   1      35.391  30.191  28.065  1.00  0.00     0.039 A 
ATOM     25  C   UNL A   1      36.481  30.170  27.192  1.00  0.00     0.014 A 
ATOM     26  C   UNL A   1      35.478  29.597  29.324  1.00  0.00     0.014 A 
ATOM     27  C   UNL A   1      37.695  29.632  27.624  1.00  0.00     0.010 A 
ATOM     28  C   UNL A   1      36.711  29.157  29.787  1.00  0.00     0.010 A 
ATOM     29  C   UNL A   1      37.833  29.168  28.943  1.00  0.00    -0.014 A 
BRANCH  29  30
ATOM     30  C   UNL A   1      39.139  28.703  29.478  1.00  0.00     0.031 A 
ATOM     31  C   UNL A   1      39.791  29.447  30.612  1.00  0.00     0.074 A 
ATOM     32  C   UNL A   1      39.795  27.697  28.863  1.00  0.00     0.049 A 
ATOM     33  N   UNL A   1      40.972  29.268  31.144  1.00  0.00    -0.248 NA
ATOM     34  C   UNL A   1      39.039  30.573  31.194  1.00  0.00     0.031 C 
ATOM     35  C   UNL A   1      39.321  26.969  27.682  1.00  0.00     0.029 A 
ATOM     36  N   UNL A   1      41.022  27.137  29.124  1.00  0.00    -0.354 N 
ATOM     37  C   UNL A   1      41.126  30.289  32.074  1.00  0.00     0.074 A 
ATOM     38  C   UNL A   1      39.934  31.104  32.014  1.00  0.00     0.031 C 
ATOM     39  C   UNL A   1      40.242  26.058  27.327  1.00  0.00     0.029 A 
ATOM     40  C   UNL A   1      41.381  26.152  28.234  1.00  0.00     0.049 A 
ATOM     41  H   UNL A   1      41.590  27.415  29.878  1.00  0.00     0.167 HD
ATOM     42  C   UNL A   1      42.153  30.508  32.928  1.00  0.00     0.034 A 
ATOM     43  C   UNL A   1      42.503  25.407  28.158  1.00  0.00     0.034 A 
ATOM     44  C   UNL A   1      43.290  29.641  33.053  1.00  0.00     0.049 A 
ATOM     45  C   UNL A   1      43.575  25.600  29.195  1.00  0.00     0.074 A 
ATOM     46  C   UNL A   1      44.312  29.692  33.983  1.00  0.00     0.029 A 
ATOM     47  N   UNL A   1      43.552  28.561  32.226  1.00  0.00    -0.354 N 
ATOM     48  N   UNL A   1      43.614  26.447  30.194  1.00  0.00    -0.248 NA
ATOM     49  C   UNL A   1      44.743  24.708  29.120  1.00  0.00     0.031 C 
ATOM     50  C   UNL A   1      45.198  28.643  33.714  1.00  0.00     0.029 A 
ATOM     51  C   UNL A   1      44.722  27.937  32.622  1.00  0.00     0.049 A 
ATOM     52  H   UNL A   1      42.990  28.279  31.468  1.00  0.00     0.167 HD
ATOM     53  C   UNL A   1      44.786  26.169  30.886  1.00  0.00     0.074 A 
ATOM     54  C   UNL A   1      45.420  25.059  30.206  1.00  0.00     0.031 C 
ATOM     55  C   UNL A   1      45.303  26.790  31.975  1.00  0.00     0.034 A 
BRANCH  42  56
ATOM     56  C   UNL A   1      42.054  31.692  33.853  1.00  0.00     0.023 A 
ATOM     57  C   UNL A   1      42.625  32.922  33.467  1.00  0.00     0.012 A 
ATOM     58  C   UNL A   1      41.348  31.607  35.069  1.00  0.00     0.148 A 
ATOM     59  C   UNL A   1      42.525  34.040  34.292  1.00  0.00     0.002 A 
ATOM     60  C   UNL A   1      41.216  32.739  35.866  1.00  0.00     0.091 A 
ATOM     61  F   UNL A   1      40.833  30.423  35.430  1.00  0.00    -0.205 F 
ATOM     62  C   UNL A   1      41.811  33.953  35.483  1.00  0.00     0.022 A 
BRANCH  60  63
ATOM     63  S   UNL A   1      40.252  32.747  37.381  1.00  0.00     0.127 S 
ATOM     64  O   UNL A   1      39.213  31.765  37.076  1.00  0.00    -0.237 OA
ATOM     65  O   UNL A   1      41.233  32.306  38.373  1.00  0.00    -0.237 OA
ATOM     66  O   UNL A   1      39.790  34.117  37.555  1.00  0.00    -0.744 OA
ENDBRANCH  60  63
ENDBRANCH  42  56
BRANCH  43  67
ATOM     67  C   UNL A   1      42.629  24.351  27.113  1.00  0.00     0.023 A 
ATOM     68  C   UNL A   1      43.409  24.608  25.969  1.00  0.00     0.012 A 
ATOM     69  C   UNL A   1      42.008  23.095  27.251  1.00  0.00     0.148 A 
ATOM     70  C   UNL A   1      43.541  23.647  24.965  1.00  0.00     0.002 A 
ATOM     71  C   UNL A   1      42.187  22.123  26.272  1.00  0.00     0.091 A 
ATOM     72  F   UNL A   1      41.257  22.870  28.338  1.00  0.00    -0.205 F 
ATOM     73  C   UNL A   1      42.940  22.403  25.121  1.00  0.00     0.022 A 
BRANCH  71  74
ATOM     74  S   UNL A   1      41.556  20.452  26.463  1.00  0.00     0.127 S 
ATOM     75  O   UNL A   1      40.117  20.655  26.317  1.00  0.00    -0.237 OA
ATOM     76  O   UNL A   1      42.195  19.749  25.348  1.00  0.00    -0.237 OA
ATOM     77  O   UNL A   1      42.012  20.018  27.777  1.00  0.00    -0.744 OA
ENDBRANCH  71  74
ENDBRANCH  43  67
BRANCH  55  78
ATOM     78  C   UNL A   1      46.603  26.271  32.526  1.00  0.00     0.023 A 
ATOM     79  C   UNL A   1      47.811  26.902  32.168  1.00  0.00     0.012 A 
ATOM     80  C   UNL A   1      46.621  25.222  33.465  1.00  0.00     0.148 A 
ATOM     81  C   UNL A   1      49.020  26.480  32.718  1.00  0.00     0.002 A 
ATOM     82  C   UNL A   1      47.824  24.836  34.043  1.00  0.00     0.091 A 
ATOM     83  F   UNL A   1      45.463  24.620  33.776  1.00  0.00    -0.205 F 
ATOM     84  C   UNL A   1      49.025  25.457  33.663  1.00  0.00     0.022 A 
BRANCH  82  85
ATOM     85  S   UNL A   1      47.907  23.593  35.338  1.00  0.00     0.127 S 
ATOM     86  O   UNL A   1      47.270  22.447  34.694  1.00  0.00    -0.237 OA
ATOM     87  O   UNL A   1      49.349  23.453  35.547  1.00  0.00    -0.237 OA
ATOM     88  O   UNL A   1      47.190  24.158  36.474  1.00  0.00    -0.744 OA
ENDBRANCH  82  85
ENDBRANCH  55  78
ENDBRANCH  29  30
ENDBRANCH  21  24
ENDBRANCH  19  20
ENDBRANCH  18  19
ENDBRANCH  17  18
ENDBRANCH   1  17
TORSDOF 19
ENDMDL
