MODEL 1
REMARK VINA RESULT:     -12.0      0.000      0.000
REMARK SMILES COc1ccc(-c2c(C)n[nH]c2C)c(C(=O)NCCCCNC(=O)c2ccc(-c3c4nc(c(-c5cccc(S(=O)(=O)[O-])c5F)c5ccc([nH]5)c(-c5cccc(S(=O)(=O)[O-])c5F)c5nc(c(-c6cccc(S(=O)(=O)[O-])c6F)c6ccc3[nH]6)C=C5)C=C4)cc2)c1
REMARK SMILES IDX 20 1 19 2 18 3 17 4 15 5 16 6 14 8 3 9 4 10 88 11 5 12 6 13
REMARK SMILES IDX 2 14 1 15 7 16 8 17 12 18 9 19 10 20 11 21 13 22 21 24 22 25
REMARK SMILES IDX 23 26 24 28 25 29 26 30 87 31 27 32 86 33 28 34 29 35 30 36
REMARK SMILES IDX 80 37 31 38 85 39 79 40 81 41 32 42 84 43 78 44 77 45 33 47
REMARK SMILES IDX 65 48 45 49 64 50 46 51 49 52 63 53 82 54 47 55 48 56 62 58
REMARK SMILES IDX 83 59 50 60 34 61 35 62 43 63 36 64 38 65 44 66 37 67 39 68
REMARK SMILES IDX 40 69 41 70 42 71 66 72 67 73 75 74 68 75 70 76 76 77 69 78
REMARK SMILES IDX 71 79 72 80 73 81 74 82 51 83 52 84 60 85 53 86 55 87 61 88
REMARK SMILES IDX 54 89 56 90 57 91 58 92 59 93
REMARK H PARENT 17 7 11 23 22 27 81 46 49 57
REMARK Flexibility Score: inf
ROOT
ATOM      1  C   UNL A   1      32.865  29.121  24.804  1.00  0.00     0.023 C 
ENDROOT
BRANCH   1   2
ATOM      2  C   UNL A   1      33.964  28.080  24.628  1.00  0.00     0.023 C 
BRANCH   2   3
ATOM      3  C   UNL A   1      33.590  26.621  24.856  1.00  0.00     0.116 C 
BRANCH   3   4
ATOM      4  N   UNL A   1      34.282  25.649  24.024  1.00  0.00    -0.352 N 
ATOM      5  C   UNL A   1      34.414  24.276  24.152  1.00  0.00     0.252 C 
ATOM      6  O   UNL A   1      34.906  23.651  23.218  1.00  0.00    -0.269 OA
ATOM      7  H   UNL A   1      34.733  26.032  23.237  1.00  0.00     0.163 HD
BRANCH   5   8
ATOM      8  C   UNL A   1      33.988  23.576  25.399  1.00  0.00     0.051 A 
ATOM      9  C   UNL A   1      32.232  23.223  27.057  1.00  0.00     0.119 A 
ATOM     10  C   UNL A   1      33.143  22.561  27.873  1.00  0.00     0.047 A 
ATOM     11  C   UNL A   1      32.646  23.680  25.806  1.00  0.00     0.060 A 
ATOM     12  C   UNL A   1      34.444  22.326  27.426  1.00  0.00     0.013 A 
ATOM     13  C   UNL A   1      34.874  22.805  26.175  1.00  0.00    -0.002 A 
BRANCH   9  14
ATOM     14  O   UNL A   1      30.976  23.367  27.579  1.00  0.00    -0.497 OA
ATOM     15  C   UNL A   1      29.893  22.965  26.746  1.00  0.00     0.278 C 
ENDBRANCH   9  14
BRANCH  13  16
ATOM     16  C   UNL A   1      36.158  22.315  25.706  1.00  0.00     0.026 A 
ATOM     17  C   UNL A   1      36.443  21.055  25.104  1.00  0.00     0.067 A 
ATOM     18  C   UNL A   1      37.382  22.942  25.811  1.00  0.00     0.040 A 
ATOM     19  C   UNL A   1      35.487  19.973  24.762  1.00  0.00     0.069 C 
ATOM     20  N   UNL A   1      37.751  20.903  24.865  1.00  0.00    -0.180 NA
ATOM     21  N   UNL A   1      38.279  22.081  25.234  1.00  0.00    -0.282 N 
ATOM     22  C   UNL A   1      37.807  24.252  26.351  1.00  0.00     0.067 C 
ATOM     23  H   UNL A   1      39.228  22.307  25.100  1.00  0.00     0.190 HD
ENDBRANCH  13  16
ENDBRANCH   5   8
ENDBRANCH   3   4
ENDBRANCH   2   3
ENDBRANCH   1   2
BRANCH   1  24
ATOM     24  C   UNL A   1      32.422  29.422  26.231  1.00  0.00     0.116 C 
BRANCH  24  25
ATOM     25  N   UNL A   1      32.306  30.841  26.533  1.00  0.00    -0.352 N 
ATOM     26  C   UNL A   1      33.179  31.680  27.194  1.00  0.00     0.251 C 
ATOM     27  H   UNL A   1      31.477  31.268  26.218  1.00  0.00     0.163 HD
ATOM     28  O   UNL A   1      32.866  32.846  27.390  1.00  0.00    -0.269 OA
BRANCH  26  29
ATOM     29  C   UNL A   1      34.470  31.161  27.706  1.00  0.00     0.039 A 
ATOM     30  C   UNL A   1      35.500  32.069  27.969  1.00  0.00     0.014 A 
ATOM     31  C   UNL A   1      34.661  29.801  27.953  1.00  0.00     0.014 A 
ATOM     32  C   UNL A   1      36.682  31.626  28.572  1.00  0.00     0.010 A 
ATOM     33  C   UNL A   1      35.805  29.373  28.625  1.00  0.00     0.010 A 
ATOM     34  C   UNL A   1      36.824  30.281  28.951  1.00  0.00    -0.014 A 
BRANCH  34  35
ATOM     35  C   UNL A   1      38.005  29.812  29.725  1.00  0.00     0.031 A 
ATOM     36  C   UNL A   1      38.254  30.319  31.120  1.00  0.00     0.074 A 
ATOM     37  C   UNL A   1      38.917  29.016  29.130  1.00  0.00     0.049 A 
ATOM     38  N   UNL A   1      39.271  30.090  31.910  1.00  0.00    -0.248 NA
ATOM     39  C   UNL A   1      37.246  31.229  31.689  1.00  0.00     0.031 C 
ATOM     40  C   UNL A   1      38.843  28.530  27.749  1.00  0.00     0.029 A 
ATOM     41  N   UNL A   1      40.103  28.503  29.597  1.00  0.00    -0.354 N 
ATOM     42  C   UNL A   1      39.051  30.859  33.046  1.00  0.00     0.074 A 
ATOM     43  C   UNL A   1      37.815  31.581  32.834  1.00  0.00     0.031 C 
ATOM     44  C   UNL A   1      39.933  27.792  27.483  1.00  0.00     0.029 A 
ATOM     45  C   UNL A   1      40.796  27.772  28.660  1.00  0.00     0.049 A 
ATOM     46  H   UNL A   1      40.426  28.646  30.515  1.00  0.00     0.167 HD
ATOM     47  C   UNL A   1      39.792  30.936  34.177  1.00  0.00     0.034 A 
ATOM     48  C   UNL A   1      41.993  27.157  28.735  1.00  0.00     0.034 A 
ATOM     49  C   UNL A   1      40.984  30.169  34.414  1.00  0.00     0.049 A 
ATOM     50  C   UNL A   1      42.757  27.193  30.030  1.00  0.00     0.074 A 
ATOM     51  C   UNL A   1      41.742  30.094  35.569  1.00  0.00     0.029 A 
ATOM     52  N   UNL A   1      41.594  29.345  33.482  1.00  0.00    -0.354 N 
ATOM     53  N   UNL A   1      42.443  27.788  31.155  1.00  0.00    -0.248 NA
ATOM     54  C   UNL A   1      44.021  26.442  30.081  1.00  0.00     0.031 C 
ATOM     55  C   UNL A   1      42.819  29.233  35.332  1.00  0.00     0.029 A 
ATOM     56  C   UNL A   1      42.722  28.760  34.034  1.00  0.00     0.049 A 
ATOM     57  H   UNL A   1      41.274  29.197  32.563  1.00  0.00     0.167 HD
ATOM     58  C   UNL A   1      43.449  27.460  32.056  1.00  0.00     0.074 A 
ATOM     59  C   UNL A   1      44.374  26.595  31.352  1.00  0.00     0.031 C 
ATOM     60  C   UNL A   1      43.603  27.854  33.343  1.00  0.00     0.034 A 
BRANCH  47  61
ATOM     61  C   UNL A   1      39.299  31.834  35.280  1.00  0.00     0.023 A 
ATOM     62  C   UNL A   1      38.395  31.324  36.235  1.00  0.00     0.012 A 
ATOM     63  C   UNL A   1      39.777  33.151  35.415  1.00  0.00     0.148 A 
ATOM     64  C   UNL A   1      37.952  32.118  37.290  1.00  0.00     0.002 A 
ATOM     65  C   UNL A   1      39.362  33.925  36.494  1.00  0.00     0.091 A 
ATOM     66  F   UNL A   1      40.619  33.625  34.486  1.00  0.00    -0.205 F 
ATOM     67  C   UNL A   1      38.443  33.413  37.426  1.00  0.00     0.022 A 
BRANCH  65  68
ATOM     68  S   UNL A   1      39.994  35.578  36.800  1.00  0.00     0.127 S 
ATOM     69  O   UNL A   1      39.347  35.911  38.069  1.00  0.00    -0.237 OA
ATOM     70  O   UNL A   1      41.436  35.344  36.895  1.00  0.00    -0.237 OA
ATOM     71  O   UNL A   1      39.584  36.383  35.659  1.00  0.00    -0.744 OA
ENDBRANCH  65  68
ENDBRANCH  47  61
BRANCH  48  72
ATOM     72  C   UNL A   1      42.502  26.383  27.566  1.00  0.00     0.023 A 
ATOM     73  C   UNL A   1      43.388  27.004  26.664  1.00  0.00     0.012 A 
ATOM     74  C   UNL A   1      42.154  25.033  27.368  1.00  0.00     0.148 A 
ATOM     75  C   UNL A   1      43.899  26.303  25.572  1.00  0.00     0.002 A 
ATOM     76  C   UNL A   1      42.709  24.324  26.309  1.00  0.00     0.091 A 
ATOM     77  F   UNL A   1      41.300  24.464  28.230  1.00  0.00    -0.205 F 
ATOM     78  C   UNL A   1      43.569  24.961  25.401  1.00  0.00     0.022 A 
BRANCH  76  79
ATOM     79  S   UNL A   1      42.447  22.561  26.088  1.00  0.00     0.127 S 
ATOM     80  O   UNL A   1      40.996  22.488  25.946  1.00  0.00    -0.237 OA
ATOM     81  O   UNL A   1      43.201  22.293  24.862  1.00  0.00    -0.237 OA
ATOM     82  O   UNL A   1      43.001  21.930  27.278  1.00  0.00    -0.744 OA
ENDBRANCH  76  79
ENDBRANCH  48  72
BRANCH  60  83
ATOM     83  C   UNL A   1      44.800  27.338  34.098  1.00  0.00     0.023 A 
ATOM     84  C   UNL A   1      45.993  28.087  34.108  1.00  0.00     0.012 A 
ATOM     85  C   UNL A   1      44.714  26.162  34.869  1.00  0.00     0.148 A 
ATOM     86  C   UNL A   1      47.091  27.661  34.854  1.00  0.00     0.002 A 
ATOM     87  C   UNL A   1      45.797  25.767  35.645  1.00  0.00     0.091 A 
ATOM     88  F   UNL A   1      43.576  25.453  34.831  1.00  0.00    -0.205 F 
ATOM     89  C   UNL A   1      46.989  26.510  35.632  1.00  0.00     0.022 A 
BRANCH  87  90
ATOM     90  S   UNL A   1      45.721  24.350  36.748  1.00  0.00     0.127 S 
ATOM     91  O   UNL A   1      44.681  24.762  37.690  1.00  0.00    -0.237 OA
ATOM     92  O   UNL A   1      45.330  23.268  35.843  1.00  0.00    -0.237 OA
ATOM     93  O   UNL A   1      47.057  24.211  37.310  1.00  0.00    -0.744 OA
ENDBRANCH  87  90
ENDBRANCH  60  83
ENDBRANCH  34  35
ENDBRANCH  26  29
ENDBRANCH  24  25
ENDBRANCH   1  24
TORSDOF 16
ENDMDL
MODEL 2
REMARK VINA RESULT:     -11.9      3.262      8.658
REMARK SMILES COc1ccc(-c2c(C)n[nH]c2C)c(C(=O)NCCCCNC(=O)c2ccc(-c3c4nc(c(-c5cccc(S(=O)(=O)[O-])c5F)c5ccc([nH]5)c(-c5cccc(S(=O)(=O)[O-])c5F)c5nc(c(-c6cccc(S(=O)(=O)[O-])c6F)c6ccc3[nH]6)C=C5)C=C4)cc2)c1
REMARK SMILES IDX 20 1 19 2 18 3 17 4 15 5 16 6 14 8 3 9 4 10 88 11 5 12 6 13
REMARK SMILES IDX 2 14 1 15 7 16 8 17 12 18 9 19 10 20 11 21 13 22 21 24 22 25
REMARK SMILES IDX 23 26 24 28 25 29 26 30 87 31 27 32 86 33 28 34 29 35 30 36
REMARK SMILES IDX 80 37 31 38 85 39 79 40 81 41 32 42 84 43 78 44 77 45 33 47
REMARK SMILES IDX 65 48 45 49 64 50 46 51 49 52 63 53 82 54 47 55 48 56 62 58
REMARK SMILES IDX 83 59 50 60 34 61 35 62 43 63 36 64 38 65 44 66 37 67 39 68
REMARK SMILES IDX 40 69 41 70 42 71 66 72 67 73 75 74 68 75 70 76 76 77 69 78
REMARK SMILES IDX 71 79 72 80 73 81 74 82 51 83 52 84 60 85 53 86 55 87 61 88
REMARK SMILES IDX 54 89 56 90 57 91 58 92 59 93
REMARK H PARENT 17 7 11 23 22 27 81 46 49 57
REMARK Flexibility Score: inf
ROOT
ATOM      1  C   UNL A   1      32.057  31.402  26.940  1.00  0.00     0.023 C 
ENDROOT
BRANCH   1   2
ATOM      2  C   UNL A   1      32.366  29.943  27.254  1.00  0.00     0.023 C 
BRANCH   2   3
ATOM      3  C   UNL A   1      31.901  28.897  26.249  1.00  0.00     0.116 C 
BRANCH   3   4
ATOM      4  N   UNL A   1      32.582  28.902  24.963  1.00  0.00    -0.352 N 
ATOM      5  C   UNL A   1      32.081  28.860  23.672  1.00  0.00     0.252 C 
ATOM      6  O   UNL A   1      32.858  29.052  22.742  1.00  0.00    -0.269 OA
ATOM      7  H   UNL A   1      33.564  28.943  25.020  1.00  0.00     0.163 HD
BRANCH   5   8
ATOM      8  C   UNL A   1      30.640  28.569  23.415  1.00  0.00     0.051 A 
ATOM      9  C   UNL A   1      28.421  29.462  22.933  1.00  0.00     0.119 A 
ATOM     10  C   UNL A   1      27.868  28.213  23.196  1.00  0.00     0.047 A 
ATOM     11  C   UNL A   1      29.805  29.618  22.994  1.00  0.00     0.060 A 
ATOM     12  C   UNL A   1      28.694  27.125  23.480  1.00  0.00     0.013 A 
ATOM     13  C   UNL A   1      30.089  27.283  23.566  1.00  0.00    -0.002 A 
BRANCH   9  14
ATOM     14  O   UNL A   1      27.522  30.448  22.630  1.00  0.00    -0.497 OA
ATOM     15  C   UNL A   1      27.801  31.742  23.154  1.00  0.00     0.278 C 
ENDBRANCH   9  14
BRANCH  13  16
ATOM     16  C   UNL A   1      30.871  26.061  23.636  1.00  0.00     0.026 A 
ATOM     17  C   UNL A   1      31.638  25.455  22.598  1.00  0.00     0.067 A 
ATOM     18  C   UNL A   1      30.976  25.194  24.705  1.00  0.00     0.040 A 
ATOM     19  C   UNL A   1      31.864  25.962  21.221  1.00  0.00     0.069 C 
ATOM     20  N   UNL A   1      32.169  24.290  22.987  1.00  0.00    -0.180 NA
ATOM     21  N   UNL A   1      31.814  24.197  24.278  1.00  0.00    -0.282 N 
ATOM     22  C   UNL A   1      30.419  25.203  26.075  1.00  0.00     0.067 C 
ATOM     23  H   UNL A   1      32.129  23.474  24.869  1.00  0.00     0.190 HD
ENDBRANCH  13  16
ENDBRANCH   5   8
ENDBRANCH   3   4
ENDBRANCH   2   3
ENDBRANCH   1   2
BRANCH   1  24
ATOM     24  C   UNL A   1      33.164  32.415  27.208  1.00  0.00     0.116 C 
BRANCH  24  25
ATOM     25  N   UNL A   1      32.685  33.732  27.604  1.00  0.00    -0.352 N 
ATOM     26  C   UNL A   1      33.151  34.585  28.582  1.00  0.00     0.251 C 
ATOM     27  H   UNL A   1      31.911  34.064  27.095  1.00  0.00     0.163 HD
ATOM     28  O   UNL A   1      32.568  35.640  28.792  1.00  0.00    -0.269 OA
BRANCH  26  29
ATOM     29  C   UNL A   1      34.322  34.206  29.409  1.00  0.00     0.039 A 
ATOM     30  C   UNL A   1      34.104  33.505  30.599  1.00  0.00     0.014 A 
ATOM     31  C   UNL A   1      35.624  34.511  29.009  1.00  0.00     0.014 A 
ATOM     32  C   UNL A   1      35.194  33.023  31.333  1.00  0.00     0.010 A 
ATOM     33  C   UNL A   1      36.705  33.964  29.696  1.00  0.00     0.010 A 
ATOM     34  C   UNL A   1      36.503  33.206  30.860  1.00  0.00    -0.014 A 
BRANCH  34  35
ATOM     35  C   UNL A   1      37.669  32.580  31.540  1.00  0.00     0.031 A 
ATOM     36  C   UNL A   1      38.404  31.435  30.896  1.00  0.00     0.074 A 
ATOM     37  C   UNL A   1      37.997  32.965  32.790  1.00  0.00     0.049 A 
ATOM     38  N   UNL A   1      39.383  30.711  31.373  1.00  0.00    -0.248 NA
ATOM     39  C   UNL A   1      37.958  31.028  29.552  1.00  0.00     0.031 C 
ATOM     40  C   UNL A   1      37.305  33.998  33.565  1.00  0.00     0.029 A 
ATOM     41  N   UNL A   1      38.973  32.512  33.643  1.00  0.00    -0.354 N 
ATOM     42  C   UNL A   1      39.640  29.739  30.415  1.00  0.00     0.074 A 
ATOM     43  C   UNL A   1      38.698  29.948  29.337  1.00  0.00     0.031 C 
ATOM     44  C   UNL A   1      37.877  34.098  34.776  1.00  0.00     0.029 A 
ATOM     45  C   UNL A   1      38.958  33.123  34.876  1.00  0.00     0.049 A 
ATOM     46  H   UNL A   1      39.622  31.814  33.396  1.00  0.00     0.167 HD
ATOM     47  C   UNL A   1      40.593  28.776  30.416  1.00  0.00     0.034 A 
ATOM     48  C   UNL A   1      39.723  32.919  35.968  1.00  0.00     0.034 A 
ATOM     49  C   UNL A   1      41.571  28.609  31.456  1.00  0.00     0.049 A 
ATOM     50  C   UNL A   1      40.825  31.898  35.911  1.00  0.00     0.074 A 
ATOM     51  C   UNL A   1      42.644  27.736  31.495  1.00  0.00     0.029 A 
ATOM     52  N   UNL A   1      41.598  29.327  32.641  1.00  0.00    -0.354 N 
ATOM     53  N   UNL A   1      41.163  31.104  34.924  1.00  0.00    -0.248 NA
ATOM     54  C   UNL A   1      41.678  31.770  37.102  1.00  0.00     0.031 C 
ATOM     55  C   UNL A   1      43.313  27.919  32.709  1.00  0.00     0.029 A 
ATOM     56  C   UNL A   1      42.666  28.915  33.420  1.00  0.00     0.049 A 
ATOM     57  H   UNL A   1      40.952  30.027  32.892  1.00  0.00     0.167 HD
ATOM     58  C   UNL A   1      42.283  30.406  35.360  1.00  0.00     0.074 A 
ATOM     59  C   UNL A   1      42.581  30.886  36.694  1.00  0.00     0.031 C 
ATOM     60  C   UNL A   1      42.988  29.441  34.722  1.00  0.00     0.034 A 
BRANCH  47  61
ATOM     61  C   UNL A   1      40.672  27.865  29.220  1.00  0.00     0.023 A 
ATOM     62  C   UNL A   1      39.816  26.747  29.144  1.00  0.00     0.012 A 
ATOM     63  C   UNL A   1      41.534  28.150  28.144  1.00  0.00     0.148 A 
ATOM     64  C   UNL A   1      39.837  25.909  28.031  1.00  0.00     0.002 A 
ATOM     65  C   UNL A   1      41.521  27.333  27.018  1.00  0.00     0.091 A 
ATOM     66  F   UNL A   1      42.355  29.205  28.243  1.00  0.00    -0.205 F 
ATOM     67  C   UNL A   1      40.681  26.207  26.965  1.00  0.00     0.022 A 
BRANCH  65  68
ATOM     68  S   UNL A   1      42.514  27.674  25.561  1.00  0.00     0.127 S 
ATOM     69  O   UNL A   1      43.855  27.776  26.136  1.00  0.00    -0.237 OA
ATOM     70  O   UNL A   1      42.289  26.478  24.748  1.00  0.00    -0.237 OA
ATOM     71  O   UNL A   1      41.982  28.903  24.992  1.00  0.00    -0.744 OA
ENDBRANCH  65  68
ENDBRANCH  47  61
BRANCH  48  72
ATOM     72  C   UNL A   1      39.520  33.763  37.180  1.00  0.00     0.023 A 
ATOM     73  C   UNL A   1      39.988  35.092  37.177  1.00  0.00     0.012 A 
ATOM     74  C   UNL A   1      38.832  33.279  38.308  1.00  0.00     0.148 A 
ATOM     75  C   UNL A   1      39.796  35.916  38.287  1.00  0.00     0.002 A 
ATOM     76  C   UNL A   1      38.597  34.122  39.389  1.00  0.00     0.091 A 
ATOM     77  F   UNL A   1      38.406  32.009  38.296  1.00  0.00    -0.205 F 
ATOM     78  C   UNL A   1      39.092  35.435  39.387  1.00  0.00     0.022 A 
BRANCH  76  79
ATOM     79  S   UNL A   1      37.586  33.631  40.791  1.00  0.00     0.127 S 
ATOM     80  O   UNL A   1      38.462  32.687  41.478  1.00  0.00    -0.237 OA
ATOM     81  O   UNL A   1      37.388  34.906  41.483  1.00  0.00    -0.237 OA
ATOM     82  O   UNL A   1      36.370  33.069  40.219  1.00  0.00    -0.744 OA
ENDBRANCH  76  79
ENDBRANCH  48  72
BRANCH  60  83
ATOM     83  C   UNL A   1      44.176  28.850  35.435  1.00  0.00     0.023 A 
ATOM     84  C   UNL A   1      45.455  29.407  35.237  1.00  0.00     0.012 A 
ATOM     85  C   UNL A   1      44.012  27.805  36.365  1.00  0.00     0.148 A 
ATOM     86  C   UNL A   1      46.556  28.916  35.937  1.00  0.00     0.002 A 
ATOM     87  C   UNL A   1      45.106  27.351  37.091  1.00  0.00     0.091 A 
ATOM     88  F   UNL A   1      42.790  27.275  36.524  1.00  0.00    -0.205 F 
ATOM     89  C   UNL A   1      46.381  27.899  36.872  1.00  0.00     0.022 A 
BRANCH  87  90
ATOM     90  S   UNL A   1      44.953  26.110  38.381  1.00  0.00     0.127 S 
ATOM     91  O   UNL A   1      46.342  25.949  38.807  1.00  0.00    -0.237 OA
ATOM     92  O   UNL A   1      44.090  26.776  39.357  1.00  0.00    -0.237 OA
ATOM     93  O   UNL A   1      44.354  24.945  37.744  1.00  0.00    -0.744 OA
ENDBRANCH  87  90
ENDBRANCH  60  83
ENDBRANCH  34  35
ENDBRANCH  26  29
ENDBRANCH  24  25
ENDBRANCH   1  24
TORSDOF 16
ENDMDL
MODEL 3
REMARK VINA RESULT:     -11.8      5.289      8.492
REMARK SMILES COc1ccc(-c2c(C)n[nH]c2C)c(C(=O)NCCCCNC(=O)c2ccc(-c3c4nc(c(-c5cccc(S(=O)(=O)[O-])c5F)c5ccc([nH]5)c(-c5cccc(S(=O)(=O)[O-])c5F)c5nc(c(-c6cccc(S(=O)(=O)[O-])c6F)c6ccc3[nH]6)C=C5)C=C4)cc2)c1
REMARK SMILES IDX 20 1 19 2 18 3 17 4 15 5 16 6 14 8 3 9 4 10 88 11 5 12 6 13
REMARK SMILES IDX 2 14 1 15 7 16 8 17 12 18 9 19 10 20 11 21 13 22 21 24 22 25
REMARK SMILES IDX 23 26 24 28 25 29 26 30 87 31 27 32 86 33 28 34 29 35 30 36
REMARK SMILES IDX 80 37 31 38 85 39 79 40 81 41 32 42 84 43 78 44 77 45 33 47
REMARK SMILES IDX 65 48 45 49 64 50 46 51 49 52 63 53 82 54 47 55 48 56 62 58
REMARK SMILES IDX 83 59 50 60 34 61 35 62 43 63 36 64 38 65 44 66 37 67 39 68
REMARK SMILES IDX 40 69 41 70 42 71 66 72 67 73 75 74 68 75 70 76 76 77 69 78
REMARK SMILES IDX 71 79 72 80 73 81 74 82 51 83 52 84 60 85 53 86 55 87 61 88
REMARK SMILES IDX 54 89 56 90 57 91 58 92 59 93
REMARK H PARENT 17 7 11 23 22 27 81 46 49 57
REMARK Flexibility Score: inf
ROOT
ATOM      1  C   UNL A   1      37.789  19.199  25.021  1.00  0.00     0.023 C 
ENDROOT
BRANCH   1   2
ATOM      2  C   UNL A   1      36.485  19.949  24.783  1.00  0.00     0.023 C 
BRANCH   2   3
ATOM      3  C   UNL A   1      36.378  21.363  25.340  1.00  0.00     0.116 C 
BRANCH   3   4
ATOM      4  N   UNL A   1      35.428  21.549  26.426  1.00  0.00    -0.352 N 
ATOM      5  C   UNL A   1      34.089  21.209  26.527  1.00  0.00     0.252 C 
ATOM      6  O   UNL A   1      33.544  21.316  27.621  1.00  0.00    -0.269 OA
ATOM      7  H   UNL A   1      35.800  21.990  27.224  1.00  0.00     0.163 HD
BRANCH   5   8
ATOM      8  C   UNL A   1      33.322  20.745  25.334  1.00  0.00     0.051 A 
ATOM      9  C   UNL A   1      32.669  18.868  23.917  1.00  0.00     0.119 A 
ATOM     10  C   UNL A   1      32.169  19.761  22.975  1.00  0.00     0.047 A 
ATOM     11  C   UNL A   1      33.194  19.363  25.110  1.00  0.00     0.060 A 
ATOM     12  C   UNL A   1      32.161  21.130  23.241  1.00  0.00     0.013 A 
ATOM     13  C   UNL A   1      32.711  21.637  24.432  1.00  0.00    -0.002 A 
BRANCH   9  14
ATOM     14  O   UNL A   1      32.595  17.547  23.569  1.00  0.00    -0.497 OA
ATOM     15  C   UNL A   1      33.801  16.942  23.115  1.00  0.00     0.278 C 
ENDBRANCH   9  14
BRANCH  13  16
ATOM     16  C   UNL A   1      32.449  23.036  24.718  1.00  0.00     0.026 A 
ATOM     17  C   UNL A   1      33.164  24.172  24.239  1.00  0.00     0.067 A 
ATOM     18  C   UNL A   1      31.494  23.553  25.569  1.00  0.00     0.040 A 
ATOM     19  C   UNL A   1      34.307  24.195  23.292  1.00  0.00     0.069 C 
ATOM     20  N   UNL A   1      32.699  25.311  24.765  1.00  0.00    -0.180 NA
ATOM     21  N   UNL A   1      31.651  24.913  25.503  1.00  0.00    -0.282 N 
ATOM     22  C   UNL A   1      30.441  22.936  26.404  1.00  0.00     0.067 C 
ATOM     23  H   UNL A   1      31.046  25.544  25.957  1.00  0.00     0.190 HD
ENDBRANCH  13  16
ENDBRANCH   5   8
ENDBRANCH   3   4
ENDBRANCH   2   3
ENDBRANCH   1   2
BRANCH   1  24
ATOM     24  C   UNL A   1      38.892  19.950  25.758  1.00  0.00     0.116 C 
BRANCH  24  25
ATOM     25  N   UNL A   1      40.137  19.206  25.890  1.00  0.00    -0.352 N 
ATOM     26  C   UNL A   1      41.386  19.634  26.286  1.00  0.00     0.251 C 
ATOM     27  H   UNL A   1      40.077  18.251  25.661  1.00  0.00     0.163 HD
ATOM     28  O   UNL A   1      42.324  18.849  26.282  1.00  0.00    -0.269 OA
BRANCH  26  29
ATOM     29  C   UNL A   1      41.603  21.049  26.672  1.00  0.00     0.039 A 
ATOM     30  C   UNL A   1      42.181  21.324  27.916  1.00  0.00     0.014 A 
ATOM     31  C   UNL A   1      41.271  22.097  25.812  1.00  0.00     0.014 A 
ATOM     32  C   UNL A   1      42.516  22.640  28.253  1.00  0.00     0.010 A 
ATOM     33  C   UNL A   1      41.676  23.396  26.115  1.00  0.00     0.010 A 
ATOM     34  C   UNL A   1      42.311  23.681  27.333  1.00  0.00    -0.014 A 
BRANCH  34  35
ATOM     35  C   UNL A   1      42.791  25.063  27.604  1.00  0.00     0.031 A 
ATOM     36  C   UNL A   1      41.881  26.075  28.246  1.00  0.00     0.074 A 
ATOM     37  C   UNL A   1      44.010  25.443  27.168  1.00  0.00     0.049 A 
ATOM     38  N   UNL A   1      42.094  27.344  28.480  1.00  0.00    -0.248 NA
ATOM     39  C   UNL A   1      40.543  25.608  28.649  1.00  0.00     0.031 C 
ATOM     40  C   UNL A   1      44.954  24.586  26.446  1.00  0.00     0.029 A 
ATOM     41  N   UNL A   1      44.651  26.655  27.236  1.00  0.00    -0.354 N 
ATOM     42  C   UNL A   1      40.909  27.837  29.011  1.00  0.00     0.074 A 
ATOM     43  C   UNL A   1      39.970  26.737  29.045  1.00  0.00     0.031 C 
ATOM     44  C   UNL A   1      46.050  25.298  26.139  1.00  0.00     0.029 A 
ATOM     45  C   UNL A   1      45.880  26.666  26.617  1.00  0.00     0.049 A 
ATOM     46  H   UNL A   1      44.267  27.442  27.685  1.00  0.00     0.167 HD
ATOM     47  C   UNL A   1      40.634  29.085  29.460  1.00  0.00     0.034 A 
ATOM     48  C   UNL A   1      46.769  27.666  26.446  1.00  0.00     0.034 A 
ATOM     49  C   UNL A   1      41.587  30.161  29.489  1.00  0.00     0.049 A 
ATOM     50  C   UNL A   1      46.470  29.021  27.026  1.00  0.00     0.074 A 
ATOM     51  C   UNL A   1      41.437  31.428  30.026  1.00  0.00     0.029 A 
ATOM     52  N   UNL A   1      42.865  30.101  28.959  1.00  0.00    -0.354 N 
ATOM     53  N   UNL A   1      45.408  29.420  27.681  1.00  0.00    -0.248 NA
ATOM     54  C   UNL A   1      47.507  30.054  26.878  1.00  0.00     0.031 C 
ATOM     55  C   UNL A   1      42.622  32.138  29.810  1.00  0.00     0.029 A 
ATOM     56  C   UNL A   1      43.514  31.309  29.152  1.00  0.00     0.049 A 
ATOM     57  H   UNL A   1      43.254  29.316  28.510  1.00  0.00     0.167 HD
ATOM     58  C   UNL A   1      45.658  30.736  28.051  1.00  0.00     0.074 A 
ATOM     59  C   UNL A   1      46.984  31.062  27.566  1.00  0.00     0.031 C 
ATOM     60  C   UNL A   1      44.856  31.603  28.716  1.00  0.00     0.034 A 
BRANCH  47  61
ATOM     61  C   UNL A   1      39.262  29.342  30.025  1.00  0.00     0.023 A 
ATOM     62  C   UNL A   1      38.969  28.935  31.343  1.00  0.00     0.012 A 
ATOM     63  C   UNL A   1      38.289  30.042  29.285  1.00  0.00     0.148 A 
ATOM     64  C   UNL A   1      37.722  29.194  31.907  1.00  0.00     0.002 A 
ATOM     65  C   UNL A   1      37.061  30.333  29.869  1.00  0.00     0.091 A 
ATOM     66  F   UNL A   1      38.579  30.401  28.027  1.00  0.00    -0.205 F 
ATOM     67  C   UNL A   1      36.773  29.902  31.175  1.00  0.00     0.022 A 
BRANCH  65  68
ATOM     68  S   UNL A   1      35.799  31.305  29.038  1.00  0.00     0.127 S 
ATOM     69  O   UNL A   1      34.981  31.751  30.165  1.00  0.00    -0.237 OA
ATOM     70  O   UNL A   1      36.591  32.360  28.404  1.00  0.00    -0.237 OA
ATOM     71  O   UNL A   1      35.142  30.398  28.108  1.00  0.00    -0.744 OA
ENDBRANCH  65  68
ENDBRANCH  47  61
BRANCH  48  72
ATOM     72  C   UNL A   1      48.066  27.392  25.763  1.00  0.00     0.023 A 
ATOM     73  C   UNL A   1      49.145  26.886  26.515  1.00  0.00     0.012 A 
ATOM     74  C   UNL A   1      48.223  27.584  24.377  1.00  0.00     0.148 A 
ATOM     75  C   UNL A   1      50.365  26.600  25.903  1.00  0.00     0.002 A 
ATOM     76  C   UNL A   1      49.425  27.246  23.765  1.00  0.00     0.091 A 
ATOM     77  F   UNL A   1      47.189  28.078  23.683  1.00  0.00    -0.205 F 
ATOM     78  C   UNL A   1      50.501  26.768  24.527  1.00  0.00     0.022 A 
BRANCH  76  79
ATOM     79  S   UNL A   1      49.647  27.303  21.983  1.00  0.00     0.127 S 
ATOM     80  O   UNL A   1      51.043  26.901  21.841  1.00  0.00    -0.237 OA
ATOM     81  O   UNL A   1      48.671  26.314  21.523  1.00  0.00    -0.237 OA
ATOM     82  O   UNL A   1      49.337  28.672  21.593  1.00  0.00    -0.744 OA
ENDBRANCH  76  79
ENDBRANCH  48  72
BRANCH  60  83
ATOM     83  C   UNL A   1      45.388  32.985  28.991  1.00  0.00     0.023 A 
ATOM     84  C   UNL A   1      46.082  33.237  30.191  1.00  0.00     0.012 A 
ATOM     85  C   UNL A   1      45.279  34.005  28.026  1.00  0.00     0.148 A 
ATOM     86  C   UNL A   1      46.639  34.491  30.436  1.00  0.00     0.002 A 
ATOM     87  C   UNL A   1      45.874  35.239  28.259  1.00  0.00     0.091 A 
ATOM     88  F   UNL A   1      44.597  33.751  26.900  1.00  0.00    -0.205 F 
ATOM     89  C   UNL A   1      46.547  35.487  29.467  1.00  0.00     0.022 A 
BRANCH  87  90
ATOM     90  S   UNL A   1      45.885  36.546  27.026  1.00  0.00     0.127 S 
ATOM     91  O   UNL A   1      44.472  36.919  26.974  1.00  0.00    -0.237 OA
ATOM     92  O   UNL A   1      46.757  37.549  27.638  1.00  0.00    -0.237 OA
ATOM     93  O   UNL A   1      46.420  35.944  25.812  1.00  0.00    -0.744 OA
ENDBRANCH  87  90
ENDBRANCH  60  83
ENDBRANCH  34  35
ENDBRANCH  26  29
ENDBRANCH  24  25
ENDBRANCH   1  24
TORSDOF 16
ENDMDL
