MODEL 1
REMARK VINA RESULT:     -10.5      0.000      0.000
REMARK SMILES CCCCCCCNC(=O)Oc1cccc(-c2ccc([C@@H](C)C(=O)NCCCCNC(=O)c3ccc(-c4c5nc(c(-c6cccc(S(=O)(=O)[O-])c6F)c6ccc([nH]6)c(-c6cccc(S(=O)(=O)[O-])c6F)c6nc(c(-c7cccc(S(=O)(=O)[O-])c7F)c7ccc4[nH]7)C=C6)C=C5)cc3)cc2F)c1
REMARK SMILES IDX 21 1 22 2 20 3 17 4 18 5 97 6 19 7 96 8 98 9 16 10 12 11
REMARK SMILES IDX 13 12 99 13 14 14 15 15 11 16 9 17 8 18 10 20 7 21 6 22 5 23
REMARK SMILES IDX 4 24 3 25 2 26 1 27 23 28 24 29 25 30 26 32 27 33 28 34
REMARK SMILES IDX 29 35 30 36 31 37 32 39 33 40 34 41 95 42 35 43 94 44 36 45
REMARK SMILES IDX 37 46 38 47 88 48 39 49 93 50 87 51 89 52 40 53 92 54 86 55
REMARK SMILES IDX 85 56 41 58 73 59 53 60 72 61 54 62 57 63 71 64 90 65 55 66
REMARK SMILES IDX 56 67 70 69 91 70 58 71 42 72 43 73 51 74 44 75 46 76 52 77
REMARK SMILES IDX 45 78 47 79 48 80 49 81 50 82 74 83 75 84 83 85 76 86 78 87
REMARK SMILES IDX 84 88 77 89 79 90 80 91 81 92 82 93 59 94 60 95 68 96 61 97
REMARK SMILES IDX 63 98 69 99 62 100 64 101 65 102 66 103 67 104
REMARK H PARENT 8 19 25 31 30 38 89 57 57 68
REMARK Flexibility Score: inf
ROOT
ATOM      1  C   UNL A   1      31.771  28.297  26.230  1.00  0.00     0.105 C 
ATOM      2  C   UNL A   1      31.742  28.543  27.738  1.00  0.00     0.023 C 
ENDROOT
BRANCH   1   3
ATOM      3  C   UNL A   1      31.960  26.851  25.800  1.00  0.00    -0.033 A 
ATOM      4  C   UNL A   1      32.142  24.166  24.818  1.00  0.00     0.018 A 
ATOM      5  C   UNL A   1      33.158  25.108  24.593  1.00  0.00     0.012 A 
ATOM      6  C   UNL A   1      31.056  24.597  25.596  1.00  0.00     0.131 A 
ATOM      7  C   UNL A   1      33.090  26.406  25.112  1.00  0.00     0.005 A 
ATOM      8  C   UNL A   1      30.950  25.913  26.056  1.00  0.00     0.044 A 
ATOM      9  F   UNL A   1      30.073  23.746  25.929  1.00  0.00    -0.206 F 
BRANCH   4  10
ATOM     10  C   UNL A   1      32.231  22.807  24.234  1.00  0.00    -0.012 A 
ATOM     11  C   UNL A   1      32.674  20.425  24.437  1.00  0.00     0.133 A 
ATOM     12  C   UNL A   1      32.330  20.206  23.108  1.00  0.00     0.047 A 
ATOM     13  C   UNL A   1      32.633  21.702  25.001  1.00  0.00     0.056 A 
ATOM     14  C   UNL A   1      31.925  21.283  22.332  1.00  0.00     0.004 A 
ATOM     15  C   UNL A   1      31.888  22.567  22.887  1.00  0.00     0.009 A 
BRANCH  11  16
ATOM     16  O   UNL A   1      33.197  19.332  25.143  1.00  0.00    -0.410 OA
BRANCH  16  17
ATOM     17  C   UNL A   1      34.298  18.677  24.616  1.00  0.00     0.412 C 
ATOM     18  N   UNL A   1      35.468  19.347  24.845  1.00  0.00    -0.321 N 
ATOM     19  H   UNL A   1      36.287  18.948  24.474  1.00  0.00     0.167 HD
ATOM     20  O   UNL A   1      34.282  17.622  23.995  1.00  0.00    -0.224 OA
BRANCH  18  21
ATOM     21  C   UNL A   1      35.619  20.586  25.580  1.00  0.00     0.119 C 
BRANCH  21  22
ATOM     22  C   UNL A   1      36.241  21.688  24.722  1.00  0.00     0.021 C 
BRANCH  22  23
ATOM     23  C   UNL A   1      36.360  23.047  25.419  1.00  0.00     0.002 C 
BRANCH  23  24
ATOM     24  C   UNL A   1      37.772  23.416  25.889  1.00  0.00     0.000 C 
BRANCH  24  25
ATOM     25  C   UNL A   1      38.824  22.316  25.712  1.00  0.00    -0.000 C 
BRANCH  25  26
ATOM     26  C   UNL A   1      39.778  22.133  26.896  1.00  0.00    -0.003 C 
ATOM     27  C   UNL A   1      41.092  21.470  26.512  1.00  0.00     0.004 C 
ENDBRANCH  25  26
ENDBRANCH  24  25
ENDBRANCH  23  24
ENDBRANCH  22  23
ENDBRANCH  21  22
ENDBRANCH  18  21
ENDBRANCH  16  17
ENDBRANCH  11  16
ENDBRANCH   4  10
ENDBRANCH   1   3
BRANCH   1  28
ATOM     28  C   UNL A   1      32.643  29.294  25.450  1.00  0.00     0.227 C 
ATOM     29  O   UNL A   1      32.255  29.711  24.351  1.00  0.00    -0.274 OA
ATOM     30  N   UNL A   1      33.832  29.777  25.900  1.00  0.00    -0.356 N 
ATOM     31  H   UNL A   1      34.240  30.454  25.312  1.00  0.00     0.163 HD
BRANCH  30  32
ATOM     32  C   UNL A   1      34.607  29.480  27.087  1.00  0.00     0.116 C 
BRANCH  32  33
ATOM     33  C   UNL A   1      34.860  30.725  27.937  1.00  0.00     0.023 C 
BRANCH  33  34
ATOM     34  C   UNL A   1      33.711  31.730  27.963  1.00  0.00     0.023 C 
BRANCH  34  35
ATOM     35  C   UNL A   1      34.120  33.186  27.771  1.00  0.00     0.116 C 
BRANCH  35  36
ATOM     36  N   UNL A   1      33.357  34.130  28.578  1.00  0.00    -0.352 N 
ATOM     37  C   UNL A   1      33.565  34.477  29.894  1.00  0.00     0.251 C 
ATOM     38  H   UNL A   1      32.602  34.574  28.128  1.00  0.00     0.163 HD
ATOM     39  O   UNL A   1      32.792  35.232  30.473  1.00  0.00    -0.269 OA
BRANCH  37  40
ATOM     40  C   UNL A   1      34.717  33.886  30.607  1.00  0.00     0.039 A 
ATOM     41  C   UNL A   1      34.501  32.812  31.474  1.00  0.00     0.014 A 
ATOM     42  C   UNL A   1      36.013  34.337  30.342  1.00  0.00     0.014 A 
ATOM     43  C   UNL A   1      35.598  32.138  32.015  1.00  0.00     0.010 A 
ATOM     44  C   UNL A   1      37.100  33.609  30.810  1.00  0.00     0.010 A 
ATOM     45  C   UNL A   1      36.906  32.505  31.654  1.00  0.00    -0.014 A 
BRANCH  45  46
ATOM     46  C   UNL A   1      38.087  31.742  32.135  1.00  0.00     0.031 A 
ATOM     47  C   UNL A   1      38.735  32.106  33.443  1.00  0.00     0.074 A 
ATOM     48  C   UNL A   1      38.634  30.791  31.351  1.00  0.00     0.049 A 
ATOM     49  N   UNL A   1      39.806  31.604  34.000  1.00  0.00    -0.248 NA
ATOM     50  C   UNL A   1      38.118  33.200  34.213  1.00  0.00     0.031 C 
ATOM     51  C   UNL A   1      38.154  30.412  30.019  1.00  0.00     0.029 A 
ATOM     52  N   UNL A   1      39.732  29.991  31.548  1.00  0.00    -0.354 N 
ATOM     53  C   UNL A   1      40.015  32.345  35.157  1.00  0.00     0.074 A 
ATOM     54  C   UNL A   1      38.983  33.357  35.203  1.00  0.00     0.031 C 
ATOM     55  C   UNL A   1      38.949  29.448  29.523  1.00  0.00     0.029 A 
ATOM     56  C   UNL A   1      40.008  29.162  30.485  1.00  0.00     0.049 A 
ATOM     57  H   UNL A   1      40.270  30.009  32.371  1.00  0.00     0.167 HD
ATOM     58  C   UNL A   1      40.959  32.178  36.112  1.00  0.00     0.034 A 
ATOM     59  C   UNL A   1      41.007  28.276  30.303  1.00  0.00     0.034 A 
ATOM     60  C   UNL A   1      41.951  31.139  36.087  1.00  0.00     0.049 A 
ATOM     61  C   UNL A   1      42.012  28.072  31.405  1.00  0.00     0.074 A 
ATOM     62  C   UNL A   1      42.887  30.821  37.055  1.00  0.00     0.029 A 
ATOM     63  N   UNL A   1      42.141  30.252  35.039  1.00  0.00    -0.354 N 
ATOM     64  N   UNL A   1      42.090  28.668  32.570  1.00  0.00    -0.248 NA
ATOM     65  C   UNL A   1      43.044  27.049  31.184  1.00  0.00     0.031 C 
ATOM     66  C   UNL A   1      43.661  29.758  36.579  1.00  0.00     0.029 A 
ATOM     67  C   UNL A   1      43.186  29.394  35.330  1.00  0.00     0.049 A 
ATOM     68  H   UNL A   1      41.610  30.236  34.210  1.00  0.00     0.167 HD
ATOM     69  C   UNL A   1      43.154  28.068  33.235  1.00  0.00     0.074 A 
ATOM     70  C   UNL A   1      43.677  27.048  32.350  1.00  0.00     0.031 C 
ATOM     71  C   UNL A   1      43.661  28.347  34.461  1.00  0.00     0.034 A 
BRANCH  58  72
ATOM     72  C   UNL A   1      40.928  33.111  37.296  1.00  0.00     0.023 A 
ATOM     73  C   UNL A   1      40.067  32.834  38.378  1.00  0.00     0.012 A 
ATOM     74  C   UNL A   1      41.784  34.226  37.363  1.00  0.00     0.148 A 
ATOM     75  C   UNL A   1      40.028  33.674  39.490  1.00  0.00     0.002 A 
ATOM     76  C   UNL A   1      41.775  35.032  38.496  1.00  0.00     0.091 A 
ATOM     77  F   UNL A   1      42.581  34.487  36.316  1.00  0.00    -0.205 F 
ATOM     78  C   UNL A   1      40.890  34.766  39.553  1.00  0.00     0.022 A 
BRANCH  76  79
ATOM     79  S   UNL A   1      42.903  36.414  38.711  1.00  0.00     0.127 S 
ATOM     80  O   UNL A   1      42.461  37.321  37.652  1.00  0.00    -0.237 OA
ATOM     81  O   UNL A   1      42.585  36.861  40.068  1.00  0.00    -0.237 OA
ATOM     82  O   UNL A   1      44.242  35.869  38.548  1.00  0.00    -0.744 OA
ENDBRANCH  76  79
ENDBRANCH  58  72
BRANCH  59  83
ATOM     83  C   UNL A   1      41.067  27.464  29.054  1.00  0.00     0.023 A 
ATOM     84  C   UNL A   1      40.230  26.338  28.920  1.00  0.00     0.012 A 
ATOM     85  C   UNL A   1      41.926  27.808  27.994  1.00  0.00     0.148 A 
ATOM     86  C   UNL A   1      40.272  25.552  27.768  1.00  0.00     0.002 A 
ATOM     87  C   UNL A   1      41.924  27.054  26.826  1.00  0.00     0.091 A 
ATOM     88  F   UNL A   1      42.722  28.877  28.144  1.00  0.00    -0.205 F 
ATOM     89  C   UNL A   1      41.110  25.915  26.718  1.00  0.00     0.022 A 
BRANCH  87  90
ATOM     90  S   UNL A   1      42.875  27.518  25.375  1.00  0.00     0.127 S 
ATOM     91  O   UNL A   1      42.691  26.355  24.512  1.00  0.00    -0.237 OA
ATOM     92  O   UNL A   1      42.181  28.729  24.935  1.00  0.00    -0.237 OA
ATOM     93  O   UNL A   1      44.232  27.745  25.853  1.00  0.00    -0.744 OA
ENDBRANCH  87  90
ENDBRANCH  59  83
BRANCH  71  94
ATOM     94  C   UNL A   1      44.819  27.513  34.947  1.00  0.00     0.023 A 
ATOM     95  C   UNL A   1      46.115  28.064  34.980  1.00  0.00     0.012 A 
ATOM     96  C   UNL A   1      44.605  26.212  35.443  1.00  0.00     0.148 A 
ATOM     97  C   UNL A   1      47.187  27.319  35.472  1.00  0.00     0.002 A 
ATOM     98  C   UNL A   1      45.668  25.496  35.978  1.00  0.00     0.091 A 
ATOM     99  F   UNL A   1      43.367  25.700  35.385  1.00  0.00    -0.205 F 
ATOM    100  C   UNL A   1      46.962  26.043  35.981  1.00  0.00     0.022 A 
BRANCH  98 101
ATOM    101  S   UNL A   1      45.454  23.887  36.747  1.00  0.00     0.127 S 
ATOM    102  O   UNL A   1      46.756  23.267  36.507  1.00  0.00    -0.237 OA
ATOM    103  O   UNL A   1      45.195  24.242  38.143  1.00  0.00    -0.237 OA
ATOM    104  O   UNL A   1      44.329  23.262  36.066  1.00  0.00    -0.744 OA
ENDBRANCH  98 101
ENDBRANCH  71  94
ENDBRANCH  45  46
ENDBRANCH  37  40
ENDBRANCH  35  36
ENDBRANCH  34  35
ENDBRANCH  33  34
ENDBRANCH  32  33
ENDBRANCH  30  32
ENDBRANCH   1  28
TORSDOF 24
ENDMDL
MODEL 2
REMARK VINA RESULT:     -10.1      5.165      8.738
REMARK SMILES CCCCCCCNC(=O)Oc1cccc(-c2ccc([C@@H](C)C(=O)NCCCCNC(=O)c3ccc(-c4c5nc(c(-c6cccc(S(=O)(=O)[O-])c6F)c6ccc([nH]6)c(-c6cccc(S(=O)(=O)[O-])c6F)c6nc(c(-c7cccc(S(=O)(=O)[O-])c7F)c7ccc4[nH]7)C=C6)C=C5)cc3)cc2F)c1
REMARK SMILES IDX 21 1 22 2 20 3 17 4 18 5 97 6 19 7 96 8 98 9 16 10 12 11
REMARK SMILES IDX 13 12 99 13 14 14 15 15 11 16 9 17 8 18 10 20 7 21 6 22 5 23
REMARK SMILES IDX 4 24 3 25 2 26 1 27 23 28 24 29 25 30 26 32 27 33 28 34
REMARK SMILES IDX 29 35 30 36 31 37 32 39 33 40 34 41 95 42 35 43 94 44 36 45
REMARK SMILES IDX 37 46 38 47 88 48 39 49 93 50 87 51 89 52 40 53 92 54 86 55
REMARK SMILES IDX 85 56 41 58 73 59 53 60 72 61 54 62 57 63 71 64 90 65 55 66
REMARK SMILES IDX 56 67 70 69 91 70 58 71 42 72 43 73 51 74 44 75 46 76 52 77
REMARK SMILES IDX 45 78 47 79 48 80 49 81 50 82 74 83 75 84 83 85 76 86 78 87
REMARK SMILES IDX 84 88 77 89 79 90 80 91 81 92 82 93 59 94 60 95 68 96 61 97
REMARK SMILES IDX 63 98 69 99 62 100 64 101 65 102 66 103 67 104
REMARK H PARENT 8 19 25 31 30 38 89 57 57 68
REMARK Flexibility Score: inf
ROOT
ATOM      1  C   UNL A   1      36.313  31.137  29.343  1.00  0.00     0.105 C 
ATOM      2  C   UNL A   1      35.743  31.333  30.747  1.00  0.00     0.023 C 
ENDROOT
BRANCH   1   3
ATOM      3  C   UNL A   1      37.410  30.094  29.214  1.00  0.00    -0.033 A 
ATOM      4  C   UNL A   1      39.301  27.961  28.926  1.00  0.00     0.018 A 
ATOM      5  C   UNL A   1      39.167  28.968  27.957  1.00  0.00     0.012 A 
ATOM      6  C   UNL A   1      38.495  28.086  30.068  1.00  0.00     0.131 A 
ATOM      7  C   UNL A   1      38.276  30.035  28.120  1.00  0.00     0.005 A 
ATOM      8  C   UNL A   1      37.553  29.110  30.203  1.00  0.00     0.044 A 
ATOM      9  F   UNL A   1      38.607  27.214  31.083  1.00  0.00    -0.206 F 
BRANCH   4  10
ATOM     10  C   UNL A   1      40.235  26.831  28.714  1.00  0.00    -0.012 A 
ATOM     11  C   UNL A   1      40.822  24.718  27.663  1.00  0.00     0.133 A 
ATOM     12  C   UNL A   1      42.071  24.714  28.273  1.00  0.00     0.047 A 
ATOM     13  C   UNL A   1      39.909  25.753  27.875  1.00  0.00     0.056 A 
ATOM     14  C   UNL A   1      42.417  25.771  29.104  1.00  0.00     0.004 A 
ATOM     15  C   UNL A   1      41.506  26.809  29.328  1.00  0.00     0.009 A 
BRANCH  11  16
ATOM     16  O   UNL A   1      40.469  23.571  26.938  1.00  0.00    -0.410 OA
BRANCH  16  17
ATOM     17  C   UNL A   1      41.091  22.375  27.259  1.00  0.00     0.412 C 
ATOM     18  N   UNL A   1      42.153  22.100  26.443  1.00  0.00    -0.321 N 
ATOM     19  H   UNL A   1      42.626  21.251  26.602  1.00  0.00     0.167 HD
ATOM     20  O   UNL A   1      40.760  21.606  28.152  1.00  0.00    -0.224 OA
BRANCH  18  21
ATOM     21  C   UNL A   1      42.653  22.936  25.371  1.00  0.00     0.119 C 
BRANCH  21  22
ATOM     22  C   UNL A   1      43.949  22.387  24.775  1.00  0.00     0.021 C 
BRANCH  22  23
ATOM     23  C   UNL A   1      45.197  23.219  25.088  1.00  0.00     0.002 C 
BRANCH  23  24
ATOM     24  C   UNL A   1      45.216  23.867  26.477  1.00  0.00     0.000 C 
BRANCH  24  25
ATOM     25  C   UNL A   1      45.363  25.393  26.480  1.00  0.00    -0.000 C 
BRANCH  25  26
ATOM     26  C   UNL A   1      44.261  26.153  25.738  1.00  0.00    -0.003 C 
ATOM     27  C   UNL A   1      43.859  27.451  26.423  1.00  0.00     0.004 C 
ENDBRANCH  25  26
ENDBRANCH  24  25
ENDBRANCH  23  24
ENDBRANCH  22  23
ENDBRANCH  21  22
ENDBRANCH  18  21
ENDBRANCH  16  17
ENDBRANCH  11  16
ENDBRANCH   4  10
ENDBRANCH   1   3
BRANCH   1  28
ATOM     28  C   UNL A   1      36.615  32.450  28.602  1.00  0.00     0.227 C 
ATOM     29  O   UNL A   1      35.906  32.786  27.646  1.00  0.00    -0.274 OA
ATOM     30  N   UNL A   1      37.621  33.299  28.944  1.00  0.00    -0.356 N 
ATOM     31  H   UNL A   1      37.648  34.127  28.411  1.00  0.00     0.163 HD
BRANCH  30  32
ATOM     32  C   UNL A   1      38.660  33.210  29.948  1.00  0.00     0.116 C 
BRANCH  32  33
ATOM     33  C   UNL A   1      38.651  34.410  30.896  1.00  0.00     0.023 C 
BRANCH  33  34
ATOM     34  C   UNL A   1      37.700  34.283  32.085  1.00  0.00     0.023 C 
BRANCH  34  35
ATOM     35  C   UNL A   1      38.320  34.583  33.444  1.00  0.00     0.116 C 
BRANCH  35  36
ATOM     36  N   UNL A   1      37.703  33.864  34.552  1.00  0.00    -0.352 N 
ATOM     37  C   UNL A   1      38.000  32.600  35.009  1.00  0.00     0.251 C 
ATOM     38  H   UNL A   1      36.987  34.340  35.032  1.00  0.00     0.163 HD
ATOM     39  O   UNL A   1      37.341  32.087  35.906  1.00  0.00    -0.269 OA
BRANCH  37  40
ATOM     40  C   UNL A   1      39.103  31.857  34.365  1.00  0.00     0.039 A 
ATOM     41  C   UNL A   1      38.821  31.030  33.275  1.00  0.00     0.014 A 
ATOM     42  C   UNL A   1      40.421  32.056  34.784  1.00  0.00     0.014 A 
ATOM     43  C   UNL A   1      39.874  30.463  32.555  1.00  0.00     0.010 A 
ATOM     44  C   UNL A   1      41.467  31.564  34.011  1.00  0.00     0.010 A 
ATOM     45  C   UNL A   1      41.206  30.760  32.891  1.00  0.00    -0.014 A 
BRANCH  45  46
ATOM     46  C   UNL A   1      42.343  30.252  32.081  1.00  0.00     0.031 A 
ATOM     47  C   UNL A   1      42.847  31.050  30.909  1.00  0.00     0.074 A 
ATOM     48  C   UNL A   1      42.855  29.032  32.339  1.00  0.00     0.049 A 
ATOM     49  N   UNL A   1      43.781  30.747  30.047  1.00  0.00    -0.248 NA
ATOM     50  C   UNL A   1      42.192  32.345  30.652  1.00  0.00     0.031 C 
ATOM     51  C   UNL A   1      42.390  28.121  33.387  1.00  0.00     0.029 A 
ATOM     52  N   UNL A   1      43.861  28.334  31.717  1.00  0.00    -0.354 N 
ATOM     53  C   UNL A   1      43.798  31.787  29.124  1.00  0.00     0.074 A 
ATOM     54  C   UNL A   1      42.754  32.710  29.509  1.00  0.00     0.031 C 
ATOM     55  C   UNL A   1      43.113  26.990  33.342  1.00  0.00     0.029 A 
ATOM     56  C   UNL A   1      44.071  27.081  32.245  1.00  0.00     0.049 A 
ATOM     57  H   UNL A   1      44.382  28.696  30.965  1.00  0.00     0.167 HD
ATOM     58  C   UNL A   1      44.629  31.974  28.073  1.00  0.00     0.034 A 
ATOM     59  C   UNL A   1      44.934  26.111  31.882  1.00  0.00     0.034 A 
ATOM     60  C   UNL A   1      45.698  31.080  27.725  1.00  0.00     0.049 A 
ATOM     61  C   UNL A   1      45.884  26.369  30.742  1.00  0.00     0.074 A 
ATOM     62  C   UNL A   1      46.659  31.230  26.741  1.00  0.00     0.029 A 
ATOM     63  N   UNL A   1      45.945  29.865  28.344  1.00  0.00    -0.354 N 
ATOM     64  N   UNL A   1      45.997  27.435  29.988  1.00  0.00    -0.248 NA
ATOM     65  C   UNL A   1      46.848  25.306  30.426  1.00  0.00     0.031 C 
ATOM     66  C   UNL A   1      47.471  30.092  26.748  1.00  0.00     0.029 A 
ATOM     67  C   UNL A   1      47.035  29.248  27.757  1.00  0.00     0.049 A 
ATOM     68  H   UNL A   1      45.421  29.495  29.091  1.00  0.00     0.167 HD
ATOM     69  C   UNL A   1      47.067  27.187  29.135  1.00  0.00     0.074 A 
ATOM     70  C   UNL A   1      47.580  25.878  29.480  1.00  0.00     0.031 C 
ATOM     71  C   UNL A   1      47.569  27.968  28.146  1.00  0.00     0.034 A 
BRANCH  58  72
ATOM     72  C   UNL A   1      44.448  33.227  27.254  1.00  0.00     0.023 A 
ATOM     73  C   UNL A   1      43.779  33.158  26.014  1.00  0.00     0.012 A 
ATOM     74  C   UNL A   1      44.889  34.476  27.731  1.00  0.00     0.148 A 
ATOM     75  C   UNL A   1      43.587  34.304  25.244  1.00  0.00     0.002 A 
ATOM     76  C   UNL A   1      44.653  35.622  26.980  1.00  0.00     0.091 A 
ATOM     77  F   UNL A   1      45.543  34.520  28.901  1.00  0.00    -0.205 F 
ATOM     78  C   UNL A   1      44.014  35.536  25.732  1.00  0.00     0.022 A 
BRANCH  76  79
ATOM     79  S   UNL A   1      45.090  37.265  27.556  1.00  0.00     0.127 S 
ATOM     80  O   UNL A   1      44.513  38.107  26.508  1.00  0.00    -0.237 OA
ATOM     81  O   UNL A   1      44.396  37.334  28.843  1.00  0.00    -0.237 OA
ATOM     82  O   UNL A   1      46.542  37.287  27.646  1.00  0.00    -0.744 OA
ENDBRANCH  76  79
ENDBRANCH  58  72
BRANCH  59  83
ATOM     83  C   UNL A   1      44.989  24.835  32.648  1.00  0.00     0.023 A 
ATOM     84  C   UNL A   1      44.119  23.781  32.302  1.00  0.00     0.012 A 
ATOM     85  C   UNL A   1      45.906  24.647  33.700  1.00  0.00     0.148 A 
ATOM     86  C   UNL A   1      44.140  22.578  33.009  1.00  0.00     0.002 A 
ATOM     87  C   UNL A   1      45.960  23.428  34.364  1.00  0.00     0.091 A 
ATOM     88  F   UNL A   1      46.718  25.665  34.022  1.00  0.00    -0.205 F 
ATOM     89  C   UNL A   1      45.066  22.398  34.032  1.00  0.00     0.022 A 
BRANCH  87  90
ATOM     90  S   UNL A   1      47.202  23.060  35.608  1.00  0.00     0.127 S 
ATOM     91  O   UNL A   1      46.703  21.808  36.169  1.00  0.00    -0.237 OA
ATOM     92  O   UNL A   1      48.413  22.933  34.797  1.00  0.00    -0.237 OA
ATOM     93  O   UNL A   1      47.202  24.203  36.512  1.00  0.00    -0.744 OA
ENDBRANCH  87  90
ENDBRANCH  59  83
BRANCH  71  94
ATOM     94  C   UNL A   1      48.763  27.452  27.385  1.00  0.00     0.023 A 
ATOM     95  C   UNL A   1      48.576  26.760  26.172  1.00  0.00     0.012 A 
ATOM     96  C   UNL A   1      50.070  27.724  27.834  1.00  0.00     0.148 A 
ATOM     97  C   UNL A   1      49.674  26.319  25.433  1.00  0.00     0.002 A 
ATOM     98  C   UNL A   1      51.158  27.327  27.067  1.00  0.00     0.091 A 
ATOM     99  F   UNL A   1      50.225  28.368  28.999  1.00  0.00    -0.205 F 
ATOM    100  C   UNL A   1      50.962  26.613  25.874  1.00  0.00     0.022 A 
BRANCH  98 101
ATOM    101  S   UNL A   1      52.848  27.749  27.504  1.00  0.00     0.127 S 
ATOM    102  O   UNL A   1      53.610  26.784  26.713  1.00  0.00    -0.237 OA
ATOM    103  O   UNL A   1      52.951  29.134  27.043  1.00  0.00    -0.237 OA
ATOM    104  O   UNL A   1      52.943  27.586  28.948  1.00  0.00    -0.744 OA
ENDBRANCH  98 101
ENDBRANCH  71  94
ENDBRANCH  45  46
ENDBRANCH  37  40
ENDBRANCH  35  36
ENDBRANCH  34  35
ENDBRANCH  33  34
ENDBRANCH  32  33
ENDBRANCH  30  32
ENDBRANCH   1  28
TORSDOF 24
ENDMDL
MODEL 3
REMARK VINA RESULT:      -9.9      0.857      7.218
REMARK SMILES CCCCCCCNC(=O)Oc1cccc(-c2ccc([C@@H](C)C(=O)NCCCCNC(=O)c3ccc(-c4c5nc(c(-c6cccc(S(=O)(=O)[O-])c6F)c6ccc([nH]6)c(-c6cccc(S(=O)(=O)[O-])c6F)c6nc(c(-c7cccc(S(=O)(=O)[O-])c7F)c7ccc4[nH]7)C=C6)C=C5)cc3)cc2F)c1
REMARK SMILES IDX 21 1 22 2 20 3 17 4 18 5 97 6 19 7 96 8 98 9 16 10 12 11
REMARK SMILES IDX 13 12 99 13 14 14 15 15 11 16 9 17 8 18 10 20 7 21 6 22 5 23
REMARK SMILES IDX 4 24 3 25 2 26 1 27 23 28 24 29 25 30 26 32 27 33 28 34
REMARK SMILES IDX 29 35 30 36 31 37 32 39 33 40 34 41 95 42 35 43 94 44 36 45
REMARK SMILES IDX 37 46 38 47 88 48 39 49 93 50 87 51 89 52 40 53 92 54 86 55
REMARK SMILES IDX 85 56 41 58 73 59 53 60 72 61 54 62 57 63 71 64 90 65 55 66
REMARK SMILES IDX 56 67 70 69 91 70 58 71 42 72 43 73 51 74 44 75 46 76 52 77
REMARK SMILES IDX 45 78 47 79 48 80 49 81 50 82 74 83 75 84 83 85 76 86 78 87
REMARK SMILES IDX 84 88 77 89 79 90 80 91 81 92 82 93 59 94 60 95 68 96 61 97
REMARK SMILES IDX 63 98 69 99 62 100 64 101 65 102 66 103 67 104
REMARK H PARENT 8 19 25 31 30 38 89 57 57 68
REMARK Flexibility Score: inf
ROOT
ATOM      1  C   UNL A   1      31.659  28.026  26.057  1.00  0.00     0.105 C 
ATOM      2  C   UNL A   1      31.598  28.287  27.562  1.00  0.00     0.023 C 
ENDROOT
BRANCH   1   3
ATOM      3  C   UNL A   1      31.890  26.581  25.646  1.00  0.00    -0.033 A 
ATOM      4  C   UNL A   1      32.130  23.880  24.723  1.00  0.00     0.018 A 
ATOM      5  C   UNL A   1      33.038  24.879  24.336  1.00  0.00     0.012 A 
ATOM      6  C   UNL A   1      31.130  24.266  25.628  1.00  0.00     0.131 A 
ATOM      7  C   UNL A   1      32.948  26.187  24.823  1.00  0.00     0.005 A 
ATOM      8  C   UNL A   1      30.993  25.588  26.063  1.00  0.00     0.044 A 
ATOM      9  F   UNL A   1      30.263  23.364  26.115  1.00  0.00    -0.206 F 
BRANCH   4  10
ATOM     10  C   UNL A   1      32.238  22.509  24.170  1.00  0.00    -0.012 A 
ATOM     11  C   UNL A   1      32.653  20.128  24.439  1.00  0.00     0.133 A 
ATOM     12  C   UNL A   1      32.371  19.886  23.100  1.00  0.00     0.047 A 
ATOM     13  C   UNL A   1      32.594  21.416  24.976  1.00  0.00     0.056 A 
ATOM     14  C   UNL A   1      32.012  20.951  22.284  1.00  0.00     0.004 A 
ATOM     15  C   UNL A   1      31.957  22.246  22.812  1.00  0.00     0.009 A 
BRANCH  11  16
ATOM     16  O   UNL A   1      33.133  19.046  25.190  1.00  0.00    -0.410 OA
BRANCH  16  17
ATOM     17  C   UNL A   1      33.857  18.064  24.535  1.00  0.00     0.412 C 
ATOM     18  N   UNL A   1      35.204  18.299  24.559  1.00  0.00    -0.321 N 
ATOM     19  H   UNL A   1      35.776  17.651  24.088  1.00  0.00     0.167 HD
ATOM     20  O   UNL A   1      33.395  17.081  23.970  1.00  0.00    -0.224 OA
BRANCH  18  21
ATOM     21  C   UNL A   1      35.871  19.408  25.208  1.00  0.00     0.119 C 
BRANCH  21  22
ATOM     22  C   UNL A   1      37.239  19.694  24.590  1.00  0.00     0.021 C 
BRANCH  22  23
ATOM     23  C   UNL A   1      37.890  21.001  25.057  1.00  0.00     0.002 C 
BRANCH  23  24
ATOM     24  C   UNL A   1      36.981  21.924  25.876  1.00  0.00     0.000 C 
BRANCH  24  25
ATOM     25  C   UNL A   1      36.861  23.357  25.345  1.00  0.00    -0.000 C 
BRANCH  25  26
ATOM     26  C   UNL A   1      35.918  23.532  24.152  1.00  0.00    -0.003 C 
ATOM     27  C   UNL A   1      36.476  22.964  22.856  1.00  0.00     0.004 C 
ENDBRANCH  25  26
ENDBRANCH  24  25
ENDBRANCH  23  24
ENDBRANCH  22  23
ENDBRANCH  21  22
ENDBRANCH  18  21
ENDBRANCH  16  17
ENDBRANCH  11  16
ENDBRANCH   4  10
ENDBRANCH   1   3
BRANCH   1  28
ATOM     28  C   UNL A   1      32.518  29.037  25.282  1.00  0.00     0.227 C 
ATOM     29  O   UNL A   1      32.227  29.310  24.110  1.00  0.00    -0.274 OA
ATOM     30  N   UNL A   1      33.592  29.683  25.810  1.00  0.00    -0.356 N 
ATOM     31  H   UNL A   1      34.002  30.344  25.206  1.00  0.00     0.163 HD
BRANCH  30  32
ATOM     32  C   UNL A   1      34.243  29.577  27.099  1.00  0.00     0.116 C 
BRANCH  32  33
ATOM     33  C   UNL A   1      34.785  30.923  27.583  1.00  0.00     0.023 C 
BRANCH  33  34
ATOM     34  C   UNL A   1      33.749  32.041  27.667  1.00  0.00     0.023 C 
BRANCH  34  35
ATOM     35  C   UNL A   1      34.309  33.419  27.998  1.00  0.00     0.116 C 
BRANCH  35  36
ATOM     36  N   UNL A   1      33.423  34.243  28.810  1.00  0.00    -0.352 N 
ATOM     37  C   UNL A   1      33.530  34.529  30.152  1.00  0.00     0.251 C 
ATOM     38  H   UNL A   1      32.654  34.644  28.342  1.00  0.00     0.163 HD
ATOM     39  O   UNL A   1      32.662  35.177  30.727  1.00  0.00    -0.269 OA
BRANCH  37  40
ATOM     40  C   UNL A   1      34.692  34.001  30.897  1.00  0.00     0.039 A 
ATOM     41  C   UNL A   1      34.582  32.769  31.545  1.00  0.00     0.014 A 
ATOM     42  C   UNL A   1      35.911  34.684  30.869  1.00  0.00     0.014 A 
ATOM     43  C   UNL A   1      35.721  32.184  32.101  1.00  0.00     0.010 A 
ATOM     44  C   UNL A   1      37.058  34.057  31.343  1.00  0.00     0.010 A 
ATOM     45  C   UNL A   1      36.976  32.803  31.967  1.00  0.00    -0.014 A 
BRANCH  45  46
ATOM     46  C   UNL A   1      38.218  32.155  32.460  1.00  0.00     0.031 A 
ATOM     47  C   UNL A   1      38.861  31.054  31.660  1.00  0.00     0.074 A 
ATOM     48  C   UNL A   1      38.711  32.486  33.671  1.00  0.00     0.049 A 
ATOM     49  N   UNL A   1      39.906  30.326  31.951  1.00  0.00    -0.248 NA
ATOM     50  C   UNL A   1      38.226  30.703  30.377  1.00  0.00     0.031 C 
ATOM     51  C   UNL A   1      38.125  33.470  34.584  1.00  0.00     0.029 A 
ATOM     52  N   UNL A   1      39.801  32.009  34.355  1.00  0.00    -0.354 N 
ATOM     53  C   UNL A   1      40.029  29.407  30.916  1.00  0.00     0.074 A 
ATOM     54  C   UNL A   1      38.929  29.643  30.008  1.00  0.00     0.031 C 
ATOM     55  C   UNL A   1      38.865  33.529  35.703  1.00  0.00     0.029 A 
ATOM     56  C   UNL A   1      39.959  32.568  35.602  1.00  0.00     0.049 A 
ATOM     57  H   UNL A   1      40.412  31.330  33.988  1.00  0.00     0.167 HD
ATOM     58  C   UNL A   1      40.989  28.473  30.719  1.00  0.00     0.034 A 
ATOM     59  C   UNL A   1      40.878  32.330  36.558  1.00  0.00     0.034 A 
ATOM     60  C   UNL A   1      42.109  28.277  31.598  1.00  0.00     0.049 A 
ATOM     61  C   UNL A   1      41.966  31.324  36.291  1.00  0.00     0.074 A 
ATOM     62  C   UNL A   1      43.189  27.428  31.436  1.00  0.00     0.029 A 
ATOM     63  N   UNL A   1      42.290  28.931  32.806  1.00  0.00    -0.354 N 
ATOM     64  N   UNL A   1      42.162  30.585  35.226  1.00  0.00    -0.248 NA
ATOM     65  C   UNL A   1      42.981  31.147  37.339  1.00  0.00     0.031 C 
ATOM     66  C   UNL A   1      44.012  27.551  32.561  1.00  0.00     0.029 A 
ATOM     67  C   UNL A   1      43.459  28.499  33.407  1.00  0.00     0.049 A 
ATOM     68  H   UNL A   1      41.678  29.605  33.181  1.00  0.00     0.167 HD
ATOM     69  C   UNL A   1      43.339  29.883  35.460  1.00  0.00     0.074 A 
ATOM     70  C   UNL A   1      43.823  30.302  36.759  1.00  0.00     0.031 C 
ATOM     71  C   UNL A   1      43.956  28.964  34.677  1.00  0.00     0.034 A 
BRANCH  58  72
ATOM     72  C   UNL A   1      40.899  27.629  29.474  1.00  0.00     0.023 A 
ATOM     73  C   UNL A   1      39.968  26.571  29.415  1.00  0.00     0.012 A 
ATOM     74  C   UNL A   1      41.693  27.912  28.347  1.00  0.00     0.148 A 
ATOM     75  C   UNL A   1      39.856  25.784  28.271  1.00  0.00     0.002 A 
ATOM     76  C   UNL A   1      41.543  27.153  27.191  1.00  0.00     0.091 A 
ATOM     77  F   UNL A   1      42.589  28.906  28.427  1.00  0.00    -0.205 F 
ATOM     78  C   UNL A   1      40.635  26.082  27.157  1.00  0.00     0.022 A 
BRANCH  76  79
ATOM     79  S   UNL A   1      42.439  27.506  25.676  1.00  0.00     0.127 S 
ATOM     80  O   UNL A   1      43.827  27.408  26.126  1.00  0.00    -0.237 OA
ATOM     81  O   UNL A   1      42.004  26.417  24.801  1.00  0.00    -0.237 OA
ATOM     82  O   UNL A   1      42.012  28.833  25.256  1.00  0.00    -0.744 OA
ENDBRANCH  76  79
ENDBRANCH  58  72
BRANCH  59  83
ATOM     83  C   UNL A   1      40.850  33.106  37.830  1.00  0.00     0.023 A 
ATOM     84  C   UNL A   1      40.082  32.633  38.913  1.00  0.00     0.012 A 
ATOM     85  C   UNL A   1      41.593  34.292  37.984  1.00  0.00     0.148 A 
ATOM     86  C   UNL A   1      40.028  33.344  40.113  1.00  0.00     0.002 A 
ATOM     87  C   UNL A   1      41.579  34.966  39.199  1.00  0.00     0.091 A 
ATOM     88  F   UNL A   1      42.309  34.731  36.939  1.00  0.00    -0.205 F 
ATOM     89  C   UNL A   1      40.783  34.503  40.259  1.00  0.00     0.022 A 
BRANCH  87  90
ATOM     90  S   UNL A   1      42.617  36.396  39.522  1.00  0.00     0.127 S 
ATOM     91  O   UNL A   1      43.956  35.827  39.402  1.00  0.00    -0.237 OA
ATOM     92  O   UNL A   1      42.231  37.299  38.437  1.00  0.00    -0.237 OA
ATOM     93  O   UNL A   1      42.241  36.860  40.851  1.00  0.00    -0.744 OA
ENDBRANCH  87  90
ENDBRANCH  59  83
BRANCH  71  94
ATOM     94  C   UNL A   1      45.248  28.372  35.176  1.00  0.00     0.023 A 
ATOM     95  C   UNL A   1      46.465  29.041  34.939  1.00  0.00     0.012 A 
ATOM     96  C   UNL A   1      45.244  27.194  35.949  1.00  0.00     0.148 A 
ATOM     97  C   UNL A   1      47.663  28.528  35.438  1.00  0.00     0.002 A 
ATOM     98  C   UNL A   1      46.434  26.717  36.484  1.00  0.00     0.091 A 
ATOM     99  F   UNL A   1      44.078  26.563  36.147  1.00  0.00    -0.205 F 
ATOM    100  C   UNL A   1      47.645  27.376  36.219  1.00  0.00     0.022 A 
BRANCH  98 101
ATOM    101  S   UNL A   1      46.494  25.298  37.584  1.00  0.00     0.127 S 
ATOM    102  O   UNL A   1      45.769  25.795  38.751  1.00  0.00    -0.237 OA
ATOM    103  O   UNL A   1      45.782  24.277  36.812  1.00  0.00    -0.237 OA
ATOM    104  O   UNL A   1      47.906  25.015  37.798  1.00  0.00    -0.744 OA
ENDBRANCH  98 101
ENDBRANCH  71  94
ENDBRANCH  45  46
ENDBRANCH  37  40
ENDBRANCH  35  36
ENDBRANCH  34  35
ENDBRANCH  33  34
ENDBRANCH  32  33
ENDBRANCH  30  32
ENDBRANCH   1  28
TORSDOF 24
ENDMDL
