MODEL 1
REMARK VINA RESULT:     -12.2      0.000      0.000
REMARK SMILES O=C(NCCCCNC(=O)[C@@H]1CCCC[C@@H]1C(=O)Nc1nc(-c2ccc(Cl)c(Cl)c2)cs1)c1ccc(-c2c3nc(c(-c4cccc(S(=O)(=O)[O-])c4F)c4ccc([nH]4)c(-c4cccc(S(=O)(=O)[O-])c4F)c4nc(c(-c5cccc(S(=O)(=O)[O-])c5F)c5ccc2[nH]5)C=C4)C=C3)cc1
REMARK SMILES IDX 5 1 4 2 3 3 1 4 2 5 33 7 34 8 95 9 35 10 94 11 36 12 37 13
REMARK SMILES IDX 38 14 88 15 39 16 93 17 87 18 89 19 40 20 92 21 86 22 85 23
REMARK SMILES IDX 41 25 73 26 53 27 72 28 54 29 57 30 71 31 90 32 55 33 56 34
REMARK SMILES IDX 70 36 91 37 58 38 42 39 43 40 51 41 44 42 46 43 52 44 45 45
REMARK SMILES IDX 47 46 48 47 49 48 50 49 74 50 75 51 83 52 76 53 78 54 84 55
REMARK SMILES IDX 77 56 79 57 80 58 81 59 82 60 59 61 60 62 68 63 61 64 63 65
REMARK SMILES IDX 69 66 62 67 64 68 65 69 66 70 67 71 6 72 7 73 8 74 9 75
REMARK SMILES IDX 10 77 11 78 12 79 16 80 13 81 15 82 14 83 17 84 18 85 19 86
REMARK SMILES IDX 20 88 21 89 32 90 22 91 31 92 23 93 24 94 30 95 25 96 28 97
REMARK SMILES IDX 26 98 29 99 27 100
REMARK H PARENT 3 6 89 24 57 35 8 76 19 87
REMARK Flexibility Score: inf
ROOT
ATOM      1  C   UNL A   1      35.763  22.739  25.491  1.00  0.00     0.023 C 
ENDROOT
BRANCH   1   2
ATOM      2  C   UNL A   1      37.165  23.335  25.466  1.00  0.00     0.116 C 
BRANCH   2   3
ATOM      3  N   UNL A   1      38.183  22.396  25.910  1.00  0.00    -0.352 N 
ATOM      4  O   UNL A   1      40.197  21.740  26.670  1.00  0.00    -0.269 OA
ATOM      5  C   UNL A   1      39.388  22.652  26.518  1.00  0.00     0.251 C 
ATOM      6  H   UNL A   1      37.979  21.445  25.752  1.00  0.00     0.163 HD
BRANCH   5   7
ATOM      7  C   UNL A   1      39.714  24.026  26.956  1.00  0.00     0.039 A 
ATOM      8  C   UNL A   1      40.126  24.990  26.032  1.00  0.00     0.014 A 
ATOM      9  C   UNL A   1      39.612  24.353  28.310  1.00  0.00     0.014 A 
ATOM     10  C   UNL A   1      40.564  26.234  26.473  1.00  0.00     0.010 A 
ATOM     11  C   UNL A   1      39.984  25.628  28.744  1.00  0.00     0.010 A 
ATOM     12  C   UNL A   1      40.497  26.568  27.833  1.00  0.00    -0.014 A 
BRANCH  12  13
ATOM     13  C   UNL A   1      40.920  27.917  28.286  1.00  0.00     0.031 A 
ATOM     14  C   UNL A   1      42.370  28.315  28.282  1.00  0.00     0.074 A 
ATOM     15  C   UNL A   1      39.982  28.782  28.718  1.00  0.00     0.049 A 
ATOM     16  N   UNL A   1      42.913  29.445  28.658  1.00  0.00    -0.248 NA
ATOM     17  C   UNL A   1      43.339  27.318  27.798  1.00  0.00     0.031 C 
ATOM     18  C   UNL A   1      38.548  28.495  28.801  1.00  0.00     0.029 A 
ATOM     19  N   UNL A   1      40.092  30.068  29.179  1.00  0.00    -0.354 N 
ATOM     20  C   UNL A   1      44.284  29.283  28.499  1.00  0.00     0.074 A 
ATOM     21  C   UNL A   1      44.493  27.942  27.994  1.00  0.00     0.031 C 
ATOM     22  C   UNL A   1      37.911  29.575  29.276  1.00  0.00     0.029 A 
ATOM     23  C   UNL A   1      38.893  30.612  29.573  1.00  0.00     0.049 A 
ATOM     24  H   UNL A   1      40.947  30.555  29.225  1.00  0.00     0.167 HD
ATOM     25  C   UNL A   1      45.276  30.175  28.737  1.00  0.00     0.034 A 
ATOM     26  C   UNL A   1      38.612  31.806  30.129  1.00  0.00     0.034 A 
ATOM     27  C   UNL A   1      45.060  31.520  29.200  1.00  0.00     0.049 A 
ATOM     28  C   UNL A   1      39.729  32.783  30.363  1.00  0.00     0.074 A 
ATOM     29  C   UNL A   1      45.996  32.519  29.409  1.00  0.00     0.029 A 
ATOM     30  N   UNL A   1      43.826  32.054  29.535  1.00  0.00    -0.354 N 
ATOM     31  N   UNL A   1      41.004  32.656  30.084  1.00  0.00    -0.248 NA
ATOM     32  C   UNL A   1      39.368  34.076  30.958  1.00  0.00     0.031 C 
ATOM     33  C   UNL A   1      45.327  33.653  29.882  1.00  0.00     0.029 A 
ATOM     34  C   UNL A   1      43.974  33.365  29.955  1.00  0.00     0.049 A 
ATOM     35  H   UNL A   1      42.969  31.572  29.482  1.00  0.00     0.167 HD
ATOM     36  C   UNL A   1      41.594  33.859  30.448  1.00  0.00     0.074 A 
ATOM     37  C   UNL A   1      40.532  34.711  30.943  1.00  0.00     0.031 C 
ATOM     38  C   UNL A   1      42.900  34.220  30.395  1.00  0.00     0.034 A 
BRANCH  25  39
ATOM     39  C   UNL A   1      46.691  29.742  28.454  1.00  0.00     0.023 A 
ATOM     40  C   UNL A   1      47.265  30.025  27.198  1.00  0.00     0.012 A 
ATOM     41  C   UNL A   1      47.472  29.116  29.445  1.00  0.00     0.148 A 
ATOM     42  C   UNL A   1      48.585  29.668  26.923  1.00  0.00     0.002 A 
ATOM     43  C   UNL A   1      48.799  28.796  29.176  1.00  0.00     0.091 A 
ATOM     44  F   UNL A   1      46.904  28.832  30.625  1.00  0.00    -0.205 F 
ATOM     45  C   UNL A   1      49.354  29.064  27.914  1.00  0.00     0.022 A 
BRANCH  43  46
ATOM     46  S   UNL A   1      49.887  28.080  30.414  1.00  0.00     0.127 S 
ATOM     47  O   UNL A   1      49.246  26.789  30.658  1.00  0.00    -0.237 OA
ATOM     48  O   UNL A   1      51.163  28.001  29.703  1.00  0.00    -0.237 OA
ATOM     49  O   UNL A   1      49.878  29.011  31.534  1.00  0.00    -0.744 OA
ENDBRANCH  43  46
ENDBRANCH  25  39
BRANCH  26  50
ATOM     50  C   UNL A   1      37.200  32.152  30.451  1.00  0.00     0.023 A 
ATOM     51  C   UNL A   1      36.719  31.944  31.757  1.00  0.00     0.012 A 
ATOM     52  C   UNL A   1      36.356  32.745  29.492  1.00  0.00     0.148 A 
ATOM     53  C   UNL A   1      35.415  32.306  32.099  1.00  0.00     0.002 A 
ATOM     54  C   UNL A   1      35.078  33.154  29.854  1.00  0.00     0.091 A 
ATOM     55  F   UNL A   1      36.828  32.918  28.249  1.00  0.00    -0.205 F 
ATOM     56  C   UNL A   1      34.600  32.923  31.152  1.00  0.00     0.022 A 
BRANCH  54  57
ATOM     57  S   UNL A   1      34.019  34.082  28.738  1.00  0.00     0.127 S 
ATOM     58  O   UNL A   1      33.663  33.066  27.751  1.00  0.00    -0.237 OA
ATOM     59  O   UNL A   1      32.926  34.490  29.623  1.00  0.00    -0.237 OA
ATOM     60  O   UNL A   1      34.837  35.185  28.252  1.00  0.00    -0.744 OA
ENDBRANCH  54  57
ENDBRANCH  26  50
BRANCH  38  61
ATOM     61  C   UNL A   1      43.258  35.604  30.865  1.00  0.00     0.023 A 
ATOM     62  C   UNL A   1      43.554  35.821  32.224  1.00  0.00     0.012 A 
ATOM     63  C   UNL A   1      43.370  36.670  29.951  1.00  0.00     0.148 A 
ATOM     64  C   UNL A   1      43.933  37.086  32.672  1.00  0.00     0.002 A 
ATOM     65  C   UNL A   1      43.789  37.917  30.398  1.00  0.00     0.091 A 
ATOM     66  F   UNL A   1      43.061  36.447  28.665  1.00  0.00    -0.205 F 
ATOM     67  C   UNL A   1      44.062  38.130  31.759  1.00  0.00     0.022 A 
BRANCH  65  68
ATOM     68  S   UNL A   1      44.066  39.292  29.274  1.00  0.00     0.127 S 
ATOM     69  O   UNL A   1      44.462  40.355  30.196  1.00  0.00    -0.237 OA
ATOM     70  O   UNL A   1      45.146  38.790  28.423  1.00  0.00    -0.237 OA
ATOM     71  O   UNL A   1      42.802  39.498  28.581  1.00  0.00    -0.744 OA
ENDBRANCH  65  68
ENDBRANCH  38  61
ENDBRANCH  12  13
ENDBRANCH   5   7
ENDBRANCH   2   3
ENDBRANCH   1   2
BRANCH   1  72
ATOM     72  C   UNL A   1      34.822  23.347  26.531  1.00  0.00     0.023 C 
BRANCH  72  73
ATOM     73  C   UNL A   1      34.132  24.636  26.092  1.00  0.00     0.116 C 
BRANCH  73  74
ATOM     74  N   UNL A   1      32.707  24.603  26.370  1.00  0.00    -0.356 N 
ATOM     75  C   UNL A   1      31.794  25.614  26.431  1.00  0.00     0.223 C 
ATOM     76  H   UNL A   1      32.341  23.704  26.542  1.00  0.00     0.163 HD
ATOM     77  O   UNL A   1      30.661  25.344  26.826  1.00  0.00    -0.275 OA
BRANCH  75  78
ATOM     78  C   UNL A   1      32.240  27.036  26.116  1.00  0.00     0.091 C 
ATOM     79  C   UNL A   1      31.459  27.980  27.037  1.00  0.00     0.014 C 
ATOM     80  C   UNL A   1      32.182  27.436  24.631  1.00  0.00     0.091 C 
ATOM     81  C   UNL A   1      31.919  29.421  26.870  1.00  0.00     0.001 C 
ATOM     82  C   UNL A   1      32.514  28.938  24.458  1.00  0.00     0.014 C 
ATOM     83  C   UNL A   1      31.783  29.872  25.423  1.00  0.00     0.001 C 
BRANCH  80  84
ATOM     84  C   UNL A   1      30.879  27.105  23.904  1.00  0.00     0.230 C 
ATOM     85  O   UNL A   1      29.922  27.888  23.928  1.00  0.00    -0.274 OA
ATOM     86  N   UNL A   1      30.755  25.993  23.128  1.00  0.00    -0.302 N 
ATOM     87  H   UNL A   1      29.970  25.970  22.534  1.00  0.00     0.172 HD
BRANCH  86  88
ATOM     88  C   UNL A   1      31.577  24.907  23.068  1.00  0.00     0.189 A 
ATOM     89  N   UNL A   1      31.547  23.786  23.745  1.00  0.00    -0.220 NA
ATOM     90  S   UNL A   1      32.787  25.041  21.868  1.00  0.00    -0.105 S 
ATOM     91  C   UNL A   1      32.447  22.904  23.181  1.00  0.00     0.084 A 
ATOM     92  C   UNL A   1      33.257  23.424  22.190  1.00  0.00     0.097 A 
BRANCH  91  93
ATOM     93  C   UNL A   1      32.481  21.505  23.547  1.00  0.00     0.003 A 
ATOM     94  C   UNL A   1      32.652  21.154  24.893  1.00  0.00     0.012 A 
ATOM     95  C   UNL A   1      32.315  20.508  22.583  1.00  0.00     0.032 A 
ATOM     96  C   UNL A   1      32.634  19.812  25.275  1.00  0.00     0.023 A 
ATOM     97  C   UNL A   1      32.300  19.163  22.967  1.00  0.00     0.060 A 
ATOM     98  C   UNL A   1      32.456  18.814  24.315  1.00  0.00     0.059 A 
ATOM     99  Cl  UNL A   1      32.072  17.982  21.726  1.00  0.00    -0.083 Cl
ATOM    100  Cl  UNL A   1      32.432  17.174  24.854  1.00  0.00    -0.083 Cl
ENDBRANCH  91  93
ENDBRANCH  86  88
ENDBRANCH  80  84
ENDBRANCH  75  78
ENDBRANCH  73  74
ENDBRANCH  72  73
ENDBRANCH   1  72
TORSDOF 17
ENDMDL
MODEL 2
REMARK VINA RESULT:     -12.2      2.348      2.892
REMARK SMILES O=C(NCCCCNC(=O)[C@@H]1CCCC[C@@H]1C(=O)Nc1nc(-c2ccc(Cl)c(Cl)c2)cs1)c1ccc(-c2c3nc(c(-c4cccc(S(=O)(=O)[O-])c4F)c4ccc([nH]4)c(-c4cccc(S(=O)(=O)[O-])c4F)c4nc(c(-c5cccc(S(=O)(=O)[O-])c5F)c5ccc2[nH]5)C=C4)C=C3)cc1
REMARK SMILES IDX 5 1 4 2 3 3 1 4 2 5 33 7 34 8 95 9 35 10 94 11 36 12 37 13
REMARK SMILES IDX 38 14 88 15 39 16 93 17 87 18 89 19 40 20 92 21 86 22 85 23
REMARK SMILES IDX 41 25 73 26 53 27 72 28 54 29 57 30 71 31 90 32 55 33 56 34
REMARK SMILES IDX 70 36 91 37 58 38 42 39 43 40 51 41 44 42 46 43 52 44 45 45
REMARK SMILES IDX 47 46 48 47 49 48 50 49 74 50 75 51 83 52 76 53 78 54 84 55
REMARK SMILES IDX 77 56 79 57 80 58 81 59 82 60 59 61 60 62 68 63 61 64 63 65
REMARK SMILES IDX 69 66 62 67 64 68 65 69 66 70 67 71 6 72 7 73 8 74 9 75
REMARK SMILES IDX 10 77 11 78 12 79 16 80 13 81 15 82 14 83 17 84 18 85 19 86
REMARK SMILES IDX 20 88 21 89 32 90 22 91 31 92 23 93 24 94 30 95 25 96 28 97
REMARK SMILES IDX 26 98 29 99 27 100
REMARK H PARENT 3 6 89 24 57 35 8 76 19 87
REMARK Flexibility Score: inf
ROOT
ATOM      1  C   UNL A   1      35.290  22.041  26.093  1.00  0.00     0.023 C 
ENDROOT
BRANCH   1   2
ATOM      2  C   UNL A   1      36.652  22.341  25.479  1.00  0.00     0.116 C 
BRANCH   2   3
ATOM      3  N   UNL A   1      37.606  21.263  25.674  1.00  0.00    -0.352 N 
ATOM      4  O   UNL A   1      39.623  20.327  26.024  1.00  0.00    -0.269 OA
ATOM      5  C   UNL A   1      38.918  21.331  26.078  1.00  0.00     0.251 C 
ATOM      6  H   UNL A   1      37.265  20.357  25.490  1.00  0.00     0.163 HD
BRANCH   5   7
ATOM      7  C   UNL A   1      39.477  22.619  26.544  1.00  0.00     0.039 A 
ATOM      8  C   UNL A   1      39.016  23.829  26.018  1.00  0.00     0.014 A 
ATOM      9  C   UNL A   1      40.481  22.615  27.515  1.00  0.00     0.014 A 
ATOM     10  C   UNL A   1      39.646  25.020  26.359  1.00  0.00     0.010 A 
ATOM     11  C   UNL A   1      41.065  23.821  27.911  1.00  0.00     0.010 A 
ATOM     12  C   UNL A   1      40.676  25.030  27.310  1.00  0.00    -0.014 A 
BRANCH  12  13
ATOM     13  C   UNL A   1      41.307  26.315  27.704  1.00  0.00     0.031 A 
ATOM     14  C   UNL A   1      42.729  26.627  27.328  1.00  0.00     0.074 A 
ATOM     15  C   UNL A   1      40.588  27.199  28.422  1.00  0.00     0.049 A 
ATOM     16  N   UNL A   1      43.438  27.692  27.604  1.00  0.00    -0.248 NA
ATOM     17  C   UNL A   1      43.454  25.613  26.544  1.00  0.00     0.031 C 
ATOM     18  C   UNL A   1      39.211  26.992  28.876  1.00  0.00     0.029 A 
ATOM     19  N   UNL A   1      40.915  28.440  28.906  1.00  0.00    -0.354 N 
ATOM     20  C   UNL A   1      44.699  27.462  27.069  1.00  0.00     0.074 A 
ATOM     21  C   UNL A   1      44.663  26.152  26.453  1.00  0.00     0.031 C 
ATOM     22  C   UNL A   1      38.809  28.069  29.566  1.00  0.00     0.029 A 
ATOM     23  C   UNL A   1      39.910  29.023  29.641  1.00  0.00     0.049 A 
ATOM     24  H   UNL A   1      41.786  28.871  28.744  1.00  0.00     0.167 HD
ATOM     25  C   UNL A   1      45.784  28.274  27.076  1.00  0.00     0.034 A 
ATOM     26  C   UNL A   1      39.881  30.187  30.317  1.00  0.00     0.034 A 
ATOM     27  C   UNL A   1      45.804  29.592  27.654  1.00  0.00     0.049 A 
ATOM     28  C   UNL A   1      41.091  31.076  30.291  1.00  0.00     0.074 A 
ATOM     29  C   UNL A   1      46.834  30.516  27.656  1.00  0.00     0.029 A 
ATOM     30  N   UNL A   1      44.748  30.171  28.341  1.00  0.00    -0.354 N 
ATOM     31  N   UNL A   1      42.231  30.896  29.670  1.00  0.00    -0.248 NA
ATOM     32  C   UNL A   1      41.002  32.341  31.033  1.00  0.00     0.031 C 
ATOM     33  C   UNL A   1      46.406  31.650  28.354  1.00  0.00     0.029 A 
ATOM     34  C   UNL A   1      45.103  31.437  28.777  1.00  0.00     0.049 A 
ATOM     35  H   UNL A   1      43.874  29.745  28.497  1.00  0.00     0.167 HD
ATOM     36  C   UNL A   1      42.987  32.032  29.926  1.00  0.00     0.074 A 
ATOM     37  C   UNL A   1      42.165  32.906  30.737  1.00  0.00     0.031 C 
ATOM     38  C   UNL A   1      44.255  32.319  29.539  1.00  0.00     0.034 A 
BRANCH  25  39
ATOM     39  C   UNL A   1      47.034  27.781  26.395  1.00  0.00     0.023 A 
ATOM     40  C   UNL A   1      47.996  27.071  27.142  1.00  0.00     0.012 A 
ATOM     41  C   UNL A   1      47.228  27.961  25.012  1.00  0.00     0.148 A 
ATOM     42  C   UNL A   1      49.144  26.571  26.529  1.00  0.00     0.002 A 
ATOM     43  C   UNL A   1      48.358  27.428  24.400  1.00  0.00     0.091 A 
ATOM     44  F   UNL A   1      46.316  28.660  24.322  1.00  0.00    -0.205 F 
ATOM     45  C   UNL A   1      49.320  26.740  25.157  1.00  0.00     0.022 A 
BRANCH  43  46
ATOM     46  S   UNL A   1      48.635  27.536  22.628  1.00  0.00     0.127 S 
ATOM     47  O   UNL A   1      49.919  28.232  22.572  1.00  0.00    -0.237 OA
ATOM     48  O   UNL A   1      48.687  26.128  22.232  1.00  0.00    -0.237 OA
ATOM     49  O   UNL A   1      47.496  28.269  22.094  1.00  0.00    -0.744 OA
ENDBRANCH  43  46
ENDBRANCH  25  39
BRANCH  26  50
ATOM     50  C   UNL A   1      38.637  30.590  31.030  1.00  0.00     0.023 A 
ATOM     51  C   UNL A   1      38.540  30.386  32.419  1.00  0.00     0.012 A 
ATOM     52  C   UNL A   1      37.582  31.233  30.353  1.00  0.00     0.148 A 
ATOM     53  C   UNL A   1      37.406  30.800  33.120  1.00  0.00     0.002 A 
ATOM     54  C   UNL A   1      36.481  31.693  31.065  1.00  0.00     0.091 A 
ATOM     55  F   UNL A   1      37.687  31.402  29.026  1.00  0.00    -0.205 F 
ATOM     56  C   UNL A   1      36.384  31.465  32.446  1.00  0.00     0.022 A 
BRANCH  54  57
ATOM     57  S   UNL A   1      35.192  32.682  30.299  1.00  0.00     0.127 S 
ATOM     58  O   UNL A   1      34.281  32.902  31.419  1.00  0.00    -0.237 OA
ATOM     59  O   UNL A   1      35.933  33.867  29.865  1.00  0.00    -0.237 OA
ATOM     60  O   UNL A   1      34.675  31.868  29.207  1.00  0.00    -0.744 OA
ENDBRANCH  54  57
ENDBRANCH  26  50
BRANCH  38  61
ATOM     61  C   UNL A   1      44.830  33.641  29.969  1.00  0.00     0.023 A 
ATOM     62  C   UNL A   1      45.586  33.717  31.154  1.00  0.00     0.012 A 
ATOM     63  C   UNL A   1      44.683  34.788  29.165  1.00  0.00     0.148 A 
ATOM     64  C   UNL A   1      46.166  34.922  31.547  1.00  0.00     0.002 A 
ATOM     65  C   UNL A   1      45.300  35.975  29.541  1.00  0.00     0.091 A 
ATOM     66  F   UNL A   1      43.939  34.700  28.051  1.00  0.00    -0.205 F 
ATOM     67  C   UNL A   1      46.033  36.047  30.736  1.00  0.00     0.022 A 
BRANCH  65  68
ATOM     68  S   UNL A   1      45.253  37.446  28.509  1.00  0.00     0.127 S 
ATOM     69  O   UNL A   1      45.830  36.953  27.260  1.00  0.00    -0.237 OA
ATOM     70  O   UNL A   1      43.821  37.739  28.445  1.00  0.00    -0.237 OA
ATOM     71  O   UNL A   1      46.040  38.449  29.214  1.00  0.00    -0.744 OA
ENDBRANCH  65  68
ENDBRANCH  38  61
ENDBRANCH  12  13
ENDBRANCH   5   7
ENDBRANCH   2   3
ENDBRANCH   1   2
BRANCH   1  72
ATOM     72  C   UNL A   1      34.669  23.192  26.883  1.00  0.00     0.023 C 
BRANCH  72  73
ATOM     73  C   UNL A   1      33.972  24.249  26.031  1.00  0.00     0.116 C 
BRANCH  73  74
ATOM     74  N   UNL A   1      32.547  24.311  26.314  1.00  0.00    -0.356 N 
ATOM     75  C   UNL A   1      31.720  25.386  26.452  1.00  0.00     0.223 C 
ATOM     76  H   UNL A   1      32.111  23.435  26.422  1.00  0.00     0.163 HD
ATOM     77  O   UNL A   1      30.568  25.180  26.833  1.00  0.00    -0.275 OA
BRANCH  75  78
ATOM     78  C   UNL A   1      32.280  26.786  26.238  1.00  0.00     0.091 C 
ATOM     79  C   UNL A   1      31.558  27.725  27.211  1.00  0.00     0.014 C 
ATOM     80  C   UNL A   1      32.278  27.286  24.783  1.00  0.00     0.091 C 
ATOM     81  C   UNL A   1      32.130  29.134  27.146  1.00  0.00     0.001 C 
ATOM     82  C   UNL A   1      32.728  28.765  24.714  1.00  0.00     0.014 C 
ATOM     83  C   UNL A   1      32.054  29.688  25.731  1.00  0.00     0.001 C 
BRANCH  80  84
ATOM     84  C   UNL A   1      30.966  27.106  24.020  1.00  0.00     0.230 C 
ATOM     85  O   UNL A   1      30.041  27.917  24.147  1.00  0.00    -0.274 OA
ATOM     86  N   UNL A   1      30.801  26.111  23.105  1.00  0.00    -0.302 N 
ATOM     87  H   UNL A   1      30.019  26.199  22.513  1.00  0.00     0.172 HD
BRANCH  86  88
ATOM     88  C   UNL A   1      31.579  25.010  22.902  1.00  0.00     0.189 A 
ATOM     89  N   UNL A   1      31.526  23.825  23.456  1.00  0.00    -0.220 NA
ATOM     90  S   UNL A   1      32.758  25.230  21.683  1.00  0.00    -0.105 S 
ATOM     91  C   UNL A   1      32.376  22.978  22.772  1.00  0.00     0.084 A 
ATOM     92  C   UNL A   1      33.174  23.573  21.816  1.00  0.00     0.097 A 
BRANCH  91  93
ATOM     93  C   UNL A   1      32.367  21.547  22.986  1.00  0.00     0.003 A 
ATOM     94  C   UNL A   1      32.119  20.694  21.903  1.00  0.00     0.012 A 
ATOM     95  C   UNL A   1      32.633  21.012  24.249  1.00  0.00     0.032 A 
ATOM     96  C   UNL A   1      32.159  19.310  22.078  1.00  0.00     0.023 A 
ATOM     97  C   UNL A   1      32.670  19.623  24.424  1.00  0.00     0.060 A 
ATOM     98  C   UNL A   1      32.437  18.772  23.336  1.00  0.00     0.059 A 
ATOM     99  Cl  UNL A   1      33.022  19.027  26.006  1.00  0.00    -0.083 Cl
ATOM    100  Cl  UNL A   1      32.483  17.052  23.482  1.00  0.00    -0.083 Cl
ENDBRANCH  91  93
ENDBRANCH  86  88
ENDBRANCH  80  84
ENDBRANCH  75  78
ENDBRANCH  73  74
ENDBRANCH  72  73
ENDBRANCH   1  72
TORSDOF 17
ENDMDL
MODEL 3
REMARK VINA RESULT:     -11.9      0.577      7.578
REMARK SMILES O=C(NCCCCNC(=O)[C@@H]1CCCC[C@@H]1C(=O)Nc1nc(-c2ccc(Cl)c(Cl)c2)cs1)c1ccc(-c2c3nc(c(-c4cccc(S(=O)(=O)[O-])c4F)c4ccc([nH]4)c(-c4cccc(S(=O)(=O)[O-])c4F)c4nc(c(-c5cccc(S(=O)(=O)[O-])c5F)c5ccc2[nH]5)C=C4)C=C3)cc1
REMARK SMILES IDX 5 1 4 2 3 3 1 4 2 5 33 7 34 8 95 9 35 10 94 11 36 12 37 13
REMARK SMILES IDX 38 14 88 15 39 16 93 17 87 18 89 19 40 20 92 21 86 22 85 23
REMARK SMILES IDX 41 25 73 26 53 27 72 28 54 29 57 30 71 31 90 32 55 33 56 34
REMARK SMILES IDX 70 36 91 37 58 38 42 39 43 40 51 41 44 42 46 43 52 44 45 45
REMARK SMILES IDX 47 46 48 47 49 48 50 49 74 50 75 51 83 52 76 53 78 54 84 55
REMARK SMILES IDX 77 56 79 57 80 58 81 59 82 60 59 61 60 62 68 63 61 64 63 65
REMARK SMILES IDX 69 66 62 67 64 68 65 69 66 70 67 71 6 72 7 73 8 74 9 75
REMARK SMILES IDX 10 77 11 78 12 79 16 80 13 81 15 82 14 83 17 84 18 85 19 86
REMARK SMILES IDX 20 88 21 89 32 90 22 91 31 92 23 93 24 94 30 95 25 96 28 97
REMARK SMILES IDX 26 98 29 99 27 100
REMARK H PARENT 3 6 89 24 57 35 8 76 19 87
REMARK Flexibility Score: inf
ROOT
ATOM      1  C   UNL A   1      35.815  23.738  24.883  1.00  0.00     0.023 C 
ENDROOT
BRANCH   1   2
ATOM      2  C   UNL A   1      36.723  23.791  26.105  1.00  0.00     0.116 C 
BRANCH   2   3
ATOM      3  N   UNL A   1      37.755  22.768  26.084  1.00  0.00    -0.352 N 
ATOM      4  O   UNL A   1      39.850  21.946  26.118  1.00  0.00    -0.269 OA
ATOM      5  C   UNL A   1      39.098  22.888  26.350  1.00  0.00     0.251 C 
ATOM      6  H   UNL A   1      37.449  21.863  25.846  1.00  0.00     0.163 HD
BRANCH   5   7
ATOM      7  C   UNL A   1      39.631  24.161  26.883  1.00  0.00     0.039 A 
ATOM      8  C   UNL A   1      39.694  24.386  28.261  1.00  0.00     0.014 A 
ATOM      9  C   UNL A   1      40.066  25.145  25.993  1.00  0.00     0.014 A 
ATOM     10  C   UNL A   1      40.062  25.636  28.746  1.00  0.00     0.010 A 
ATOM     11  C   UNL A   1      40.505  26.377  26.484  1.00  0.00     0.010 A 
ATOM     12  C   UNL A   1      40.473  26.645  27.863  1.00  0.00    -0.014 A 
BRANCH  12  13
ATOM     13  C   UNL A   1      40.913  27.960  28.396  1.00  0.00     0.031 A 
ATOM     14  C   UNL A   1      39.916  28.953  28.925  1.00  0.00     0.074 A 
ATOM     15  C   UNL A   1      42.226  28.260  28.383  1.00  0.00     0.049 A 
ATOM     16  N   UNL A   1      40.126  30.150  29.411  1.00  0.00    -0.248 NA
ATOM     17  C   UNL A   1      38.498  28.556  28.905  1.00  0.00     0.031 C 
ATOM     18  C   UNL A   1      43.283  27.391  27.861  1.00  0.00     0.029 A 
ATOM     19  N   UNL A   1      42.895  29.379  28.809  1.00  0.00    -0.354 N 
ATOM     20  C   UNL A   1      38.872  30.666  29.714  1.00  0.00     0.074 A 
ATOM     21  C   UNL A   1      37.902  29.654  29.354  1.00  0.00     0.031 C 
ATOM     22  C   UNL A   1      44.466  28.004  28.004  1.00  0.00     0.029 A 
ATOM     23  C   UNL A   1      44.249  29.325  28.584  1.00  0.00     0.049 A 
ATOM     24  H   UNL A   1      42.447  30.147  29.233  1.00  0.00     0.167 HD
ATOM     25  C   UNL A   1      38.559  31.868  30.256  1.00  0.00     0.034 A 
ATOM     26  C   UNL A   1      45.211  30.241  28.803  1.00  0.00     0.034 A 
ATOM     27  C   UNL A   1      39.530  32.855  30.649  1.00  0.00     0.049 A 
ATOM     28  C   UNL A   1      44.838  31.557  29.424  1.00  0.00     0.074 A 
ATOM     29  C   UNL A   1      39.315  34.075  31.266  1.00  0.00     0.029 A 
ATOM     30  N   UNL A   1      40.898  32.741  30.457  1.00  0.00    -0.354 N 
ATOM     31  N   UNL A   1      43.660  31.974  29.821  1.00  0.00    -0.248 NA
ATOM     32  C   UNL A   1      45.927  32.516  29.654  1.00  0.00     0.031 C 
ATOM     33  C   UNL A   1      40.552  34.705  31.437  1.00  0.00     0.029 A 
ATOM     34  C   UNL A   1      41.540  33.871  30.938  1.00  0.00     0.049 A 
ATOM     35  H   UNL A   1      41.347  31.971  30.041  1.00  0.00     0.167 HD
ATOM     36  C   UNL A   1      43.869  33.233  30.369  1.00  0.00     0.074 A 
ATOM     37  C   UNL A   1      45.290  33.499  30.276  1.00  0.00     0.031 C 
ATOM     38  C   UNL A   1      42.962  34.099  30.886  1.00  0.00     0.034 A 
BRANCH  25  39
ATOM     39  C   UNL A   1      37.104  32.168  30.503  1.00  0.00     0.023 A 
ATOM     40  C   UNL A   1      36.550  31.915  31.774  1.00  0.00     0.012 A 
ATOM     41  C   UNL A   1      36.303  32.757  29.506  1.00  0.00     0.148 A 
ATOM     42  C   UNL A   1      35.215  32.219  32.041  1.00  0.00     0.002 A 
ATOM     43  C   UNL A   1      34.983  33.090  29.789  1.00  0.00     0.091 A 
ATOM     44  F   UNL A   1      36.838  32.968  28.295  1.00  0.00    -0.205 F 
ATOM     45  C   UNL A   1      34.435  32.815  31.053  1.00  0.00     0.022 A 
BRANCH  43  46
ATOM     46  S   UNL A   1      33.923  33.925  28.602  1.00  0.00     0.127 S 
ATOM     47  O   UNL A   1      32.886  34.479  29.471  1.00  0.00    -0.237 OA
ATOM     48  O   UNL A   1      34.826  34.920  28.021  1.00  0.00    -0.237 OA
ATOM     49  O   UNL A   1      33.484  32.895  27.672  1.00  0.00    -0.744 OA
ENDBRANCH  43  46
ENDBRANCH  25  39
BRANCH  26  50
ATOM     50  C   UNL A   1      46.626  29.912  28.474  1.00  0.00     0.023 A 
ATOM     51  C   UNL A   1      47.162  30.327  27.240  1.00  0.00     0.012 A 
ATOM     52  C   UNL A   1      47.458  29.254  29.401  1.00  0.00     0.148 A 
ATOM     53  C   UNL A   1      48.499  30.076  26.928  1.00  0.00     0.002 A 
ATOM     54  C   UNL A   1      48.802  29.057  29.106  1.00  0.00     0.091 A 
ATOM     55  F   UNL A   1      46.923  28.852  30.563  1.00  0.00    -0.205 F 
ATOM     56  C   UNL A   1      49.321  29.454  27.865  1.00  0.00     0.022 A 
BRANCH  54  57
ATOM     57  S   UNL A   1      49.958  28.394  30.311  1.00  0.00     0.127 S 
ATOM     58  O   UNL A   1      51.188  28.311  29.529  1.00  0.00    -0.237 OA
ATOM     59  O   UNL A   1      49.953  29.433  31.342  1.00  0.00    -0.237 OA
ATOM     60  O   UNL A   1      49.387  27.124  30.740  1.00  0.00    -0.744 OA
ENDBRANCH  54  57
ENDBRANCH  26  50
BRANCH  38  61
ATOM     61  C   UNL A   1      43.478  35.411  31.413  1.00  0.00     0.023 A 
ATOM     62  C   UNL A   1      43.871  35.511  32.761  1.00  0.00     0.012 A 
ATOM     63  C   UNL A   1      43.639  36.519  30.559  1.00  0.00     0.148 A 
ATOM     64  C   UNL A   1      44.395  36.705  33.258  1.00  0.00     0.002 A 
ATOM     65  C   UNL A   1      44.201  37.691  31.050  1.00  0.00     0.091 A 
ATOM     66  F   UNL A   1      43.236  36.410  29.283  1.00  0.00    -0.205 F 
ATOM     67  C   UNL A   1      44.570  37.789  32.401  1.00  0.00     0.022 A 
BRANCH  65  68
ATOM     68  S   UNL A   1      44.544  39.104  29.995  1.00  0.00     0.127 S 
ATOM     69  O   UNL A   1      43.198  39.512  29.597  1.00  0.00    -0.237 OA
ATOM     70  O   UNL A   1      45.215  40.026  30.912  1.00  0.00    -0.237 OA
ATOM     71  O   UNL A   1      45.392  38.601  28.922  1.00  0.00    -0.744 OA
ENDBRANCH  65  68
ENDBRANCH  38  61
ENDBRANCH  12  13
ENDBRANCH   5   7
ENDBRANCH   2   3
ENDBRANCH   1   2
BRANCH   1  72
ATOM     72  C   UNL A   1      34.496  24.496  25.025  1.00  0.00     0.023 C 
BRANCH  72  73
ATOM     73  C   UNL A   1      33.913  24.505  26.436  1.00  0.00     0.116 C 
BRANCH  73  74
ATOM     74  N   UNL A   1      32.462  24.578  26.416  1.00  0.00    -0.356 N 
ATOM     75  C   UNL A   1      31.634  25.658  26.323  1.00  0.00     0.223 C 
ATOM     76  H   UNL A   1      32.004  23.709  26.478  1.00  0.00     0.163 HD
ATOM     77  O   UNL A   1      30.426  25.471  26.469  1.00  0.00    -0.275 OA
BRANCH  75  78
ATOM     78  C   UNL A   1      32.238  27.045  26.156  1.00  0.00     0.091 C 
ATOM     79  C   UNL A   1      31.510  27.987  27.122  1.00  0.00     0.014 C 
ATOM     80  C   UNL A   1      32.299  27.572  24.711  1.00  0.00     0.091 C 
ATOM     81  C   UNL A   1      32.122  29.380  27.104  1.00  0.00     0.001 C 
ATOM     82  C   UNL A   1      32.791  29.039  24.687  1.00  0.00     0.014 C 
ATOM     83  C   UNL A   1      32.109  29.962  25.698  1.00  0.00     0.001 C 
BRANCH  80  84
ATOM     84  C   UNL A   1      31.009  27.443  23.902  1.00  0.00     0.230 C 
ATOM     85  O   UNL A   1      30.102  28.277  24.015  1.00  0.00    -0.274 OA
ATOM     86  N   UNL A   1      30.848  26.472  22.961  1.00  0.00    -0.302 N 
ATOM     87  H   UNL A   1      30.089  26.592  22.346  1.00  0.00     0.172 HD
BRANCH  86  88
ATOM     88  C   UNL A   1      31.603  25.354  22.762  1.00  0.00     0.189 A 
ATOM     89  N   UNL A   1      31.571  24.194  23.367  1.00  0.00    -0.220 NA
ATOM     90  S   UNL A   1      32.713  25.510  21.470  1.00  0.00    -0.105 S 
ATOM     91  C   UNL A   1      32.372  23.309  22.672  1.00  0.00     0.084 A 
ATOM     92  C   UNL A   1      33.120  23.855  21.648  1.00  0.00     0.097 A 
BRANCH  91  93
ATOM     93  C   UNL A   1      32.362  21.889  22.947  1.00  0.00     0.003 A 
ATOM     94  C   UNL A   1      32.046  20.995  21.916  1.00  0.00     0.012 A 
ATOM     95  C   UNL A   1      32.693  21.403  24.214  1.00  0.00     0.032 A 
ATOM     96  C   UNL A   1      32.083  19.618  22.146  1.00  0.00     0.023 A 
ATOM     97  C   UNL A   1      32.727  20.023  24.445  1.00  0.00     0.060 A 
ATOM     98  C   UNL A   1      32.425  19.129  23.409  1.00  0.00     0.059 A 
ATOM     99  Cl  UNL A   1      33.161  19.489  26.030  1.00  0.00    -0.083 Cl
ATOM    100  Cl  UNL A   1      32.463  17.417  23.625  1.00  0.00    -0.083 Cl
ENDBRANCH  91  93
ENDBRANCH  86  88
ENDBRANCH  80  84
ENDBRANCH  75  78
ENDBRANCH  73  74
ENDBRANCH  72  73
ENDBRANCH   1  72
TORSDOF 17
ENDMDL
