MODEL 1
REMARK VINA RESULT:      -9.4      0.000      0.000
REMARK SMILES CC[C@@H](C)C[C@@H](C)[NH2+]Cc1ccc(C(=O)NCCCCNC(=O)c2ccc(-c3c4nc(c(-c5cccc(S(=O)(=O)[O-])c5F)c5ccc([nH]5)c(-c5cccc(S(=O)(=O)[O-])c5F)c5nc(c(-c6cccc(S(=O)(=O)[O-])c6F)c6ccc3[nH]6)C=C5)C=C4)cc2)cn1
REMARK SMILES IDX 17 1 16 2 14 3 15 4 13 6 10 7 11 8 88 9 12 10 87 11 9 12
REMARK SMILES IDX 8 13 6 16 7 17 5 18 3 19 4 20 2 21 1 22 18 23 19 24 20 25
REMARK SMILES IDX 21 26 22 27 23 29 24 30 25 31 86 32 26 33 85 34 27 35 28 36
REMARK SMILES IDX 29 37 79 38 30 39 84 40 78 41 80 42 31 43 83 44 77 45 76 46
REMARK SMILES IDX 32 48 64 49 44 50 63 51 45 52 48 53 62 54 81 55 46 56 47 57
REMARK SMILES IDX 61 59 82 60 49 61 33 62 34 63 42 64 35 65 37 66 43 67 36 68
REMARK SMILES IDX 38 69 39 70 40 71 41 72 65 73 66 74 74 75 67 76 69 77 75 78
REMARK SMILES IDX 68 79 70 80 71 81 72 82 73 83 50 84 51 85 59 86 52 87 54 88
REMARK SMILES IDX 60 89 53 90 55 91 56 92 57 93 58 94
REMARK H PARENT 16 5 8 14 8 15 21 28 80 47 48 58
REMARK Flexibility Score: inf
ROOT
ATOM      1  C   UNL A   1      33.423  35.944  29.187  1.00  0.00     0.116 C 
ENDROOT
BRANCH   1   2
ATOM      2  N   UNL A   1      32.540  36.275  30.285  1.00  0.00    -0.352 N 
ATOM      3  C   UNL A   1      32.566  36.047  31.634  1.00  0.00     0.252 C 
ATOM      4  O   UNL A   1      31.632  36.521  32.283  1.00  0.00    -0.269 OA
ATOM      5  H   UNL A   1      31.741  36.774  29.995  1.00  0.00     0.163 HD
BRANCH   3   6
ATOM      6  C   UNL A   1      33.603  35.267  32.364  1.00  0.00     0.058 A 
ATOM      7  C   UNL A   1      35.599  34.221  33.990  1.00  0.00     0.094 A 
ATOM      8  C   UNL A   1      34.549  33.400  33.587  1.00  0.00     0.030 A 
ATOM      9  N   UNL A   1      35.737  35.489  33.536  1.00  0.00    -0.255 NA
ATOM     10  C   UNL A   1      33.530  33.945  32.796  1.00  0.00     0.017 A 
ATOM     11  C   UNL A   1      34.751  35.971  32.736  1.00  0.00     0.125 A 
BRANCH   7  12
ATOM     12  C   UNL A   1      36.471  33.815  35.160  1.00  0.00     0.318 C 
BRANCH  12  13
ATOM     13  N   UNL A   1      37.083  32.480  34.994  1.00  0.00    -0.339 N 
ATOM     14  H   UNL A   1      37.209  32.075  35.922  1.00  0.00     0.346 HD
ATOM     15  H   UNL A   1      36.446  31.951  34.399  1.00  0.00     0.346 HD
BRANCH  13  16
ATOM     16  C   UNL A   1      38.391  32.461  34.307  1.00  0.00     0.179 C 
ATOM     17  C   UNL A   1      39.362  31.420  34.884  1.00  0.00     0.075 C 
BRANCH  16  18
ATOM     18  C   UNL A   1      38.993  33.882  34.451  1.00  0.00     0.068 C 
BRANCH  18  19
ATOM     19  C   UNL A   1      39.367  34.596  33.126  1.00  0.00    -0.009 C 
ATOM     20  C   UNL A   1      38.613  33.938  31.965  1.00  0.00     0.008 C 
BRANCH  19  21
ATOM     21  C   UNL A   1      40.888  34.607  32.885  1.00  0.00    -0.000 C 
ATOM     22  C   UNL A   1      41.267  34.535  31.411  1.00  0.00     0.004 C 
ENDBRANCH  19  21
ENDBRANCH  18  19
ENDBRANCH  16  18
ENDBRANCH  13  16
ENDBRANCH  12  13
ENDBRANCH   7  12
ENDBRANCH   3   6
ENDBRANCH   1   2
BRANCH   1  23
ATOM     23  C   UNL A   1      33.256  34.486  28.755  1.00  0.00     0.023 C 
BRANCH  23  24
ATOM     24  C   UNL A   1      34.427  33.577  29.162  1.00  0.00     0.023 C 
BRANCH  24  25
ATOM     25  C   UNL A   1      35.028  32.746  28.028  1.00  0.00     0.116 C 
BRANCH  25  26
ATOM     26  N   UNL A   1      34.277  31.534  27.736  1.00  0.00    -0.352 N 
ATOM     27  C   UNL A   1      34.716  30.229  27.783  1.00  0.00     0.251 C 
ATOM     28  H   UNL A   1      33.338  31.662  27.470  1.00  0.00     0.163 HD
ATOM     29  O   UNL A   1      33.993  29.319  27.414  1.00  0.00    -0.269 OA
BRANCH  27  30
ATOM     30  C   UNL A   1      36.096  29.957  28.245  1.00  0.00     0.039 A 
ATOM     31  C   UNL A   1      36.284  29.455  29.535  1.00  0.00     0.014 A 
ATOM     32  C   UNL A   1      37.184  30.153  27.392  1.00  0.00     0.014 A 
ATOM     33  C   UNL A   1      37.565  29.082  29.948  1.00  0.00     0.010 A 
ATOM     34  C   UNL A   1      38.448  29.723  27.783  1.00  0.00     0.010 A 
ATOM     35  C   UNL A   1      38.652  29.181  29.062  1.00  0.00    -0.014 A 
BRANCH  35  36
ATOM     36  C   UNL A   1      40.003  28.701  29.443  1.00  0.00     0.031 A 
ATOM     37  C   UNL A   1      40.806  29.443  30.475  1.00  0.00     0.074 A 
ATOM     38  C   UNL A   1      40.545  27.657  28.786  1.00  0.00     0.049 A 
ATOM     39  N   UNL A   1      42.023  29.213  30.893  1.00  0.00    -0.248 NA
ATOM     40  C   UNL A   1      40.170  30.616  31.099  1.00  0.00     0.031 C 
ATOM     41  C   UNL A   1      39.900  26.911  27.703  1.00  0.00     0.029 A 
ATOM     42  N   UNL A   1      41.774  27.060  28.912  1.00  0.00    -0.354 N 
ATOM     43  C   UNL A   1      42.314  30.229  31.795  1.00  0.00     0.074 A 
ATOM     44  C   UNL A   1      41.156  31.096  31.843  1.00  0.00     0.031 C 
ATOM     45  C   UNL A   1      40.738  25.957  27.266  1.00  0.00     0.029 A 
ATOM     46  C   UNL A   1      41.985  26.035  28.019  1.00  0.00     0.049 A 
ATOM     47  H   UNL A   1      42.443  27.340  29.578  1.00  0.00     0.167 HD
ATOM     48  C   UNL A   1      43.430  30.407  32.541  1.00  0.00     0.034 A 
ATOM     49  C   UNL A   1      43.062  25.247  27.830  1.00  0.00     0.034 A 
ATOM     50  C   UNL A   1      44.554  29.511  32.534  1.00  0.00     0.049 A 
ATOM     51  C   UNL A   1      44.264  25.428  28.716  1.00  0.00     0.074 A 
ATOM     52  C   UNL A   1      45.687  29.545  33.326  1.00  0.00     0.029 A 
ATOM     53  N   UNL A   1      44.688  28.419  31.690  1.00  0.00    -0.354 N 
ATOM     54  N   UNL A   1      44.450  26.289  29.688  1.00  0.00    -0.248 NA
ATOM     55  C   UNL A   1      45.390  24.506  28.508  1.00  0.00     0.031 C 
ATOM     56  C   UNL A   1      46.514  28.480  32.954  1.00  0.00     0.029 A 
ATOM     57  C   UNL A   1      45.888  27.774  31.939  1.00  0.00     0.049 A 
ATOM     58  H   UNL A   1      44.028  28.143  31.013  1.00  0.00     0.167 HD
ATOM     59  C   UNL A   1      45.694  25.990  30.230  1.00  0.00     0.074 A 
ATOM     60  C   UNL A   1      46.209  24.854  29.490  1.00  0.00     0.031 C 
ATOM     61  C   UNL A   1      46.358  26.609  31.237  1.00  0.00     0.034 A 
BRANCH  48  62
ATOM     62  C   UNL A   1      43.461  31.582  33.482  1.00  0.00     0.023 A 
ATOM     63  C   UNL A   1      42.945  31.438  34.786  1.00  0.00     0.012 A 
ATOM     64  C   UNL A   1      44.048  32.804  33.103  1.00  0.00     0.148 A 
ATOM     65  C   UNL A   1      42.980  32.500  35.687  1.00  0.00     0.002 A 
ATOM     66  C   UNL A   1      44.117  33.847  34.021  1.00  0.00     0.091 A 
ATOM     67  F   UNL A   1      44.513  32.932  31.852  1.00  0.00    -0.205 F 
ATOM     68  C   UNL A   1      43.575  33.700  35.308  1.00  0.00     0.022 A 
BRANCH  66  69
ATOM     69  S   UNL A   1      44.930  35.407  33.654  1.00  0.00     0.127 S 
ATOM     70  O   UNL A   1      44.384  36.275  34.695  1.00  0.00    -0.237 OA
ATOM     71  O   UNL A   1      46.344  35.066  33.823  1.00  0.00    -0.237 OA
ATOM     72  O   UNL A   1      44.549  35.745  32.290  1.00  0.00    -0.744 OA
ENDBRANCH  66  69
ENDBRANCH  48  62
BRANCH  49  73
ATOM     73  C   UNL A   1      43.017  24.159  26.813  1.00  0.00     0.023 A 
ATOM     74  C   UNL A   1      43.668  24.345  25.579  1.00  0.00     0.012 A 
ATOM     75  C   UNL A   1      42.369  22.935  27.069  1.00  0.00     0.148 A 
ATOM     76  C   UNL A   1      43.648  23.347  24.604  1.00  0.00     0.002 A 
ATOM     77  C   UNL A   1      42.398  21.924  26.115  1.00  0.00     0.091 A 
ATOM     78  F   UNL A   1      41.743  22.780  28.245  1.00  0.00    -0.205 F 
ATOM     79  C   UNL A   1      43.023  22.133  24.876  1.00  0.00     0.022 A 
BRANCH  77  80
ATOM     80  S   UNL A   1      41.733  20.285  26.435  1.00  0.00     0.127 S 
ATOM     81  O   UNL A   1      42.303  19.511  25.335  1.00  0.00    -0.237 OA
ATOM     82  O   UNL A   1      42.290  19.982  27.754  1.00  0.00    -0.237 OA
ATOM     83  O   UNL A   1      40.285  20.444  26.421  1.00  0.00    -0.744 OA
ENDBRANCH  77  80
ENDBRANCH  49  73
BRANCH  61  84
ATOM     84  C   UNL A   1      47.705  26.059  31.627  1.00  0.00     0.023 A 
ATOM     85  C   UNL A   1      48.847  26.421  30.885  1.00  0.00     0.012 A 
ATOM     86  C   UNL A   1      47.851  25.256  32.775  1.00  0.00     0.148 A 
ATOM     87  C   UNL A   1      50.110  25.969  31.263  1.00  0.00     0.002 A 
ATOM     88  C   UNL A   1      49.117  24.846  33.172  1.00  0.00     0.091 A 
ATOM     89  F   UNL A   1      46.749  24.906  33.455  1.00  0.00    -0.205 F 
ATOM     90  C   UNL A   1      50.247  25.193  32.413  1.00  0.00     0.022 A 
BRANCH  88  91
ATOM     91  S   UNL A   1      49.394  23.925  34.690  1.00  0.00     0.127 S 
ATOM     92  O   UNL A   1      49.142  22.552  34.255  1.00  0.00    -0.237 OA
ATOM     93  O   UNL A   1      50.797  24.224  34.986  1.00  0.00    -0.237 OA
ATOM     94  O   UNL A   1      48.448  24.461  35.659  1.00  0.00    -0.744 OA
ENDBRANCH  88  91
ENDBRANCH  61  84
ENDBRANCH  35  36
ENDBRANCH  27  30
ENDBRANCH  25  26
ENDBRANCH  24  25
ENDBRANCH  23  24
ENDBRANCH   1  23
TORSDOF 20
ENDMDL
MODEL 2
REMARK VINA RESULT:      -9.2      1.510      2.028
REMARK SMILES CC[C@@H](C)C[C@@H](C)[NH2+]Cc1ccc(C(=O)NCCCCNC(=O)c2ccc(-c3c4nc(c(-c5cccc(S(=O)(=O)[O-])c5F)c5ccc([nH]5)c(-c5cccc(S(=O)(=O)[O-])c5F)c5nc(c(-c6cccc(S(=O)(=O)[O-])c6F)c6ccc3[nH]6)C=C5)C=C4)cc2)cn1
REMARK SMILES IDX 17 1 16 2 14 3 15 4 13 6 10 7 11 8 88 9 12 10 87 11 9 12
REMARK SMILES IDX 8 13 6 16 7 17 5 18 3 19 4 20 2 21 1 22 18 23 19 24 20 25
REMARK SMILES IDX 21 26 22 27 23 29 24 30 25 31 86 32 26 33 85 34 27 35 28 36
REMARK SMILES IDX 29 37 79 38 30 39 84 40 78 41 80 42 31 43 83 44 77 45 76 46
REMARK SMILES IDX 32 48 64 49 44 50 63 51 45 52 48 53 62 54 81 55 46 56 47 57
REMARK SMILES IDX 61 59 82 60 49 61 33 62 34 63 42 64 35 65 37 66 43 67 36 68
REMARK SMILES IDX 38 69 39 70 40 71 41 72 65 73 66 74 74 75 67 76 69 77 75 78
REMARK SMILES IDX 68 79 70 80 71 81 72 82 73 83 50 84 51 85 59 86 52 87 54 88
REMARK SMILES IDX 60 89 53 90 55 91 56 92 57 93 58 94
REMARK H PARENT 16 5 8 14 8 15 21 28 80 47 48 58
REMARK Flexibility Score: inf
ROOT
ATOM      1  C   UNL A   1      33.189  36.238  29.304  1.00  0.00     0.116 C 
ENDROOT
BRANCH   1   2
ATOM      2  N   UNL A   1      32.327  36.302  30.465  1.00  0.00    -0.352 N 
ATOM      3  C   UNL A   1      32.459  35.928  31.774  1.00  0.00     0.252 C 
ATOM      4  O   UNL A   1      31.501  36.177  32.510  1.00  0.00    -0.269 OA
ATOM      5  H   UNL A   1      31.449  36.705  30.268  1.00  0.00     0.163 HD
BRANCH   3   6
ATOM      6  C   UNL A   1      33.636  35.235  32.366  1.00  0.00     0.058 A 
ATOM      7  C   UNL A   1      35.912  34.367  33.703  1.00  0.00     0.094 A 
ATOM      8  C   UNL A   1      34.858  33.479  33.507  1.00  0.00     0.030 A 
ATOM      9  N   UNL A   1      35.911  35.615  33.178  1.00  0.00    -0.255 NA
ATOM     10  C   UNL A   1      33.701  33.935  32.863  1.00  0.00     0.017 A 
ATOM     11  C   UNL A   1      34.788  36.009  32.522  1.00  0.00     0.125 A 
BRANCH   7  12
ATOM     12  C   UNL A   1      36.975  34.062  34.739  1.00  0.00     0.318 C 
BRANCH  12  13
ATOM     13  N   UNL A   1      36.938  32.665  35.218  1.00  0.00    -0.339 N 
ATOM     14  H   UNL A   1      36.045  32.518  35.691  1.00  0.00     0.346 HD
ATOM     15  H   UNL A   1      37.066  32.081  34.392  1.00  0.00     0.346 HD
BRANCH  13  16
ATOM     16  C   UNL A   1      38.016  32.286  36.155  1.00  0.00     0.179 C 
ATOM     17  C   UNL A   1      38.179  30.767  36.306  1.00  0.00     0.075 C 
BRANCH  16  18
ATOM     18  C   UNL A   1      37.662  32.918  37.525  1.00  0.00     0.068 C 
BRANCH  18  19
ATOM     19  C   UNL A   1      38.861  33.216  38.463  1.00  0.00    -0.009 C 
ATOM     20  C   UNL A   1      38.468  32.887  39.908  1.00  0.00     0.008 C 
BRANCH  19  21
ATOM     21  C   UNL A   1      39.358  34.667  38.323  1.00  0.00    -0.000 C 
ATOM     22  C   UNL A   1      40.599  34.963  39.157  1.00  0.00     0.004 C 
ENDBRANCH  19  21
ENDBRANCH  18  19
ENDBRANCH  16  18
ENDBRANCH  13  16
ENDBRANCH  12  13
ENDBRANCH   7  12
ENDBRANCH   3   6
ENDBRANCH   1   2
BRANCH   1  23
ATOM     23  C   UNL A   1      33.548  34.793  28.955  1.00  0.00     0.023 C 
BRANCH  23  24
ATOM     24  C   UNL A   1      35.017  34.431  29.230  1.00  0.00     0.023 C 
BRANCH  24  25
ATOM     25  C   UNL A   1      35.576  33.292  28.377  1.00  0.00     0.116 C 
BRANCH  25  26
ATOM     26  N   UNL A   1      34.548  32.426  27.820  1.00  0.00    -0.352 N 
ATOM     27  C   UNL A   1      34.593  31.062  27.636  1.00  0.00     0.251 C 
ATOM     28  H   UNL A   1      33.716  32.871  27.538  1.00  0.00     0.163 HD
ATOM     29  O   UNL A   1      33.685  30.483  27.063  1.00  0.00    -0.269 OA
BRANCH  27  30
ATOM     30  C   UNL A   1      35.784  30.317  28.104  1.00  0.00     0.039 A 
ATOM     31  C   UNL A   1      36.909  30.264  27.278  1.00  0.00     0.014 A 
ATOM     32  C   UNL A   1      35.800  29.720  29.366  1.00  0.00     0.014 A 
ATOM     33  C   UNL A   1      38.080  29.666  27.749  1.00  0.00     0.010 A 
ATOM     34  C   UNL A   1      36.986  29.182  29.856  1.00  0.00     0.010 A 
ATOM     35  C   UNL A   1      38.138  29.152  29.055  1.00  0.00    -0.014 A 
BRANCH  35  36
ATOM     36  C   UNL A   1      39.398  28.601  29.612  1.00  0.00     0.031 A 
ATOM     37  C   UNL A   1      40.041  29.246  30.808  1.00  0.00     0.074 A 
ATOM     38  C   UNL A   1      40.014  27.584  28.978  1.00  0.00     0.049 A 
ATOM     39  N   UNL A   1      41.169  28.946  31.397  1.00  0.00    -0.248 NA
ATOM     40  C   UNL A   1      39.341  30.396  31.404  1.00  0.00     0.031 C 
ATOM     41  C   UNL A   1      39.534  26.933  27.756  1.00  0.00     0.029 A 
ATOM     42  N   UNL A   1      41.192  26.938  29.256  1.00  0.00    -0.354 N 
ATOM     43  C   UNL A   1      41.334  29.890  32.403  1.00  0.00     0.074 A 
ATOM     44  C   UNL A   1      40.205  30.791  32.327  1.00  0.00     0.031 C 
ATOM     45  C   UNL A   1      40.408  25.981  27.392  1.00  0.00     0.029 A 
ATOM     46  C   UNL A   1      41.519  25.966  28.338  1.00  0.00     0.049 A 
ATOM     47  H   UNL A   1      41.751  27.149  30.038  1.00  0.00     0.167 HD
ATOM     48  C   UNL A   1      42.319  29.979  33.329  1.00  0.00     0.034 A 
ATOM     49  C   UNL A   1      42.594  25.156  28.268  1.00  0.00     0.034 A 
ATOM     50  C   UNL A   1      43.408  29.047  33.438  1.00  0.00     0.049 A 
ATOM     51  C   UNL A   1      43.641  25.236  29.345  1.00  0.00     0.074 A 
ATOM     52  C   UNL A   1      44.399  28.990  34.401  1.00  0.00     0.029 A 
ATOM     53  N   UNL A   1      43.651  28.009  32.551  1.00  0.00    -0.354 N 
ATOM     54  N   UNL A   1      43.688  26.024  30.392  1.00  0.00    -0.248 NA
ATOM     55  C   UNL A   1      44.763  24.290  29.255  1.00  0.00     0.031 C 
ATOM     56  C   UNL A   1      45.249  27.923  34.091  1.00  0.00     0.029 A 
ATOM     57  C   UNL A   1      44.779  27.308  32.942  1.00  0.00     0.049 A 
ATOM     58  H   UNL A   1      43.102  27.801  31.760  1.00  0.00     0.167 HD
ATOM     59  C   UNL A   1      44.821  25.647  31.103  1.00  0.00     0.074 A 
ATOM     60  C   UNL A   1      45.422  24.545  30.377  1.00  0.00     0.031 C 
ATOM     61  C   UNL A   1      45.328  26.175  32.244  1.00  0.00     0.034 A 
BRANCH  48  62
ATOM     62  C   UNL A   1      42.226  31.089  34.343  1.00  0.00     0.023 A 
ATOM     63  C   UNL A   1      41.766  30.799  35.643  1.00  0.00     0.012 A 
ATOM     64  C   UNL A   1      42.645  32.397  34.034  1.00  0.00     0.148 A 
ATOM     65  C   UNL A   1      41.690  31.800  36.611  1.00  0.00     0.002 A 
ATOM     66  C   UNL A   1      42.605  33.380  35.016  1.00  0.00     0.091 A 
ATOM     67  F   UNL A   1      43.058  32.660  32.786  1.00  0.00    -0.205 F 
ATOM     68  C   UNL A   1      42.119  33.086  36.300  1.00  0.00     0.022 A 
BRANCH  66  69
ATOM     69  S   UNL A   1      43.206  35.051  34.736  1.00  0.00     0.127 S 
ATOM     70  O   UNL A   1      43.163  35.609  36.086  1.00  0.00    -0.237 OA
ATOM     71  O   UNL A   1      44.554  34.813  34.217  1.00  0.00    -0.237 OA
ATOM     72  O   UNL A   1      42.287  35.651  33.779  1.00  0.00    -0.744 OA
ENDBRANCH  66  69
ENDBRANCH  48  62
BRANCH  49  73
ATOM     73  C   UNL A   1      42.687  24.138  27.183  1.00  0.00     0.023 A 
ATOM     74  C   UNL A   1      43.401  24.450  26.010  1.00  0.00     0.012 A 
ATOM     75  C   UNL A   1      42.110  22.861  27.316  1.00  0.00     0.148 A 
ATOM     76  C   UNL A   1      43.511  23.521  24.974  1.00  0.00     0.002 A 
ATOM     77  C   UNL A   1      42.269  21.921  26.304  1.00  0.00     0.091 A 
ATOM     78  F   UNL A   1      41.423  22.586  28.435  1.00  0.00    -0.205 F 
ATOM     79  C   UNL A   1      42.954  22.254  25.125  1.00  0.00     0.022 A 
BRANCH  77  80
ATOM     80  S   UNL A   1      41.699  20.225  26.472  1.00  0.00     0.127 S 
ATOM     81  O   UNL A   1      42.293  19.592  25.299  1.00  0.00    -0.237 OA
ATOM     82  O   UNL A   1      42.291  19.830  27.752  1.00  0.00    -0.237 OA
ATOM     83  O   UNL A   1      40.244  20.304  26.487  1.00  0.00    -0.744 OA
ENDBRANCH  77  80
ENDBRANCH  49  73
BRANCH  61  84
ATOM     84  C   UNL A   1      46.581  25.555  32.804  1.00  0.00     0.023 A 
ATOM     85  C   UNL A   1      47.839  26.072  32.437  1.00  0.00     0.012 A 
ATOM     86  C   UNL A   1      46.509  24.519  33.756  1.00  0.00     0.148 A 
ATOM     87  C   UNL A   1      49.008  25.549  32.988  1.00  0.00     0.002 A 
ATOM     88  C   UNL A   1      47.674  24.032  34.334  1.00  0.00     0.091 A 
ATOM     89  F   UNL A   1      45.303  24.026  34.075  1.00  0.00    -0.205 F 
ATOM     90  C   UNL A   1      48.925  24.539  33.946  1.00  0.00     0.022 A 
BRANCH  88  91
ATOM     91  S   UNL A   1      47.654  22.800  35.642  1.00  0.00     0.127 S 
ATOM     92  O   UNL A   1      48.386  21.697  35.022  1.00  0.00    -0.237 OA
ATOM     93  O   UNL A   1      48.372  23.478  36.723  1.00  0.00    -0.237 OA
ATOM     94  O   UNL A   1      46.248  22.542  35.923  1.00  0.00    -0.744 OA
ENDBRANCH  88  91
ENDBRANCH  61  84
ENDBRANCH  35  36
ENDBRANCH  27  30
ENDBRANCH  25  26
ENDBRANCH  24  25
ENDBRANCH  23  24
ENDBRANCH   1  23
TORSDOF 20
ENDMDL
MODEL 3
REMARK VINA RESULT:      -9.1      5.123     11.297
REMARK SMILES CC[C@@H](C)C[C@@H](C)[NH2+]Cc1ccc(C(=O)NCCCCNC(=O)c2ccc(-c3c4nc(c(-c5cccc(S(=O)(=O)[O-])c5F)c5ccc([nH]5)c(-c5cccc(S(=O)(=O)[O-])c5F)c5nc(c(-c6cccc(S(=O)(=O)[O-])c6F)c6ccc3[nH]6)C=C5)C=C4)cc2)cn1
REMARK SMILES IDX 17 1 16 2 14 3 15 4 13 6 10 7 11 8 88 9 12 10 87 11 9 12
REMARK SMILES IDX 8 13 6 16 7 17 5 18 3 19 4 20 2 21 1 22 18 23 19 24 20 25
REMARK SMILES IDX 21 26 22 27 23 29 24 30 25 31 86 32 26 33 85 34 27 35 28 36
REMARK SMILES IDX 29 37 79 38 30 39 84 40 78 41 80 42 31 43 83 44 77 45 76 46
REMARK SMILES IDX 32 48 64 49 44 50 63 51 45 52 48 53 62 54 81 55 46 56 47 57
REMARK SMILES IDX 61 59 82 60 49 61 33 62 34 63 42 64 35 65 37 66 43 67 36 68
REMARK SMILES IDX 38 69 39 70 40 71 41 72 65 73 66 74 74 75 67 76 69 77 75 78
REMARK SMILES IDX 68 79 70 80 71 81 72 82 73 83 50 84 51 85 59 86 52 87 54 88
REMARK SMILES IDX 60 89 53 90 55 91 56 92 57 93 58 94
REMARK H PARENT 16 5 8 14 8 15 21 28 80 47 48 58
REMARK Flexibility Score: inf
ROOT
ATOM      1  C   UNL A   1      35.524  20.644  25.089  1.00  0.00     0.116 C 
ENDROOT
BRANCH   1   2
ATOM      2  N   UNL A   1      34.326  19.839  25.192  1.00  0.00    -0.352 N 
ATOM      3  C   UNL A   1      32.987  20.104  25.093  1.00  0.00     0.252 C 
ATOM      4  O   UNL A   1      32.232  19.135  25.205  1.00  0.00    -0.269 OA
ATOM      5  H   UNL A   1      34.517  18.891  25.376  1.00  0.00     0.163 HD
BRANCH   3   6
ATOM      6  C   UNL A   1      32.378  21.447  24.887  1.00  0.00     0.058 A 
ATOM      7  C   UNL A   1      31.082  23.768  24.078  1.00  0.00     0.094 A 
ATOM      8  C   UNL A   1      31.073  23.418  25.425  1.00  0.00     0.030 A 
ATOM      9  N   UNL A   1      31.787  23.069  23.156  1.00  0.00    -0.255 NA
ATOM     10  C   UNL A   1      31.699  22.228  25.819  1.00  0.00     0.017 A 
ATOM     11  C   UNL A   1      32.417  21.943  23.582  1.00  0.00     0.125 A 
BRANCH   7  12
ATOM     12  C   UNL A   1      30.087  24.782  23.552  1.00  0.00     0.318 C 
BRANCH  12  13
ATOM     13  N   UNL A   1      29.962  25.975  24.413  1.00  0.00    -0.339 N 
ATOM     14  H   UNL A   1      28.995  26.032  24.734  1.00  0.00     0.346 HD
ATOM     15  H   UNL A   1      30.638  25.850  25.167  1.00  0.00     0.346 HD
BRANCH  13  16
ATOM     16  C   UNL A   1      30.304  27.261  23.771  1.00  0.00     0.179 C 
ATOM     17  C   UNL A   1      31.055  27.093  22.443  1.00  0.00     0.075 C 
BRANCH  16  18
ATOM     18  C   UNL A   1      31.182  28.046  24.779  1.00  0.00     0.068 C 
BRANCH  18  19
ATOM     19  C   UNL A   1      31.812  27.209  25.922  1.00  0.00    -0.009 C 
ATOM     20  C   UNL A   1      31.486  27.864  27.269  1.00  0.00     0.008 C 
BRANCH  19  21
ATOM     21  C   UNL A   1      33.328  27.020  25.733  1.00  0.00    -0.000 C 
ATOM     22  C   UNL A   1      33.962  28.073  24.832  1.00  0.00     0.004 C 
ENDBRANCH  19  21
ENDBRANCH  18  19
ENDBRANCH  16  18
ENDBRANCH  13  16
ENDBRANCH  12  13
ENDBRANCH   7  12
ENDBRANCH   3   6
ENDBRANCH   1   2
BRANCH   1  23
ATOM     23  C   UNL A   1      36.776  19.771  24.984  1.00  0.00     0.023 C 
BRANCH  23  24
ATOM     24  C   UNL A   1      38.084  20.568  24.863  1.00  0.00     0.023 C 
BRANCH  24  25
ATOM     25  C   UNL A   1      38.997  20.510  26.089  1.00  0.00     0.116 C 
BRANCH  25  26
ATOM     26  N   UNL A   1      40.033  19.493  25.994  1.00  0.00    -0.352 N 
ATOM     27  C   UNL A   1      41.395  19.653  26.117  1.00  0.00     0.251 C 
ATOM     28  H   UNL A   1      39.721  18.575  25.819  1.00  0.00     0.163 HD
ATOM     29  O   UNL A   1      42.150  18.716  25.914  1.00  0.00    -0.269 OA
BRANCH  27  30
ATOM     30  C   UNL A   1      41.929  20.991  26.453  1.00  0.00     0.039 A 
ATOM     31  C   UNL A   1      42.263  21.862  25.412  1.00  0.00     0.014 A 
ATOM     32  C   UNL A   1      42.053  21.395  27.784  1.00  0.00     0.014 A 
ATOM     33  C   UNL A   1      42.658  23.168  25.707  1.00  0.00     0.010 A 
ATOM     34  C   UNL A   1      42.386  22.715  28.073  1.00  0.00     0.010 A 
ATOM     35  C   UNL A   1      42.689  23.615  27.039  1.00  0.00    -0.014 A 
BRANCH  35  36
ATOM     36  C   UNL A   1      43.010  25.025  27.372  1.00  0.00     0.031 A 
ATOM     37  C   UNL A   1      44.421  25.529  27.246  1.00  0.00     0.074 A 
ATOM     38  C   UNL A   1      42.050  25.820  27.883  1.00  0.00     0.049 A 
ATOM     39  N   UNL A   1      44.905  26.705  27.547  1.00  0.00    -0.248 NA
ATOM     40  C   UNL A   1      45.427  24.578  26.743  1.00  0.00     0.031 C 
ATOM     41  C   UNL A   1      40.665  25.420  28.137  1.00  0.00     0.029 A 
ATOM     42  N   UNL A   1      42.101  27.124  28.309  1.00  0.00    -0.354 N 
ATOM     43  C   UNL A   1      46.271  26.626  27.309  1.00  0.00     0.074 A 
ATOM     44  C   UNL A   1      46.546  25.277  26.868  1.00  0.00     0.031 C 
ATOM     45  C   UNL A   1      39.998  26.455  28.672  1.00  0.00     0.029 A 
ATOM     46  C   UNL A   1      40.909  27.584  28.821  1.00  0.00     0.049 A 
ATOM     47  H   UNL A   1      42.913  27.677  28.256  1.00  0.00     0.167 HD
ATOM     48  C   UNL A   1      47.208  27.598  27.418  1.00  0.00     0.034 A 
ATOM     49  C   UNL A   1      40.588  28.782  29.349  1.00  0.00     0.034 A 
ATOM     50  C   UNL A   1      46.921  28.954  27.801  1.00  0.00     0.049 A 
ATOM     51  C   UNL A   1      41.635  29.862  29.399  1.00  0.00     0.074 A 
ATOM     52  C   UNL A   1      47.781  30.037  27.842  1.00  0.00     0.029 A 
ATOM     53  N   UNL A   1      45.679  29.412  28.212  1.00  0.00    -0.354 N 
ATOM     54  N   UNL A   1      42.884  29.818  29.004  1.00  0.00    -0.248 NA
ATOM     55  C   UNL A   1      41.219  31.168  29.930  1.00  0.00     0.031 C 
ATOM     56  C   UNL A   1      47.061  31.150  28.288  1.00  0.00     0.029 A 
ATOM     57  C   UNL A   1      45.749  30.762  28.513  1.00  0.00     0.049 A 
ATOM     58  H   UNL A   1      44.867  28.860  28.280  1.00  0.00     0.167 HD
ATOM     59  C   UNL A   1      43.393  31.096  29.204  1.00  0.00     0.074 A 
ATOM     60  C   UNL A   1      42.309  31.897  29.737  1.00  0.00     0.031 C 
ATOM     61  C   UNL A   1      44.647  31.560  28.983  1.00  0.00     0.034 A 
BRANCH  48  62
ATOM     62  C   UNL A   1      48.626  27.246  27.050  1.00  0.00     0.023 A 
ATOM     63  C   UNL A   1      48.976  27.120  25.691  1.00  0.00     0.012 A 
ATOM     64  C   UNL A   1      49.619  27.096  28.036  1.00  0.00     0.148 A 
ATOM     65  C   UNL A   1      50.285  26.818  25.318  1.00  0.00     0.002 A 
ATOM     66  C   UNL A   1      50.931  26.835  27.655  1.00  0.00     0.091 A 
ATOM     67  F   UNL A   1      49.264  27.195  29.325  1.00  0.00    -0.205 F 
ATOM     68  C   UNL A   1      51.263  26.686  26.299  1.00  0.00     0.022 A 
BRANCH  66  69
ATOM     69  S   UNL A   1      52.278  26.722  28.840  1.00  0.00     0.127 S 
ATOM     70  O   UNL A   1      53.313  26.062  28.047  1.00  0.00    -0.237 OA
ATOM     71  O   UNL A   1      52.545  28.129  29.141  1.00  0.00    -0.237 OA
ATOM     72  O   UNL A   1      51.759  25.951  29.962  1.00  0.00    -0.744 OA
ENDBRANCH  66  69
ENDBRANCH  48  62
BRANCH  49  73
ATOM     73  C   UNL A   1      39.191  29.049  29.792  1.00  0.00     0.023 A 
ATOM     74  C   UNL A   1      38.800  28.674  31.092  1.00  0.00     0.012 A 
ATOM     75  C   UNL A   1      38.262  29.697  28.956  1.00  0.00     0.148 A 
ATOM     76  C   UNL A   1      37.500  28.910  31.541  1.00  0.00     0.002 A 
ATOM     77  C   UNL A   1      36.984  29.977  29.428  1.00  0.00     0.091 A 
ATOM     78  F   UNL A   1      38.647  30.035  27.717  1.00  0.00    -0.205 F 
ATOM     79  C   UNL A   1      36.596  29.571  30.714  1.00  0.00     0.022 A 
BRANCH  77  80
ATOM     80  S   UNL A   1      35.801  30.940  28.478  1.00  0.00     0.127 S 
ATOM     81  O   UNL A   1      34.880  31.392  29.517  1.00  0.00    -0.237 OA
ATOM     82  O   UNL A   1      36.649  31.989  27.909  1.00  0.00    -0.237 OA
ATOM     83  O   UNL A   1      35.251  30.018  27.494  1.00  0.00    -0.744 OA
ENDBRANCH  77  80
ENDBRANCH  49  73
BRANCH  61  84
ATOM     84  C   UNL A   1      44.920  33.010  29.286  1.00  0.00     0.023 A 
ATOM     85  C   UNL A   1      45.320  33.387  30.583  1.00  0.00     0.012 A 
ATOM     86  C   UNL A   1      44.861  33.982  28.269  1.00  0.00     0.148 A 
ATOM     87  C   UNL A   1      45.631  34.716  30.869  1.00  0.00     0.002 A 
ATOM     88  C   UNL A   1      45.215  35.296  28.550  1.00  0.00     0.091 A 
ATOM     89  F   UNL A   1      44.457  33.606  27.046  1.00  0.00    -0.205 F 
ATOM     90  C   UNL A   1      45.591  35.667  29.851  1.00  0.00     0.022 A 
BRANCH  88  91
ATOM     91  S   UNL A   1      45.284  36.563  27.278  1.00  0.00     0.127 S 
ATOM     92  O   UNL A   1      43.866  36.863  27.081  1.00  0.00    -0.237 OA
ATOM     93  O   UNL A   1      46.046  37.626  27.936  1.00  0.00    -0.237 OA
ATOM     94  O   UNL A   1      45.960  35.952  26.143  1.00  0.00    -0.744 OA
ENDBRANCH  88  91
ENDBRANCH  61  84
ENDBRANCH  35  36
ENDBRANCH  27  30
ENDBRANCH  25  26
ENDBRANCH  24  25
ENDBRANCH  23  24
ENDBRANCH   1  23
TORSDOF 20
ENDMDL
