MODEL 1
REMARK VINA RESULT:     -12.1      0.000      0.000
REMARK SMILES CC1(C)CCCC[C@@]1(C(=O)NCCCCNC(=O)c1ccc(-c2c3nc(c(-c4cccc(S(=O)(=O)[O-])c4F)c4ccc([nH]4)c(-c4cccc(S(=O)(=O)[O-])c4F)c4nc(c(-c5cccc(S(=O)(=O)[O-])c5F)c5ccc2[nH]5)C=C4)C=C3)cc1)[NH+]1CC[NH2+]CC1
REMARK SMILES IDX 14 1 13 2 12 3 11 4 9 5 10 6 8 8 1 9 2 10 3 11 4 12 5 13
REMARK SMILES IDX 7 14 6 15 82 16 83 17 87 18 84 20 86 21 85 22 15 25 16 26
REMARK SMILES IDX 17 27 18 29 19 30 20 31 81 32 21 33 80 34 22 35 23 36 24 37
REMARK SMILES IDX 74 38 25 39 79 40 73 41 75 42 26 43 78 44 72 45 71 46 27 48
REMARK SMILES IDX 59 49 39 50 58 51 40 52 43 53 57 54 76 55 41 56 42 57 56 59
REMARK SMILES IDX 77 60 44 61 28 62 29 63 37 64 30 65 32 66 38 67 31 68 33 69
REMARK SMILES IDX 34 70 35 71 36 72 60 73 61 74 69 75 62 76 64 77 70 78 63 79
REMARK SMILES IDX 65 80 66 81 67 82 68 83 45 84 46 85 54 86 47 87 49 88 55 89
REMARK SMILES IDX 48 90 50 91 51 92 52 93 53 94
REMARK H PARENT 11 7 82 19 85 23 85 24 16 28 75 47 43 58
REMARK Flexibility Score: inf
ROOT
ATOM      1  C   UNL A   1      36.656  21.952  24.101  1.00  0.00     0.023 C 
ENDROOT
BRANCH   1   2
ATOM      2  C   UNL A   1      36.130  23.381  23.968  1.00  0.00     0.023 C 
BRANCH   2   3
ATOM      3  C   UNL A   1      35.717  24.106  25.248  1.00  0.00     0.116 C 
BRANCH   3   4
ATOM      4  N   UNL A   1      34.902  25.290  25.076  1.00  0.00    -0.351 N 
ATOM      5  C   UNL A   1      33.563  25.501  25.280  1.00  0.00     0.281 C 
ATOM      6  O   UNL A   1      33.289  26.696  25.469  1.00  0.00    -0.268 OA
ATOM      7  H   UNL A   1      35.395  26.080  24.755  1.00  0.00     0.163 HD
BRANCH   5   8
ATOM      8  C   UNL A   1      32.382  24.387  25.183  1.00  0.00     0.182 C 
ATOM      9  C   UNL A   1      30.642  23.463  23.332  1.00  0.00     0.018 C 
ATOM     10  C   UNL A   1      31.753  24.504  23.678  1.00  0.00     0.029 C 
ATOM     11  C   UNL A   1      32.850  24.381  22.596  1.00  0.00     0.018 C 
ATOM     12  C   UNL A   1      31.051  25.889  23.473  1.00  0.00     0.013 C 
ATOM     13  C   UNL A   1      29.942  26.142  24.489  1.00  0.00     0.001 C 
ATOM     14  C   UNL A   1      31.266  24.811  26.209  1.00  0.00     0.080 C 
ATOM     15  C   UNL A   1      30.467  26.082  25.907  1.00  0.00     0.007 C 
BRANCH   8  16
ATOM     16  N   UNL A   1      32.961  23.051  25.608  1.00  0.00    -0.313 N 
ATOM     17  C   UNL A   1      32.570  21.842  24.874  1.00  0.00     0.325 C 
ATOM     18  C   UNL A   1      32.879  22.764  27.063  1.00  0.00     0.325 C 
ATOM     19  H   UNL A   1      33.925  23.240  25.336  1.00  0.00     0.349 HD
ATOM     20  C   UNL A   1      33.278  20.539  25.338  1.00  0.00     0.322 C 
ATOM     21  C   UNL A   1      33.730  21.533  27.455  1.00  0.00     0.322 C 
ATOM     22  N   UNL A   1      33.259  20.309  26.789  1.00  0.00    -0.337 N 
ATOM     23  H   UNL A   1      33.874  19.530  27.023  1.00  0.00     0.346 HD
ATOM     24  H   UNL A   1      32.314  20.083  27.097  1.00  0.00     0.346 HD
ENDBRANCH   8  16
ENDBRANCH   5   8
ENDBRANCH   3   4
ENDBRANCH   2   3
ENDBRANCH   1   2
BRANCH   1  25
ATOM     25  C   UNL A   1      36.900  21.426  25.513  1.00  0.00     0.116 C 
BRANCH  25  26
ATOM     26  N   UNL A   1      38.042  20.526  25.628  1.00  0.00    -0.352 N 
ATOM     27  C   UNL A   1      39.324  20.756  26.074  1.00  0.00     0.251 C 
ATOM     28  H   UNL A   1      37.867  19.601  25.340  1.00  0.00     0.163 HD
ATOM     29  O   UNL A   1      40.157  19.852  26.019  1.00  0.00    -0.269 OA
BRANCH  27  30
ATOM     30  C   UNL A   1      39.724  22.090  26.577  1.00  0.00     0.039 A 
ATOM     31  C   UNL A   1      40.727  22.175  27.549  1.00  0.00     0.014 A 
ATOM     32  C   UNL A   1      39.132  23.256  26.089  1.00  0.00     0.014 A 
ATOM     33  C   UNL A   1      41.210  23.427  27.944  1.00  0.00     0.010 A 
ATOM     34  C   UNL A   1      39.674  24.496  26.416  1.00  0.00     0.010 A 
ATOM     35  C   UNL A   1      40.726  24.598  27.341  1.00  0.00    -0.014 A 
BRANCH  35  36
ATOM     36  C   UNL A   1      41.324  25.931  27.630  1.00  0.00     0.031 A 
ATOM     37  C   UNL A   1      42.747  26.231  27.235  1.00  0.00     0.074 A 
ATOM     38  C   UNL A   1      40.624  26.838  28.343  1.00  0.00     0.049 A 
ATOM     39  N   UNL A   1      43.463  27.298  27.476  1.00  0.00    -0.248 NA
ATOM     40  C   UNL A   1      43.471  25.180  26.501  1.00  0.00     0.031 C 
ATOM     41  C   UNL A   1      39.269  26.641  28.864  1.00  0.00     0.029 A 
ATOM     42  N   UNL A   1      40.965  28.095  28.780  1.00  0.00    -0.354 N 
ATOM     43  C   UNL A   1      44.727  27.033  26.964  1.00  0.00     0.074 A 
ATOM     44  C   UNL A   1      44.693  25.690  26.429  1.00  0.00     0.031 C 
ATOM     45  C   UNL A   1      38.893  27.737  29.544  1.00  0.00     0.029 A 
ATOM     46  C   UNL A   1      39.987  28.702  29.536  1.00  0.00     0.049 A 
ATOM     47  H   UNL A   1      41.826  28.521  28.573  1.00  0.00     0.167 HD
ATOM     48  C   UNL A   1      45.811  27.844  26.911  1.00  0.00     0.034 A 
ATOM     49  C   UNL A   1      39.974  29.897  30.159  1.00  0.00     0.034 A 
ATOM     50  C   UNL A   1      45.830  29.199  27.393  1.00  0.00     0.049 A 
ATOM     51  C   UNL A   1      41.174  30.799  30.040  1.00  0.00     0.074 A 
ATOM     52  C   UNL A   1      46.848  30.131  27.296  1.00  0.00     0.029 A 
ATOM     53  N   UNL A   1      44.785  29.815  28.063  1.00  0.00    -0.354 N 
ATOM     54  N   UNL A   1      42.301  30.591  29.404  1.00  0.00    -0.248 NA
ATOM     55  C   UNL A   1      41.087  32.113  30.693  1.00  0.00     0.031 C 
ATOM     56  C   UNL A   1      46.424  31.307  27.926  1.00  0.00     0.029 A 
ATOM     57  C   UNL A   1      45.135  31.113  28.394  1.00  0.00     0.049 A 
ATOM     58  H   UNL A   1      43.922  29.391  28.274  1.00  0.00     0.167 HD
ATOM     59  C   UNL A   1      43.042  31.759  29.549  1.00  0.00     0.074 A 
ATOM     60  C   UNL A   1      42.225  32.679  30.313  1.00  0.00     0.031 C 
ATOM     61  C   UNL A   1      44.291  32.039  29.103  1.00  0.00     0.034 A 
BRANCH  48  62
ATOM     62  C   UNL A   1      47.056  27.309  26.249  1.00  0.00     0.023 A 
ATOM     63  C   UNL A   1      47.285  27.578  24.884  1.00  0.00     0.012 A 
ATOM     64  C   UNL A   1      48.024  26.598  26.985  1.00  0.00     0.148 A 
ATOM     65  C   UNL A   1      48.438  27.118  24.252  1.00  0.00     0.002 A 
ATOM     66  C   UNL A   1      49.194  26.182  26.359  1.00  0.00     0.091 A 
ATOM     67  F   UNL A   1      47.781  26.335  28.276  1.00  0.00    -0.205 F 
ATOM     68  C   UNL A   1      49.397  26.430  24.990  1.00  0.00     0.022 A 
BRANCH  66  69
ATOM     69  S   UNL A   1      50.527  25.360  27.237  1.00  0.00     0.127 S 
ATOM     70  O   UNL A   1      50.928  26.389  28.195  1.00  0.00    -0.237 OA
ATOM     71  O   UNL A   1      49.843  24.210  27.829  1.00  0.00    -0.237 OA
ATOM     72  O   UNL A   1      51.524  25.021  26.230  1.00  0.00    -0.744 OA
ENDBRANCH  66  69
ENDBRANCH  48  62
BRANCH  49  73
ATOM     73  C   UNL A   1      38.757  30.346  30.895  1.00  0.00     0.023 A 
ATOM     74  C   UNL A   1      38.648  30.076  32.274  1.00  0.00     0.012 A 
ATOM     75  C   UNL A   1      37.720  31.046  30.250  1.00  0.00     0.148 A 
ATOM     76  C   UNL A   1      37.513  30.462  32.988  1.00  0.00     0.002 A 
ATOM     77  C   UNL A   1      36.617  31.477  30.980  1.00  0.00     0.091 A 
ATOM     78  F   UNL A   1      37.834  31.282  28.936  1.00  0.00    -0.205 F 
ATOM     79  C   UNL A   1      36.502  31.170  32.344  1.00  0.00     0.022 A 
BRANCH  77  80
ATOM     80  S   UNL A   1      35.331  32.507  30.261  1.00  0.00     0.127 S 
ATOM     81  O   UNL A   1      36.073  33.716  29.917  1.00  0.00    -0.237 OA
ATOM     82  O   UNL A   1      34.901  31.701  29.118  1.00  0.00    -0.237 OA
ATOM     83  O   UNL A   1      34.322  32.653  31.301  1.00  0.00    -0.744 OA
ENDBRANCH  77  80
ENDBRANCH  49  73
BRANCH  61  84
ATOM     84  C   UNL A   1      44.849  33.407  29.394  1.00  0.00     0.023 A 
ATOM     85  C   UNL A   1      45.544  33.640  30.597  1.00  0.00     0.012 A 
ATOM     86  C   UNL A   1      44.750  34.441  28.441  1.00  0.00     0.148 A 
ATOM     87  C   UNL A   1      46.107  34.888  30.861  1.00  0.00     0.002 A 
ATOM     88  C   UNL A   1      45.356  35.667  28.690  1.00  0.00     0.091 A 
ATOM     89  F   UNL A   1      44.068  34.207  27.311  1.00  0.00    -0.205 F 
ATOM     90  C   UNL A   1      46.023  35.897  29.903  1.00  0.00     0.022 A 
BRANCH  88  91
ATOM     91  S   UNL A   1      45.382  36.991  27.476  1.00  0.00     0.127 S 
ATOM     92  O   UNL A   1      43.956  37.236  27.271  1.00  0.00    -0.237 OA
ATOM     93  O   UNL A   1      46.087  38.055  28.191  1.00  0.00    -0.237 OA
ATOM     94  O   UNL A   1      46.098  36.462  26.322  1.00  0.00    -0.744 OA
ENDBRANCH  88  91
ENDBRANCH  61  84
ENDBRANCH  35  36
ENDBRANCH  27  30
ENDBRANCH  25  26
ENDBRANCH   1  25
TORSDOF 15
ENDMDL
MODEL 2
REMARK VINA RESULT:     -11.9      5.171     10.147
REMARK SMILES CC1(C)CCCC[C@@]1(C(=O)NCCCCNC(=O)c1ccc(-c2c3nc(c(-c4cccc(S(=O)(=O)[O-])c4F)c4ccc([nH]4)c(-c4cccc(S(=O)(=O)[O-])c4F)c4nc(c(-c5cccc(S(=O)(=O)[O-])c5F)c5ccc2[nH]5)C=C4)C=C3)cc1)[NH+]1CC[NH2+]CC1
REMARK SMILES IDX 14 1 13 2 12 3 11 4 9 5 10 6 8 8 1 9 2 10 3 11 4 12 5 13
REMARK SMILES IDX 7 14 6 15 82 16 83 17 87 18 84 20 86 21 85 22 15 25 16 26
REMARK SMILES IDX 17 27 18 29 19 30 20 31 81 32 21 33 80 34 22 35 23 36 24 37
REMARK SMILES IDX 74 38 25 39 79 40 73 41 75 42 26 43 78 44 72 45 71 46 27 48
REMARK SMILES IDX 59 49 39 50 58 51 40 52 43 53 57 54 76 55 41 56 42 57 56 59
REMARK SMILES IDX 77 60 44 61 28 62 29 63 37 64 30 65 32 66 38 67 31 68 33 69
REMARK SMILES IDX 34 70 35 71 36 72 60 73 61 74 69 75 62 76 64 77 70 78 63 79
REMARK SMILES IDX 65 80 66 81 67 82 68 83 45 84 46 85 54 86 47 87 49 88 55 89
REMARK SMILES IDX 48 90 50 91 51 92 52 93 53 94
REMARK H PARENT 11 7 82 19 85 23 85 24 16 28 75 47 43 58
REMARK Flexibility Score: inf
ROOT
ATOM      1  C   UNL A   1      31.570  29.480  26.644  1.00  0.00     0.023 C 
ENDROOT
BRANCH   1   2
ATOM      2  C   UNL A   1      31.715  28.318  27.625  1.00  0.00     0.023 C 
BRANCH   2   3
ATOM      3  C   UNL A   1      32.350  27.029  27.108  1.00  0.00     0.116 C 
BRANCH   3   4
ATOM      4  N   UNL A   1      31.439  26.038  26.575  1.00  0.00    -0.351 N 
ATOM      5  C   UNL A   1      31.592  25.121  25.568  1.00  0.00     0.281 C 
ATOM      6  O   UNL A   1      30.813  24.161  25.670  1.00  0.00    -0.268 OA
ATOM      7  H   UNL A   1      30.556  26.020  27.011  1.00  0.00     0.163 HD
BRANCH   5   8
ATOM      8  C   UNL A   1      32.574  25.255  24.277  1.00  0.00     0.182 C 
ATOM      9  C   UNL A   1      33.277  23.774  22.128  1.00  0.00     0.018 C 
ATOM     10  C   UNL A   1      32.467  23.841  23.462  1.00  0.00     0.029 C 
ATOM     11  C   UNL A   1      31.000  23.492  23.126  1.00  0.00     0.018 C 
ATOM     12  C   UNL A   1      33.044  22.662  24.314  1.00  0.00     0.013 C 
ATOM     13  C   UNL A   1      34.497  22.884  24.721  1.00  0.00     0.001 C 
ATOM     14  C   UNL A   1      34.042  25.388  24.829  1.00  0.00     0.080 C 
ATOM     15  C   UNL A   1      34.659  24.164  25.513  1.00  0.00     0.007 C 
BRANCH   8  16
ATOM     16  N   UNL A   1      32.206  26.529  23.540  1.00  0.00    -0.313 N 
ATOM     17  C   UNL A   1      33.106  27.686  23.630  1.00  0.00     0.325 C 
ATOM     18  C   UNL A   1      30.814  27.000  23.753  1.00  0.00     0.325 C 
ATOM     19  H   UNL A   1      32.319  26.165  22.595  1.00  0.00     0.349 HD
ATOM     20  C   UNL A   1      32.678  28.913  22.778  1.00  0.00     0.322 C 
ATOM     21  C   UNL A   1      30.430  28.126  22.763  1.00  0.00     0.322 C 
ATOM     22  N   UNL A   1      31.276  29.317  22.938  1.00  0.00    -0.337 N 
ATOM     23  H   UNL A   1      31.036  30.016  22.235  1.00  0.00     0.346 HD
ATOM     24  H   UNL A   1      31.128  29.719  23.863  1.00  0.00     0.346 HD
ENDBRANCH   8  16
ENDBRANCH   5   8
ENDBRANCH   3   4
ENDBRANCH   2   3
ENDBRANCH   1   2
BRANCH   1  25
ATOM     25  C   UNL A   1      32.828  30.282  26.321  1.00  0.00     0.116 C 
BRANCH  25  26
ATOM     26  N   UNL A   1      32.816  31.648  26.833  1.00  0.00    -0.352 N 
ATOM     27  C   UNL A   1      33.722  32.316  27.626  1.00  0.00     0.251 C 
ATOM     28  H   UNL A   1      32.032  32.180  26.568  1.00  0.00     0.163 HD
ATOM     29  O   UNL A   1      33.473  33.461  28.000  1.00  0.00    -0.269 OA
BRANCH  27  30
ATOM     30  C   UNL A   1      34.972  31.658  28.071  1.00  0.00     0.039 A 
ATOM     31  C   UNL A   1      36.140  32.420  28.174  1.00  0.00     0.014 A 
ATOM     32  C   UNL A   1      34.999  30.302  28.401  1.00  0.00     0.014 A 
ATOM     33  C   UNL A   1      37.299  31.851  28.713  1.00  0.00     0.010 A 
ATOM     34  C   UNL A   1      36.123  29.763  29.020  1.00  0.00     0.010 A 
ATOM     35  C   UNL A   1      37.285  30.532  29.193  1.00  0.00    -0.014 A 
BRANCH  35  36
ATOM     36  C   UNL A   1      38.454  29.948  29.908  1.00  0.00     0.031 A 
ATOM     37  C   UNL A   1      38.822  30.429  31.287  1.00  0.00     0.074 A 
ATOM     38  C   UNL A   1      39.249  29.060  29.275  1.00  0.00     0.049 A 
ATOM     39  N   UNL A   1      39.848  30.101  32.029  1.00  0.00    -0.248 NA
ATOM     40  C   UNL A   1      37.939  31.433  31.902  1.00  0.00     0.031 C 
ATOM     41  C   UNL A   1      39.058  28.578  27.905  1.00  0.00     0.029 A 
ATOM     42  N   UNL A   1      40.397  28.429  29.687  1.00  0.00    -0.354 N 
ATOM     43  C   UNL A   1      39.759  30.885  33.172  1.00  0.00     0.074 A 
ATOM     44  C   UNL A   1      38.598  31.731  33.013  1.00  0.00     0.031 C 
ATOM     45  C   UNL A   1      40.047  27.725  27.594  1.00  0.00     0.029 A 
ATOM     46  C   UNL A   1      40.962  27.621  28.726  1.00  0.00     0.049 A 
ATOM     47  H   UNL A   1      40.781  28.543  30.586  1.00  0.00     0.167 HD
ATOM     48  C   UNL A   1      40.551  30.880  34.272  1.00  0.00     0.034 A 
ATOM     49  C   UNL A   1      42.091  26.886  28.748  1.00  0.00     0.034 A 
ATOM     50  C   UNL A   1      41.673  30.000  34.454  1.00  0.00     0.049 A 
ATOM     51  C   UNL A   1      42.924  26.860  30.002  1.00  0.00     0.074 A 
ATOM     52  C   UNL A   1      42.476  29.851  35.571  1.00  0.00     0.029 A 
ATOM     53  N   UNL A   1      42.154  29.122  33.496  1.00  0.00    -0.354 N 
ATOM     54  N   UNL A   1      42.724  27.484  31.137  1.00  0.00    -0.248 NA
ATOM     55  C   UNL A   1      44.116  25.999  29.993  1.00  0.00     0.031 C 
ATOM     56  C   UNL A   1      43.456  28.896  35.281  1.00  0.00     0.029 A 
ATOM     57  C   UNL A   1      43.248  28.433  33.992  1.00  0.00     0.049 A 
ATOM     58  H   UNL A   1      41.775  29.007  32.595  1.00  0.00     0.167 HD
ATOM     59  C   UNL A   1      43.743  27.066  31.987  1.00  0.00     0.074 A 
ATOM     60  C   UNL A   1      44.543  26.116  31.242  1.00  0.00     0.031 C 
ATOM     61  C   UNL A   1      44.001  27.447  33.262  1.00  0.00     0.034 A 
BRANCH  48  62
ATOM     62  C   UNL A   1      40.191  31.814  35.399  1.00  0.00     0.023 A 
ATOM     63  C   UNL A   1      40.884  33.035  35.536  1.00  0.00     0.012 A 
ATOM     64  C   UNL A   1      39.133  31.519  36.280  1.00  0.00     0.148 A 
ATOM     65  C   UNL A   1      40.556  33.930  36.552  1.00  0.00     0.002 A 
ATOM     66  C   UNL A   1      38.781  32.437  37.263  1.00  0.00     0.091 A 
ATOM     67  F   UNL A   1      38.497  30.347  36.148  1.00  0.00    -0.205 F 
ATOM     68  C   UNL A   1      39.499  33.636  37.408  1.00  0.00     0.022 A 
BRANCH  66  69
ATOM     69  S   UNL A   1      37.384  32.193  38.366  1.00  0.00     0.127 S 
ATOM     70  O   UNL A   1      37.932  32.653  39.641  1.00  0.00    -0.237 OA
ATOM     71  O   UNL A   1      36.373  33.076  37.783  1.00  0.00    -0.237 OA
ATOM     72  O   UNL A   1      37.062  30.774  38.300  1.00  0.00    -0.744 OA
ENDBRANCH  66  69
ENDBRANCH  48  62
BRANCH  49  73
ATOM     73  C   UNL A   1      42.468  26.055  27.568  1.00  0.00     0.023 A 
ATOM     74  C   UNL A   1      43.263  26.621  26.552  1.00  0.00     0.012 A 
ATOM     75  C   UNL A   1      42.062  24.711  27.451  1.00  0.00     0.148 A 
ATOM     76  C   UNL A   1      43.616  25.878  25.425  1.00  0.00     0.002 A 
ATOM     77  C   UNL A   1      42.463  23.960  26.352  1.00  0.00     0.091 A 
ATOM     78  F   UNL A   1      41.295  24.193  28.420  1.00  0.00    -0.205 F 
ATOM     79  C   UNL A   1      43.224  24.546  25.329  1.00  0.00     0.022 A 
BRANCH  77  80
ATOM     80  S   UNL A   1      42.115  22.203  26.209  1.00  0.00     0.127 S 
ATOM     81  O   UNL A   1      42.617  21.693  27.481  1.00  0.00    -0.237 OA
ATOM     82  O   UNL A   1      40.658  22.193  26.072  1.00  0.00    -0.237 OA
ATOM     83  O   UNL A   1      42.829  21.760  25.019  1.00  0.00    -0.744 OA
ENDBRANCH  77  80
ENDBRANCH  49  73
BRANCH  61  84
ATOM     84  C   UNL A   1      45.177  26.813  33.958  1.00  0.00     0.023 A 
ATOM     85  C   UNL A   1      46.436  27.445  33.924  1.00  0.00     0.012 A 
ATOM     86  C   UNL A   1      45.016  25.631  34.709  1.00  0.00     0.148 A 
ATOM     87  C   UNL A   1      47.523  26.895  34.602  1.00  0.00     0.002 A 
ATOM     88  C   UNL A   1      46.092  25.116  35.422  1.00  0.00     0.091 A 
ATOM     89  F   UNL A   1      43.815  25.034  34.714  1.00  0.00    -0.205 F 
ATOM     90  C   UNL A   1      47.348  25.739  35.359  1.00  0.00     0.022 A 
BRANCH  88  91
ATOM     91  S   UNL A   1      45.936  23.688  36.501  1.00  0.00     0.127 S 
ATOM     92  O   UNL A   1      47.275  23.605  37.080  1.00  0.00    -0.237 OA
ATOM     93  O   UNL A   1      44.894  24.117  37.434  1.00  0.00    -0.237 OA
ATOM     94  O   UNL A   1      45.556  22.576  35.641  1.00  0.00    -0.744 OA
ENDBRANCH  88  91
ENDBRANCH  61  84
ENDBRANCH  35  36
ENDBRANCH  27  30
ENDBRANCH  25  26
ENDBRANCH   1  25
TORSDOF 15
ENDMDL
MODEL 3
REMARK VINA RESULT:     -11.9      4.828     10.040
REMARK SMILES CC1(C)CCCC[C@@]1(C(=O)NCCCCNC(=O)c1ccc(-c2c3nc(c(-c4cccc(S(=O)(=O)[O-])c4F)c4ccc([nH]4)c(-c4cccc(S(=O)(=O)[O-])c4F)c4nc(c(-c5cccc(S(=O)(=O)[O-])c5F)c5ccc2[nH]5)C=C4)C=C3)cc1)[NH+]1CC[NH2+]CC1
REMARK SMILES IDX 14 1 13 2 12 3 11 4 9 5 10 6 8 8 1 9 2 10 3 11 4 12 5 13
REMARK SMILES IDX 7 14 6 15 82 16 83 17 87 18 84 20 86 21 85 22 15 25 16 26
REMARK SMILES IDX 17 27 18 29 19 30 20 31 81 32 21 33 80 34 22 35 23 36 24 37
REMARK SMILES IDX 74 38 25 39 79 40 73 41 75 42 26 43 78 44 72 45 71 46 27 48
REMARK SMILES IDX 59 49 39 50 58 51 40 52 43 53 57 54 76 55 41 56 42 57 56 59
REMARK SMILES IDX 77 60 44 61 28 62 29 63 37 64 30 65 32 66 38 67 31 68 33 69
REMARK SMILES IDX 34 70 35 71 36 72 60 73 61 74 69 75 62 76 64 77 70 78 63 79
REMARK SMILES IDX 65 80 66 81 67 82 68 83 45 84 46 85 54 86 47 87 49 88 55 89
REMARK SMILES IDX 48 90 50 91 51 92 52 93 53 94
REMARK H PARENT 11 7 82 19 85 23 85 24 16 28 75 47 43 58
REMARK Flexibility Score: inf
ROOT
ATOM      1  C   UNL A   1      31.700  29.067  26.866  1.00  0.00     0.023 C 
ENDROOT
BRANCH   1   2
ATOM      2  C   UNL A   1      32.032  27.591  26.650  1.00  0.00     0.023 C 
BRANCH   2   3
ATOM      3  C   UNL A   1      30.957  26.707  26.023  1.00  0.00     0.116 C 
BRANCH   3   4
ATOM      4  N   UNL A   1      30.892  25.342  26.502  1.00  0.00    -0.351 N 
ATOM      5  C   UNL A   1      31.783  24.306  26.397  1.00  0.00     0.281 C 
ATOM      6  O   UNL A   1      31.625  23.445  27.276  1.00  0.00    -0.268 OA
ATOM      7  H   UNL A   1      30.064  25.120  26.987  1.00  0.00     0.163 HD
BRANCH   5   8
ATOM      8  C   UNL A   1      32.878  24.088  25.214  1.00  0.00     0.182 C 
ATOM      9  C   UNL A   1      33.711  22.089  23.595  1.00  0.00     0.018 C 
ATOM     10  C   UNL A   1      32.791  22.512  24.784  1.00  0.00     0.029 C 
ATOM     11  C   UNL A   1      31.347  22.106  24.413  1.00  0.00     0.018 C 
ATOM     12  C   UNL A   1      33.246  21.587  25.962  1.00  0.00     0.013 C 
ATOM     13  C   UNL A   1      34.665  21.889  26.433  1.00  0.00     0.001 C 
ATOM     14  C   UNL A   1      34.296  24.340  25.849  1.00  0.00     0.080 C 
ATOM     15  C   UNL A   1      34.805  23.328  26.880  1.00  0.00     0.007 C 
BRANCH   8  16
ATOM     16  N   UNL A   1      32.624  25.131  24.142  1.00  0.00    -0.313 N 
ATOM     17  C   UNL A   1      31.708  24.809  23.041  1.00  0.00     0.325 C 
ATOM     18  C   UNL A   1      33.844  25.755  23.570  1.00  0.00     0.325 C 
ATOM     19  H   UNL A   1      32.125  25.796  24.731  1.00  0.00     0.349 HD
ATOM     20  C   UNL A   1      31.457  25.971  22.040  1.00  0.00     0.322 C 
ATOM     21  C   UNL A   1      33.505  26.990  22.703  1.00  0.00     0.322 C 
ATOM     22  N   UNL A   1      32.671  26.632  21.545  1.00  0.00    -0.337 N 
ATOM     23  H   UNL A   1      32.419  27.474  21.028  1.00  0.00     0.346 HD
ATOM     24  H   UNL A   1      33.184  26.008  20.923  1.00  0.00     0.346 HD
ENDBRANCH   8  16
ENDBRANCH   5   8
ENDBRANCH   3   4
ENDBRANCH   2   3
ENDBRANCH   1   2
BRANCH   1  25
ATOM     25  C   UNL A   1      32.449  30.083  26.008  1.00  0.00     0.116 C 
BRANCH  25  26
ATOM     26  N   UNL A   1      32.344  31.459  26.479  1.00  0.00    -0.352 N 
ATOM     27  C   UNL A   1      33.182  32.197  27.285  1.00  0.00     0.251 C 
ATOM     28  H   UNL A   1      31.542  31.940  26.171  1.00  0.00     0.163 HD
ATOM     29  O   UNL A   1      32.856  33.337  27.617  1.00  0.00    -0.269 OA
BRANCH  27  30
ATOM     30  C   UNL A   1      34.447  31.621  27.795  1.00  0.00     0.039 A 
ATOM     31  C   UNL A   1      35.536  32.469  28.020  1.00  0.00     0.014 A 
ATOM     32  C   UNL A   1      34.564  30.257  28.066  1.00  0.00     0.014 A 
ATOM     33  C   UNL A   1      36.697  31.969  28.620  1.00  0.00     0.010 A 
ATOM     34  C   UNL A   1      35.683  29.780  28.744  1.00  0.00     0.010 A 
ATOM     35  C   UNL A   1      36.760  30.631  29.038  1.00  0.00    -0.014 A 
BRANCH  35  36
ATOM     36  C   UNL A   1      37.919  30.108  29.814  1.00  0.00     0.031 A 
ATOM     37  C   UNL A   1      38.181  30.595  31.215  1.00  0.00     0.074 A 
ATOM     38  C   UNL A   1      38.799  29.275  29.220  1.00  0.00     0.049 A 
ATOM     39  N   UNL A   1      39.182  30.319  32.011  1.00  0.00    -0.248 NA
ATOM     40  C   UNL A   1      37.207  31.540  31.787  1.00  0.00     0.031 C 
ATOM     41  C   UNL A   1      38.713  28.797  27.838  1.00  0.00     0.029 A 
ATOM     42  N   UNL A   1      39.958  28.707  29.692  1.00  0.00    -0.354 N 
ATOM     43  C   UNL A   1      38.983  31.085  33.154  1.00  0.00     0.074 A 
ATOM     44  C   UNL A   1      37.784  31.864  32.936  1.00  0.00     0.031 C 
ATOM     45  C   UNL A   1      39.767  28.006  27.577  1.00  0.00     0.029 A 
ATOM     46  C   UNL A   1      40.621  27.944  28.758  1.00  0.00     0.049 A 
ATOM     47  H   UNL A   1      40.283  28.833  30.612  1.00  0.00     0.167 HD
ATOM     48  C   UNL A   1      39.711  31.114  34.296  1.00  0.00     0.034 A 
ATOM     49  C   UNL A   1      41.789  27.275  28.839  1.00  0.00     0.034 A 
ATOM     50  C   UNL A   1      40.871  30.299  34.535  1.00  0.00     0.049 A 
ATOM     51  C   UNL A   1      42.550  27.284  30.138  1.00  0.00     0.074 A 
ATOM     52  C   UNL A   1      41.617  30.185  35.695  1.00  0.00     0.029 A 
ATOM     53  N   UNL A   1      41.456  29.461  33.599  1.00  0.00    -0.354 N 
ATOM     54  N   UNL A   1      42.251  27.884  31.264  1.00  0.00    -0.248 NA
ATOM     55  C   UNL A   1      43.789  26.495  30.189  1.00  0.00     0.031 C 
ATOM     56  C   UNL A   1      42.666  29.291  35.452  1.00  0.00     0.029 A 
ATOM     57  C   UNL A   1      42.558  28.831  34.150  1.00  0.00     0.049 A 
ATOM     58  H   UNL A   1      41.134  29.333  32.677  1.00  0.00     0.167 HD
ATOM     59  C   UNL A   1      43.243  27.517  32.167  1.00  0.00     0.074 A 
ATOM     60  C   UNL A   1      44.138  26.623  31.461  1.00  0.00     0.031 C 
ATOM     61  C   UNL A   1      43.407  27.898  33.457  1.00  0.00     0.034 A 
BRANCH  48  62
ATOM     62  C   UNL A   1      39.234  32.014  35.408  1.00  0.00     0.023 A 
ATOM     63  C   UNL A   1      38.294  31.526  36.340  1.00  0.00     0.012 A 
ATOM     64  C   UNL A   1      39.757  33.311  35.569  1.00  0.00     0.148 A 
ATOM     65  C   UNL A   1      37.856  32.326  37.393  1.00  0.00     0.002 A 
ATOM     66  C   UNL A   1      39.349  34.087  36.648  1.00  0.00     0.091 A 
ATOM     67  F   UNL A   1      40.634  33.765  34.664  1.00  0.00    -0.205 F 
ATOM     68  C   UNL A   1      38.390  33.602  37.553  1.00  0.00     0.022 A 
BRANCH  66  69
ATOM     69  S   UNL A   1      40.034  35.712  36.992  1.00  0.00     0.127 S 
ATOM     70  O   UNL A   1      39.653  36.453  35.791  1.00  0.00    -0.237 OA
ATOM     71  O   UNL A   1      39.311  36.101  38.204  1.00  0.00    -0.237 OA
ATOM     72  O   UNL A   1      41.465  35.514  37.176  1.00  0.00    -0.744 OA
ENDBRANCH  66  69
ENDBRANCH  48  62
BRANCH  49  73
ATOM     73  C   UNL A   1      42.279  26.480  27.676  1.00  0.00     0.023 A 
ATOM     74  C   UNL A   1      43.103  27.101  26.715  1.00  0.00     0.012 A 
ATOM     75  C   UNL A   1      41.952  25.119  27.521  1.00  0.00     0.148 A 
ATOM     76  C   UNL A   1      43.561  26.391  25.604  1.00  0.00     0.002 A 
ATOM     77  C   UNL A   1      42.458  24.404  26.441  1.00  0.00     0.091 A 
ATOM     78  F   UNL A   1      41.157  24.549  28.437  1.00  0.00    -0.205 F 
ATOM     79  C   UNL A   1      43.246  25.042  25.471  1.00  0.00     0.022 A 
BRANCH  77  80
ATOM     80  S   UNL A   1      42.212  22.633  26.260  1.00  0.00     0.127 S 
ATOM     81  O   UNL A   1      40.757  22.537  26.199  1.00  0.00    -0.237 OA
ATOM     82  O   UNL A   1      42.902  22.358  24.999  1.00  0.00    -0.237 OA
ATOM     83  O   UNL A   1      42.842  22.031  27.428  1.00  0.00    -0.744 OA
ENDBRANCH  77  80
ENDBRANCH  49  73
BRANCH  61  84
ATOM     84  C   UNL A   1      44.578  27.326  34.213  1.00  0.00     0.023 A 
ATOM     85  C   UNL A   1      45.815  28.001  34.207  1.00  0.00     0.012 A 
ATOM     86  C   UNL A   1      44.430  26.161  34.992  1.00  0.00     0.148 A 
ATOM     87  C   UNL A   1      46.894  27.510  34.939  1.00  0.00     0.002 A 
ATOM     88  C   UNL A   1      45.496  25.705  35.759  1.00  0.00     0.091 A 
ATOM     89  F   UNL A   1      43.251  25.522  34.971  1.00  0.00    -0.205 F 
ATOM     90  C   UNL A   1      46.731  26.370  35.724  1.00  0.00     0.022 A 
BRANCH  88  91
ATOM     91  S   UNL A   1      45.349  24.303  36.873  1.00  0.00     0.127 S 
ATOM     92  O   UNL A   1      44.896  23.249  35.968  1.00  0.00    -0.237 OA
ATOM     93  O   UNL A   1      46.722  24.145  37.354  1.00  0.00    -0.237 OA
ATOM     94  O   UNL A   1      44.393  24.703  37.897  1.00  0.00    -0.744 OA
ENDBRANCH  88  91
ENDBRANCH  61  84
ENDBRANCH  35  36
ENDBRANCH  27  30
ENDBRANCH  25  26
ENDBRANCH   1  25
TORSDOF 15
ENDMDL
