MODEL 1
REMARK VINA RESULT:     -12.5      0.000      0.000
REMARK SMILES COc1cc(C)cc2c1O[C@H](C(F)(F)F)C(C(=O)NCCCCNC(=O)c1ccc(-c3c4nc(c(-c5cccc(S(=O)(=O)[O-])c5F)c5ccc([nH]5)c(-c5cccc(S(=O)(=O)[O-])c5F)c5nc(c(-c6cccc(S(=O)(=O)[O-])c6F)c6ccc3[nH]6)C=C5)C=C4)cc1)=C2
REMARK SMILES IDX 22 1 21 2 20 3 19 4 17 5 18 6 16 8 3 9 4 10 9 11 5 12 8 13
REMARK SMILES IDX 10 14 6 15 7 16 90 17 11 18 2 19 1 20 12 21 13 22 14 23
REMARK SMILES IDX 15 24 23 25 24 26 25 27 26 29 27 30 28 31 89 32 29 33 88 34
REMARK SMILES IDX 30 35 31 36 32 37 82 38 33 39 87 40 81 41 83 42 34 43 86 44
REMARK SMILES IDX 80 45 79 46 35 48 67 49 47 50 66 51 48 52 51 53 65 54 84 55
REMARK SMILES IDX 49 56 50 57 64 59 85 60 52 61 36 62 37 63 45 64 38 65 40 66
REMARK SMILES IDX 46 67 39 68 41 69 42 70 43 71 44 72 68 73 69 74 77 75 70 76
REMARK SMILES IDX 72 77 78 78 71 79 73 80 74 81 75 82 76 83 53 84 54 85 62 86
REMARK SMILES IDX 55 87 57 88 63 89 56 90 58 91 59 92 60 93 61 94
REMARK H PARENT 19 7 24 28 83 47 51 58
REMARK Flexibility Score: inf
ROOT
ATOM      1  C   UNL A   1      31.763  28.844  24.960  1.00  0.00     0.023 C 
ENDROOT
BRANCH   1   2
ATOM      2  C   UNL A   1      32.124  28.698  23.478  1.00  0.00     0.023 C 
BRANCH   2   3
ATOM      3  C   UNL A   1      31.126  27.880  22.664  1.00  0.00     0.116 C 
BRANCH   3   4
ATOM      4  N   UNL A   1      31.782  27.061  21.660  1.00  0.00    -0.352 N 
ATOM      5  C   UNL A   1      32.570  25.960  21.645  1.00  0.00     0.251 C 
ATOM      6  O   UNL A   1      32.933  25.587  20.525  1.00  0.00    -0.270 OA
ATOM      7  H   UNL A   1      31.608  27.394  20.750  1.00  0.00     0.163 HD
BRANCH   5   8
ATOM      8  C   UNL A   1      33.009  25.195  22.851  1.00  0.00     0.067 C 
ATOM      9  C   UNL A   1      34.487  23.077  26.163  1.00  0.00     0.161 A 
ATOM     10  C   UNL A   1      35.588  22.231  26.013  1.00  0.00     0.054 A 
ATOM     11  C   UNL A   1      34.025  23.829  25.080  1.00  0.00     0.169 A 
ATOM     12  C   UNL A   1      36.264  22.168  24.788  1.00  0.00    -0.047 A 
ATOM     13  C   UNL A   1      34.685  23.770  23.853  1.00  0.00     0.021 A 
ATOM     14  O   UNL A   1      32.955  24.659  25.284  1.00  0.00    -0.471 OA
ATOM     15  C   UNL A   1      37.448  21.266  24.607  1.00  0.00     0.044 C 
ATOM     16  C   UNL A   1      35.806  22.944  23.711  1.00  0.00     0.015 A 
ATOM     17  C   UNL A   1      34.207  24.588  22.745  1.00  0.00     0.025 C 
ATOM     18  C   UNL A   1      32.192  25.025  24.103  1.00  0.00     0.314 C 
BRANCH   9  19
ATOM     19  O   UNL A   1      33.785  23.118  27.341  1.00  0.00    -0.493 OA
ATOM     20  C   UNL A   1      33.256  21.839  27.679  1.00  0.00     0.278 C 
ENDBRANCH   9  19
BRANCH  18  21
ATOM     21  C   UNL A   1      31.024  24.037  23.926  1.00  0.00     0.429 C 
ATOM     22  F   UNL A   1      29.972  24.647  23.326  1.00  0.00    -0.167 F 
ATOM     23  F   UNL A   1      31.353  22.983  23.142  1.00  0.00    -0.167 F 
ATOM     24  F   UNL A   1      30.585  23.530  25.099  1.00  0.00    -0.167 F 
ENDBRANCH  18  21
ENDBRANCH   5   8
ENDBRANCH   3   4
ENDBRANCH   2   3
ENDBRANCH   1   2
BRANCH   1  25
ATOM     25  C   UNL A   1      32.829  29.499  25.838  1.00  0.00     0.116 C 
BRANCH  25  26
ATOM     26  N   UNL A   1      32.437  30.785  26.399  1.00  0.00    -0.352 N 
ATOM     27  C   UNL A   1      33.186  31.610  27.210  1.00  0.00     0.251 C 
ATOM     28  H   UNL A   1      31.532  31.101  26.174  1.00  0.00     0.163 HD
ATOM     29  O   UNL A   1      32.708  32.644  27.664  1.00  0.00    -0.269 OA
BRANCH  27  30
ATOM     30  C   UNL A   1      34.556  31.187  27.565  1.00  0.00     0.039 A 
ATOM     31  C   UNL A   1      34.824  29.841  27.827  1.00  0.00     0.014 A 
ATOM     32  C   UNL A   1      35.537  32.161  27.759  1.00  0.00     0.014 A 
ATOM     33  C   UNL A   1      36.016  29.494  28.449  1.00  0.00     0.010 A 
ATOM     34  C   UNL A   1      36.762  31.797  28.321  1.00  0.00     0.010 A 
ATOM     35  C   UNL A   1      36.986  30.473  28.728  1.00  0.00    -0.014 A 
BRANCH  35  36
ATOM     36  C   UNL A   1      38.207  30.092  29.483  1.00  0.00     0.031 A 
ATOM     37  C   UNL A   1      38.404  30.546  30.905  1.00  0.00     0.074 A 
ATOM     38  C   UNL A   1      39.112  29.282  28.902  1.00  0.00     0.049 A 
ATOM     39  N   UNL A   1      39.388  30.273  31.724  1.00  0.00    -0.248 NA
ATOM     40  C   UNL A   1      37.369  31.416  31.488  1.00  0.00     0.031 C 
ATOM     41  C   UNL A   1      39.034  28.786  27.528  1.00  0.00     0.029 A 
ATOM     42  N   UNL A   1      40.259  28.718  29.398  1.00  0.00    -0.354 N 
ATOM     43  C   UNL A   1      39.117  30.969  32.895  1.00  0.00     0.074 A 
ATOM     44  C   UNL A   1      37.873  31.677  32.688  1.00  0.00     0.031 C 
ATOM     45  C   UNL A   1      40.061  27.952  27.305  1.00  0.00     0.029 A 
ATOM     46  C   UNL A   1      40.891  27.888  28.505  1.00  0.00     0.049 A 
ATOM     47  H   UNL A   1      40.596  28.891  30.307  1.00  0.00     0.167 HD
ATOM     48  C   UNL A   1      39.827  30.998  34.046  1.00  0.00     0.034 A 
ATOM     49  C   UNL A   1      42.013  27.154  28.633  1.00  0.00     0.034 A 
ATOM     50  C   UNL A   1      41.028  30.241  34.278  1.00  0.00     0.049 A 
ATOM     51  C   UNL A   1      42.764  27.177  29.932  1.00  0.00     0.074 A 
ATOM     52  C   UNL A   1      41.794  30.181  35.429  1.00  0.00     0.029 A 
ATOM     53  N   UNL A   1      41.629  29.406  33.352  1.00  0.00    -0.354 N 
ATOM     54  N   UNL A   1      42.455  27.794  31.046  1.00  0.00    -0.248 NA
ATOM     55  C   UNL A   1      44.009  26.401  29.996  1.00  0.00     0.031 C 
ATOM     56  C   UNL A   1      42.855  29.300  35.201  1.00  0.00     0.029 A 
ATOM     57  C   UNL A   1      42.752  28.819  33.906  1.00  0.00     0.049 A 
ATOM     58  H   UNL A   1      41.303  29.252  32.435  1.00  0.00     0.167 HD
ATOM     59  C   UNL A   1      43.465  27.479  31.945  1.00  0.00     0.074 A 
ATOM     60  C   UNL A   1      44.381  26.595  31.256  1.00  0.00     0.031 C 
ATOM     61  C   UNL A   1      43.629  27.907  33.220  1.00  0.00     0.034 A 
BRANCH  48  62
ATOM     62  C   UNL A   1      39.300  31.831  35.180  1.00  0.00     0.023 A 
ATOM     63  C   UNL A   1      38.414  31.245  36.105  1.00  0.00     0.012 A 
ATOM     64  C   UNL A   1      39.753  33.149  35.387  1.00  0.00     0.148 A 
ATOM     65  C   UNL A   1      37.980  31.960  37.220  1.00  0.00     0.002 A 
ATOM     66  C   UNL A   1      39.333  33.848  36.514  1.00  0.00     0.091 A 
ATOM     67  F   UNL A   1      40.582  33.689  34.483  1.00  0.00    -0.205 F 
ATOM     68  C   UNL A   1      38.446  33.256  37.428  1.00  0.00     0.022 A 
BRANCH  66  69
ATOM     69  S   UNL A   1      39.912  35.504  36.902  1.00  0.00     0.127 S 
ATOM     70  O   UNL A   1      39.216  35.770  38.161  1.00  0.00    -0.237 OA
ATOM     71  O   UNL A   1      41.355  35.305  37.032  1.00  0.00    -0.237 OA
ATOM     72  O   UNL A   1      39.512  36.342  35.781  1.00  0.00    -0.744 OA
ENDBRANCH  66  69
ENDBRANCH  48  62
BRANCH  49  73
ATOM     73  C   UNL A   1      42.438  26.284  27.504  1.00  0.00     0.023 A 
ATOM     74  C   UNL A   1      43.393  26.767  26.590  1.00  0.00     0.012 A 
ATOM     75  C   UNL A   1      41.982  24.957  27.394  1.00  0.00     0.148 A 
ATOM     76  C   UNL A   1      43.889  25.940  25.582  1.00  0.00     0.002 A 
ATOM     77  C   UNL A   1      42.515  24.124  26.417  1.00  0.00     0.091 A 
ATOM     78  F   UNL A   1      41.062  24.528  28.270  1.00  0.00    -0.205 F 
ATOM     79  C   UNL A   1      43.462  24.616  25.506  1.00  0.00     0.022 A 
BRANCH  77  80
ATOM     80  S   UNL A   1      42.122  22.374  26.325  1.00  0.00     0.127 S 
ATOM     81  O   UNL A   1      42.865  21.963  25.137  1.00  0.00    -0.237 OA
ATOM     82  O   UNL A   1      42.661  21.878  27.592  1.00  0.00    -0.237 OA
ATOM     83  O   UNL A   1      40.670  22.302  26.219  1.00  0.00    -0.744 OA
ENDBRANCH  77  80
ENDBRANCH  49  73
BRANCH  61  84
ATOM     84  C   UNL A   1      44.850  27.444  33.962  1.00  0.00     0.023 A 
ATOM     85  C   UNL A   1      46.010  28.241  33.925  1.00  0.00     0.012 A 
ATOM     86  C   UNL A   1      44.814  26.299  34.778  1.00  0.00     0.148 A 
ATOM     87  C   UNL A   1      47.125  27.900  34.689  1.00  0.00     0.002 A 
ATOM     88  C   UNL A   1      45.919  25.980  35.558  1.00  0.00     0.091 A 
ATOM     89  F   UNL A   1      43.701  25.552  34.784  1.00  0.00    -0.205 F 
ATOM     90  C   UNL A   1      47.076  26.777  35.512  1.00  0.00     0.022 A 
BRANCH  88  91
ATOM     91  S   UNL A   1      45.930  24.593  36.700  1.00  0.00     0.127 S 
ATOM     92  O   UNL A   1      45.807  23.456  35.788  1.00  0.00    -0.237 OA
ATOM     93  O   UNL A   1      47.238  24.725  37.340  1.00  0.00    -0.237 OA
ATOM     94  O   UNL A   1      44.796  24.800  37.592  1.00  0.00    -0.744 OA
ENDBRANCH  88  91
ENDBRANCH  61  84
ENDBRANCH  35  36
ENDBRANCH  27  30
ENDBRANCH  25  26
ENDBRANCH   1  25
TORSDOF 16
ENDMDL
MODEL 2
REMARK VINA RESULT:     -12.4      4.719      9.877
REMARK SMILES COc1cc(C)cc2c1O[C@H](C(F)(F)F)C(C(=O)NCCCCNC(=O)c1ccc(-c3c4nc(c(-c5cccc(S(=O)(=O)[O-])c5F)c5ccc([nH]5)c(-c5cccc(S(=O)(=O)[O-])c5F)c5nc(c(-c6cccc(S(=O)(=O)[O-])c6F)c6ccc3[nH]6)C=C5)C=C4)cc1)=C2
REMARK SMILES IDX 22 1 21 2 20 3 19 4 17 5 18 6 16 8 3 9 4 10 9 11 5 12 8 13
REMARK SMILES IDX 10 14 6 15 7 16 90 17 11 18 2 19 1 20 12 21 13 22 14 23
REMARK SMILES IDX 15 24 23 25 24 26 25 27 26 29 27 30 28 31 89 32 29 33 88 34
REMARK SMILES IDX 30 35 31 36 32 37 82 38 33 39 87 40 81 41 83 42 34 43 86 44
REMARK SMILES IDX 80 45 79 46 35 48 67 49 47 50 66 51 48 52 51 53 65 54 84 55
REMARK SMILES IDX 49 56 50 57 64 59 85 60 52 61 36 62 37 63 45 64 38 65 40 66
REMARK SMILES IDX 46 67 39 68 41 69 42 70 43 71 44 72 68 73 69 74 77 75 70 76
REMARK SMILES IDX 72 77 78 78 71 79 73 80 74 81 75 82 76 83 53 84 54 85 62 86
REMARK SMILES IDX 55 87 57 88 63 89 56 90 58 91 59 92 60 93 61 94
REMARK H PARENT 19 7 24 28 83 47 51 58
REMARK Flexibility Score: inf
ROOT
ATOM      1  C   UNL A   1      35.558  21.840  24.326  1.00  0.00     0.023 C 
ENDROOT
BRANCH   1   2
ATOM      2  C   UNL A   1      35.451  23.044  23.385  1.00  0.00     0.023 C 
BRANCH   2   3
ATOM      3  C   UNL A   1      34.073  23.234  22.759  1.00  0.00     0.116 C 
BRANCH   3   4
ATOM      4  N   UNL A   1      33.008  22.773  23.634  1.00  0.00    -0.352 N 
ATOM      5  C   UNL A   1      32.088  23.338  24.450  1.00  0.00     0.251 C 
ATOM      6  O   UNL A   1      31.352  22.544  25.044  1.00  0.00    -0.270 OA
ATOM      7  H   UNL A   1      32.937  21.791  23.632  1.00  0.00     0.163 HD
BRANCH   5   8
ATOM      8  C   UNL A   1      31.912  24.805  24.669  1.00  0.00     0.067 C 
ATOM      9  C   UNL A   1      31.198  28.917  25.146  1.00  0.00     0.161 A 
ATOM     10  C   UNL A   1      30.659  29.656  24.092  1.00  0.00     0.054 A 
ATOM     11  C   UNL A   1      31.385  27.539  25.016  1.00  0.00     0.169 A 
ATOM     12  C   UNL A   1      30.257  29.012  22.915  1.00  0.00    -0.047 A 
ATOM     13  C   UNL A   1      30.996  26.886  23.847  1.00  0.00     0.021 A 
ATOM     14  O   UNL A   1      31.898  26.855  26.086  1.00  0.00    -0.471 OA
ATOM     15  C   UNL A   1      29.675  29.789  21.771  1.00  0.00     0.044 C 
ATOM     16  C   UNL A   1      30.428  27.623  22.801  1.00  0.00     0.015 A 
ATOM     17  C   UNL A   1      31.169  25.442  23.743  1.00  0.00     0.025 C 
ATOM     18  C   UNL A   1      32.542  25.588  25.788  1.00  0.00     0.314 C 
BRANCH   9  19
ATOM     19  O   UNL A   1      31.639  29.536  26.288  1.00  0.00    -0.493 OA
ATOM     20  C   UNL A   1      32.981  29.994  26.150  1.00  0.00     0.278 C 
ENDBRANCH   9  19
BRANCH  18  21
ATOM     21  C   UNL A   1      34.051  25.819  25.581  1.00  0.00     0.429 C 
ATOM     22  F   UNL A   1      34.324  26.034  24.270  1.00  0.00    -0.167 F 
ATOM     23  F   UNL A   1      34.503  26.907  26.248  1.00  0.00    -0.167 F 
ATOM     24  F   UNL A   1      34.802  24.771  25.986  1.00  0.00    -0.167 F 
ENDBRANCH  18  21
ENDBRANCH   5   8
ENDBRANCH   3   4
ENDBRANCH   2   3
ENDBRANCH   1   2
BRANCH   1  25
ATOM     25  C   UNL A   1      36.614  21.953  25.426  1.00  0.00     0.116 C 
BRANCH  25  26
ATOM     26  N   UNL A   1      37.664  20.944  25.355  1.00  0.00    -0.352 N 
ATOM     27  C   UNL A   1      38.950  21.038  25.842  1.00  0.00     0.251 C 
ATOM     28  H   UNL A   1      37.428  20.100  24.908  1.00  0.00     0.163 HD
ATOM     29  O   UNL A   1      39.755  20.131  25.659  1.00  0.00    -0.269 OA
BRANCH  27  30
ATOM     30  C   UNL A   1      39.348  22.280  26.533  1.00  0.00     0.039 A 
ATOM     31  C   UNL A   1      38.803  23.504  26.139  1.00  0.00     0.014 A 
ATOM     32  C   UNL A   1      40.365  22.227  27.490  1.00  0.00     0.014 A 
ATOM     33  C   UNL A   1      39.395  24.683  26.572  1.00  0.00     0.010 A 
ATOM     34  C   UNL A   1      40.912  23.416  27.976  1.00  0.00     0.010 A 
ATOM     35  C   UNL A   1      40.474  24.651  27.472  1.00  0.00    -0.014 A 
BRANCH  35  36
ATOM     36  C   UNL A   1      41.152  25.919  27.841  1.00  0.00     0.031 A 
ATOM     37  C   UNL A   1      42.538  26.225  27.338  1.00  0.00     0.074 A 
ATOM     38  C   UNL A   1      40.489  26.827  28.582  1.00  0.00     0.049 A 
ATOM     39  N   UNL A   1      43.261  27.299  27.527  1.00  0.00    -0.248 NA
ATOM     40  C   UNL A   1      43.202  25.197  26.517  1.00  0.00     0.031 C 
ATOM     41  C   UNL A   1      39.147  26.641  29.134  1.00  0.00     0.029 A 
ATOM     42  N   UNL A   1      40.843  28.091  28.980  1.00  0.00    -0.354 N 
ATOM     43  C   UNL A   1      44.474  27.061  26.892  1.00  0.00     0.074 A 
ATOM     44  C   UNL A   1      44.394  25.742  26.307  1.00  0.00     0.031 C 
ATOM     45  C   UNL A   1      38.770  27.768  29.757  1.00  0.00     0.029 A 
ATOM     46  C   UNL A   1      39.858  28.739  29.685  1.00  0.00     0.049 A 
ATOM     47  H   UNL A   1      41.719  28.494  28.778  1.00  0.00     0.167 HD
ATOM     48  C   UNL A   1      45.549  27.877  26.788  1.00  0.00     0.034 A 
ATOM     49  C   UNL A   1      39.829  29.976  30.214  1.00  0.00     0.034 A 
ATOM     50  C   UNL A   1      45.605  29.215  27.311  1.00  0.00     0.049 A 
ATOM     51  C   UNL A   1      41.021  30.874  30.055  1.00  0.00     0.074 A 
ATOM     52  C   UNL A   1      46.641  30.129  27.218  1.00  0.00     0.029 A 
ATOM     53  N   UNL A   1      44.584  29.836  28.009  1.00  0.00    -0.354 N 
ATOM     54  N   UNL A   1      42.133  30.651  29.398  1.00  0.00    -0.248 NA
ATOM     55  C   UNL A   1      40.955  32.192  30.700  1.00  0.00     0.031 C 
ATOM     56  C   UNL A   1      46.242  31.307  27.855  1.00  0.00     0.029 A 
ATOM     57  C   UNL A   1      44.960  31.124  28.349  1.00  0.00     0.049 A 
ATOM     58  H   UNL A   1      43.718  29.423  28.230  1.00  0.00     0.167 HD
ATOM     59  C   UNL A   1      42.898  31.800  29.547  1.00  0.00     0.074 A 
ATOM     60  C   UNL A   1      42.113  32.728  30.334  1.00  0.00     0.031 C 
ATOM     61  C   UNL A   1      44.150  32.050  29.094  1.00  0.00     0.034 A 
BRANCH  48  62
ATOM     62  C   UNL A   1      46.744  27.377  26.027  1.00  0.00     0.023 A 
ATOM     63  C   UNL A   1      46.826  27.624  24.644  1.00  0.00     0.012 A 
ATOM     64  C   UNL A   1      47.821  26.755  26.690  1.00  0.00     0.148 A 
ATOM     65  C   UNL A   1      47.963  27.256  23.925  1.00  0.00     0.002 A 
ATOM     66  C   UNL A   1      48.961  26.412  25.971  1.00  0.00     0.091 A 
ATOM     67  F   UNL A   1      47.709  26.515  28.004  1.00  0.00    -0.205 F 
ATOM     68  C   UNL A   1      49.032  26.660  24.590  1.00  0.00     0.022 A 
BRANCH  66  69
ATOM     69  S   UNL A   1      50.412  25.684  26.739  1.00  0.00     0.127 S 
ATOM     70  O   UNL A   1      50.803  26.733  27.681  1.00  0.00    -0.237 OA
ATOM     71  O   UNL A   1      49.862  24.479  27.360  1.00  0.00    -0.237 OA
ATOM     72  O   UNL A   1      51.356  25.436  25.659  1.00  0.00    -0.744 OA
ENDBRANCH  66  69
ENDBRANCH  48  62
BRANCH  49  73
ATOM     73  C   UNL A   1      38.586  30.446  30.883  1.00  0.00     0.023 A 
ATOM     74  C   UNL A   1      38.472  30.321  32.280  1.00  0.00     0.012 A 
ATOM     75  C   UNL A   1      37.572  31.102  30.160  1.00  0.00     0.148 A 
ATOM     76  C   UNL A   1      37.365  30.845  32.949  1.00  0.00     0.002 A 
ATOM     77  C   UNL A   1      36.496  31.662  30.838  1.00  0.00     0.091 A 
ATOM     78  F   UNL A   1      37.701  31.194  28.829  1.00  0.00    -0.205 F 
ATOM     79  C   UNL A   1      36.387  31.527  32.230  1.00  0.00     0.022 A 
BRANCH  77  80
ATOM     80  S   UNL A   1      35.258  32.669  30.012  1.00  0.00     0.127 S 
ATOM     81  O   UNL A   1      36.068  33.764  29.484  1.00  0.00    -0.237 OA
ATOM     82  O   UNL A   1      34.741  31.742  29.004  1.00  0.00    -0.237 OA
ATOM     83  O   UNL A   1      34.296  33.034  31.044  1.00  0.00    -0.744 OA
ENDBRANCH  77  80
ENDBRANCH  49  73
BRANCH  61  84
ATOM     84  C   UNL A   1      44.769  33.374  29.442  1.00  0.00     0.023 A 
ATOM     85  C   UNL A   1      45.566  33.467  30.598  1.00  0.00     0.012 A 
ATOM     86  C   UNL A   1      44.659  34.478  28.576  1.00  0.00     0.148 A 
ATOM     87  C   UNL A   1      46.245  34.648  30.893  1.00  0.00     0.002 A 
ATOM     88  C   UNL A   1      45.359  35.643  28.863  1.00  0.00     0.091 A 
ATOM     89  F   UNL A   1      43.883  34.364  27.489  1.00  0.00    -0.205 F 
ATOM     90  C   UNL A   1      46.150  35.731  30.022  1.00  0.00     0.022 A 
BRANCH  88  91
ATOM     91  S   UNL A   1      45.356  37.068  27.768  1.00  0.00     0.127 S 
ATOM     92  O   UNL A   1      46.243  37.989  28.477  1.00  0.00    -0.237 OA
ATOM     93  O   UNL A   1      45.910  36.514  26.533  1.00  0.00    -0.237 OA
ATOM     94  O   UNL A   1      43.966  37.494  27.670  1.00  0.00    -0.744 OA
ENDBRANCH  88  91
ENDBRANCH  61  84
ENDBRANCH  35  36
ENDBRANCH  27  30
ENDBRANCH  25  26
ENDBRANCH   1  25
TORSDOF 16
ENDMDL
MODEL 3
REMARK VINA RESULT:     -12.4      4.728      9.934
REMARK SMILES COc1cc(C)cc2c1O[C@H](C(F)(F)F)C(C(=O)NCCCCNC(=O)c1ccc(-c3c4nc(c(-c5cccc(S(=O)(=O)[O-])c5F)c5ccc([nH]5)c(-c5cccc(S(=O)(=O)[O-])c5F)c5nc(c(-c6cccc(S(=O)(=O)[O-])c6F)c6ccc3[nH]6)C=C5)C=C4)cc1)=C2
REMARK SMILES IDX 22 1 21 2 20 3 19 4 17 5 18 6 16 8 3 9 4 10 9 11 5 12 8 13
REMARK SMILES IDX 10 14 6 15 7 16 90 17 11 18 2 19 1 20 12 21 13 22 14 23
REMARK SMILES IDX 15 24 23 25 24 26 25 27 26 29 27 30 28 31 89 32 29 33 88 34
REMARK SMILES IDX 30 35 31 36 32 37 82 38 33 39 87 40 81 41 83 42 34 43 86 44
REMARK SMILES IDX 80 45 79 46 35 48 67 49 47 50 66 51 48 52 51 53 65 54 84 55
REMARK SMILES IDX 49 56 50 57 64 59 85 60 52 61 36 62 37 63 45 64 38 65 40 66
REMARK SMILES IDX 46 67 39 68 41 69 42 70 43 71 44 72 68 73 69 74 77 75 70 76
REMARK SMILES IDX 72 77 78 78 71 79 73 80 74 81 75 82 76 83 53 84 54 85 62 86
REMARK SMILES IDX 55 87 57 88 63 89 56 90 58 91 59 92 60 93 61 94
REMARK H PARENT 19 7 24 28 83 47 51 58
REMARK Flexibility Score: inf
ROOT
ATOM      1  C   UNL A   1      35.406  21.304  24.983  1.00  0.00     0.023 C 
ENDROOT
BRANCH   1   2
ATOM      2  C   UNL A   1      34.480  20.943  26.149  1.00  0.00     0.023 C 
BRANCH   2   3
ATOM      3  C   UNL A   1      34.364  22.025  27.219  1.00  0.00     0.116 C 
BRANCH   3   4
ATOM      4  N   UNL A   1      32.981  22.345  27.524  1.00  0.00    -0.352 N 
ATOM      5  C   UNL A   1      32.028  23.171  27.032  1.00  0.00     0.251 C 
ATOM      6  O   UNL A   1      30.944  23.137  27.624  1.00  0.00    -0.270 OA
ATOM      7  H   UNL A   1      32.648  21.824  28.290  1.00  0.00     0.163 HD
BRANCH   5   8
ATOM      8  C   UNL A   1      32.195  24.084  25.861  1.00  0.00     0.067 C 
ATOM      9  C   UNL A   1      32.647  26.851  22.734  1.00  0.00     0.161 A 
ATOM     10  C   UNL A   1      31.913  28.039  22.744  1.00  0.00     0.054 A 
ATOM     11  C   UNL A   1      32.546  25.952  23.798  1.00  0.00     0.169 A 
ATOM     12  C   UNL A   1      31.108  28.357  23.845  1.00  0.00    -0.047 A 
ATOM     13  C   UNL A   1      31.743  26.254  24.897  1.00  0.00     0.021 A 
ATOM     14  O   UNL A   1      33.302  24.811  23.751  1.00  0.00    -0.471 OA
ATOM     15  C   UNL A   1      30.312  29.629  23.875  1.00  0.00     0.044 C 
ATOM     16  C   UNL A   1      31.030  27.458  24.920  1.00  0.00     0.015 A 
ATOM     17  C   UNL A   1      31.677  25.318  26.013  1.00  0.00     0.025 C 
ATOM     18  C   UNL A   1      32.833  23.696  24.555  1.00  0.00     0.314 C 
BRANCH   9  19
ATOM     19  O   UNL A   1      33.405  26.500  21.645  1.00  0.00    -0.493 OA
ATOM     20  C   UNL A   1      32.629  25.814  20.667  1.00  0.00     0.278 C 
ENDBRANCH   9  19
BRANCH  18  21
ATOM     21  C   UNL A   1      31.932  22.791  23.695  1.00  0.00     0.429 C 
ATOM     22  F   UNL A   1      30.625  23.089  23.897  1.00  0.00    -0.167 F 
ATOM     23  F   UNL A   1      32.159  22.947  22.369  1.00  0.00    -0.167 F 
ATOM     24  F   UNL A   1      32.096  21.477  23.968  1.00  0.00    -0.167 F 
ENDBRANCH  18  21
ENDBRANCH   5   8
ENDBRANCH   3   4
ENDBRANCH   2   3
ENDBRANCH   1   2
BRANCH   1  25
ATOM     25  C   UNL A   1      36.791  21.820  25.374  1.00  0.00     0.116 C 
BRANCH  25  26
ATOM     26  N   UNL A   1      37.833  20.802  25.369  1.00  0.00    -0.352 N 
ATOM     27  C   UNL A   1      39.105  20.902  25.891  1.00  0.00     0.251 C 
ATOM     28  H   UNL A   1      37.604  19.946  24.942  1.00  0.00     0.163 HD
ATOM     29  O   UNL A   1      39.908  19.985  25.764  1.00  0.00    -0.269 OA
BRANCH  27  30
ATOM     30  C   UNL A   1      39.492  22.163  26.555  1.00  0.00     0.039 A 
ATOM     31  C   UNL A   1      38.946  23.375  26.124  1.00  0.00     0.014 A 
ATOM     32  C   UNL A   1      40.499  22.139  27.522  1.00  0.00     0.014 A 
ATOM     33  C   UNL A   1      39.530  24.567  26.532  1.00  0.00     0.010 A 
ATOM     34  C   UNL A   1      41.037  23.342  27.983  1.00  0.00     0.010 A 
ATOM     35  C   UNL A   1      40.600  24.562  27.443  1.00  0.00    -0.014 A 
BRANCH  35  36
ATOM     36  C   UNL A   1      41.270  25.842  27.785  1.00  0.00     0.031 A 
ATOM     37  C   UNL A   1      42.648  26.152  27.262  1.00  0.00     0.074 A 
ATOM     38  C   UNL A   1      40.607  26.755  28.520  1.00  0.00     0.049 A 
ATOM     39  N   UNL A   1      43.363  27.236  27.428  1.00  0.00    -0.248 NA
ATOM     40  C   UNL A   1      43.313  25.119  26.450  1.00  0.00     0.031 C 
ATOM     41  C   UNL A   1      39.273  26.565  29.089  1.00  0.00     0.029 A 
ATOM     42  N   UNL A   1      40.953  28.027  28.895  1.00  0.00    -0.354 N 
ATOM     43  C   UNL A   1      44.571  27.000  26.784  1.00  0.00     0.074 A 
ATOM     44  C   UNL A   1      44.497  25.671  26.219  1.00  0.00     0.031 C 
ATOM     45  C   UNL A   1      38.891  27.697  29.700  1.00  0.00     0.029 A 
ATOM     46  C   UNL A   1      39.970  28.677  29.601  1.00  0.00     0.049 A 
ATOM     47  H   UNL A   1      41.822  28.436  28.678  1.00  0.00     0.167 HD
ATOM     48  C   UNL A   1      45.637  27.824  26.656  1.00  0.00     0.034 A 
ATOM     49  C   UNL A   1      39.935  29.922  30.112  1.00  0.00     0.034 A 
ATOM     50  C   UNL A   1      45.686  29.171  27.158  1.00  0.00     0.049 A 
ATOM     51  C   UNL A   1      41.117  30.828  29.927  1.00  0.00     0.074 A 
ATOM     52  C   UNL A   1      46.712  30.092  27.041  1.00  0.00     0.029 A 
ATOM     53  N   UNL A   1      44.666  29.793  27.858  1.00  0.00    -0.354 N 
ATOM     54  N   UNL A   1      42.223  30.605  29.261  1.00  0.00    -0.248 NA
ATOM     55  C   UNL A   1      41.044  32.155  30.553  1.00  0.00     0.031 C 
ATOM     56  C   UNL A   1      46.308  31.276  27.664  1.00  0.00     0.029 A 
ATOM     57  C   UNL A   1      45.034  31.088  28.174  1.00  0.00     0.049 A 
ATOM     58  H   UNL A   1      43.807  29.375  28.095  1.00  0.00     0.167 HD
ATOM     59  C   UNL A   1      42.979  31.763  29.385  1.00  0.00     0.074 A 
ATOM     60  C   UNL A   1      42.193  32.696  30.166  1.00  0.00     0.031 C 
ATOM     61  C   UNL A   1      44.223  32.018  28.915  1.00  0.00     0.034 A 
BRANCH  48  62
ATOM     62  C   UNL A   1      46.828  27.324  25.889  1.00  0.00     0.023 A 
ATOM     63  C   UNL A   1      46.892  27.548  24.501  1.00  0.00     0.012 A 
ATOM     64  C   UNL A   1      47.920  26.725  26.550  1.00  0.00     0.148 A 
ATOM     65  C   UNL A   1      48.024  27.180  23.775  1.00  0.00     0.002 A 
ATOM     66  C   UNL A   1      49.055  26.382  25.824  1.00  0.00     0.091 A 
ATOM     67  F   UNL A   1      47.826  26.507  27.869  1.00  0.00    -0.205 F 
ATOM     68  C   UNL A   1      49.107  26.607  24.437  1.00  0.00     0.022 A 
BRANCH  66  69
ATOM     69  S   UNL A   1      50.523  25.683  26.587  1.00  0.00     0.127 S 
ATOM     70  O   UNL A   1      51.395  25.497  25.427  1.00  0.00    -0.237 OA
ATOM     71  O   UNL A   1      50.936  26.751  27.497  1.00  0.00    -0.237 OA
ATOM     72  O   UNL A   1      50.090  24.457  27.242  1.00  0.00    -0.744 OA
ENDBRANCH  66  69
ENDBRANCH  48  62
BRANCH  49  73
ATOM     73  C   UNL A   1      38.695  30.389  30.788  1.00  0.00     0.023 A 
ATOM     74  C   UNL A   1      38.596  30.282  32.187  1.00  0.00     0.012 A 
ATOM     75  C   UNL A   1      37.668  31.027  30.067  1.00  0.00     0.148 A 
ATOM     76  C   UNL A   1      37.491  30.805  32.861  1.00  0.00     0.002 A 
ATOM     77  C   UNL A   1      36.594  31.588  30.748  1.00  0.00     0.091 A 
ATOM     78  F   UNL A   1      37.783  31.103  28.734  1.00  0.00    -0.205 F 
ATOM     79  C   UNL A   1      36.500  31.470  32.143  1.00  0.00     0.022 A 
BRANCH  77  80
ATOM     80  S   UNL A   1      35.339  32.573  29.922  1.00  0.00     0.127 S 
ATOM     81  O   UNL A   1      34.901  31.669  28.861  1.00  0.00    -0.237 OA
ATOM     82  O   UNL A   1      34.366  32.781  30.996  1.00  0.00    -0.237 OA
ATOM     83  O   UNL A   1      36.017  33.784  29.480  1.00  0.00    -0.744 OA
ENDBRANCH  77  80
ENDBRANCH  49  73
BRANCH  61  84
ATOM     84  C   UNL A   1      44.834  33.353  29.236  1.00  0.00     0.023 A 
ATOM     85  C   UNL A   1      45.639  33.471  30.384  1.00  0.00     0.012 A 
ATOM     86  C   UNL A   1      44.707  34.441  28.354  1.00  0.00     0.148 A 
ATOM     87  C   UNL A   1      46.310  34.663  30.655  1.00  0.00     0.002 A 
ATOM     88  C   UNL A   1      45.400  35.617  28.616  1.00  0.00     0.091 A 
ATOM     89  F   UNL A   1      43.923  34.303  27.275  1.00  0.00    -0.205 F 
ATOM     90  C   UNL A   1      46.199  35.731  29.767  1.00  0.00     0.022 A 
BRANCH  88  91
ATOM     91  S   UNL A   1      45.375  37.024  27.498  1.00  0.00     0.127 S 
ATOM     92  O   UNL A   1      46.068  38.042  28.287  1.00  0.00    -0.237 OA
ATOM     93  O   UNL A   1      46.129  36.523  26.349  1.00  0.00    -0.237 OA
ATOM     94  O   UNL A   1      43.969  37.296  27.228  1.00  0.00    -0.744 OA
ENDBRANCH  88  91
ENDBRANCH  61  84
ENDBRANCH  35  36
ENDBRANCH  27  30
ENDBRANCH  25  26
ENDBRANCH   1  25
TORSDOF 16
ENDMDL
