MODEL 1
REMARK VINA RESULT:     -11.6      0.000      0.000
REMARK SMILES C[C@@H](CC(=O)NCCCCNC(=O)c1ccc(-c2c3nc(c(-c4cccc(S(=O)(=O)[O-])c4F)c4ccc([nH]4)c(-c4cccc(S(=O)(=O)[O-])c4F)c4nc(c(-c5cccc(S(=O)(=O)[O-])c5F)c5ccc2[nH]5)C=C4)C=C3)cc1)NC(=O)N[C@H]1CCOC1
REMARK SMILES IDX 8 1 7 2 6 3 4 4 5 5 3 7 2 8 1 9 77 10 78 11 79 13 80 14
REMARK SMILES IDX 81 16 82 17 85 18 83 19 84 20 9 21 10 22 11 23 12 24 13 26
REMARK SMILES IDX 14 27 15 28 76 29 16 30 75 31 17 32 18 33 19 34 69 35 20 36
REMARK SMILES IDX 74 37 68 38 70 39 21 40 73 41 67 42 66 43 22 45 54 46 34 47
REMARK SMILES IDX 53 48 35 49 38 50 52 51 71 52 36 53 37 54 51 56 72 57 39 58
REMARK SMILES IDX 23 59 24 60 32 61 25 62 27 63 33 64 26 65 28 66 29 67 30 68
REMARK SMILES IDX 31 69 55 70 56 71 64 72 57 73 59 74 65 75 58 76 60 77 61 78
REMARK SMILES IDX 62 79 63 80 40 81 41 82 49 83 42 84 44 85 50 86 43 87 45 88
REMARK SMILES IDX 46 89 47 90 48 91
REMARK H PARENT 6 6 77 12 80 15 11 25 70 44 38 55
REMARK Flexibility Score: inf
ROOT
ATOM      1  C   UNL A   1      36.156  23.279  23.478  1.00  0.00     0.023 C 
ENDROOT
BRANCH   1   2
ATOM      2  C   UNL A   1      34.729  23.804  23.310  1.00  0.00     0.116 C 
BRANCH   2   3
ATOM      3  N   UNL A   1      33.904  22.863  22.574  1.00  0.00    -0.356 N 
ATOM      4  C   UNL A   1      32.650  22.403  22.852  1.00  0.00     0.222 C 
ATOM      5  O   UNL A   1      32.178  21.498  22.166  1.00  0.00    -0.275 OA
ATOM      6  H   UNL A   1      34.311  22.502  21.753  1.00  0.00     0.163 HD
BRANCH   4   7
ATOM      7  C   UNL A   1      31.853  23.018  23.977  1.00  0.00     0.124 C 
BRANCH   7   8
ATOM      8  C   UNL A   1      31.775  22.191  25.262  1.00  0.00     0.090 C 
ATOM      9  C   UNL A   1      30.646  22.534  26.218  1.00  0.00     0.031 C 
BRANCH   8  10
ATOM     10  N   UNL A   1      33.022  22.172  26.004  1.00  0.00    -0.335 N 
ATOM     11  C   UNL A   1      33.528  21.197  26.775  1.00  0.00     0.315 C 
ATOM     12  H   UNL A   1      33.573  22.985  25.933  1.00  0.00     0.165 HD
ATOM     13  O   UNL A   1      34.239  21.508  27.732  1.00  0.00    -0.249 OA
ATOM     14  N   UNL A   1      33.306  19.889  26.568  1.00  0.00    -0.333 N 
ATOM     15  H   UNL A   1      33.507  19.356  27.372  1.00  0.00     0.165 HD
BRANCH  14  16
ATOM     16  C   UNL A   1      32.844  19.047  25.465  1.00  0.00     0.112 C 
ATOM     17  C   UNL A   1      33.688  19.085  24.212  1.00  0.00     0.056 C 
ATOM     18  C   UNL A   1      32.587  17.576  25.766  1.00  0.00     0.185 C 
ATOM     19  C   UNL A   1      33.752  17.650  23.731  1.00  0.00     0.162 C 
ATOM     20  O   UNL A   1      33.193  16.793  24.729  1.00  0.00    -0.379 OA
ENDBRANCH  14  16
ENDBRANCH   8  10
ENDBRANCH   7   8
ENDBRANCH   4   7
ENDBRANCH   2   3
ENDBRANCH   1   2
BRANCH   1  21
ATOM     21  C   UNL A   1      36.281  22.028  24.328  1.00  0.00     0.023 C 
BRANCH  21  22
ATOM     22  C   UNL A   1      37.141  22.214  25.558  1.00  0.00     0.116 C 
BRANCH  22  23
ATOM     23  N   UNL A   1      38.127  21.151  25.724  1.00  0.00    -0.352 N 
ATOM     24  C   UNL A   1      39.411  21.252  26.201  1.00  0.00     0.251 C 
ATOM     25  H   UNL A   1      37.835  20.248  25.462  1.00  0.00     0.163 HD
ATOM     26  O   UNL A   1      40.177  20.296  26.141  1.00  0.00    -0.269 OA
BRANCH  24  27
ATOM     27  C   UNL A   1      39.847  22.544  26.758  1.00  0.00     0.039 A 
ATOM     28  C   UNL A   1      40.800  22.564  27.776  1.00  0.00     0.014 A 
ATOM     29  C   UNL A   1      39.373  23.734  26.198  1.00  0.00     0.014 A 
ATOM     30  C   UNL A   1      41.316  23.789  28.196  1.00  0.00     0.010 A 
ATOM     31  C   UNL A   1      39.979  24.933  26.528  1.00  0.00     0.010 A 
ATOM     32  C   UNL A   1      40.930  24.979  27.554  1.00  0.00    -0.014 A 
BRANCH  32  33
ATOM     33  C   UNL A   1      41.485  26.288  27.968  1.00  0.00     0.031 A 
ATOM     34  C   UNL A   1      42.914  26.632  27.641  1.00  0.00     0.074 A 
ATOM     35  C   UNL A   1      40.727  27.132  28.694  1.00  0.00     0.049 A 
ATOM     36  N   UNL A   1      43.577  27.727  27.899  1.00  0.00    -0.248 NA
ATOM     37  C   UNL A   1      43.719  25.595  26.970  1.00  0.00     0.031 C 
ATOM     38  C   UNL A   1      39.369  26.857  29.174  1.00  0.00     0.029 A 
ATOM     39  N   UNL A   1      40.993  28.393  29.163  1.00  0.00    -0.354 N 
ATOM     40  C   UNL A   1      44.875  27.497  27.460  1.00  0.00     0.074 A 
ATOM     41  C   UNL A   1      44.926  26.138  26.974  1.00  0.00     0.031 C 
ATOM     42  C   UNL A   1      38.913  27.930  29.840  1.00  0.00     0.029 A 
ATOM     43  C   UNL A   1      39.946  28.959  29.848  1.00  0.00     0.049 A 
ATOM     44  H   UNL A   1      41.855  28.849  29.022  1.00  0.00     0.167 HD
ATOM     45  C   UNL A   1      45.919  28.355  27.414  1.00  0.00     0.034 A 
ATOM     46  C   UNL A   1      39.828  30.183  30.400  1.00  0.00     0.034 A 
ATOM     47  C   UNL A   1      45.839  29.724  27.839  1.00  0.00     0.049 A 
ATOM     48  C   UNL A   1      40.968  31.152  30.247  1.00  0.00     0.074 A 
ATOM     49  C   UNL A   1      46.802  30.712  27.753  1.00  0.00     0.029 A 
ATOM     50  N   UNL A   1      44.723  30.300  28.425  1.00  0.00    -0.354 N 
ATOM     51  N   UNL A   1      42.131  30.975  29.667  1.00  0.00    -0.248 NA
ATOM     52  C   UNL A   1      40.761  32.507  30.776  1.00  0.00     0.031 C 
ATOM     53  C   UNL A   1      46.270  31.886  28.299  1.00  0.00     0.029 A 
ATOM     54  C   UNL A   1      44.969  31.632  28.705  1.00  0.00     0.049 A 
ATOM     55  H   UNL A   1      43.879  29.831  28.614  1.00  0.00     0.167 HD
ATOM     56  C   UNL A   1      42.780  32.202  29.729  1.00  0.00     0.074 A 
ATOM     57  C   UNL A   1      41.867  33.121  30.379  1.00  0.00     0.031 C 
ATOM     58  C   UNL A   1      44.023  32.538  29.304  1.00  0.00     0.034 A 
BRANCH  45  59
ATOM     59  C   UNL A   1      47.209  27.851  26.819  1.00  0.00     0.023 A 
ATOM     60  C   UNL A   1      48.227  27.375  27.672  1.00  0.00     0.012 A 
ATOM     61  C   UNL A   1      47.406  27.819  25.426  1.00  0.00     0.148 A 
ATOM     62  C   UNL A   1      49.437  26.916  27.152  1.00  0.00     0.002 A 
ATOM     63  C   UNL A   1      48.596  27.315  24.912  1.00  0.00     0.091 A 
ATOM     64  F   UNL A   1      46.440  28.300  24.631  1.00  0.00    -0.205 F 
ATOM     65  C   UNL A   1      49.616  26.877  25.773  1.00  0.00     0.022 A 
BRANCH  63  66
ATOM     66  S   UNL A   1      48.895  27.147  23.149  1.00  0.00     0.127 S 
ATOM     67  O   UNL A   1      50.354  27.067  23.103  1.00  0.00    -0.237 OA
ATOM     68  O   UNL A   1      48.205  25.895  22.839  1.00  0.00    -0.237 OA
ATOM     69  O   UNL A   1      48.312  28.329  22.530  1.00  0.00    -0.744 OA
ENDBRANCH  63  66
ENDBRANCH  45  59
BRANCH  46  70
ATOM     70  C   UNL A   1      38.546  30.592  31.040  1.00  0.00     0.023 A 
ATOM     71  C   UNL A   1      38.348  30.340  32.411  1.00  0.00     0.012 A 
ATOM     72  C   UNL A   1      37.541  31.260  30.314  1.00  0.00     0.148 A 
ATOM     73  C   UNL A   1      37.160  30.713  33.041  1.00  0.00     0.002 A 
ATOM     74  C   UNL A   1      36.383  31.678  30.959  1.00  0.00     0.091 A 
ATOM     75  F   UNL A   1      37.744  31.484  29.007  1.00  0.00    -0.205 F 
ATOM     76  C   UNL A   1      36.182  31.390  32.318  1.00  0.00     0.022 A 
BRANCH  74  77
ATOM     77  S   UNL A   1      35.131  32.672  30.139  1.00  0.00     0.127 S 
ATOM     78  O   UNL A   1      34.187  32.918  31.225  1.00  0.00    -0.237 OA
ATOM     79  O   UNL A   1      35.903  33.841  29.715  1.00  0.00    -0.237 OA
ATOM     80  O   UNL A   1      34.639  31.851  29.042  1.00  0.00    -0.744 OA
ENDBRANCH  74  77
ENDBRANCH  46  70
BRANCH  58  81
ATOM     81  C   UNL A   1      44.456  33.966  29.499  1.00  0.00     0.023 A 
ATOM     82  C   UNL A   1      45.024  34.366  30.724  1.00  0.00     0.012 A 
ATOM     83  C   UNL A   1      44.354  34.897  28.446  1.00  0.00     0.148 A 
ATOM     84  C   UNL A   1      45.441  35.682  30.915  1.00  0.00     0.002 A 
ATOM     85  C   UNL A   1      44.819  36.193  28.627  1.00  0.00     0.091 A 
ATOM     86  F   UNL A   1      43.793  34.503  27.293  1.00  0.00    -0.205 F 
ATOM     87  C   UNL A   1      45.350  36.592  29.865  1.00  0.00     0.022 A 
BRANCH  85  88
ATOM     88  S   UNL A   1      44.829  37.394  27.291  1.00  0.00     0.127 S 
ATOM     89  O   UNL A   1      45.767  36.788  26.350  1.00  0.00    -0.237 OA
ATOM     90  O   UNL A   1      43.432  37.387  26.852  1.00  0.00    -0.237 OA
ATOM     91  O   UNL A   1      45.259  38.649  27.894  1.00  0.00    -0.744 OA
ENDBRANCH  85  88
ENDBRANCH  58  81
ENDBRANCH  32  33
ENDBRANCH  24  27
ENDBRANCH  22  23
ENDBRANCH  21  22
ENDBRANCH   1  21
TORSDOF 17
ENDMDL
MODEL 2
REMARK VINA RESULT:     -11.3      5.297     10.058
REMARK SMILES C[C@@H](CC(=O)NCCCCNC(=O)c1ccc(-c2c3nc(c(-c4cccc(S(=O)(=O)[O-])c4F)c4ccc([nH]4)c(-c4cccc(S(=O)(=O)[O-])c4F)c4nc(c(-c5cccc(S(=O)(=O)[O-])c5F)c5ccc2[nH]5)C=C4)C=C3)cc1)NC(=O)N[C@H]1CCOC1
REMARK SMILES IDX 8 1 7 2 6 3 4 4 5 5 3 7 2 8 1 9 77 10 78 11 79 13 80 14
REMARK SMILES IDX 81 16 82 17 85 18 83 19 84 20 9 21 10 22 11 23 12 24 13 26
REMARK SMILES IDX 14 27 15 28 76 29 16 30 75 31 17 32 18 33 19 34 69 35 20 36
REMARK SMILES IDX 74 37 68 38 70 39 21 40 73 41 67 42 66 43 22 45 54 46 34 47
REMARK SMILES IDX 53 48 35 49 38 50 52 51 71 52 36 53 37 54 51 56 72 57 39 58
REMARK SMILES IDX 23 59 24 60 32 61 25 62 27 63 33 64 26 65 28 66 29 67 30 68
REMARK SMILES IDX 31 69 55 70 56 71 64 72 57 73 59 74 65 75 58 76 60 77 61 78
REMARK SMILES IDX 62 79 63 80 40 81 41 82 49 83 42 84 44 85 50 86 43 87 45 88
REMARK SMILES IDX 46 89 47 90 48 91
REMARK H PARENT 6 6 77 12 80 15 11 25 70 44 38 55
REMARK Flexibility Score: inf
ROOT
ATOM      1  C   UNL A   1      31.952  27.387  26.674  1.00  0.00     0.023 C 
ENDROOT
BRANCH   1   2
ATOM      2  C   UNL A   1      31.195  26.433  25.749  1.00  0.00     0.116 C 
BRANCH   2   3
ATOM      3  N   UNL A   1      30.536  25.380  26.501  1.00  0.00    -0.356 N 
ATOM      4  C   UNL A   1      30.918  24.086  26.703  1.00  0.00     0.222 C 
ATOM      5  O   UNL A   1      30.142  23.313  27.264  1.00  0.00    -0.275 OA
ATOM      6  H   UNL A   1      29.688  25.639  26.929  1.00  0.00     0.163 HD
BRANCH   4   7
ATOM      7  C   UNL A   1      32.283  23.623  26.256  1.00  0.00     0.124 C 
BRANCH   7   8
ATOM      8  C   UNL A   1      32.296  22.607  25.111  1.00  0.00     0.090 C 
ATOM      9  C   UNL A   1      31.363  22.891  23.947  1.00  0.00     0.031 C 
BRANCH   8  10
ATOM     10  N   UNL A   1      32.081  21.243  25.557  1.00  0.00    -0.335 N 
ATOM     11  C   UNL A   1      32.725  20.125  25.188  1.00  0.00     0.315 C 
ATOM     12  H   UNL A   1      31.364  21.120  26.220  1.00  0.00     0.165 HD
ATOM     13  O   UNL A   1      32.110  19.058  25.193  1.00  0.00    -0.249 OA
ATOM     14  N   UNL A   1      34.013  20.095  24.808  1.00  0.00    -0.333 N 
ATOM     15  H   UNL A   1      34.225  19.271  24.313  1.00  0.00     0.165 HD
BRANCH  14  16
ATOM     16  C   UNL A   1      35.183  20.963  24.937  1.00  0.00     0.112 C 
ATOM     17  C   UNL A   1      35.299  22.066  23.910  1.00  0.00     0.056 C 
ATOM     18  C   UNL A   1      35.428  21.611  26.294  1.00  0.00     0.185 C 
ATOM     19  C   UNL A   1      35.774  23.280  24.683  1.00  0.00     0.162 C 
ATOM     20  O   UNL A   1      35.725  22.998  26.082  1.00  0.00    -0.379 OA
ENDBRANCH  14  16
ENDBRANCH   8  10
ENDBRANCH   7   8
ENDBRANCH   4   7
ENDBRANCH   2   3
ENDBRANCH   1   2
BRANCH   1  21
ATOM     21  C   UNL A   1      31.639  28.858  26.471  1.00  0.00     0.023 C 
BRANCH  21  22
ATOM     22  C   UNL A   1      32.869  29.723  26.312  1.00  0.00     0.116 C 
BRANCH  22  23
ATOM     23  N   UNL A   1      32.613  31.130  26.598  1.00  0.00    -0.352 N 
ATOM     24  C   UNL A   1      33.357  31.987  27.371  1.00  0.00     0.251 C 
ATOM     25  H   UNL A   1      31.805  31.513  26.186  1.00  0.00     0.163 HD
ATOM     26  O   UNL A   1      32.935  33.106  27.647  1.00  0.00    -0.269 OA
BRANCH  24  27
ATOM     27  C   UNL A   1      34.657  31.516  27.880  1.00  0.00     0.039 A 
ATOM     28  C   UNL A   1      35.732  32.403  27.935  1.00  0.00     0.014 A 
ATOM     29  C   UNL A   1      34.772  30.219  28.387  1.00  0.00     0.014 A 
ATOM     30  C   UNL A   1      36.914  31.995  28.552  1.00  0.00     0.010 A 
ATOM     31  C   UNL A   1      35.898  29.865  29.109  1.00  0.00     0.010 A 
ATOM     32  C   UNL A   1      36.993  30.734  29.169  1.00  0.00    -0.014 A 
BRANCH  32  33
ATOM     33  C   UNL A   1      38.232  30.292  29.851  1.00  0.00     0.031 A 
ATOM     34  C   UNL A   1      38.557  30.817  31.224  1.00  0.00     0.074 A 
ATOM     35  C   UNL A   1      39.089  29.475  29.209  1.00  0.00     0.049 A 
ATOM     36  N   UNL A   1      39.577  30.539  31.990  1.00  0.00    -0.248 NA
ATOM     37  C   UNL A   1      37.639  31.818  31.797  1.00  0.00     0.031 C 
ATOM     38  C   UNL A   1      38.938  28.997  27.831  1.00  0.00     0.029 A 
ATOM     39  N   UNL A   1      40.265  28.908  29.628  1.00  0.00    -0.354 N 
ATOM     40  C   UNL A   1      39.443  31.352  33.109  1.00  0.00     0.074 A 
ATOM     41  C   UNL A   1      38.278  32.179  32.898  1.00  0.00     0.031 C 
ATOM     42  C   UNL A   1      39.965  28.185  27.532  1.00  0.00     0.029 A 
ATOM     43  C   UNL A   1      40.852  28.096  28.687  1.00  0.00     0.049 A 
ATOM     44  H   UNL A   1      40.652  29.068  30.519  1.00  0.00     0.167 HD
ATOM     45  C   UNL A   1      40.190  31.373  34.237  1.00  0.00     0.034 A 
ATOM     46  C   UNL A   1      41.969  27.346  28.761  1.00  0.00     0.034 A 
ATOM     47  C   UNL A   1      41.306  30.500  34.464  1.00  0.00     0.049 A 
ATOM     48  C   UNL A   1      42.725  27.310  30.062  1.00  0.00     0.074 A 
ATOM     49  C   UNL A   1      42.079  30.364  35.603  1.00  0.00     0.029 A 
ATOM     50  N   UNL A   1      41.806  29.604  33.531  1.00  0.00    -0.354 N 
ATOM     51  N   UNL A   1      42.480  27.954  31.177  1.00  0.00    -0.248 NA
ATOM     52  C   UNL A   1      43.879  26.405  30.131  1.00  0.00     0.031 C 
ATOM     53  C   UNL A   1      43.054  29.392  35.353  1.00  0.00     0.029 A 
ATOM     54  C   UNL A   1      42.875  28.909  34.066  1.00  0.00     0.049 A 
ATOM     55  H   UNL A   1      41.451  29.481  32.621  1.00  0.00     0.167 HD
ATOM     56  C   UNL A   1      43.425  27.507  32.092  1.00  0.00     0.074 A 
ATOM     57  C   UNL A   1      44.230  26.516  31.405  1.00  0.00     0.031 C 
ATOM     58  C   UNL A   1      43.624  27.890  33.378  1.00  0.00     0.034 A 
BRANCH  45  59
ATOM     59  C   UNL A   1      39.771  32.321  35.331  1.00  0.00     0.023 A 
ATOM     60  C   UNL A   1      38.940  31.856  36.372  1.00  0.00     0.012 A 
ATOM     61  C   UNL A   1      40.218  33.656  35.349  1.00  0.00     0.148 A 
ATOM     62  C   UNL A   1      38.524  32.713  37.390  1.00  0.00     0.002 A 
ATOM     63  C   UNL A   1      39.839  34.492  36.394  1.00  0.00     0.091 A 
ATOM     64  F   UNL A   1      40.984  34.089  34.339  1.00  0.00    -0.205 F 
ATOM     65  C   UNL A   1      38.982  34.028  37.406  1.00  0.00     0.022 A 
BRANCH  63  66
ATOM     66  S   UNL A   1      40.437  36.178  36.550  1.00  0.00     0.127 S 
ATOM     67  O   UNL A   1      39.984  36.771  35.293  1.00  0.00    -0.237 OA
ATOM     68  O   UNL A   1      39.725  36.648  37.738  1.00  0.00    -0.237 OA
ATOM     69  O   UNL A   1      41.881  36.077  36.710  1.00  0.00    -0.744 OA
ENDBRANCH  63  66
ENDBRANCH  45  59
BRANCH  46  70
ATOM     70  C   UNL A   1      42.366  26.486  27.612  1.00  0.00     0.023 A 
ATOM     71  C   UNL A   1      43.193  27.019  26.604  1.00  0.00     0.012 A 
ATOM     72  C   UNL A   1      41.967  25.138  27.528  1.00  0.00     0.148 A 
ATOM     73  C   UNL A   1      43.586  26.239  25.515  1.00  0.00     0.002 A 
ATOM     74  C   UNL A   1      42.406  24.350  26.471  1.00  0.00     0.091 A 
ATOM     75  F   UNL A   1      41.174  24.650  28.493  1.00  0.00    -0.205 F 
ATOM     76  C   UNL A   1      43.200  24.903  25.453  1.00  0.00     0.022 A 
BRANCH  74  77
ATOM     77  S   UNL A   1      42.071  22.588  26.381  1.00  0.00     0.127 S 
ATOM     78  O   UNL A   1      40.618  22.567  26.235  1.00  0.00    -0.237 OA
ATOM     79  O   UNL A   1      42.817  22.198  25.184  1.00  0.00    -0.237 OA
ATOM     80  O   UNL A   1      42.593  22.028  27.620  1.00  0.00    -0.744 OA
ENDBRANCH  74  77
ENDBRANCH  46  70
BRANCH  58  81
ATOM     81  C   UNL A   1      44.734  27.212  34.136  1.00  0.00     0.023 A 
ATOM     82  C   UNL A   1      46.048  27.712  34.050  1.00  0.00     0.012 A 
ATOM     83  C   UNL A   1      44.463  26.116  34.977  1.00  0.00     0.148 A 
ATOM     84  C   UNL A   1      47.084  27.104  34.756  1.00  0.00     0.002 A 
ATOM     85  C   UNL A   1      45.492  25.546  35.717  1.00  0.00     0.091 A 
ATOM     86  F   UNL A   1      43.210  25.641  35.031  1.00  0.00    -0.205 F 
ATOM     87  C   UNL A   1      46.805  26.029  35.597  1.00  0.00     0.022 A 
BRANCH  85  88
ATOM     88  S   UNL A   1      45.194  24.226  36.898  1.00  0.00     0.127 S 
ATOM     89  O   UNL A   1      46.497  24.108  37.549  1.00  0.00    -0.237 OA
ATOM     90  O   UNL A   1      44.139  24.789  37.741  1.00  0.00    -0.237 OA
ATOM     91  O   UNL A   1      44.777  23.076  36.106  1.00  0.00    -0.744 OA
ENDBRANCH  85  88
ENDBRANCH  58  81
ENDBRANCH  32  33
ENDBRANCH  24  27
ENDBRANCH  22  23
ENDBRANCH  21  22
ENDBRANCH   1  21
TORSDOF 17
ENDMDL
MODEL 3
REMARK VINA RESULT:     -11.2      5.129      9.579
REMARK SMILES C[C@@H](CC(=O)NCCCCNC(=O)c1ccc(-c2c3nc(c(-c4cccc(S(=O)(=O)[O-])c4F)c4ccc([nH]4)c(-c4cccc(S(=O)(=O)[O-])c4F)c4nc(c(-c5cccc(S(=O)(=O)[O-])c5F)c5ccc2[nH]5)C=C4)C=C3)cc1)NC(=O)N[C@H]1CCOC1
REMARK SMILES IDX 8 1 7 2 6 3 4 4 5 5 3 7 2 8 1 9 77 10 78 11 79 13 80 14
REMARK SMILES IDX 81 16 82 17 85 18 83 19 84 20 9 21 10 22 11 23 12 24 13 26
REMARK SMILES IDX 14 27 15 28 76 29 16 30 75 31 17 32 18 33 19 34 69 35 20 36
REMARK SMILES IDX 74 37 68 38 70 39 21 40 73 41 67 42 66 43 22 45 54 46 34 47
REMARK SMILES IDX 53 48 35 49 38 50 52 51 71 52 36 53 37 54 51 56 72 57 39 58
REMARK SMILES IDX 23 59 24 60 32 61 25 62 27 63 33 64 26 65 28 66 29 67 30 68
REMARK SMILES IDX 31 69 55 70 56 71 64 72 57 73 59 74 65 75 58 76 60 77 61 78
REMARK SMILES IDX 62 79 63 80 40 81 41 82 49 83 42 84 44 85 50 86 43 87 45 88
REMARK SMILES IDX 46 89 47 90 48 91
REMARK H PARENT 6 6 77 12 80 15 11 25 70 44 38 55
REMARK Flexibility Score: inf
ROOT
ATOM      1  C   UNL A   1      33.745  26.390  25.098  1.00  0.00     0.023 C 
ENDROOT
BRANCH   1   2
ATOM      2  C   UNL A   1      32.757  25.922  24.028  1.00  0.00     0.116 C 
BRANCH   2   3
ATOM      3  N   UNL A   1      33.421  25.129  23.009  1.00  0.00    -0.356 N 
ATOM      4  C   UNL A   1      33.459  23.775  22.848  1.00  0.00     0.222 C 
ATOM      5  O   UNL A   1      34.197  23.294  21.988  1.00  0.00    -0.275 OA
ATOM      6  H   UNL A   1      33.917  25.646  22.333  1.00  0.00     0.163 HD
BRANCH   4   7
ATOM      7  C   UNL A   1      32.590  22.888  23.706  1.00  0.00     0.124 C 
BRANCH   7   8
ATOM      8  C   UNL A   1      33.289  22.233  24.900  1.00  0.00     0.090 C 
ATOM      9  C   UNL A   1      33.060  22.881  26.255  1.00  0.00     0.031 C 
BRANCH   8  10
ATOM     10  N   UNL A   1      34.716  22.060  24.703  1.00  0.00    -0.335 N 
ATOM     11  C   UNL A   1      35.492  21.017  25.033  1.00  0.00     0.315 C 
ATOM     12  H   UNL A   1      35.179  22.812  24.266  1.00  0.00     0.165 HD
ATOM     13  O   UNL A   1      36.671  21.224  25.322  1.00  0.00    -0.249 OA
ATOM     14  N   UNL A   1      35.060  19.746  25.070  1.00  0.00    -0.333 N 
ATOM     15  H   UNL A   1      35.664  19.173  25.596  1.00  0.00     0.165 HD
BRANCH  14  16
ATOM     16  C   UNL A   1      33.928  18.988  24.535  1.00  0.00     0.112 C 
ATOM     17  C   UNL A   1      34.245  17.595  24.043  1.00  0.00     0.056 C 
ATOM     18  C   UNL A   1      32.691  18.862  25.415  1.00  0.00     0.185 C 
ATOM     19  C   UNL A   1      33.089  16.735  24.511  1.00  0.00     0.162 C 
ATOM     20  O   UNL A   1      32.268  17.492  25.402  1.00  0.00    -0.379 OA
ENDBRANCH  14  16
ENDBRANCH   8  10
ENDBRANCH   7   8
ENDBRANCH   4   7
ENDBRANCH   2   3
ENDBRANCH   1   2
BRANCH   1  21
ATOM     21  C   UNL A   1      33.860  27.896  25.248  1.00  0.00     0.023 C 
BRANCH  21  22
ATOM     22  C   UNL A   1      34.298  28.336  26.626  1.00  0.00     0.116 C 
BRANCH  22  23
ATOM     23  N   UNL A   1      33.861  29.689  26.954  1.00  0.00    -0.352 N 
ATOM     24  C   UNL A   1      34.474  30.602  27.777  1.00  0.00     0.251 C 
ATOM     25  H   UNL A   1      33.023  29.985  26.532  1.00  0.00     0.163 HD
ATOM     26  O   UNL A   1      33.910  31.649  28.079  1.00  0.00    -0.269 OA
BRANCH  24  27
ATOM     27  C   UNL A   1      35.810  30.276  28.307  1.00  0.00     0.039 A 
ATOM     28  C   UNL A   1      35.918  29.620  29.532  1.00  0.00     0.014 A 
ATOM     29  C   UNL A   1      36.944  30.542  27.534  1.00  0.00     0.014 A 
ATOM     30  C   UNL A   1      37.173  29.184  29.957  1.00  0.00     0.010 A 
ATOM     31  C   UNL A   1      38.162  29.997  27.898  1.00  0.00     0.010 A 
ATOM     32  C   UNL A   1      38.298  29.344  29.129  1.00  0.00    -0.014 A 
BRANCH  32  33
ATOM     33  C   UNL A   1      39.634  28.865  29.552  1.00  0.00     0.031 A 
ATOM     34  C   UNL A   1      40.360  29.566  30.669  1.00  0.00     0.074 A 
ATOM     35  C   UNL A   1      40.217  27.848  28.888  1.00  0.00     0.049 A 
ATOM     36  N   UNL A   1      41.524  29.290  31.194  1.00  0.00    -0.248 NA
ATOM     37  C   UNL A   1      39.715  30.759  31.246  1.00  0.00     0.031 C 
ATOM     38  C   UNL A   1      39.661  27.170  27.713  1.00  0.00     0.029 A 
ATOM     39  N   UNL A   1      41.412  27.212  29.102  1.00  0.00    -0.354 N 
ATOM     40  C   UNL A   1      41.763  30.289  32.130  1.00  0.00     0.074 A 
ATOM     41  C   UNL A   1      40.656  31.214  32.059  1.00  0.00     0.031 C 
ATOM     42  C   UNL A   1      40.499  26.193  27.331  1.00  0.00     0.029 A 
ATOM     43  C   UNL A   1      41.655  26.184  28.222  1.00  0.00     0.049 A 
ATOM     44  H   UNL A   1      42.038  27.467  29.818  1.00  0.00     0.167 HD
ATOM     45  C   UNL A   1      42.786  30.402  33.007  1.00  0.00     0.034 A 
ATOM     46  C   UNL A   1      42.685  25.319  28.158  1.00  0.00     0.034 A 
ATOM     47  C   UNL A   1      43.848  29.442  33.114  1.00  0.00     0.049 A 
ATOM     48  C   UNL A   1      43.759  25.403  29.209  1.00  0.00     0.074 A 
ATOM     49  C   UNL A   1      44.886  29.400  34.026  1.00  0.00     0.029 A 
ATOM     50  N   UNL A   1      44.002  28.345  32.279  1.00  0.00    -0.354 N 
ATOM     51  N   UNL A   1      43.878  26.251  30.202  1.00  0.00    -0.248 NA
ATOM     52  C   UNL A   1      44.812  24.380  29.163  1.00  0.00     0.031 C 
ATOM     53  C   UNL A   1      45.675  28.281  33.735  1.00  0.00     0.029 A 
ATOM     54  C   UNL A   1      45.116  27.617  32.655  1.00  0.00     0.049 A 
ATOM     55  H   UNL A   1      43.406  28.119  31.529  1.00  0.00     0.167 HD
ATOM     56  C   UNL A   1      44.997  25.845  30.920  1.00  0.00     0.074 A 
ATOM     57  C   UNL A   1      45.502  24.657  30.261  1.00  0.00     0.031 C 
ATOM     58  C   UNL A   1      45.566  26.408  32.014  1.00  0.00     0.034 A 
BRANCH  45  59
ATOM     59  C   UNL A   1      42.758  31.566  33.964  1.00  0.00     0.023 A 
ATOM     60  C   UNL A   1      43.325  32.798  33.575  1.00  0.00     0.012 A 
ATOM     61  C   UNL A   1      42.150  31.456  35.229  1.00  0.00     0.148 A 
ATOM     62  C   UNL A   1      43.327  33.889  34.444  1.00  0.00     0.002 A 
ATOM     63  C   UNL A   1      42.113  32.562  36.071  1.00  0.00     0.091 A 
ATOM     64  F   UNL A   1      41.640  30.272  35.594  1.00  0.00    -0.205 F 
ATOM     65  C   UNL A   1      42.712  33.773  35.687  1.00  0.00     0.022 A 
BRANCH  63  66
ATOM     66  S   UNL A   1      41.276  32.541  37.660  1.00  0.00     0.127 S 
ATOM     67  O   UNL A   1      41.372  33.943  38.064  1.00  0.00    -0.237 OA
ATOM     68  O   UNL A   1      39.929  32.104  37.292  1.00  0.00    -0.237 OA
ATOM     69  O   UNL A   1      42.013  31.598  38.489  1.00  0.00    -0.744 OA
ENDBRANCH  63  66
ENDBRANCH  45  59
BRANCH  46  70
ATOM     70  C   UNL A   1      42.686  24.234  27.138  1.00  0.00     0.023 A 
ATOM     71  C   UNL A   1      43.393  24.419  25.934  1.00  0.00     0.012 A 
ATOM     72  C   UNL A   1      42.028  23.010  27.364  1.00  0.00     0.148 A 
ATOM     73  C   UNL A   1      43.416  23.421  24.958  1.00  0.00     0.002 A 
ATOM     74  C   UNL A   1      42.100  21.998  26.413  1.00  0.00     0.091 A 
ATOM     75  F   UNL A   1      41.355  22.854  28.513  1.00  0.00    -0.205 F 
ATOM     76  C   UNL A   1      42.778  22.209  25.201  1.00  0.00     0.022 A 
BRANCH  74  77
ATOM     77  S   UNL A   1      41.424  20.359  26.698  1.00  0.00     0.127 S 
ATOM     78  O   UNL A   1      40.000  20.646  26.850  1.00  0.00    -0.237 OA
ATOM     79  O   UNL A   1      41.785  19.663  25.463  1.00  0.00    -0.237 OA
ATOM     80  O   UNL A   1      42.102  19.860  27.886  1.00  0.00    -0.744 OA
ENDBRANCH  74  77
ENDBRANCH  46  70
BRANCH  58  81
ATOM     81  C   UNL A   1      46.781  25.729  32.587  1.00  0.00     0.023 A 
ATOM     82  C   UNL A   1      48.065  26.099  32.143  1.00  0.00     0.012 A 
ATOM     83  C   UNL A   1      46.650  24.765  33.606  1.00  0.00     0.148 A 
ATOM     84  C   UNL A   1      49.200  25.488  32.673  1.00  0.00     0.002 A 
ATOM     85  C   UNL A   1      47.788  24.198  34.166  1.00  0.00     0.091 A 
ATOM     86  F   UNL A   1      45.418  24.412  34.003  1.00  0.00    -0.205 F 
ATOM     87  C   UNL A   1      49.063  24.547  33.691  1.00  0.00     0.022 A 
BRANCH  85  88
ATOM     88  S   UNL A   1      47.698  23.055  35.548  1.00  0.00     0.127 S 
ATOM     89  O   UNL A   1      49.110  22.774  35.797  1.00  0.00    -0.237 OA
ATOM     90  O   UNL A   1      47.044  23.860  36.581  1.00  0.00    -0.237 OA
ATOM     91  O   UNL A   1      46.903  21.928  35.076  1.00  0.00    -0.744 OA
ENDBRANCH  85  88
ENDBRANCH  58  81
ENDBRANCH  32  33
ENDBRANCH  24  27
ENDBRANCH  22  23
ENDBRANCH  21  22
ENDBRANCH   1  21
TORSDOF 17
ENDMDL
