MODEL 1
REMARK VINA RESULT:     -13.2      0.000      0.000
REMARK SMILES Cc1ccc(C(c2ccccc2)(c2ccccc2)n2cnc(C[C@H]([NH3+])C(=O)NCCCCNC(=O)c3ccc(-c4c5nc(c(-c6cccc(S(=O)(=O)[O-])c6F)c6ccc([nH]6)c(-c6cccc(S(=O)(=O)[O-])c6F)c6nc(c(-c7cccc(S(=O)(=O)[O-])c7F)c7ccc4[nH]7)C=C6)C=C5)cc3)c2)cc1
REMARK SMILES IDX 30 1 29 2 28 3 26 4 27 5 24 7 23 8 22 9 19 10 20 11 99 12
REMARK SMILES IDX 21 13 6 14 5 15 1 16 2 17 3 18 101 19 4 20 100 21 7 22 8 23
REMARK SMILES IDX 12 24 9 25 11 26 10 27 13 28 14 29 18 30 15 31 17 32 16 33
REMARK SMILES IDX 25 34 31 38 32 39 33 40 34 41 35 43 36 44 37 45 98 46 38 47
REMARK SMILES IDX 97 48 39 49 40 50 41 51 91 52 42 53 96 54 90 55 92 56 43 57
REMARK SMILES IDX 95 58 89 59 88 60 44 62 76 63 56 64 75 65 57 66 60 67 74 68
REMARK SMILES IDX 93 69 58 70 59 71 73 73 94 74 61 75 45 76 46 77 54 78 47 79
REMARK SMILES IDX 49 80 55 81 48 82 50 83 51 84 52 85 53 86 77 87 78 88 86 89
REMARK SMILES IDX 79 90 81 91 87 92 80 93 82 94 83 95 84 96 85 97 62 98 63 99
REMARK SMILES IDX 71 100 64 101 66 102 72 103 65 104 67 105 68 106 69 107
REMARK SMILES IDX 70 108
REMARK H PARENT 28 6 25 35 25 36 25 37 33 42 92 61 60 72
REMARK Flexibility Score: inf
ROOT
ATOM      1  C   UNL A   1      31.810  29.829  25.369  1.00  0.00     0.023 C 
ENDROOT
BRANCH   1   2
ATOM      2  C   UNL A   1      32.805  28.684  25.150  1.00  0.00     0.116 C 
BRANCH   2   3
ATOM      3  N   UNL A   1      33.520  28.823  23.896  1.00  0.00    -0.351 N 
ATOM      4  C   UNL A   1      33.282  28.311  22.653  1.00  0.00     0.278 C 
ATOM      5  O   UNL A   1      34.203  28.373  21.830  1.00  0.00    -0.268 OA
ATOM      6  H   UNL A   1      34.323  29.389  23.950  1.00  0.00     0.163 HD
BRANCH   4   7
ATOM      7  C   UNL A   1      31.944  27.628  22.305  1.00  0.00     0.276 C 
BRANCH   7   8
ATOM      8  C   UNL A   1      32.090  26.491  21.279  1.00  0.00     0.133 C 
BRANCH   8   9
ATOM      9  C   UNL A   1      32.545  25.208  21.873  1.00  0.00     0.065 A 
ATOM     10  N   UNL A   1      33.007  23.564  23.253  1.00  0.00    -0.319 N 
ATOM     11  C   UNL A   1      33.548  23.326  22.010  1.00  0.00     0.201 A 
ATOM     12  C   UNL A   1      32.281  24.725  23.133  1.00  0.00     0.112 A 
ATOM     13  N   UNL A   1      33.301  24.309  21.175  1.00  0.00    -0.241 NA
BRANCH  10  14
ATOM     14  C   UNL A   1      33.238  22.744  24.490  1.00  0.00     0.121 C 
BRANCH  14  15
ATOM     15  C   UNL A   1      33.160  21.208  24.125  1.00  0.00    -0.013 A 
ATOM     16  C   UNL A   1      33.122  16.967  23.151  1.00  0.00     0.044 C 
ATOM     17  C   UNL A   1      33.128  18.422  23.519  1.00  0.00    -0.051 A 
ATOM     18  C   UNL A   1      32.262  19.306  22.871  1.00  0.00     0.004 A 
ATOM     19  C   UNL A   1      33.990  18.919  24.496  1.00  0.00     0.004 A 
ATOM     20  C   UNL A   1      32.273  20.675  23.170  1.00  0.00     0.007 A 
ATOM     21  C   UNL A   1      33.997  20.283  24.802  1.00  0.00     0.007 A 
ENDBRANCH  14  15
BRANCH  14  22
ATOM     22  C   UNL A   1      34.685  23.138  25.037  1.00  0.00    -0.013 A 
ATOM     23  C   UNL A   1      35.821  23.124  24.193  1.00  0.00     0.007 A 
ATOM     24  C   UNL A   1      34.949  23.417  26.395  1.00  0.00     0.007 A 
ATOM     25  C   UNL A   1      37.098  23.486  24.644  1.00  0.00     0.000 A 
ATOM     26  C   UNL A   1      36.226  23.765  26.855  1.00  0.00     0.000 A 
ATOM     27  C   UNL A   1      37.296  23.823  25.974  1.00  0.00     0.000 A 
ENDBRANCH  14  22
BRANCH  14  28
ATOM     28  C   UNL A   1      32.064  23.114  25.519  1.00  0.00    -0.013 A 
ATOM     29  C   UNL A   1      31.231  22.109  26.069  1.00  0.00     0.007 A 
ATOM     30  C   UNL A   1      31.653  24.445  25.754  1.00  0.00     0.007 A 
ATOM     31  C   UNL A   1      30.082  22.416  26.810  1.00  0.00     0.000 A 
ATOM     32  C   UNL A   1      30.486  24.751  26.468  1.00  0.00     0.000 A 
ATOM     33  C   UNL A   1      29.701  23.736  26.997  1.00  0.00     0.000 A 
ENDBRANCH  14  28
ENDBRANCH  10  14
ENDBRANCH   8   9
ENDBRANCH   7   8
BRANCH   7  34
ATOM     34  N   UNL A   1      30.937  28.652  21.909  1.00  0.00    -0.347 N 
ATOM     35  H   UNL A   1      30.009  28.228  21.889  1.00  0.00     0.345 HD
ATOM     36  H   UNL A   1      31.165  29.013  20.983  1.00  0.00     0.345 HD
ATOM     37  H   UNL A   1      30.946  29.418  22.583  1.00  0.00     0.345 HD
ENDBRANCH   7  34
ENDBRANCH   4   7
ENDBRANCH   2   3
ENDBRANCH   1   2
BRANCH   1  38
ATOM     38  C   UNL A   1      32.120  30.740  26.558  1.00  0.00     0.023 C 
BRANCH  38  39
ATOM     39  C   UNL A   1      33.380  30.350  27.308  1.00  0.00     0.116 C 
BRANCH  39  40
ATOM     40  N   UNL A   1      34.153  31.477  27.788  1.00  0.00    -0.352 N 
ATOM     41  C   UNL A   1      35.290  31.494  28.572  1.00  0.00     0.251 C 
ATOM     42  H   UNL A   1      33.818  32.362  27.515  1.00  0.00     0.163 HD
ATOM     43  O   UNL A   1      35.566  32.544  29.152  1.00  0.00    -0.269 OA
BRANCH  41  44
ATOM     44  C   UNL A   1      36.236  30.343  28.584  1.00  0.00     0.039 A 
ATOM     45  C   UNL A   1      36.465  29.699  29.810  1.00  0.00     0.014 A 
ATOM     46  C   UNL A   1      37.066  30.063  27.506  1.00  0.00     0.014 A 
ATOM     47  C   UNL A   1      37.660  29.015  30.027  1.00  0.00     0.010 A 
ATOM     48  C   UNL A   1      38.295  29.501  27.742  1.00  0.00     0.010 A 
ATOM     49  C   UNL A   1      38.612  29.036  29.019  1.00  0.00    -0.014 A 
BRANCH  49  50
ATOM     50  C   UNL A   1      39.987  28.599  29.136  1.00  0.00     0.031 A 
ATOM     51  C   UNL A   1      40.306  27.180  28.910  1.00  0.00     0.074 A 
ATOM     52  C   UNL A   1      40.935  29.560  29.087  1.00  0.00     0.049 A 
ATOM     53  N   UNL A   1      41.446  26.645  29.166  1.00  0.00    -0.248 NA
ATOM     54  C   UNL A   1      39.338  26.246  28.345  1.00  0.00     0.031 C 
ATOM     55  C   UNL A   1      42.329  29.416  28.689  1.00  0.00     0.029 A 
ATOM     56  N   UNL A   1      40.855  30.873  29.564  1.00  0.00    -0.354 N 
ATOM     57  C   UNL A   1      41.475  25.426  28.520  1.00  0.00     0.074 A 
ATOM     58  C   UNL A   1      40.114  25.186  28.102  1.00  0.00     0.031 C 
ATOM     59  C   UNL A   1      43.027  30.446  29.196  1.00  0.00     0.029 A 
ATOM     60  C   UNL A   1      42.127  31.157  30.088  1.00  0.00     0.049 A 
ATOM     61  H   UNL A   1      40.074  31.472  29.536  1.00  0.00     0.167 HD
ATOM     62  C   UNL A   1      42.682  24.851  28.259  1.00  0.00     0.034 A 
ATOM     63  C   UNL A   1      42.342  31.364  31.423  1.00  0.00     0.034 A 
ATOM     64  C   UNL A   1      43.772  25.684  28.793  1.00  0.00     0.049 A 
ATOM     65  C   UNL A   1      43.304  30.351  32.026  1.00  0.00     0.074 A 
ATOM     66  C   UNL A   1      44.619  26.613  28.213  1.00  0.00     0.029 A 
ATOM     67  N   UNL A   1      43.885  25.856  30.168  1.00  0.00    -0.354 N 
ATOM     68  N   UNL A   1      43.715  29.274  31.412  1.00  0.00    -0.248 NA
ATOM     69  C   UNL A   1      43.895  30.474  33.353  1.00  0.00     0.031 C 
ATOM     70  C   UNL A   1      45.194  27.396  29.252  1.00  0.00     0.029 A 
ATOM     71  C   UNL A   1      44.718  26.924  30.464  1.00  0.00     0.049 A 
ATOM     72  H   UNL A   1      43.434  25.297  30.840  1.00  0.00     0.167 HD
ATOM     73  C   UNL A   1      44.526  28.529  32.229  1.00  0.00     0.074 A 
ATOM     74  C   UNL A   1      44.653  29.362  33.416  1.00  0.00     0.031 C 
ATOM     75  C   UNL A   1      44.979  27.286  31.857  1.00  0.00     0.034 A 
BRANCH  62  76
ATOM     76  C   UNL A   1      42.916  23.730  27.257  1.00  0.00     0.023 A 
ATOM     77  C   UNL A   1      43.579  24.070  26.055  1.00  0.00     0.012 A 
ATOM     78  C   UNL A   1      42.506  22.381  27.373  1.00  0.00     0.148 A 
ATOM     79  C   UNL A   1      43.733  23.172  24.993  1.00  0.00     0.002 A 
ATOM     80  C   UNL A   1      42.604  21.497  26.289  1.00  0.00     0.091 A 
ATOM     81  F   UNL A   1      42.096  21.911  28.555  1.00  0.00    -0.205 F 
ATOM     82  C   UNL A   1      43.213  21.894  25.096  1.00  0.00     0.022 A 
BRANCH  80  83
ATOM     83  S   UNL A   1      41.893  19.841  26.317  1.00  0.00     0.127 S 
ATOM     84  O   UNL A   1      40.458  20.118  26.215  1.00  0.00    -0.237 OA
ATOM     85  O   UNL A   1      42.476  19.227  25.126  1.00  0.00    -0.237 OA
ATOM     86  O   UNL A   1      42.291  19.254  27.590  1.00  0.00    -0.744 OA
ENDBRANCH  80  83
ENDBRANCH  62  76
BRANCH  63  87
ATOM     87  C   UNL A   1      41.187  32.030  32.105  1.00  0.00     0.023 A 
ATOM     88  C   UNL A   1      40.860  33.328  31.635  1.00  0.00     0.012 A 
ATOM     89  C   UNL A   1      40.210  31.303  32.808  1.00  0.00     0.148 A 
ATOM     90  C   UNL A   1      39.552  33.809  31.699  1.00  0.00     0.002 A 
ATOM     91  C   UNL A   1      38.907  31.804  32.890  1.00  0.00     0.091 A 
ATOM     92  F   UNL A   1      40.540  30.108  33.312  1.00  0.00    -0.205 F 
ATOM     93  C   UNL A   1      38.567  33.028  32.288  1.00  0.00     0.022 A 
BRANCH  91  94
ATOM     94  S   UNL A   1      37.575  30.873  33.662  1.00  0.00     0.127 S 
ATOM     95  O   UNL A   1      37.491  31.515  34.969  1.00  0.00    -0.237 OA
ATOM     96  O   UNL A   1      36.444  31.140  32.776  1.00  0.00    -0.237 OA
ATOM     97  O   UNL A   1      38.029  29.491  33.649  1.00  0.00    -0.744 OA
ENDBRANCH  91  94
ENDBRANCH  63  87
BRANCH  75  98
ATOM     98  C   UNL A   1      45.701  26.264  32.734  1.00  0.00     0.023 A 
ATOM     99  C   UNL A   1      47.101  26.176  32.817  1.00  0.00     0.012 A 
ATOM    100  C   UNL A   1      44.973  25.423  33.627  1.00  0.00     0.148 A 
ATOM    101  C   UNL A   1      47.745  25.299  33.702  1.00  0.00     0.002 A 
ATOM    102  C   UNL A   1      45.615  24.648  34.588  1.00  0.00     0.091 A 
ATOM    103  F   UNL A   1      43.639  25.332  33.533  1.00  0.00    -0.205 F 
ATOM    104  C   UNL A   1      47.004  24.559  34.611  1.00  0.00     0.022 A 
BRANCH 102 105
ATOM    105  S   UNL A   1      44.692  23.870  35.924  1.00  0.00     0.127 S 
ATOM    106  O   UNL A   1      45.764  23.351  36.770  1.00  0.00    -0.237 OA
ATOM    107  O   UNL A   1      43.958  25.001  36.495  1.00  0.00    -0.237 OA
ATOM    108  O   UNL A   1      43.846  22.879  35.272  1.00  0.00    -0.744 OA
ENDBRANCH 102 105
ENDBRANCH  75  98
ENDBRANCH  49  50
ENDBRANCH  41  44
ENDBRANCH  39  40
ENDBRANCH  38  39
ENDBRANCH   1  38
TORSDOF 21
ENDMDL
MODEL 2
REMARK VINA RESULT:     -12.8      0.350      2.506
REMARK SMILES Cc1ccc(C(c2ccccc2)(c2ccccc2)n2cnc(C[C@H]([NH3+])C(=O)NCCCCNC(=O)c3ccc(-c4c5nc(c(-c6cccc(S(=O)(=O)[O-])c6F)c6ccc([nH]6)c(-c6cccc(S(=O)(=O)[O-])c6F)c6nc(c(-c7cccc(S(=O)(=O)[O-])c7F)c7ccc4[nH]7)C=C6)C=C5)cc3)c2)cc1
REMARK SMILES IDX 30 1 29 2 28 3 26 4 27 5 24 7 23 8 22 9 19 10 20 11 99 12
REMARK SMILES IDX 21 13 6 14 5 15 1 16 2 17 3 18 101 19 4 20 100 21 7 22 8 23
REMARK SMILES IDX 12 24 9 25 11 26 10 27 13 28 14 29 18 30 15 31 17 32 16 33
REMARK SMILES IDX 25 34 31 38 32 39 33 40 34 41 35 43 36 44 37 45 98 46 38 47
REMARK SMILES IDX 97 48 39 49 40 50 41 51 91 52 42 53 96 54 90 55 92 56 43 57
REMARK SMILES IDX 95 58 89 59 88 60 44 62 76 63 56 64 75 65 57 66 60 67 74 68
REMARK SMILES IDX 93 69 58 70 59 71 73 73 94 74 61 75 45 76 46 77 54 78 47 79
REMARK SMILES IDX 49 80 55 81 48 82 50 83 51 84 52 85 53 86 77 87 78 88 86 89
REMARK SMILES IDX 79 90 81 91 87 92 80 93 82 94 83 95 84 96 85 97 62 98 63 99
REMARK SMILES IDX 71 100 64 101 66 102 72 103 65 104 67 105 68 106 69 107
REMARK SMILES IDX 70 108
REMARK H PARENT 28 6 25 35 25 36 25 37 33 42 92 61 60 72
REMARK Flexibility Score: inf
ROOT
ATOM      1  C   UNL A   1      31.819  30.075  25.434  1.00  0.00     0.023 C 
ENDROOT
BRANCH   1   2
ATOM      2  C   UNL A   1      32.661  28.819  25.182  1.00  0.00     0.116 C 
BRANCH   2   3
ATOM      3  N   UNL A   1      33.422  28.919  23.951  1.00  0.00    -0.351 N 
ATOM      4  C   UNL A   1      33.241  28.352  22.722  1.00  0.00     0.278 C 
ATOM      5  O   UNL A   1      34.192  28.395  21.933  1.00  0.00    -0.268 OA
ATOM      6  H   UNL A   1      34.214  29.500  24.012  1.00  0.00     0.163 HD
BRANCH   4   7
ATOM      7  C   UNL A   1      31.928  27.633  22.352  1.00  0.00     0.276 C 
BRANCH   7   8
ATOM      8  C   UNL A   1      32.100  26.591  21.234  1.00  0.00     0.133 C 
BRANCH   8   9
ATOM      9  C   UNL A   1      32.511  25.251  21.727  1.00  0.00     0.065 A 
ATOM     10  N   UNL A   1      32.927  23.495  22.978  1.00  0.00    -0.319 N 
ATOM     11  C   UNL A   1      33.439  23.326  21.711  1.00  0.00     0.201 A 
ATOM     12  C   UNL A   1      32.247  24.690  22.954  1.00  0.00     0.112 A 
ATOM     13  N   UNL A   1      33.220  24.376  20.954  1.00  0.00    -0.241 NA
BRANCH  10  14
ATOM     14  C   UNL A   1      33.143  22.580  24.148  1.00  0.00     0.121 C 
BRANCH  14  15
ATOM     15  C   UNL A   1      34.600  22.796  24.724  1.00  0.00    -0.013 A 
ATOM     16  C   UNL A   1      38.673  23.289  26.173  1.00  0.00     0.044 C 
ATOM     17  C   UNL A   1      37.271  23.147  25.655  1.00  0.00    -0.051 A 
ATOM     18  C   UNL A   1      36.202  23.094  26.552  1.00  0.00     0.004 A 
ATOM     19  C   UNL A   1      37.009  23.059  24.289  1.00  0.00     0.004 A 
ATOM     20  C   UNL A   1      34.887  22.926  26.096  1.00  0.00     0.007 A 
ATOM     21  C   UNL A   1      35.697  22.900  23.831  1.00  0.00     0.007 A 
ENDBRANCH  14  15
BRANCH  14  22
ATOM     22  C   UNL A   1      32.030  22.950  25.231  1.00  0.00    -0.013 A 
ATOM     23  C   UNL A   1      30.968  22.064  25.529  1.00  0.00     0.007 A 
ATOM     24  C   UNL A   1      31.965  24.204  25.876  1.00  0.00     0.007 A 
ATOM     25  C   UNL A   1      29.991  22.356  26.490  1.00  0.00     0.000 A 
ATOM     26  C   UNL A   1      30.981  24.508  26.827  1.00  0.00     0.000 A 
ATOM     27  C   UNL A   1      30.008  23.574  27.153  1.00  0.00     0.000 A 
ENDBRANCH  14  22
BRANCH  14  28
ATOM     28  C   UNL A   1      32.998  21.080  23.599  1.00  0.00    -0.013 A 
ATOM     29  C   UNL A   1      32.195  20.788  22.469  1.00  0.00     0.007 A 
ATOM     30  C   UNL A   1      33.464  19.959  24.323  1.00  0.00     0.007 A 
ATOM     31  C   UNL A   1      31.893  19.475  22.086  1.00  0.00     0.000 A 
ATOM     32  C   UNL A   1      33.135  18.646  23.958  1.00  0.00     0.000 A 
ATOM     33  C   UNL A   1      32.350  18.404  22.840  1.00  0.00     0.000 A 
ENDBRANCH  14  28
ENDBRANCH  10  14
ENDBRANCH   8   9
ENDBRANCH   7   8
BRANCH   7  34
ATOM     34  N   UNL A   1      30.862  28.634  22.065  1.00  0.00    -0.347 N 
ATOM     35  H   UNL A   1      30.237  28.705  22.867  1.00  0.00     0.345 HD
ATOM     36  H   UNL A   1      30.331  28.339  21.245  1.00  0.00     0.345 HD
ATOM     37  H   UNL A   1      31.289  29.543  21.884  1.00  0.00     0.345 HD
ENDBRANCH   7  34
ENDBRANCH   4   7
ENDBRANCH   2   3
ENDBRANCH   1   2
BRANCH   1  38
ATOM     38  C   UNL A   1      32.183  30.859  26.697  1.00  0.00     0.023 C 
BRANCH  38  39
ATOM     39  C   UNL A   1      33.525  30.468  27.286  1.00  0.00     0.116 C 
BRANCH  39  40
ATOM     40  N   UNL A   1      34.293  31.585  27.796  1.00  0.00    -0.352 N 
ATOM     41  C   UNL A   1      35.394  31.588  28.630  1.00  0.00     0.251 C 
ATOM     42  H   UNL A   1      33.984  32.474  27.505  1.00  0.00     0.163 HD
ATOM     43  O   UNL A   1      35.658  32.638  29.219  1.00  0.00    -0.269 OA
BRANCH  41  44
ATOM     44  C   UNL A   1      36.320  30.424  28.690  1.00  0.00     0.039 A 
ATOM     45  C   UNL A   1      36.580  29.859  29.949  1.00  0.00     0.014 A 
ATOM     46  C   UNL A   1      37.110  30.057  27.607  1.00  0.00     0.014 A 
ATOM     47  C   UNL A   1      37.770  29.169  30.173  1.00  0.00     0.010 A 
ATOM     48  C   UNL A   1      38.336  29.490  27.841  1.00  0.00     0.010 A 
ATOM     49  C   UNL A   1      38.688  29.105  29.135  1.00  0.00    -0.014 A 
BRANCH  49  50
ATOM     50  C   UNL A   1      40.059  28.652  29.238  1.00  0.00     0.031 A 
ATOM     51  C   UNL A   1      40.359  27.231  29.003  1.00  0.00     0.074 A 
ATOM     52  C   UNL A   1      41.018  29.603  29.182  1.00  0.00     0.049 A 
ATOM     53  N   UNL A   1      41.495  26.681  29.246  1.00  0.00    -0.248 NA
ATOM     54  C   UNL A   1      39.375  26.310  28.444  1.00  0.00     0.031 C 
ATOM     55  C   UNL A   1      42.406  29.444  28.770  1.00  0.00     0.029 A 
ATOM     56  N   UNL A   1      40.958  30.915  29.665  1.00  0.00    -0.354 N 
ATOM     57  C   UNL A   1      41.504  25.464  28.596  1.00  0.00     0.074 A 
ATOM     58  C   UNL A   1      40.136  25.242  28.191  1.00  0.00     0.031 C 
ATOM     59  C   UNL A   1      43.120  30.464  29.274  1.00  0.00     0.029 A 
ATOM     60  C   UNL A   1      42.238  31.182  30.177  1.00  0.00     0.049 A 
ATOM     61  H   UNL A   1      40.183  31.522  29.647  1.00  0.00     0.167 HD
ATOM     62  C   UNL A   1      42.702  24.876  28.321  1.00  0.00     0.034 A 
ATOM     63  C   UNL A   1      42.468  31.382  31.511  1.00  0.00     0.034 A 
ATOM     64  C   UNL A   1      43.806  25.694  28.848  1.00  0.00     0.049 A 
ATOM     65  C   UNL A   1      43.424  30.356  32.100  1.00  0.00     0.074 A 
ATOM     66  C   UNL A   1      44.658  26.616  28.262  1.00  0.00     0.029 A 
ATOM     67  N   UNL A   1      43.935  25.860  30.221  1.00  0.00    -0.354 N 
ATOM     68  N   UNL A   1      43.817  29.275  31.479  1.00  0.00    -0.248 NA
ATOM     69  C   UNL A   1      44.030  30.466  33.423  1.00  0.00     0.031 C 
ATOM     70  C   UNL A   1      45.252  27.388  29.298  1.00  0.00     0.029 A 
ATOM     71  C   UNL A   1      44.783  26.917  30.513  1.00  0.00     0.049 A 
ATOM     72  H   UNL A   1      43.484  25.304  30.896  1.00  0.00     0.167 HD
ATOM     73  C   UNL A   1      44.626  28.518  32.286  1.00  0.00     0.074 A 
ATOM     74  C   UNL A   1      44.775  29.346  33.474  1.00  0.00     0.031 C 
ATOM     75  C   UNL A   1      45.062  27.271  31.904  1.00  0.00     0.034 A 
BRANCH  62  76
ATOM     76  C   UNL A   1      42.913  23.756  27.313  1.00  0.00     0.023 A 
ATOM     77  C   UNL A   1      43.604  24.084  26.123  1.00  0.00     0.012 A 
ATOM     78  C   UNL A   1      42.457  22.421  27.411  1.00  0.00     0.148 A 
ATOM     79  C   UNL A   1      43.743  23.190  25.056  1.00  0.00     0.002 A 
ATOM     80  C   UNL A   1      42.541  21.543  26.322  1.00  0.00     0.091 A 
ATOM     81  F   UNL A   1      42.015  21.955  28.584  1.00  0.00    -0.205 F 
ATOM     82  C   UNL A   1      43.179  21.929  25.141  1.00  0.00     0.022 A 
BRANCH  80  83
ATOM     83  S   UNL A   1      41.775  19.911  26.326  1.00  0.00     0.127 S 
ATOM     84  O   UNL A   1      42.399  19.273  25.164  1.00  0.00    -0.237 OA
ATOM     85  O   UNL A   1      42.198  19.367  27.614  1.00  0.00    -0.237 OA
ATOM     86  O   UNL A   1      40.343  20.139  26.176  1.00  0.00    -0.744 OA
ENDBRANCH  80  83
ENDBRANCH  62  76
BRANCH  63  87
ATOM     87  C   UNL A   1      41.328  32.059  32.206  1.00  0.00     0.023 A 
ATOM     88  C   UNL A   1      40.989  33.349  31.722  1.00  0.00     0.012 A 
ATOM     89  C   UNL A   1      40.367  31.343  32.942  1.00  0.00     0.148 A 
ATOM     90  C   UNL A   1      39.683  33.830  31.807  1.00  0.00     0.002 A 
ATOM     91  C   UNL A   1      39.066  31.845  33.044  1.00  0.00     0.091 A 
ATOM     92  F   UNL A   1      40.708  30.156  33.459  1.00  0.00    -0.205 F 
ATOM     93  C   UNL A   1      38.711  33.058  32.429  1.00  0.00     0.022 A 
BRANCH  91  94
ATOM     94  S   UNL A   1      37.751  30.926  33.860  1.00  0.00     0.127 S 
ATOM     95  O   UNL A   1      36.568  31.452  33.187  1.00  0.00    -0.237 OA
ATOM     96  O   UNL A   1      38.077  29.540  33.529  1.00  0.00    -0.237 OA
ATOM     97  O   UNL A   1      37.889  31.251  35.271  1.00  0.00    -0.744 OA
ENDBRANCH  91  94
ENDBRANCH  63  87
BRANCH  75  98
ATOM     98  C   UNL A   1      45.781  26.238  32.771  1.00  0.00     0.023 A 
ATOM     99  C   UNL A   1      47.179  26.169  32.884  1.00  0.00     0.012 A 
ATOM    100  C   UNL A   1      45.046  25.363  33.625  1.00  0.00     0.148 A 
ATOM    101  C   UNL A   1      47.817  25.280  33.759  1.00  0.00     0.002 A 
ATOM    102  C   UNL A   1      45.679  24.573  34.580  1.00  0.00     0.091 A 
ATOM    103  F   UNL A   1      43.716  25.254  33.499  1.00  0.00    -0.205 F 
ATOM    104  C   UNL A   1      47.069  24.505  34.632  1.00  0.00     0.022 A 
BRANCH 102 105
ATOM    105  S   UNL A   1      44.739  23.745  35.874  1.00  0.00     0.127 S 
ATOM    106  O   UNL A   1      45.798  23.128  36.670  1.00  0.00    -0.237 OA
ATOM    107  O   UNL A   1      44.059  24.865  36.529  1.00  0.00    -0.237 OA
ATOM    108  O   UNL A   1      43.846  22.836  35.170  1.00  0.00    -0.744 OA
ENDBRANCH 102 105
ENDBRANCH  75  98
ENDBRANCH  49  50
ENDBRANCH  41  44
ENDBRANCH  39  40
ENDBRANCH  38  39
ENDBRANCH   1  38
TORSDOF 21
ENDMDL
MODEL 3
REMARK VINA RESULT:     -11.7      1.783      2.201
REMARK SMILES Cc1ccc(C(c2ccccc2)(c2ccccc2)n2cnc(C[C@H]([NH3+])C(=O)NCCCCNC(=O)c3ccc(-c4c5nc(c(-c6cccc(S(=O)(=O)[O-])c6F)c6ccc([nH]6)c(-c6cccc(S(=O)(=O)[O-])c6F)c6nc(c(-c7cccc(S(=O)(=O)[O-])c7F)c7ccc4[nH]7)C=C6)C=C5)cc3)c2)cc1
REMARK SMILES IDX 30 1 29 2 28 3 26 4 27 5 24 7 23 8 22 9 19 10 20 11 99 12
REMARK SMILES IDX 21 13 6 14 5 15 1 16 2 17 3 18 101 19 4 20 100 21 7 22 8 23
REMARK SMILES IDX 12 24 9 25 11 26 10 27 13 28 14 29 18 30 15 31 17 32 16 33
REMARK SMILES IDX 25 34 31 38 32 39 33 40 34 41 35 43 36 44 37 45 98 46 38 47
REMARK SMILES IDX 97 48 39 49 40 50 41 51 91 52 42 53 96 54 90 55 92 56 43 57
REMARK SMILES IDX 95 58 89 59 88 60 44 62 76 63 56 64 75 65 57 66 60 67 74 68
REMARK SMILES IDX 93 69 58 70 59 71 73 73 94 74 61 75 45 76 46 77 54 78 47 79
REMARK SMILES IDX 49 80 55 81 48 82 50 83 51 84 52 85 53 86 77 87 78 88 86 89
REMARK SMILES IDX 79 90 81 91 87 92 80 93 82 94 83 95 84 96 85 97 62 98 63 99
REMARK SMILES IDX 71 100 64 101 66 102 72 103 65 104 67 105 68 106 69 107
REMARK SMILES IDX 70 108
REMARK H PARENT 28 6 25 35 25 36 25 37 33 42 92 61 60 72
REMARK Flexibility Score: inf
ROOT
ATOM      1  C   UNL A   1      31.910  30.152  25.646  1.00  0.00     0.023 C 
ENDROOT
BRANCH   1   2
ATOM      2  C   UNL A   1      31.484  29.571  24.293  1.00  0.00     0.116 C 
BRANCH   2   3
ATOM      3  N   UNL A   1      32.626  29.295  23.442  1.00  0.00    -0.351 N 
ATOM      4  C   UNL A   1      32.909  28.249  22.612  1.00  0.00     0.278 C 
ATOM      5  O   UNL A   1      34.075  28.141  22.214  1.00  0.00    -0.268 OA
ATOM      6  H   UNL A   1      33.325  29.988  23.468  1.00  0.00     0.163 HD
BRANCH   4   7
ATOM      7  C   UNL A   1      31.836  27.208  22.233  1.00  0.00     0.276 C 
BRANCH   7   8
ATOM      8  C   UNL A   1      32.332  26.166  21.216  1.00  0.00     0.133 C 
BRANCH   8   9
ATOM      9  C   UNL A   1      32.730  24.874  21.834  1.00  0.00     0.065 A 
ATOM     10  N   UNL A   1      33.178  23.259  23.251  1.00  0.00    -0.319 N 
ATOM     11  C   UNL A   1      33.577  22.918  21.978  1.00  0.00     0.201 A 
ATOM     12  C   UNL A   1      32.546  24.474  23.136  1.00  0.00     0.112 A 
ATOM     13  N   UNL A   1      33.337  23.882  21.118  1.00  0.00    -0.241 NA
BRANCH  10  14
ATOM     14  C   UNL A   1      33.454  22.478  24.503  1.00  0.00     0.121 C 
BRANCH  14  15
ATOM     15  C   UNL A   1      33.370  20.931  24.187  1.00  0.00    -0.013 A 
ATOM     16  C   UNL A   1      33.317  16.665  23.328  1.00  0.00     0.044 C 
ATOM     17  C   UNL A   1      33.332  18.129  23.657  1.00  0.00    -0.051 A 
ATOM     18  C   UNL A   1      32.375  18.977  23.095  1.00  0.00     0.004 A 
ATOM     19  C   UNL A   1      34.291  18.670  24.512  1.00  0.00     0.004 A 
ATOM     20  C   UNL A   1      32.389  20.354  23.358  1.00  0.00     0.007 A 
ATOM     21  C   UNL A   1      34.302  20.042  24.782  1.00  0.00     0.007 A 
ENDBRANCH  14  15
BRANCH  14  22
ATOM     22  C   UNL A   1      34.917  22.892  24.988  1.00  0.00    -0.013 A 
ATOM     23  C   UNL A   1      35.966  23.110  24.063  1.00  0.00     0.007 A 
ATOM     24  C   UNL A   1      35.290  22.963  26.347  1.00  0.00     0.007 A 
ATOM     25  C   UNL A   1      37.254  23.495  24.463  1.00  0.00     0.000 A 
ATOM     26  C   UNL A   1      36.580  23.332  26.753  1.00  0.00     0.000 A 
ATOM     27  C   UNL A   1      37.555  23.623  25.810  1.00  0.00     0.000 A 
ENDBRANCH  14  22
BRANCH  14  28
ATOM     28  C   UNL A   1      32.315  22.874  25.560  1.00  0.00    -0.013 A 
ATOM     29  C   UNL A   1      31.201  22.029  25.787  1.00  0.00     0.007 A 
ATOM     30  C   UNL A   1      32.234  24.160  26.141  1.00  0.00     0.007 A 
ATOM     31  C   UNL A   1      30.099  22.435  26.551  1.00  0.00     0.000 A 
ATOM     32  C   UNL A   1      31.117  24.577  26.878  1.00  0.00     0.000 A 
ATOM     33  C   UNL A   1      30.050  23.715  27.084  1.00  0.00     0.000 A 
ENDBRANCH  14  28
ENDBRANCH  10  14
ENDBRANCH   8   9
ENDBRANCH   7   8
BRANCH   7  34
ATOM     34  N   UNL A   1      30.585  27.898  21.806  1.00  0.00    -0.347 N 
ATOM     35  H   UNL A   1      29.975  28.025  22.613  1.00  0.00     0.345 HD
ATOM     36  H   UNL A   1      30.108  27.331  21.104  1.00  0.00     0.345 HD
ATOM     37  H   UNL A   1      30.817  28.808  21.408  1.00  0.00     0.345 HD
ENDBRANCH   7  34
ENDBRANCH   4   7
ENDBRANCH   2   3
ENDBRANCH   1   2
BRANCH   1  38
ATOM     38  C   UNL A   1      32.044  29.132  26.778  1.00  0.00     0.023 C 
BRANCH  38  39
ATOM     39  C   UNL A   1      33.228  29.393  27.691  1.00  0.00     0.116 C 
BRANCH  39  40
ATOM     40  N   UNL A   1      33.944  30.616  27.392  1.00  0.00    -0.352 N 
ATOM     41  C   UNL A   1      35.237  30.979  27.714  1.00  0.00     0.251 C 
ATOM     42  H   UNL A   1      33.432  31.289  26.887  1.00  0.00     0.163 HD
ATOM     43  O   UNL A   1      35.516  32.178  27.684  1.00  0.00    -0.269 OA
BRANCH  41  44
ATOM     44  C   UNL A   1      36.296  29.954  27.925  1.00  0.00     0.039 A 
ATOM     45  C   UNL A   1      36.367  29.337  29.184  1.00  0.00     0.014 A 
ATOM     46  C   UNL A   1      37.342  29.782  27.027  1.00  0.00     0.014 A 
ATOM     47  C   UNL A   1      37.575  28.805  29.634  1.00  0.00     0.010 A 
ATOM     48  C   UNL A   1      38.564  29.375  27.500  1.00  0.00     0.010 A 
ATOM     49  C   UNL A   1      38.689  28.947  28.822  1.00  0.00    -0.014 A 
BRANCH  49  50
ATOM     50  C   UNL A   1      40.060  28.682  29.203  1.00  0.00     0.031 A 
ATOM     51  C   UNL A   1      40.708  27.450  28.726  1.00  0.00     0.074 A 
ATOM     52  C   UNL A   1      40.776  29.732  29.662  1.00  0.00     0.049 A 
ATOM     53  N   UNL A   1      41.844  27.019  29.146  1.00  0.00    -0.248 NA
ATOM     54  C   UNL A   1      40.108  26.604  27.699  1.00  0.00     0.031 C 
ATOM     55  C   UNL A   1      42.223  29.900  29.644  1.00  0.00     0.029 A 
ATOM     56  N   UNL A   1      40.321  30.823  30.411  1.00  0.00    -0.354 N 
ATOM     57  C   UNL A   1      42.270  26.061  28.249  1.00  0.00     0.074 A 
ATOM     58  C   UNL A   1      41.120  25.777  27.424  1.00  0.00     0.031 C 
ATOM     59  C   UNL A   1      42.558  30.817  30.566  1.00  0.00     0.029 A 
ATOM     60  C   UNL A   1      41.351  31.106  31.322  1.00  0.00     0.049 A 
ATOM     61  H   UNL A   1      39.460  31.293  30.319  1.00  0.00     0.167 HD
ATOM     62  C   UNL A   1      43.597  25.755  28.199  1.00  0.00     0.034 A 
ATOM     63  C   UNL A   1      41.207  30.936  32.671  1.00  0.00     0.034 A 
ATOM     64  C   UNL A   1      44.339  26.530  29.205  1.00  0.00     0.049 A 
ATOM     65  C   UNL A   1      42.193  29.927  33.243  1.00  0.00     0.074 A 
ATOM     66  C   UNL A   1      45.087  27.694  29.136  1.00  0.00     0.029 A 
ATOM     67  N   UNL A   1      44.097  26.302  30.555  1.00  0.00    -0.354 N 
ATOM     68  N   UNL A   1      42.946  29.144  32.519  1.00  0.00    -0.248 NA
ATOM     69  C   UNL A   1      42.426  29.729  34.670  1.00  0.00     0.031 C 
ATOM     70  C   UNL A   1      45.235  28.204  30.455  1.00  0.00     0.029 A 
ATOM     71  C   UNL A   1      44.602  27.335  31.329  1.00  0.00     0.049 A 
ATOM     72  H   UNL A   1      43.628  25.514  30.913  1.00  0.00     0.167 HD
ATOM     73  C   UNL A   1      43.683  28.306  33.315  1.00  0.00     0.074 A 
ATOM     74  C   UNL A   1      43.361  28.761  34.659  1.00  0.00     0.031 C 
ATOM     75  C   UNL A   1      44.456  27.301  32.783  1.00  0.00     0.034 A 
BRANCH  62  76
ATOM     76  C   UNL A   1      44.280  25.022  27.053  1.00  0.00     0.023 A 
ATOM     77  C   UNL A   1      45.107  25.790  26.201  1.00  0.00     0.012 A 
ATOM     78  C   UNL A   1      44.148  23.655  26.715  1.00  0.00     0.148 A 
ATOM     79  C   UNL A   1      45.680  25.275  25.034  1.00  0.00     0.002 A 
ATOM     80  C   UNL A   1      44.670  23.151  25.515  1.00  0.00     0.091 A 
ATOM     81  F   UNL A   1      43.594  22.806  27.585  1.00  0.00    -0.205 F 
ATOM     82  C   UNL A   1      45.432  23.963  24.671  1.00  0.00     0.022 A 
BRANCH  80  83
ATOM     83  S   UNL A   1      44.336  21.477  24.936  1.00  0.00     0.127 S 
ATOM     84  O   UNL A   1      45.301  20.685  25.704  1.00  0.00    -0.237 OA
ATOM     85  O   UNL A   1      42.943  21.279  25.330  1.00  0.00    -0.237 OA
ATOM     86  O   UNL A   1      44.591  21.490  23.501  1.00  0.00    -0.744 OA
ENDBRANCH  80  83
ENDBRANCH  62  76
BRANCH  63  87
ATOM     87  C   UNL A   1      39.816  31.210  33.150  1.00  0.00     0.023 A 
ATOM     88  C   UNL A   1      39.192  30.157  33.868  1.00  0.00     0.012 A 
ATOM     89  C   UNL A   1      39.320  32.517  33.309  1.00  0.00     0.148 A 
ATOM     90  C   UNL A   1      38.235  30.420  34.847  1.00  0.00     0.002 A 
ATOM     91  C   UNL A   1      38.342  32.769  34.275  1.00  0.00     0.091 A 
ATOM     92  F   UNL A   1      39.863  33.500  32.580  1.00  0.00    -0.205 F 
ATOM     93  C   UNL A   1      37.841  31.731  35.081  1.00  0.00     0.022 A 
BRANCH  91  94
ATOM     94  S   UNL A   1      37.752  34.432  34.623  1.00  0.00     0.127 S 
ATOM     95  O   UNL A   1      37.322  34.871  33.300  1.00  0.00    -0.237 OA
ATOM     96  O   UNL A   1      36.665  34.194  35.571  1.00  0.00    -0.237 OA
ATOM     97  O   UNL A   1      38.898  35.124  35.193  1.00  0.00    -0.744 OA
ENDBRANCH  91  94
ENDBRANCH  63  87
BRANCH  75  98
ATOM     98  C   UNL A   1      45.152  26.171  33.542  1.00  0.00     0.023 A 
ATOM     99  C   UNL A   1      44.461  25.086  34.107  1.00  0.00     0.012 A 
ATOM    100  C   UNL A   1      46.575  26.097  33.598  1.00  0.00     0.148 A 
ATOM    101  C   UNL A   1      45.124  24.010  34.714  1.00  0.00     0.002 A 
ATOM    102  C   UNL A   1      47.229  24.971  34.088  1.00  0.00     0.091 A 
ATOM    103  F   UNL A   1      47.322  27.140  33.211  1.00  0.00    -0.205 F 
ATOM    104  C   UNL A   1      46.508  23.934  34.675  1.00  0.00     0.022 A 
BRANCH 102 105
ATOM    105  S   UNL A   1      48.997  24.739  33.837  1.00  0.00     0.127 S 
ATOM    106  O   UNL A   1      49.565  25.718  34.761  1.00  0.00    -0.237 OA
ATOM    107  O   UNL A   1      49.187  23.342  34.235  1.00  0.00    -0.237 OA
ATOM    108  O   UNL A   1      49.213  24.988  32.418  1.00  0.00    -0.744 OA
ENDBRANCH 102 105
ENDBRANCH  75  98
ENDBRANCH  49  50
ENDBRANCH  41  44
ENDBRANCH  39  40
ENDBRANCH  38  39
ENDBRANCH   1  38
TORSDOF 21
ENDMDL
