MODEL 1
REMARK VINA RESULT:     -10.8      0.000      0.000
REMARK SMILES Cc1ccc(O)c(C[C@H](NC=O)C(=O)NCCCCNC(=O)c2ccc(-c3c4nc(c(-c5cccc(S(=O)(=O)[O-])c5F)c5ccc([nH]5)c(-c5cccc(S(=O)(=O)[O-])c5F)c5nc(c(-c6cccc(S(=O)(=O)[O-])c6F)c6ccc3[nH]6)C=C5)C=C4)cc2)n1
REMARK SMILES IDX 17 1 16 2 15 3 13 4 14 5 9 7 8 8 7 9 1 10 2 11 3 12 86 13
REMARK SMILES IDX 4 14 5 15 6 16 10 18 11 19 12 21 18 22 19 23 20 24 21 25
REMARK SMILES IDX 22 27 23 28 24 29 85 30 25 31 84 32 26 33 27 34 28 35 78 36
REMARK SMILES IDX 29 37 83 38 77 39 79 40 30 41 82 42 76 43 75 44 31 46 63 47
REMARK SMILES IDX 43 48 62 49 44 50 47 51 61 52 80 53 45 54 46 55 60 57 81 58
REMARK SMILES IDX 48 59 32 60 33 61 41 62 34 63 36 64 42 65 35 66 37 67 38 68
REMARK SMILES IDX 39 69 40 70 64 71 65 72 73 73 66 74 68 75 74 76 67 77 69 78
REMARK SMILES IDX 70 79 71 80 72 81 49 82 50 83 58 84 51 85 53 86 59 87 52 88
REMARK SMILES IDX 54 89 55 90 56 91 57 92
REMARK H PARENT 15 6 6 17 10 20 20 26 79 45 47 56
REMARK Flexibility Score: inf
ROOT
ATOM      1  C   UNL A   1      36.378  20.167  24.677  1.00  0.00     0.023 C 
ENDROOT
BRANCH   1   2
ATOM      2  C   UNL A   1      36.019  21.190  25.745  1.00  0.00     0.116 C 
BRANCH   2   3
ATOM      3  N   UNL A   1      34.600  21.183  26.054  1.00  0.00    -0.354 N 
ATOM      4  C   UNL A   1      33.648  22.116  25.738  1.00  0.00     0.242 C 
ATOM      5  O   UNL A   1      32.459  21.815  25.880  1.00  0.00    -0.273 OA
ATOM      6  H   UNL A   1      34.278  20.402  26.559  1.00  0.00     0.163 HD
BRANCH   4   7
ATOM      7  C   UNL A   1      34.051  23.518  25.241  1.00  0.00     0.177 C 
BRANCH   7   8
ATOM      8  C   UNL A   1      33.639  24.694  26.149  1.00  0.00     0.095 C 
BRANCH   8   9
ATOM      9  C   UNL A   1      32.401  25.434  25.711  1.00  0.00     0.085 A 
ATOM     10  C   UNL A   1      31.862  28.218  23.363  1.00  0.00     0.067 C 
ATOM     11  C   UNL A   1      31.556  27.162  24.381  1.00  0.00     0.038 A 
ATOM     12  C   UNL A   1      30.260  26.897  24.790  1.00  0.00     0.027 A 
ATOM     13  N   UNL A   1      32.614  26.470  24.861  1.00  0.00    -0.254 NA
ATOM     14  C   UNL A   1      30.044  25.868  25.705  1.00  0.00     0.050 A 
ATOM     15  C   UNL A   1      31.125  25.120  26.164  1.00  0.00     0.137 A 
BRANCH  15  16
ATOM     16  O   UNL A   1      30.936  24.103  27.053  1.00  0.00    -0.506 OA
ATOM     17  H   UNL A   1      30.952  24.277  27.973  1.00  0.00     0.293 HD
ENDBRANCH  15  16
ENDBRANCH   8   9
ENDBRANCH   7   8
BRANCH   7  18
ATOM     18  N   UNL A   1      33.536  23.648  23.869  1.00  0.00    -0.347 N 
ATOM     19  C   UNL A   1      34.129  23.171  22.748  1.00  0.00     0.337 C 
ATOM     20  H   UNL A   1      32.682  24.125  23.754  1.00  0.00     0.164 HD
ATOM     21  O   UNL A   1      33.653  23.325  21.629  1.00  0.00    -0.279 OA
ENDBRANCH   7  18
ENDBRANCH   4   7
ENDBRANCH   2   3
ENDBRANCH   1   2
BRANCH   1  22
ATOM     22  C   UNL A   1      37.610  19.324  24.999  1.00  0.00     0.023 C 
BRANCH  22  23
ATOM     23  C   UNL A   1      38.728  20.063  25.729  1.00  0.00     0.116 C 
BRANCH  23  24
ATOM     24  N   UNL A   1      39.884  19.217  25.998  1.00  0.00    -0.352 N 
ATOM     25  C   UNL A   1      41.157  19.583  26.364  1.00  0.00     0.251 C 
ATOM     26  H   UNL A   1      39.731  18.249  25.905  1.00  0.00     0.163 HD
ATOM     27  O   UNL A   1      42.054  18.747  26.399  1.00  0.00    -0.269 OA
BRANCH  25  28
ATOM     28  C   UNL A   1      41.442  20.996  26.692  1.00  0.00     0.039 A 
ATOM     29  C   UNL A   1      41.980  21.306  27.942  1.00  0.00     0.014 A 
ATOM     30  C   UNL A   1      41.206  22.004  25.753  1.00  0.00     0.014 A 
ATOM     31  C   UNL A   1      42.349  22.623  28.224  1.00  0.00     0.010 A 
ATOM     32  C   UNL A   1      41.649  23.299  26.007  1.00  0.00     0.010 A 
ATOM     33  C   UNL A   1      42.223  23.624  27.245  1.00  0.00    -0.014 A 
BRANCH  33  34
ATOM     34  C   UNL A   1      42.702  25.009  27.493  1.00  0.00     0.031 A 
ATOM     35  C   UNL A   1      41.792  26.025  28.129  1.00  0.00     0.074 A 
ATOM     36  C   UNL A   1      43.930  25.374  27.074  1.00  0.00     0.049 A 
ATOM     37  N   UNL A   1      42.016  27.290  28.380  1.00  0.00    -0.248 NA
ATOM     38  C   UNL A   1      40.444  25.570  28.510  1.00  0.00     0.031 C 
ATOM     39  C   UNL A   1      44.880  24.504  26.377  1.00  0.00     0.029 A 
ATOM     40  N   UNL A   1      44.582  26.580  27.151  1.00  0.00    -0.354 N 
ATOM     41  C   UNL A   1      40.835  27.787  28.916  1.00  0.00     0.074 A 
ATOM     42  C   UNL A   1      39.882  26.698  28.920  1.00  0.00     0.031 C 
ATOM     43  C   UNL A   1      45.994  25.200  26.099  1.00  0.00     0.029 A 
ATOM     44  C   UNL A   1      45.827  26.574  26.565  1.00  0.00     0.049 A 
ATOM     45  H   UNL A   1      44.196  27.374  27.585  1.00  0.00     0.167 HD
ATOM     46  C   UNL A   1      40.574  29.027  29.392  1.00  0.00     0.034 A 
ATOM     47  C   UNL A   1      46.727  27.564  26.409  1.00  0.00     0.034 A 
ATOM     48  C   UNL A   1      41.534  30.098  29.419  1.00  0.00     0.049 A 
ATOM     49  C   UNL A   1      46.418  28.928  26.964  1.00  0.00     0.074 A 
ATOM     50  C   UNL A   1      41.390  31.367  29.954  1.00  0.00     0.029 A 
ATOM     51  N   UNL A   1      42.808  30.034  28.880  1.00  0.00    -0.354 N 
ATOM     52  N   UNL A   1      45.352  29.336  27.607  1.00  0.00    -0.248 NA
ATOM     53  C   UNL A   1      47.453  29.960  26.801  1.00  0.00     0.031 C 
ATOM     54  C   UNL A   1      42.568  32.080  29.707  1.00  0.00     0.029 A 
ATOM     55  C   UNL A   1      43.459  31.244  29.054  1.00  0.00     0.049 A 
ATOM     56  H   UNL A   1      43.195  29.245  28.436  1.00  0.00     0.167 HD
ATOM     57  C   UNL A   1      45.602  30.657  27.960  1.00  0.00     0.074 A 
ATOM     58  C   UNL A   1      46.930  30.974  27.478  1.00  0.00     0.031 C 
ATOM     59  C   UNL A   1      44.799  31.533  28.613  1.00  0.00     0.034 A 
BRANCH  46  60
ATOM     60  C   UNL A   1      39.205  29.283  29.968  1.00  0.00     0.023 A 
ATOM     61  C   UNL A   1      38.900  28.832  31.269  1.00  0.00     0.012 A 
ATOM     62  C   UNL A   1      38.241  30.018  29.250  1.00  0.00     0.148 A 
ATOM     63  C   UNL A   1      37.648  29.075  31.832  1.00  0.00     0.002 A 
ATOM     64  C   UNL A   1      37.012  30.298  29.837  1.00  0.00     0.091 A 
ATOM     65  F   UNL A   1      38.541  30.423  28.008  1.00  0.00    -0.205 F 
ATOM     66  C   UNL A   1      36.710  29.817  31.121  1.00  0.00     0.022 A 
BRANCH  64  67
ATOM     67  S   UNL A   1      35.764  31.313  29.036  1.00  0.00     0.127 S 
ATOM     68  O   UNL A   1      34.952  31.733  30.177  1.00  0.00    -0.237 OA
ATOM     69  O   UNL A   1      36.572  32.377  28.438  1.00  0.00    -0.237 OA
ATOM     70  O   UNL A   1      35.093  30.446  28.079  1.00  0.00    -0.744 OA
ENDBRANCH  64  67
ENDBRANCH  46  60
BRANCH  47  71
ATOM     71  C   UNL A   1      48.035  27.290  25.744  1.00  0.00     0.023 A 
ATOM     72  C   UNL A   1      49.128  26.854  26.518  1.00  0.00     0.012 A 
ATOM     73  C   UNL A   1      48.197  27.451  24.354  1.00  0.00     0.148 A 
ATOM     74  C   UNL A   1      50.370  26.619  25.926  1.00  0.00     0.002 A 
ATOM     75  C   UNL A   1      49.421  27.161  23.763  1.00  0.00     0.091 A 
ATOM     76  F   UNL A   1      47.148  27.877  23.637  1.00  0.00    -0.205 F 
ATOM     77  C   UNL A   1      50.514  26.764  24.548  1.00  0.00     0.022 A 
BRANCH  75  78
ATOM     78  S   UNL A   1      49.663  27.194  21.984  1.00  0.00     0.127 S 
ATOM     79  O   UNL A   1      48.651  26.245  21.527  1.00  0.00    -0.237 OA
ATOM     80  O   UNL A   1      49.382  28.595  21.668  1.00  0.00    -0.237 OA
ATOM     81  O   UNL A   1      51.048  26.796  21.767  1.00  0.00    -0.744 OA
ENDBRANCH  75  78
ENDBRANCH  47  71
BRANCH  59  82
ATOM     82  C   UNL A   1      45.344  32.911  28.889  1.00  0.00     0.023 A 
ATOM     83  C   UNL A   1      46.023  33.172  30.096  1.00  0.00     0.012 A 
ATOM     84  C   UNL A   1      45.243  33.928  27.919  1.00  0.00     0.148 A 
ATOM     85  C   UNL A   1      46.560  34.435  30.347  1.00  0.00     0.002 A 
ATOM     86  C   UNL A   1      45.827  35.166  28.153  1.00  0.00     0.091 A 
ATOM     87  F   UNL A   1      44.578  33.664  26.784  1.00  0.00    -0.205 F 
ATOM     88  C   UNL A   1      46.473  35.426  29.372  1.00  0.00     0.022 A 
BRANCH  86  89
ATOM     89  S   UNL A   1      45.852  36.470  26.919  1.00  0.00     0.127 S 
ATOM     90  O   UNL A   1      46.313  35.750  25.733  1.00  0.00    -0.237 OA
ATOM     91  O   UNL A   1      44.448  36.882  26.876  1.00  0.00    -0.237 OA
ATOM     92  O   UNL A   1      46.765  37.487  27.425  1.00  0.00    -0.744 OA
ENDBRANCH  86  89
ENDBRANCH  59  82
ENDBRANCH  33  34
ENDBRANCH  25  28
ENDBRANCH  23  24
ENDBRANCH  22  23
ENDBRANCH   1  22
TORSDOF 18
ENDMDL
MODEL 2
REMARK VINA RESULT:     -10.7      0.927      7.676
REMARK SMILES Cc1ccc(O)c(C[C@H](NC=O)C(=O)NCCCCNC(=O)c2ccc(-c3c4nc(c(-c5cccc(S(=O)(=O)[O-])c5F)c5ccc([nH]5)c(-c5cccc(S(=O)(=O)[O-])c5F)c5nc(c(-c6cccc(S(=O)(=O)[O-])c6F)c6ccc3[nH]6)C=C5)C=C4)cc2)n1
REMARK SMILES IDX 17 1 16 2 15 3 13 4 14 5 9 7 8 8 7 9 1 10 2 11 3 12 86 13
REMARK SMILES IDX 4 14 5 15 6 16 10 18 11 19 12 21 18 22 19 23 20 24 21 25
REMARK SMILES IDX 22 27 23 28 24 29 85 30 25 31 84 32 26 33 27 34 28 35 78 36
REMARK SMILES IDX 29 37 83 38 77 39 79 40 30 41 82 42 76 43 75 44 31 46 63 47
REMARK SMILES IDX 43 48 62 49 44 50 47 51 61 52 80 53 45 54 46 55 60 57 81 58
REMARK SMILES IDX 48 59 32 60 33 61 41 62 34 63 36 64 42 65 35 66 37 67 38 68
REMARK SMILES IDX 39 69 40 70 64 71 65 72 73 73 66 74 68 75 74 76 67 77 69 78
REMARK SMILES IDX 70 79 71 80 72 81 49 82 50 83 58 84 51 85 53 86 59 87 52 88
REMARK SMILES IDX 54 89 55 90 56 91 57 92
REMARK H PARENT 15 6 6 17 10 20 20 26 79 45 47 56
REMARK Flexibility Score: inf
ROOT
ATOM      1  C   UNL A   1      36.636  20.404  25.004  1.00  0.00     0.023 C 
ENDROOT
BRANCH   1   2
ATOM      2  C   UNL A   1      36.584  21.805  25.595  1.00  0.00     0.116 C 
BRANCH   2   3
ATOM      3  N   UNL A   1      35.541  21.939  26.596  1.00  0.00    -0.354 N 
ATOM      4  C   UNL A   1      34.344  22.598  26.506  1.00  0.00     0.242 C 
ATOM      5  O   UNL A   1      33.493  22.396  27.377  1.00  0.00    -0.273 OA
ATOM      6  H   UNL A   1      35.718  21.497  27.458  1.00  0.00     0.163 HD
BRANCH   4   7
ATOM      7  C   UNL A   1      34.074  23.590  25.357  1.00  0.00     0.177 C 
BRANCH   7   8
ATOM      8  C   UNL A   1      33.695  25.022  25.783  1.00  0.00     0.095 C 
BRANCH   8   9
ATOM      9  C   UNL A   1      32.300  25.451  25.409  1.00  0.00     0.085 A 
ATOM     10  C   UNL A   1      30.956  27.332  22.544  1.00  0.00     0.067 C 
ATOM     11  C   UNL A   1      30.988  26.598  23.849  1.00  0.00     0.038 A 
ATOM     12  C   UNL A   1      29.831  26.317  24.557  1.00  0.00     0.027 A 
ATOM     13  N   UNL A   1      32.206  26.206  24.285  1.00  0.00    -0.254 NA
ATOM     14  C   UNL A   1      29.930  25.588  25.741  1.00  0.00     0.050 A 
ATOM     15  C   UNL A   1      31.178  25.141  26.168  1.00  0.00     0.137 A 
BRANCH  15  16
ATOM     16  O   UNL A   1      31.297  24.417  27.318  1.00  0.00    -0.506 OA
ATOM     17  H   UNL A   1      31.982  24.615  27.926  1.00  0.00     0.293 HD
ENDBRANCH  15  16
ENDBRANCH   8   9
ENDBRANCH   7   8
BRANCH   7  18
ATOM     18  N   UNL A   1      33.064  22.968  24.485  1.00  0.00    -0.347 N 
ATOM     19  C   UNL A   1      33.164  21.753  23.893  1.00  0.00     0.337 C 
ATOM     20  H   UNL A   1      32.241  23.480  24.318  1.00  0.00     0.164 HD
ATOM     21  O   UNL A   1      32.290  21.296  23.166  1.00  0.00    -0.279 OA
ENDBRANCH   7  18
ENDBRANCH   4   7
ENDBRANCH   2   3
ENDBRANCH   1   2
BRANCH   1  22
ATOM     22  C   UNL A   1      38.045  19.887  24.726  1.00  0.00     0.023 C 
BRANCH  22  23
ATOM     23  C   UNL A   1      39.087  20.246  25.780  1.00  0.00     0.116 C 
BRANCH  23  24
ATOM     24  N   UNL A   1      40.122  19.230  25.923  1.00  0.00    -0.352 N 
ATOM     25  C   UNL A   1      41.467  19.392  26.152  1.00  0.00     0.251 C 
ATOM     26  H   UNL A   1      39.815  18.299  25.844  1.00  0.00     0.163 HD
ATOM     27  O   UNL A   1      42.226  18.429  26.089  1.00  0.00    -0.269 OA
BRANCH  25  28
ATOM     28  C   UNL A   1      41.998  20.739  26.451  1.00  0.00     0.039 A 
ATOM     29  C   UNL A   1      42.261  21.614  25.396  1.00  0.00     0.014 A 
ATOM     30  C   UNL A   1      42.205  21.142  27.773  1.00  0.00     0.014 A 
ATOM     31  C   UNL A   1      42.664  22.922  25.671  1.00  0.00     0.010 A 
ATOM     32  C   UNL A   1      42.528  22.468  28.046  1.00  0.00     0.010 A 
ATOM     33  C   UNL A   1      42.764  23.372  27.000  1.00  0.00    -0.014 A 
BRANCH  33  34
ATOM     34  C   UNL A   1      43.094  24.788  27.310  1.00  0.00     0.031 A 
ATOM     35  C   UNL A   1      44.495  25.302  27.111  1.00  0.00     0.074 A 
ATOM     36  C   UNL A   1      42.153  25.590  27.846  1.00  0.00     0.049 A 
ATOM     37  N   UNL A   1      44.983  26.488  27.370  1.00  0.00    -0.248 NA
ATOM     38  C   UNL A   1      45.486  24.353  26.574  1.00  0.00     0.031 C 
ATOM     39  C   UNL A   1      40.779  25.190  28.159  1.00  0.00     0.029 A 
ATOM     40  N   UNL A   1      42.215  26.902  28.247  1.00  0.00    -0.354 N 
ATOM     41  C   UNL A   1      46.335  26.421  27.060  1.00  0.00     0.074 A 
ATOM     42  C   UNL A   1      46.602  25.066  26.629  1.00  0.00     0.031 C 
ATOM     43  C   UNL A   1      40.127  26.236  28.693  1.00  0.00     0.029 A 
ATOM     44  C   UNL A   1      41.042  27.369  28.794  1.00  0.00     0.049 A 
ATOM     45  H   UNL A   1      43.022  27.456  28.151  1.00  0.00     0.167 HD
ATOM     46  C   UNL A   1      47.266  27.403  27.100  1.00  0.00     0.034 A 
ATOM     47  C   UNL A   1      40.740  28.568  29.327  1.00  0.00     0.034 A 
ATOM     48  C   UNL A   1      46.991  28.758  27.496  1.00  0.00     0.049 A 
ATOM     49  C   UNL A   1      41.789  29.648  29.341  1.00  0.00     0.074 A 
ATOM     50  C   UNL A   1      47.848  29.845  27.493  1.00  0.00     0.029 A 
ATOM     51  N   UNL A   1      45.773  29.211  27.977  1.00  0.00    -0.354 N 
ATOM     52  N   UNL A   1      43.021  29.608  28.898  1.00  0.00    -0.248 NA
ATOM     53  C   UNL A   1      41.393  30.950  29.897  1.00  0.00     0.031 C 
ATOM     54  C   UNL A   1      47.156  30.948  28.004  1.00  0.00     0.029 A 
ATOM     55  C   UNL A   1      45.858  30.557  28.289  1.00  0.00     0.049 A 
ATOM     56  H   UNL A   1      44.966  28.657  28.084  1.00  0.00     0.167 HD
ATOM     57  C   UNL A   1      43.536  30.886  29.085  1.00  0.00     0.074 A 
ATOM     58  C   UNL A   1      42.474  31.683  29.662  1.00  0.00     0.031 C 
ATOM     59  C   UNL A   1      44.780  31.354  28.817  1.00  0.00     0.034 A 
BRANCH  46  60
ATOM     60  C   UNL A   1      48.665  27.060  26.658  1.00  0.00     0.023 A 
ATOM     61  C   UNL A   1      49.511  26.334  27.522  1.00  0.00     0.012 A 
ATOM     62  C   UNL A   1      49.124  27.400  25.371  1.00  0.00     0.148 A 
ATOM     63  C   UNL A   1      50.803  25.986  27.129  1.00  0.00     0.002 A 
ATOM     64  C   UNL A   1      50.395  27.007  24.967  1.00  0.00     0.091 A 
ATOM     65  F   UNL A   1      48.314  28.105  24.569  1.00  0.00    -0.205 F 
ATOM     66  C   UNL A   1      51.240  26.313  25.848  1.00  0.00     0.022 A 
BRANCH  64  67
ATOM     67  S   UNL A   1      51.024  27.310  23.311  1.00  0.00     0.127 S 
ATOM     68  O   UNL A   1      49.977  26.711  22.485  1.00  0.00    -0.237 OA
ATOM     69  O   UNL A   1      51.075  28.772  23.266  1.00  0.00    -0.237 OA
ATOM     70  O   UNL A   1      52.322  26.654  23.247  1.00  0.00    -0.744 OA
ENDBRANCH  64  67
ENDBRANCH  46  60
BRANCH  47  71
ATOM     71  C   UNL A   1      39.366  28.835  29.843  1.00  0.00     0.023 A 
ATOM     72  C   UNL A   1      39.043  28.484  31.169  1.00  0.00     0.012 A 
ATOM     73  C   UNL A   1      38.385  29.440  29.034  1.00  0.00     0.148 A 
ATOM     74  C   UNL A   1      37.757  28.696  31.667  1.00  0.00     0.002 A 
ATOM     75  C   UNL A   1      37.123  29.700  29.555  1.00  0.00     0.091 A 
ATOM     76  F   UNL A   1      38.708  29.758  27.773  1.00  0.00    -0.205 F 
ATOM     77  C   UNL A   1      36.800  29.312  30.864  1.00  0.00     0.022 A 
BRANCH  75  78
ATOM     78  S   UNL A   1      35.870  30.604  28.640  1.00  0.00     0.127 S 
ATOM     79  O   UNL A   1      35.135  29.520  27.991  1.00  0.00    -0.237 OA
ATOM     80  O   UNL A   1      35.145  31.285  29.713  1.00  0.00    -0.237 OA
ATOM     81  O   UNL A   1      36.599  31.494  27.748  1.00  0.00    -0.744 OA
ENDBRANCH  75  78
ENDBRANCH  47  71
BRANCH  59  82
ATOM     82  C   UNL A   1      45.057  32.807  29.099  1.00  0.00     0.023 A 
ATOM     83  C   UNL A   1      45.605  33.192  30.340  1.00  0.00     0.012 A 
ATOM     84  C   UNL A   1      44.839  33.784  28.108  1.00  0.00     0.148 A 
ATOM     85  C   UNL A   1      45.897  34.532  30.600  1.00  0.00     0.002 A 
ATOM     86  C   UNL A   1      45.183  35.107  28.354  1.00  0.00     0.091 A 
ATOM     87  F   UNL A   1      44.302  33.399  26.940  1.00  0.00    -0.205 F 
ATOM     88  C   UNL A   1      45.697  35.485  29.604  1.00  0.00     0.022 A 
BRANCH  86  89
ATOM     89  S   UNL A   1      45.054  36.387  27.100  1.00  0.00     0.127 S 
ATOM     90  O   UNL A   1      43.672  36.228  26.653  1.00  0.00    -0.237 OA
ATOM     91  O   UNL A   1      45.309  37.603  27.875  1.00  0.00    -0.237 OA
ATOM     92  O   UNL A   1      46.072  36.080  26.105  1.00  0.00    -0.744 OA
ENDBRANCH  86  89
ENDBRANCH  59  82
ENDBRANCH  33  34
ENDBRANCH  25  28
ENDBRANCH  23  24
ENDBRANCH  22  23
ENDBRANCH   1  22
TORSDOF 18
ENDMDL
MODEL 3
REMARK VINA RESULT:     -10.6      1.760      2.164
REMARK SMILES Cc1ccc(O)c(C[C@H](NC=O)C(=O)NCCCCNC(=O)c2ccc(-c3c4nc(c(-c5cccc(S(=O)(=O)[O-])c5F)c5ccc([nH]5)c(-c5cccc(S(=O)(=O)[O-])c5F)c5nc(c(-c6cccc(S(=O)(=O)[O-])c6F)c6ccc3[nH]6)C=C5)C=C4)cc2)n1
REMARK SMILES IDX 17 1 16 2 15 3 13 4 14 5 9 7 8 8 7 9 1 10 2 11 3 12 86 13
REMARK SMILES IDX 4 14 5 15 6 16 10 18 11 19 12 21 18 22 19 23 20 24 21 25
REMARK SMILES IDX 22 27 23 28 24 29 85 30 25 31 84 32 26 33 27 34 28 35 78 36
REMARK SMILES IDX 29 37 83 38 77 39 79 40 30 41 82 42 76 43 75 44 31 46 63 47
REMARK SMILES IDX 43 48 62 49 44 50 47 51 61 52 80 53 45 54 46 55 60 57 81 58
REMARK SMILES IDX 48 59 32 60 33 61 41 62 34 63 36 64 42 65 35 66 37 67 38 68
REMARK SMILES IDX 39 69 40 70 64 71 65 72 73 73 66 74 68 75 74 76 67 77 69 78
REMARK SMILES IDX 70 79 71 80 72 81 49 82 50 83 58 84 51 85 53 86 59 87 52 88
REMARK SMILES IDX 54 89 55 90 56 91 57 92
REMARK H PARENT 15 6 6 17 10 20 20 26 79 45 47 56
REMARK Flexibility Score: inf
ROOT
ATOM      1  C   UNL A   1      37.260  21.330  24.662  1.00  0.00     0.023 C 
ENDROOT
BRANCH   1   2
ATOM      2  C   UNL A   1      36.213  21.683  25.708  1.00  0.00     0.116 C 
BRANCH   2   3
ATOM      3  N   UNL A   1      35.192  20.657  25.829  1.00  0.00    -0.354 N 
ATOM      4  C   UNL A   1      33.890  20.688  25.409  1.00  0.00     0.242 C 
ATOM      5  O   UNL A   1      33.251  19.631  25.389  1.00  0.00    -0.273 OA
ATOM      6  H   UNL A   1      35.475  19.825  26.275  1.00  0.00     0.163 HD
BRANCH   4   7
ATOM      7  C   UNL A   1      33.226  22.016  24.994  1.00  0.00     0.177 C 
BRANCH   7   8
ATOM      8  C   UNL A   1      31.987  22.430  25.812  1.00  0.00     0.095 C 
BRANCH   8   9
ATOM      9  C   UNL A   1      31.575  23.872  25.660  1.00  0.00     0.085 A 
ATOM     10  C   UNL A   1      32.950  26.663  23.692  1.00  0.00     0.067 C 
ATOM     11  C   UNL A   1      32.068  25.923  24.652  1.00  0.00     0.038 A 
ATOM     12  C   UNL A   1      30.976  26.527  25.253  1.00  0.00     0.027 A 
ATOM     13  N   UNL A   1      32.387  24.629  24.879  1.00  0.00    -0.254 NA
ATOM     14  C   UNL A   1      30.171  25.765  26.098  1.00  0.00     0.050 A 
ATOM     15  C   UNL A   1      30.467  24.419  26.297  1.00  0.00     0.137 A 
BRANCH  15  16
ATOM     16  O   UNL A   1      29.688  23.652  27.113  1.00  0.00    -0.506 OA
ATOM     17  H   UNL A   1      30.086  23.092  27.749  1.00  0.00     0.293 HD
ENDBRANCH  15  16
ENDBRANCH   8   9
ENDBRANCH   7   8
BRANCH   7  18
ATOM     18  N   UNL A   1      32.952  21.923  23.550  1.00  0.00    -0.347 N 
ATOM     19  C   UNL A   1      32.106  21.047  22.956  1.00  0.00     0.337 C 
ATOM     20  H   UNL A   1      33.427  22.554  22.963  1.00  0.00     0.164 HD
ATOM     21  O   UNL A   1      31.932  21.012  21.743  1.00  0.00    -0.279 OA
ENDBRANCH   7  18
ENDBRANCH   4   7
ENDBRANCH   2   3
ENDBRANCH   1   2
BRANCH   1  22
ATOM     22  C   UNL A   1      38.118  20.116  25.012  1.00  0.00     0.023 C 
BRANCH  22  23
ATOM     23  C   UNL A   1      39.330  20.410  25.890  1.00  0.00     0.116 C 
BRANCH  23  24
ATOM     24  N   UNL A   1      40.263  19.294  25.960  1.00  0.00    -0.352 N 
ATOM     25  C   UNL A   1      41.628  19.315  26.112  1.00  0.00     0.251 C 
ATOM     26  H   UNL A   1      39.859  18.399  25.889  1.00  0.00     0.163 HD
ATOM     27  O   UNL A   1      42.280  18.282  25.993  1.00  0.00    -0.269 OA
BRANCH  25  28
ATOM     28  C   UNL A   1      42.309  20.597  26.394  1.00  0.00     0.039 A 
ATOM     29  C   UNL A   1      42.824  21.340  25.331  1.00  0.00     0.014 A 
ATOM     30  C   UNL A   1      42.409  21.074  27.704  1.00  0.00     0.014 A 
ATOM     31  C   UNL A   1      43.377  22.598  25.575  1.00  0.00     0.010 A 
ATOM     32  C   UNL A   1      42.886  22.360  27.934  1.00  0.00     0.010 A 
ATOM     33  C   UNL A   1      43.378  23.137  26.873  1.00  0.00    -0.014 A 
BRANCH  33  34
ATOM     34  C   UNL A   1      43.871  24.514  27.136  1.00  0.00     0.031 A 
ATOM     35  C   UNL A   1      42.931  25.571  27.652  1.00  0.00     0.074 A 
ATOM     36  C   UNL A   1      45.145  24.834  26.835  1.00  0.00     0.049 A 
ATOM     37  N   UNL A   1      43.166  26.835  27.895  1.00  0.00    -0.248 NA
ATOM     38  C   UNL A   1      41.539  25.163  27.905  1.00  0.00     0.031 C 
ATOM     39  C   UNL A   1      46.134  23.921  26.258  1.00  0.00     0.029 A 
ATOM     40  N   UNL A   1      45.821  26.024  26.949  1.00  0.00    -0.354 N 
ATOM     41  C   UNL A   1      41.953  27.379  28.296  1.00  0.00     0.074 A 
ATOM     42  C   UNL A   1      40.973  26.317  28.229  1.00  0.00     0.031 C 
ATOM     43  C   UNL A   1      47.290  24.579  26.079  1.00  0.00     0.029 A 
ATOM     44  C   UNL A   1      47.118  25.968  26.493  1.00  0.00     0.049 A 
ATOM     45  H   UNL A   1      45.417  26.840  27.323  1.00  0.00     0.167 HD
ATOM     46  C   UNL A   1      41.682  28.638  28.713  1.00  0.00     0.034 A 
ATOM     47  C   UNL A   1      48.059  26.929  26.405  1.00  0.00     0.034 A 
ATOM     48  C   UNL A   1      42.665  29.683  28.812  1.00  0.00     0.049 A 
ATOM     49  C   UNL A   1      47.736  28.315  26.894  1.00  0.00     0.074 A 
ATOM     50  C   UNL A   1      42.507  30.969  29.300  1.00  0.00     0.029 A 
ATOM     51  N   UNL A   1      43.985  29.570  28.407  1.00  0.00    -0.354 N 
ATOM     52  N   UNL A   1      46.623  28.769  27.416  1.00  0.00    -0.248 NA
ATOM     53  C   UNL A   1      48.811  29.314  26.813  1.00  0.00     0.031 C 
ATOM     54  C   UNL A   1      43.724  31.643  29.157  1.00  0.00     0.029 A 
ATOM     55  C   UNL A   1      44.651  30.765  28.618  1.00  0.00     0.049 A 
ATOM     56  H   UNL A   1      44.392  28.758  28.023  1.00  0.00     0.167 HD
ATOM     57  C   UNL A   1      46.875  30.092  27.761  1.00  0.00     0.074 A 
ATOM     58  C   UNL A   1      48.253  30.360  27.408  1.00  0.00     0.031 C 
ATOM     59  C   UNL A   1      46.036  31.007  28.309  1.00  0.00     0.034 A 
BRANCH  46  60
ATOM     60  C   UNL A   1      40.270  28.946  29.141  1.00  0.00     0.023 A 
ATOM     61  C   UNL A   1      39.301  29.267  28.168  1.00  0.00     0.012 A 
ATOM     62  C   UNL A   1      39.886  28.860  30.494  1.00  0.00     0.148 A 
ATOM     63  C   UNL A   1      37.983  29.534  28.536  1.00  0.00     0.002 A 
ATOM     64  C   UNL A   1      38.560  29.080  30.848  1.00  0.00     0.091 A 
ATOM     65  F   UNL A   1      40.824  28.571  31.407  1.00  0.00    -0.205 F 
ATOM     66  C   UNL A   1      37.611  29.430  29.874  1.00  0.00     0.022 A 
BRANCH  64  67
ATOM     67  S   UNL A   1      37.962  28.893  32.532  1.00  0.00     0.127 S 
ATOM     68  O   UNL A   1      36.585  29.370  32.409  1.00  0.00    -0.237 OA
ATOM     69  O   UNL A   1      38.090  27.450  32.744  1.00  0.00    -0.237 OA
ATOM     70  O   UNL A   1      38.833  29.710  33.362  1.00  0.00    -0.744 OA
ENDBRANCH  64  67
ENDBRANCH  46  60
BRANCH  47  71
ATOM     71  C   UNL A   1      49.418  26.603  25.883  1.00  0.00     0.023 A 
ATOM     72  C   UNL A   1      50.296  25.832  26.670  1.00  0.00     0.012 A 
ATOM     73  C   UNL A   1      49.839  27.042  24.614  1.00  0.00     0.148 A 
ATOM     74  C   UNL A   1      51.583  25.537  26.218  1.00  0.00     0.002 A 
ATOM     75  C   UNL A   1      51.101  26.697  24.146  1.00  0.00     0.091 A 
ATOM     76  F   UNL A   1      48.992  27.782  23.884  1.00  0.00    -0.205 F 
ATOM     77  C   UNL A   1      51.982  25.961  24.953  1.00  0.00     0.022 A 
BRANCH  75  78
ATOM     78  S   UNL A   1      51.653  27.088  22.482  1.00  0.00     0.127 S 
ATOM     79  O   UNL A   1      51.884  28.527  22.575  1.00  0.00    -0.237 OA
ATOM     80  O   UNL A   1      52.863  26.274  22.367  1.00  0.00    -0.237 OA
ATOM     81  O   UNL A   1      50.567  26.678  21.601  1.00  0.00    -0.744 OA
ENDBRANCH  75  78
ENDBRANCH  47  71
BRANCH  59  82
ATOM     82  C   UNL A   1      46.591  32.375  28.605  1.00  0.00     0.023 A 
ATOM     83  C   UNL A   1      47.151  32.651  29.869  1.00  0.00     0.012 A 
ATOM     84  C   UNL A   1      46.621  33.368  27.606  1.00  0.00     0.148 A 
ATOM     85  C   UNL A   1      47.698  33.905  30.143  1.00  0.00     0.002 A 
ATOM     86  C   UNL A   1      47.215  34.596  27.869  1.00  0.00     0.091 A 
ATOM     87  F   UNL A   1      46.069  33.092  26.415  1.00  0.00    -0.205 F 
ATOM     88  C   UNL A   1      47.740  34.871  29.141  1.00  0.00     0.022 A 
BRANCH  86  89
ATOM     89  S   UNL A   1      47.406  35.865  26.612  1.00  0.00     0.127 S 
ATOM     90  O   UNL A   1      48.106  35.136  25.556  1.00  0.00    -0.237 OA
ATOM     91  O   UNL A   1      46.016  36.203  26.302  1.00  0.00    -0.237 OA
ATOM     92  O   UNL A   1      48.165  36.940  27.237  1.00  0.00    -0.744 OA
ENDBRANCH  86  89
ENDBRANCH  59  82
ENDBRANCH  33  34
ENDBRANCH  25  28
ENDBRANCH  23  24
ENDBRANCH  22  23
ENDBRANCH   1  22
TORSDOF 18
ENDMDL
