MODEL 1
REMARK VINA RESULT:     -11.3      0.000      0.000
REMARK SMILES C[C@H](NC(=O)N[C@](C)(C(=O)NCCCCNC(=O)c1ccc(-c2c3nc(c(-c4cccc(S(=O)(=O)[O-])c4F)c4ccc([nH]4)c(-c4cccc(S(=O)(=O)[O-])c4F)c4nc(c(-c5cccc(S(=O)(=O)[O-])c5F)c5ccc2[nH]5)C=C4)C=C3)cc1)C(F)(F)F)C(N)=O
REMARK SMILES IDX 13 1 12 2 11 3 9 4 10 5 7 7 8 8 6 9 3 10 4 11 5 13 2 15 1 16
REMARK SMILES IDX 86 17 87 18 88 19 82 22 83 23 84 24 85 25 14 26 15 27 16 28
REMARK SMILES IDX 17 29 18 31 19 32 20 33 81 34 21 35 80 36 22 37 23 38 24 39
REMARK SMILES IDX 74 40 25 41 79 42 73 43 75 44 26 45 78 46 72 47 71 48 27 50
REMARK SMILES IDX 59 51 39 52 58 53 40 54 43 55 57 56 76 57 41 58 42 59 56 61
REMARK SMILES IDX 77 62 44 63 28 64 29 65 37 66 30 67 32 68 38 69 31 70 33 71
REMARK SMILES IDX 34 72 35 73 36 74 60 75 61 76 69 77 62 78 64 79 70 80 63 81
REMARK SMILES IDX 65 82 66 83 67 84 68 85 45 86 46 87 54 88 47 89 49 90 55 91
REMARK SMILES IDX 48 92 50 93 51 94 52 95 53 96
REMARK H PARENT 11 6 3 12 6 14 87 20 87 21 16 30 75 49 43 60
REMARK Flexibility Score: inf
ROOT
ATOM      1  C   UNL A   1      36.555  23.001  23.315  1.00  0.00     0.023 C 
ENDROOT
BRANCH   1   2
ATOM      2  C   UNL A   1      35.185  23.525  23.740  1.00  0.00     0.116 C 
BRANCH   2   3
ATOM      3  N   UNL A   1      34.061  22.795  23.175  1.00  0.00    -0.354 N 
ATOM      4  C   UNL A   1      32.797  22.527  23.630  1.00  0.00     0.255 C 
ATOM      5  O   UNL A   1      32.106  21.829  22.885  1.00  0.00    -0.272 OA
ATOM      6  H   UNL A   1      34.246  22.418  22.285  1.00  0.00     0.163 HD
BRANCH   4   7
ATOM      7  C   UNL A   1      32.348  22.888  25.068  1.00  0.00     0.213 C 
ATOM      8  C   UNL A   1      31.120  22.025  25.345  1.00  0.00     0.056 C 
BRANCH   7   9
ATOM      9  N   UNL A   1      33.494  22.636  25.993  1.00  0.00    -0.316 N 
ATOM     10  N   UNL A   1      34.141  20.352  26.187  1.00  0.00    -0.327 N 
ATOM     11  C   UNL A   1      34.113  21.617  26.574  1.00  0.00     0.316 C 
ATOM     12  H   UNL A   1      34.500  19.777  26.901  1.00  0.00     0.166 HD
ATOM     13  O   UNL A   1      34.762  21.896  27.588  1.00  0.00    -0.249 OA
ATOM     14  H   UNL A   1      33.920  23.486  26.249  1.00  0.00     0.166 HD
BRANCH  10  15
ATOM     15  C   UNL A   1      33.796  19.560  25.010  1.00  0.00     0.169 C 
ATOM     16  C   UNL A   1      35.035  18.815  24.504  1.00  0.00     0.041 C 
BRANCH  15  17
ATOM     17  C   UNL A   1      32.733  18.494  25.302  1.00  0.00     0.239 C 
ATOM     18  N   UNL A   1      32.674  18.063  26.599  1.00  0.00    -0.368 N 
ATOM     19  O   UNL A   1      31.914  18.101  24.478  1.00  0.00    -0.273 OA
ATOM     20  H   UNL A   1      33.334  18.383  27.255  1.00  0.00     0.159 HD
ATOM     21  H   UNL A   1      31.969  17.433  26.877  1.00  0.00     0.159 HD
ENDBRANCH  15  17
ENDBRANCH  10  15
ENDBRANCH   7   9
BRANCH   7  22
ATOM     22  C   UNL A   1      31.961  24.382  25.028  1.00  0.00     0.420 C 
ATOM     23  F   UNL A   1      32.854  25.172  25.665  1.00  0.00    -0.168 F 
ATOM     24  F   UNL A   1      31.920  24.825  23.749  1.00  0.00    -0.168 F 
ATOM     25  F   UNL A   1      30.733  24.614  25.546  1.00  0.00    -0.168 F 
ENDBRANCH   7  22
ENDBRANCH   4   7
ENDBRANCH   2   3
ENDBRANCH   1   2
BRANCH   1  26
ATOM     26  C   UNL A   1      36.973  21.674  23.939  1.00  0.00     0.023 C 
BRANCH  26  27
ATOM     27  C   UNL A   1      37.542  21.797  25.339  1.00  0.00     0.116 C 
BRANCH  27  28
ATOM     28  N   UNL A   1      38.481  20.735  25.681  1.00  0.00    -0.352 N 
ATOM     29  C   UNL A   1      39.664  20.863  26.375  1.00  0.00     0.251 C 
ATOM     30  H   UNL A   1      38.243  19.828  25.385  1.00  0.00     0.163 HD
ATOM     31  O   UNL A   1      40.411  19.912  26.542  1.00  0.00    -0.269 OA
BRANCH  29  32
ATOM     32  C   UNL A   1      40.010  22.207  26.867  1.00  0.00     0.039 A 
ATOM     33  C   UNL A   1      41.014  22.341  27.827  1.00  0.00     0.014 A 
ATOM     34  C   UNL A   1      39.443  23.323  26.248  1.00  0.00     0.014 A 
ATOM     35  C   UNL A   1      41.502  23.612  28.124  1.00  0.00     0.010 A 
ATOM     36  C   UNL A   1      39.997  24.571  26.475  1.00  0.00     0.010 A 
ATOM     37  C   UNL A   1      41.021  24.729  27.424  1.00  0.00    -0.014 A 
BRANCH  37  38
ATOM     38  C   UNL A   1      41.520  26.100  27.685  1.00  0.00     0.031 A 
ATOM     39  C   UNL A   1      42.930  26.437  27.287  1.00  0.00     0.074 A 
ATOM     40  C   UNL A   1      40.771  26.974  28.384  1.00  0.00     0.049 A 
ATOM     41  N   UNL A   1      43.641  27.490  27.583  1.00  0.00    -0.248 NA
ATOM     42  C   UNL A   1      43.653  25.426  26.495  1.00  0.00     0.031 C 
ATOM     43  C   UNL A   1      39.416  26.726  28.885  1.00  0.00     0.029 A 
ATOM     44  N   UNL A   1      41.061  28.239  28.828  1.00  0.00    -0.354 N 
ATOM     45  C   UNL A   1      44.909  27.239  27.074  1.00  0.00     0.074 A 
ATOM     46  C   UNL A   1      44.880  25.920  26.482  1.00  0.00     0.031 C 
ATOM     47  C   UNL A   1      38.996  27.803  29.569  1.00  0.00     0.029 A 
ATOM     48  C   UNL A   1      40.059  28.803  29.585  1.00  0.00     0.049 A 
ATOM     49  H   UNL A   1      41.907  28.700  28.625  1.00  0.00     0.167 HD
ATOM     50  C   UNL A   1      45.992  28.048  27.067  1.00  0.00     0.034 A 
ATOM     51  C   UNL A   1      40.014  29.989  30.224  1.00  0.00     0.034 A 
ATOM     52  C   UNL A   1      45.981  29.388  27.580  1.00  0.00     0.049 A 
ATOM     53  C   UNL A   1      41.202  30.909  30.123  1.00  0.00     0.074 A 
ATOM     54  C   UNL A   1      46.987  30.335  27.537  1.00  0.00     0.029 A 
ATOM     55  N   UNL A   1      44.898  29.977  28.215  1.00  0.00    -0.354 N 
ATOM     56  N   UNL A   1      42.349  30.710  29.519  1.00  0.00    -0.248 NA
ATOM     57  C   UNL A   1      41.081  32.229  30.759  1.00  0.00     0.031 C 
ATOM     58  C   UNL A   1      46.513  31.498  28.150  1.00  0.00     0.029 A 
ATOM     59  C   UNL A   1      45.206  31.278  28.560  1.00  0.00     0.049 A 
ATOM     60  H   UNL A   1      44.038  29.533  28.394  1.00  0.00     0.167 HD
ATOM     61  C   UNL A   1      43.066  31.893  29.658  1.00  0.00     0.074 A 
ATOM     62  C   UNL A   1      42.221  32.806  30.401  1.00  0.00     0.031 C 
ATOM     63  C   UNL A   1      44.314  32.192  29.225  1.00  0.00     0.034 A 
BRANCH  50  64
ATOM     64  C   UNL A   1      47.251  27.526  26.428  1.00  0.00     0.023 A 
ATOM     65  C   UNL A   1      47.541  27.860  25.089  1.00  0.00     0.012 A 
ATOM     66  C   UNL A   1      48.162  26.738  27.157  1.00  0.00     0.148 A 
ATOM     67  C   UNL A   1      48.695  27.383  24.472  1.00  0.00     0.002 A 
ATOM     68  C   UNL A   1      49.335  26.306  26.550  1.00  0.00     0.091 A 
ATOM     69  F   UNL A   1      47.857  26.409  28.420  1.00  0.00    -0.205 F 
ATOM     70  C   UNL A   1      49.597  26.616  25.205  1.00  0.00     0.022 A 
BRANCH  68  71
ATOM     71  S   UNL A   1      50.597  25.384  27.433  1.00  0.00     0.127 S 
ATOM     72  O   UNL A   1      51.576  25.136  26.374  1.00  0.00    -0.237 OA
ATOM     73  O   UNL A   1      51.029  26.345  28.448  1.00  0.00    -0.237 OA
ATOM     74  O   UNL A   1      49.932  24.202  27.962  1.00  0.00    -0.744 OA
ENDBRANCH  68  71
ENDBRANCH  50  64
BRANCH  51  75
ATOM     75  C   UNL A   1      38.773  30.408  30.937  1.00  0.00     0.023 A 
ATOM     76  C   UNL A   1      38.643  30.124  32.310  1.00  0.00     0.012 A 
ATOM     77  C   UNL A   1      37.744  31.111  30.283  1.00  0.00     0.148 A 
ATOM     78  C   UNL A   1      37.498  30.501  33.011  1.00  0.00     0.002 A 
ATOM     79  C   UNL A   1      36.627  31.531  30.999  1.00  0.00     0.091 A 
ATOM     80  F   UNL A   1      37.880  31.366  28.973  1.00  0.00    -0.205 F 
ATOM     81  C   UNL A   1      36.494  31.212  32.359  1.00  0.00     0.022 A 
BRANCH  79  82
ATOM     82  S   UNL A   1      35.350  32.564  30.272  1.00  0.00     0.127 S 
ATOM     83  O   UNL A   1      36.115  33.735  29.850  1.00  0.00    -0.237 OA
ATOM     84  O   UNL A   1      34.862  31.721  29.180  1.00  0.00    -0.237 OA
ATOM     85  O   UNL A   1      34.377  32.787  31.334  1.00  0.00    -0.744 OA
ENDBRANCH  79  82
ENDBRANCH  51  75
BRANCH  63  86
ATOM     86  C   UNL A   1      44.834  33.582  29.473  1.00  0.00     0.023 A 
ATOM     87  C   UNL A   1      45.578  33.854  30.637  1.00  0.00     0.012 A 
ATOM     88  C   UNL A   1      44.687  34.579  28.489  1.00  0.00     0.148 A 
ATOM     89  C   UNL A   1      46.159  35.107  30.823  1.00  0.00     0.002 A 
ATOM     90  C   UNL A   1      45.308  35.810  28.661  1.00  0.00     0.091 A 
ATOM     91  F   UNL A   1      43.958  34.300  27.399  1.00  0.00    -0.205 F 
ATOM     92  C   UNL A   1      46.037  36.078  29.831  1.00  0.00     0.022 A 
BRANCH  90  93
ATOM     93  S   UNL A   1      45.290  37.080  27.392  1.00  0.00     0.127 S 
ATOM     94  O   UNL A   1      46.025  36.429  26.308  1.00  0.00    -0.237 OA
ATOM     95  O   UNL A   1      43.858  37.248  27.143  1.00  0.00    -0.237 OA
ATOM     96  O   UNL A   1      45.943  38.244  27.977  1.00  0.00    -0.744 OA
ENDBRANCH  90  93
ENDBRANCH  63  86
ENDBRANCH  37  38
ENDBRANCH  29  32
ENDBRANCH  27  28
ENDBRANCH  26  27
ENDBRANCH   1  26
TORSDOF 18
ENDMDL
MODEL 2
REMARK VINA RESULT:     -11.3      4.832      9.846
REMARK SMILES C[C@H](NC(=O)N[C@](C)(C(=O)NCCCCNC(=O)c1ccc(-c2c3nc(c(-c4cccc(S(=O)(=O)[O-])c4F)c4ccc([nH]4)c(-c4cccc(S(=O)(=O)[O-])c4F)c4nc(c(-c5cccc(S(=O)(=O)[O-])c5F)c5ccc2[nH]5)C=C4)C=C3)cc1)C(F)(F)F)C(N)=O
REMARK SMILES IDX 13 1 12 2 11 3 9 4 10 5 7 7 8 8 6 9 3 10 4 11 5 13 2 15 1 16
REMARK SMILES IDX 86 17 87 18 88 19 82 22 83 23 84 24 85 25 14 26 15 27 16 28
REMARK SMILES IDX 17 29 18 31 19 32 20 33 81 34 21 35 80 36 22 37 23 38 24 39
REMARK SMILES IDX 74 40 25 41 79 42 73 43 75 44 26 45 78 46 72 47 71 48 27 50
REMARK SMILES IDX 59 51 39 52 58 53 40 54 43 55 57 56 76 57 41 58 42 59 56 61
REMARK SMILES IDX 77 62 44 63 28 64 29 65 37 66 30 67 32 68 38 69 31 70 33 71
REMARK SMILES IDX 34 72 35 73 36 74 60 75 61 76 69 77 62 78 64 79 70 80 63 81
REMARK SMILES IDX 65 82 66 83 67 84 68 85 45 86 46 87 54 88 47 89 49 90 55 91
REMARK SMILES IDX 48 92 50 93 51 94 52 95 53 96
REMARK H PARENT 11 6 3 12 6 14 87 20 87 21 16 30 75 49 43 60
REMARK Flexibility Score: inf
ROOT
ATOM      1  C   UNL A   1      32.357  28.562  24.213  1.00  0.00     0.023 C 
ENDROOT
BRANCH   1   2
ATOM      2  C   UNL A   1      33.058  27.342  24.806  1.00  0.00     0.116 C 
BRANCH   2   3
ATOM      3  N   UNL A   1      33.654  26.453  23.821  1.00  0.00    -0.354 N 
ATOM      4  C   UNL A   1      33.267  25.249  23.294  1.00  0.00     0.255 C 
ATOM      5  O   UNL A   1      34.055  24.750  22.488  1.00  0.00    -0.272 OA
ATOM      6  H   UNL A   1      34.507  26.784  23.460  1.00  0.00     0.163 HD
BRANCH   4   7
ATOM      7  C   UNL A   1      32.042  24.471  23.834  1.00  0.00     0.213 C 
ATOM      8  C   UNL A   1      32.170  23.058  23.271  1.00  0.00     0.056 C 
BRANCH   7   9
ATOM      9  N   UNL A   1      32.065  24.540  25.327  1.00  0.00    -0.316 N 
ATOM     10  N   UNL A   1      33.699  23.154  26.367  1.00  0.00    -0.327 N 
ATOM     11  C   UNL A   1      32.607  23.901  26.354  1.00  0.00     0.316 C 
ATOM     12  H   UNL A   1      33.761  22.641  27.205  1.00  0.00     0.166 HD
ATOM     13  O   UNL A   1      32.028  24.046  27.437  1.00  0.00    -0.249 OA
ATOM     14  H   UNL A   1      31.509  25.288  25.644  1.00  0.00     0.166 HD
BRANCH  10  15
ATOM     15  C   UNL A   1      34.840  22.870  25.502  1.00  0.00     0.169 C 
ATOM     16  C   UNL A   1      35.922  23.936  25.702  1.00  0.00     0.041 C 
BRANCH  15  17
ATOM     17  C   UNL A   1      35.496  21.518  25.809  1.00  0.00     0.239 C 
ATOM     18  N   UNL A   1      34.637  20.457  25.907  1.00  0.00    -0.368 N 
ATOM     19  O   UNL A   1      36.708  21.345  25.875  1.00  0.00    -0.273 OA
ATOM     20  H   UNL A   1      33.665  20.604  25.853  1.00  0.00     0.159 HD
ATOM     21  H   UNL A   1      34.992  19.546  26.031  1.00  0.00     0.159 HD
ENDBRANCH  15  17
ENDBRANCH  10  15
ENDBRANCH   7   9
BRANCH   7  22
ATOM     22  C   UNL A   1      30.801  25.177  23.247  1.00  0.00     0.420 C 
ATOM     23  F   UNL A   1      31.077  25.875  22.123  1.00  0.00    -0.168 F 
ATOM     24  F   UNL A   1      29.860  24.267  22.898  1.00  0.00    -0.168 F 
ATOM     25  F   UNL A   1      30.208  26.008  24.136  1.00  0.00    -0.168 F 
ENDBRANCH   7  22
ENDBRANCH   4   7
ENDBRANCH   2   3
ENDBRANCH   1   2
BRANCH   1  26
ATOM     26  C   UNL A   1      31.721  29.510  25.223  1.00  0.00     0.023 C 
BRANCH  26  27
ATOM     27  C   UNL A   1      32.676  30.021  26.285  1.00  0.00     0.116 C 
BRANCH  27  28
ATOM     28  N   UNL A   1      32.470  31.424  26.626  1.00  0.00    -0.352 N 
ATOM     29  C   UNL A   1      33.308  32.231  27.362  1.00  0.00     0.251 C 
ATOM     30  H   UNL A   1      31.643  31.839  26.293  1.00  0.00     0.163 HD
ATOM     31  O   UNL A   1      32.999  33.376  27.649  1.00  0.00    -0.269 OA
BRANCH  29  32
ATOM     32  C   UNL A   1      34.573  31.637  27.827  1.00  0.00     0.039 A 
ATOM     33  C   UNL A   1      35.681  32.464  28.018  1.00  0.00     0.014 A 
ATOM     34  C   UNL A   1      34.590  30.297  28.219  1.00  0.00     0.014 A 
ATOM     35  C   UNL A   1      36.802  31.954  28.672  1.00  0.00     0.010 A 
ATOM     36  C   UNL A   1      35.665  29.825  28.951  1.00  0.00     0.010 A 
ATOM     37  C   UNL A   1      36.785  30.642  29.173  1.00  0.00    -0.014 A 
BRANCH  37  38
ATOM     38  C   UNL A   1      37.940  30.058  29.893  1.00  0.00     0.031 A 
ATOM     39  C   UNL A   1      38.229  30.533  31.290  1.00  0.00     0.074 A 
ATOM     40  C   UNL A   1      38.785  29.224  29.258  1.00  0.00     0.049 A 
ATOM     41  N   UNL A   1      39.278  30.317  32.035  1.00  0.00    -0.248 NA
ATOM     42  C   UNL A   1      37.224  31.418  31.908  1.00  0.00     0.031 C 
ATOM     43  C   UNL A   1      38.643  28.754  27.877  1.00  0.00     0.029 A 
ATOM     44  N   UNL A   1      39.958  28.652  29.682  1.00  0.00    -0.354 N 
ATOM     45  C   UNL A   1      39.091  31.087  33.176  1.00  0.00     0.074 A 
ATOM     46  C   UNL A   1      37.847  31.804  33.010  1.00  0.00     0.031 C 
ATOM     47  C   UNL A   1      39.689  27.970  27.570  1.00  0.00     0.029 A 
ATOM     48  C   UNL A   1      40.592  27.906  28.715  1.00  0.00     0.049 A 
ATOM     49  H   UNL A   1      40.314  28.765  30.593  1.00  0.00     0.167 HD
ATOM     50  C   UNL A   1      39.867  31.165  34.280  1.00  0.00     0.034 A 
ATOM     51  C   UNL A   1      41.771  27.255  28.751  1.00  0.00     0.034 A 
ATOM     52  C   UNL A   1      41.054  30.380  34.467  1.00  0.00     0.049 A 
ATOM     53  C   UNL A   1      42.573  27.284  30.026  1.00  0.00     0.074 A 
ATOM     54  C   UNL A   1      41.866  30.299  35.584  1.00  0.00     0.029 A 
ATOM     55  N   UNL A   1      41.589  29.525  33.516  1.00  0.00    -0.354 N 
ATOM     56  N   UNL A   1      42.313  27.910  31.148  1.00  0.00    -0.248 NA
ATOM     57  C   UNL A   1      43.810  26.490  30.055  1.00  0.00     0.031 C 
ATOM     58  C   UNL A   1      42.895  29.395  35.306  1.00  0.00     0.029 A 
ATOM     59  C   UNL A   1      42.714  28.903  34.022  1.00  0.00     0.049 A 
ATOM     60  H   UNL A   1      41.222  29.383  32.614  1.00  0.00     0.167 HD
ATOM     61  C   UNL A   1      43.324  27.549  32.031  1.00  0.00     0.074 A 
ATOM     62  C   UNL A   1      44.199  26.644  31.315  1.00  0.00     0.031 C 
ATOM     63  C   UNL A   1      43.519  27.941  33.314  1.00  0.00     0.034 A 
BRANCH  50  64
ATOM     64  C   UNL A   1      39.418  32.077  35.389  1.00  0.00     0.023 A 
ATOM     65  C   UNL A   1      38.558  31.583  36.390  1.00  0.00     0.012 A 
ATOM     66  C   UNL A   1      39.871  33.408  35.461  1.00  0.00     0.148 A 
ATOM     67  C   UNL A   1      38.121  32.410  37.423  1.00  0.00     0.002 A 
ATOM     68  C   UNL A   1      39.470  34.212  36.521  1.00  0.00     0.091 A 
ATOM     69  F   UNL A   1      40.668  33.868  34.486  1.00  0.00    -0.205 F 
ATOM     70  C   UNL A   1      38.585  33.720  37.494  1.00  0.00     0.022 A 
BRANCH  68  71
ATOM     71  S   UNL A   1      40.078  35.887  36.747  1.00  0.00     0.127 S 
ATOM     72  O   UNL A   1      41.518  35.664  36.875  1.00  0.00    -0.237 OA
ATOM     73  O   UNL A   1      39.671  36.535  35.498  1.00  0.00    -0.237 OA
ATOM     74  O   UNL A   1      39.412  36.397  37.938  1.00  0.00    -0.744 OA
ENDBRANCH  68  71
ENDBRANCH  50  64
BRANCH  51  75
ATOM     75  C   UNL A   1      42.219  26.453  27.577  1.00  0.00     0.023 A 
ATOM     76  C   UNL A   1      43.024  27.064  26.596  1.00  0.00     0.012 A 
ATOM     77  C   UNL A   1      41.890  25.091  27.440  1.00  0.00     0.148 A 
ATOM     78  C   UNL A   1      43.464  26.345  25.484  1.00  0.00     0.002 A 
ATOM     79  C   UNL A   1      42.374  24.365  26.356  1.00  0.00     0.091 A 
ATOM     80  F   UNL A   1      41.115  24.526  28.379  1.00  0.00    -0.205 F 
ATOM     81  C   UNL A   1      43.147  24.994  25.368  1.00  0.00     0.022 A 
BRANCH  79  82
ATOM     82  S   UNL A   1      42.126  22.593  26.196  1.00  0.00     0.127 S 
ATOM     83  O   UNL A   1      42.832  22.302  24.951  1.00  0.00    -0.237 OA
ATOM     84  O   UNL A   1      42.775  22.085  27.405  1.00  0.00    -0.237 OA
ATOM     85  O   UNL A   1      40.682  22.402  26.169  1.00  0.00    -0.744 OA
ENDBRANCH  79  82
ENDBRANCH  51  75
BRANCH  63  86
ATOM     86  C   UNL A   1      44.681  27.351  34.063  1.00  0.00     0.023 A 
ATOM     87  C   UNL A   1      45.916  28.027  34.085  1.00  0.00     0.012 A 
ATOM     88  C   UNL A   1      44.505  26.193  34.845  1.00  0.00     0.148 A 
ATOM     89  C   UNL A   1      46.966  27.548  34.867  1.00  0.00     0.002 A 
ATOM     90  C   UNL A   1      45.541  25.749  35.658  1.00  0.00     0.091 A 
ATOM     91  F   UNL A   1      43.325  25.558  34.792  1.00  0.00    -0.205 F 
ATOM     92  C   UNL A   1      46.774  26.420  35.664  1.00  0.00     0.022 A 
BRANCH  90  93
ATOM     93  S   UNL A   1      45.349  24.368  36.790  1.00  0.00     0.127 S 
ATOM     94  O   UNL A   1      44.278  24.846  37.663  1.00  0.00    -0.237 OA
ATOM     95  O   UNL A   1      44.963  23.281  35.890  1.00  0.00    -0.237 OA
ATOM     96  O   UNL A   1      46.645  24.190  37.432  1.00  0.00    -0.744 OA
ENDBRANCH  90  93
ENDBRANCH  63  86
ENDBRANCH  37  38
ENDBRANCH  29  32
ENDBRANCH  27  28
ENDBRANCH  26  27
ENDBRANCH   1  26
TORSDOF 18
ENDMDL
MODEL 3
REMARK VINA RESULT:     -11.2      2.147      3.443
REMARK SMILES C[C@H](NC(=O)N[C@](C)(C(=O)NCCCCNC(=O)c1ccc(-c2c3nc(c(-c4cccc(S(=O)(=O)[O-])c4F)c4ccc([nH]4)c(-c4cccc(S(=O)(=O)[O-])c4F)c4nc(c(-c5cccc(S(=O)(=O)[O-])c5F)c5ccc2[nH]5)C=C4)C=C3)cc1)C(F)(F)F)C(N)=O
REMARK SMILES IDX 13 1 12 2 11 3 9 4 10 5 7 7 8 8 6 9 3 10 4 11 5 13 2 15 1 16
REMARK SMILES IDX 86 17 87 18 88 19 82 22 83 23 84 24 85 25 14 26 15 27 16 28
REMARK SMILES IDX 17 29 18 31 19 32 20 33 81 34 21 35 80 36 22 37 23 38 24 39
REMARK SMILES IDX 74 40 25 41 79 42 73 43 75 44 26 45 78 46 72 47 71 48 27 50
REMARK SMILES IDX 59 51 39 52 58 53 40 54 43 55 57 56 76 57 41 58 42 59 56 61
REMARK SMILES IDX 77 62 44 63 28 64 29 65 37 66 30 67 32 68 38 69 31 70 33 71
REMARK SMILES IDX 34 72 35 73 36 74 60 75 61 76 69 77 62 78 64 79 70 80 63 81
REMARK SMILES IDX 65 82 66 83 67 84 68 85 45 86 46 87 54 88 47 89 49 90 55 91
REMARK SMILES IDX 48 92 50 93 51 94 52 95 53 96
REMARK H PARENT 11 6 3 12 6 14 87 20 87 21 16 30 75 49 43 60
REMARK Flexibility Score: inf
ROOT
ATOM      1  C   UNL A   1      34.401  21.828  26.505  1.00  0.00     0.023 C 
ENDROOT
BRANCH   1   2
ATOM      2  C   UNL A   1      33.049  22.282  25.960  1.00  0.00     0.116 C 
BRANCH   2   3
ATOM      3  N   UNL A   1      32.895  22.118  24.523  1.00  0.00    -0.354 N 
ATOM      4  C   UNL A   1      32.778  23.008  23.488  1.00  0.00     0.255 C 
ATOM      5  O   UNL A   1      32.621  22.503  22.375  1.00  0.00    -0.272 OA
ATOM      6  H   UNL A   1      32.871  21.177  24.237  1.00  0.00     0.163 HD
BRANCH   4   7
ATOM      7  C   UNL A   1      32.632  24.532  23.727  1.00  0.00     0.213 C 
ATOM      8  C   UNL A   1      32.090  25.103  22.420  1.00  0.00     0.056 C 
BRANCH   7   9
ATOM      9  N   UNL A   1      31.735  24.737  24.904  1.00  0.00    -0.316 N 
ATOM     10  N   UNL A   1      31.346  27.015  25.481  1.00  0.00    -0.327 N 
ATOM     11  C   UNL A   1      31.345  25.712  25.713  1.00  0.00     0.316 C 
ATOM     12  H   UNL A   1      31.198  27.518  26.314  1.00  0.00     0.166 HD
ATOM     13  O   UNL A   1      30.904  25.350  26.810  1.00  0.00    -0.249 OA
ATOM     14  H   UNL A   1      31.300  23.890  25.155  1.00  0.00     0.166 HD
BRANCH  10  15
ATOM     15  C   UNL A   1      31.501  27.924  24.350  1.00  0.00     0.169 C 
ATOM     16  C   UNL A   1      30.138  28.181  23.700  1.00  0.00     0.041 C 
BRANCH  15  17
ATOM     17  C   UNL A   1      32.056  29.294  24.760  1.00  0.00     0.239 C 
ATOM     18  N   UNL A   1      33.330  29.561  24.341  1.00  0.00    -0.368 N 
ATOM     19  O   UNL A   1      31.399  30.151  25.341  1.00  0.00    -0.273 OA
ATOM     20  H   UNL A   1      33.851  28.868  23.875  1.00  0.00     0.159 HD
ATOM     21  H   UNL A   1      33.727  30.448  24.505  1.00  0.00     0.159 HD
ENDBRANCH  15  17
ENDBRANCH  10  15
ENDBRANCH   7   9
BRANCH   7  22
ATOM     22  C   UNL A   1      34.060  25.055  23.996  1.00  0.00     0.420 C 
ATOM     23  F   UNL A   1      34.283  26.272  23.452  1.00  0.00    -0.168 F 
ATOM     24  F   UNL A   1      34.267  25.199  25.327  1.00  0.00    -0.168 F 
ATOM     25  F   UNL A   1      35.015  24.204  23.556  1.00  0.00    -0.168 F 
ENDBRANCH   7  22
ENDBRANCH   4   7
ENDBRANCH   2   3
ENDBRANCH   1   2
BRANCH   1  26
ATOM     26  C   UNL A   1      35.429  21.418  25.457  1.00  0.00     0.023 C 
BRANCH  26  27
ATOM     27  C   UNL A   1      36.813  21.993  25.684  1.00  0.00     0.116 C 
BRANCH  27  28
ATOM     28  N   UNL A   1      37.866  20.984  25.701  1.00  0.00    -0.352 N 
ATOM     29  C   UNL A   1      39.172  21.152  26.107  1.00  0.00     0.251 C 
ATOM     30  H   UNL A   1      37.617  20.085  25.390  1.00  0.00     0.163 HD
ATOM     31  O   UNL A   1      39.990  20.252  26.010  1.00  0.00    -0.269 OA
BRANCH  29  32
ATOM     32  C   UNL A   1      39.547  22.480  26.621  1.00  0.00     0.039 A 
ATOM     33  C   UNL A   1      40.532  22.573  27.607  1.00  0.00     0.014 A 
ATOM     34  C   UNL A   1      39.031  23.619  26.001  1.00  0.00     0.014 A 
ATOM     35  C   UNL A   1      41.052  23.825  27.929  1.00  0.00     0.010 A 
ATOM     36  C   UNL A   1      39.618  24.847  26.255  1.00  0.00     0.010 A 
ATOM     37  C   UNL A   1      40.622  24.964  27.229  1.00  0.00    -0.014 A 
BRANCH  37  38
ATOM     38  C   UNL A   1      41.157  26.315  27.516  1.00  0.00     0.031 A 
ATOM     39  C   UNL A   1      42.571  26.627  27.112  1.00  0.00     0.074 A 
ATOM     40  C   UNL A   1      40.437  27.191  28.242  1.00  0.00     0.049 A 
ATOM     41  N   UNL A   1      43.311  27.655  27.424  1.00  0.00    -0.248 NA
ATOM     42  C   UNL A   1      43.262  25.617  26.290  1.00  0.00     0.031 C 
ATOM     43  C   UNL A   1      39.081  26.965  28.751  1.00  0.00     0.029 A 
ATOM     44  N   UNL A   1      40.762  28.438  28.713  1.00  0.00    -0.354 N 
ATOM     45  C   UNL A   1      44.568  27.385  26.897  1.00  0.00     0.074 A 
ATOM     46  C   UNL A   1      44.501  26.082  26.276  1.00  0.00     0.031 C 
ATOM     47  C   UNL A   1      38.695  28.036  29.464  1.00  0.00     0.029 A 
ATOM     48  C   UNL A   1      39.782  29.009  29.492  1.00  0.00     0.049 A 
ATOM     49  H   UNL A   1      41.617  28.883  28.512  1.00  0.00     0.167 HD
ATOM     50  C   UNL A   1      45.671  28.167  26.898  1.00  0.00     0.034 A 
ATOM     51  C   UNL A   1      39.772  30.180  30.158  1.00  0.00     0.034 A 
ATOM     52  C   UNL A   1      45.697  29.495  27.441  1.00  0.00     0.049 A 
ATOM     53  C   UNL A   1      40.981  31.074  30.067  1.00  0.00     0.074 A 
ATOM     54  C   UNL A   1      46.726  30.418  27.410  1.00  0.00     0.029 A 
ATOM     55  N   UNL A   1      44.635  30.095  28.101  1.00  0.00    -0.354 N 
ATOM     56  N   UNL A   1      42.117  30.860  29.446  1.00  0.00    -0.248 NA
ATOM     57  C   UNL A   1      40.899  32.381  30.734  1.00  0.00     0.031 C 
ATOM     58  C   UNL A   1      46.286  31.578  28.054  1.00  0.00     0.029 A 
ATOM     59  C   UNL A   1      44.978  31.381  28.472  1.00  0.00     0.049 A 
ATOM     60  H   UNL A   1      43.766  29.668  28.278  1.00  0.00     0.167 HD
ATOM     61  C   UNL A   1      42.864  32.022  29.606  1.00  0.00     0.074 A 
ATOM     62  C   UNL A   1      42.049  32.938  30.377  1.00  0.00     0.031 C 
ATOM     63  C   UNL A   1      44.116  32.301  29.166  1.00  0.00     0.034 A 
BRANCH  50  64
ATOM     64  C   UNL A   1      46.910  27.630  26.235  1.00  0.00     0.023 A 
ATOM     65  C   UNL A   1      47.807  26.836  26.977  1.00  0.00     0.012 A 
ATOM     66  C   UNL A   1      47.170  27.879  24.873  1.00  0.00     0.148 A 
ATOM     67  C   UNL A   1      48.966  26.333  26.389  1.00  0.00     0.002 A 
ATOM     68  C   UNL A   1      48.303  27.333  24.281  1.00  0.00     0.091 A 
ATOM     69  F   UNL A   1      46.319  28.657  24.190  1.00  0.00    -0.205 F 
ATOM     70  C   UNL A   1      49.208  26.573  25.039  1.00  0.00     0.022 A 
BRANCH  68  71
ATOM     71  S   UNL A   1      48.660  27.514  22.530  1.00  0.00     0.127 S 
ATOM     72  O   UNL A   1      47.524  28.320  22.079  1.00  0.00    -0.237 OA
ATOM     73  O   UNL A   1      49.940  28.223  22.548  1.00  0.00    -0.237 OA
ATOM     74  O   UNL A   1      48.723  26.162  21.993  1.00  0.00    -0.744 OA
ENDBRANCH  68  71
ENDBRANCH  50  64
BRANCH  51  75
ATOM     75  C   UNL A   1      38.549  30.613  30.892  1.00  0.00     0.023 A 
ATOM     76  C   UNL A   1      38.443  30.336  32.269  1.00  0.00     0.012 A 
ATOM     77  C   UNL A   1      37.513  31.322  30.255  1.00  0.00     0.148 A 
ATOM     78  C   UNL A   1      37.314  30.726  32.991  1.00  0.00     0.002 A 
ATOM     79  C   UNL A   1      36.414  31.754  30.991  1.00  0.00     0.091 A 
ATOM     80  F   UNL A   1      37.625  31.569  28.942  1.00  0.00    -0.205 F 
ATOM     81  C   UNL A   1      36.304  31.442  32.355  1.00  0.00     0.022 A 
BRANCH  79  82
ATOM     82  S   UNL A   1      35.131  32.795  30.284  1.00  0.00     0.127 S 
ATOM     83  O   UNL A   1      34.594  31.936  29.232  1.00  0.00    -0.237 OA
ATOM     84  O   UNL A   1      34.241  32.999  31.427  1.00  0.00    -0.237 OA
ATOM     85  O   UNL A   1      35.812  34.002  29.834  1.00  0.00    -0.744 OA
ENDBRANCH  79  82
ENDBRANCH  51  75
BRANCH  63  86
ATOM     86  C   UNL A   1      44.671  33.671  29.441  1.00  0.00     0.023 A 
ATOM     87  C   UNL A   1      45.408  33.905  30.617  1.00  0.00     0.012 A 
ATOM     88  C   UNL A   1      44.566  34.686  28.470  1.00  0.00     0.148 A 
ATOM     89  C   UNL A   1      46.022  35.138  30.829  1.00  0.00     0.002 A 
ATOM     90  C   UNL A   1      45.220  35.896  28.667  1.00  0.00     0.091 A 
ATOM     91  F   UNL A   1      43.843  34.443  27.367  1.00  0.00    -0.205 F 
ATOM     92  C   UNL A   1      45.941  36.126  29.849  1.00  0.00     0.022 A 
BRANCH  90  93
ATOM     93  S   UNL A   1      45.254  37.184  27.416  1.00  0.00     0.127 S 
ATOM     94  O   UNL A   1      45.991  36.530  26.336  1.00  0.00    -0.237 OA
ATOM     95  O   UNL A   1      43.831  37.390  27.145  1.00  0.00    -0.237 OA
ATOM     96  O   UNL A   1      45.923  38.323  28.029  1.00  0.00    -0.744 OA
ENDBRANCH  90  93
ENDBRANCH  63  86
ENDBRANCH  37  38
ENDBRANCH  29  32
ENDBRANCH  27  28
ENDBRANCH  26  27
ENDBRANCH   1  26
TORSDOF 18
ENDMDL
