MODEL 1
REMARK VINA RESULT:     -12.0      0.000      0.000
REMARK SMILES CCCCc1cc(S(F)(F)(F)(F)F)cc2c1O[C@@H](C(F)(F)F)C(C(=O)NCCCCNC(=O)c1ccc(-c3c4nc(c(-c5cccc(S(=O)(=O)[O-])c5F)c5ccc([nH]5)c(-c5cccc(S(=O)(=O)[O-])c5F)c5nc(c(-c6cccc(S(=O)(=O)[O-])c6F)c6ccc3[nH]6)C=C5)C=C4)cc1)=C2
REMARK SMILES IDX 28 1 27 2 26 3 24 4 25 5 23 7 5 8 6 9 16 10 7 11 15 12 17 13
REMARK SMILES IDX 14 14 97 15 18 16 4 17 3 18 2 19 1 20 8 21 9 22 10 23 11 24
REMARK SMILES IDX 12 25 13 26 19 27 20 28 21 29 22 30 29 31 30 32 31 33 32 34
REMARK SMILES IDX 33 36 34 37 35 38 96 39 36 40 95 41 37 42 38 43 39 44 89 45
REMARK SMILES IDX 40 46 94 47 88 48 90 49 41 50 93 51 87 52 86 53 42 55 74 56
REMARK SMILES IDX 54 57 73 58 55 59 58 60 72 61 91 62 56 63 57 64 71 66 92 67
REMARK SMILES IDX 59 68 43 69 44 70 52 71 45 72 47 73 53 74 46 75 48 76 49 77
REMARK SMILES IDX 50 78 51 79 75 80 76 81 84 82 77 83 79 84 85 85 78 86 80 87
REMARK SMILES IDX 81 88 82 89 83 90 60 91 61 92 69 93 62 94 64 95 70 96 63 97
REMARK SMILES IDX 65 98 66 99 67 100 68 101
REMARK H PARENT 26 6 31 35 90 54 58 65
REMARK Flexibility Score: inf
ROOT
ATOM      1  C   UNL A   1      31.726  28.448  26.133  1.00  0.00     0.023 C 
ENDROOT
BRANCH   1   2
ATOM      2  C   UNL A   1      30.744  27.386  25.669  1.00  0.00     0.116 C 
BRANCH   2   3
ATOM      3  N   UNL A   1      30.303  27.691  24.300  1.00  0.00    -0.352 N 
ATOM      4  C   UNL A   1      30.845  26.929  23.166  1.00  0.00     0.251 C 
ATOM      5  O   UNL A   1      30.464  27.194  21.982  1.00  0.00    -0.270 OA
ATOM      6  H   UNL A   1      29.644  28.405  24.143  1.00  0.00     0.163 HD
BRANCH   4   7
ATOM      7  C   UNL A   1      31.863  25.827  23.407  1.00  0.00     0.067 C 
ATOM      8  C   UNL A   1      34.757  22.819  23.567  1.00  0.00    -0.004 A 
ATOM      9  C   UNL A   1      34.387  21.519  23.861  1.00  0.00     0.032 A 
ATOM     10  C   UNL A   1      33.779  23.778  23.468  1.00  0.00     0.131 A 
ATOM     11  C   UNL A   1      33.071  21.186  24.046  1.00  0.00     0.108 A 
ATOM     12  C   UNL A   1      32.442  23.483  23.667  1.00  0.00     0.019 A 
ATOM     13  O   UNL A   1      34.149  25.037  23.065  1.00  0.00    -0.475 OA
ATOM     14  C   UNL A   1      32.103  22.166  23.957  1.00  0.00     0.036 A 
ATOM     15  C   UNL A   1      31.479  24.559  23.502  1.00  0.00     0.025 C 
ATOM     16  C   UNL A   1      33.345  26.151  23.545  1.00  0.00     0.314 C 
BRANCH   8  17
ATOM     17  C   UNL A   1      36.219  23.179  23.357  1.00  0.00     0.039 C 
BRANCH  17  18
ATOM     18  C   UNL A   1      37.060  22.546  24.454  1.00  0.00     0.005 C 
BRANCH  18  19
ATOM     19  C   UNL A   1      36.849  23.304  25.754  1.00  0.00    -0.003 C 
ATOM     20  C   UNL A   1      38.179  23.865  26.234  1.00  0.00     0.004 C 
ENDBRANCH  18  19
ENDBRANCH  17  18
ENDBRANCH   8  17
BRANCH  11  21
ATOM     21  S   UNL A   1      32.604  19.475  24.406  1.00  0.00     0.310 S 
ATOM     22  F   UNL A   1      34.090  18.962  24.204  1.00  0.00    -0.094 F 
ATOM     23  F   UNL A   1      32.382  19.232  22.866  1.00  0.00    -0.094 F 
ATOM     24  F   UNL A   1      32.204  18.007  24.724  1.00  0.00    -0.094 F 
ATOM     25  F   UNL A   1      32.965  19.698  25.928  1.00  0.00    -0.094 F 
ATOM     26  F   UNL A   1      33.119  20.935  24.085  1.00  0.00    -0.094 F 
ENDBRANCH  11  21
BRANCH  16  27
ATOM     27  C   UNL A   1      33.661  27.385  22.715  1.00  0.00     0.429 C 
ATOM     28  F   UNL A   1      34.935  27.722  22.889  1.00  0.00    -0.167 F 
ATOM     29  F   UNL A   1      33.443  27.121  21.429  1.00  0.00    -0.167 F 
ATOM     30  F   UNL A   1      32.880  28.390  23.100  1.00  0.00    -0.167 F 
ENDBRANCH  16  27
ENDBRANCH   4   7
ENDBRANCH   2   3
ENDBRANCH   1   2
BRANCH   1  31
ATOM     31  C   UNL A   1      32.977  27.779  26.678  1.00  0.00     0.023 C 
BRANCH  31  32
ATOM     32  C   UNL A   1      34.180  28.677  26.435  1.00  0.00     0.116 C 
BRANCH  32  33
ATOM     33  N   UNL A   1      33.814  30.073  26.713  1.00  0.00    -0.352 N 
ATOM     34  C   UNL A   1      34.691  30.911  27.543  1.00  0.00     0.251 C 
ATOM     35  H   UNL A   1      32.981  30.446  26.344  1.00  0.00     0.163 HD
ATOM     36  O   UNL A   1      34.374  32.118  27.784  1.00  0.00    -0.269 OA
BRANCH  34  37
ATOM     37  C   UNL A   1      35.976  30.335  28.114  1.00  0.00     0.039 A 
ATOM     38  C   UNL A   1      35.927  29.676  29.331  1.00  0.00     0.014 A 
ATOM     39  C   UNL A   1      37.116  30.463  27.446  1.00  0.00     0.014 A 
ATOM     40  C   UNL A   1      37.198  29.437  29.905  1.00  0.00     0.010 A 
ATOM     41  C   UNL A   1      38.307  30.084  28.015  1.00  0.00     0.010 A 
ATOM     42  C   UNL A   1      38.339  29.480  29.241  1.00  0.00    -0.014 A 
BRANCH  42  43
ATOM     43  C   UNL A   1      39.619  28.891  29.811  1.00  0.00     0.031 A 
ATOM     44  C   UNL A   1      40.202  27.815  29.139  1.00  0.00     0.074 A 
ATOM     45  C   UNL A   1      40.137  29.454  30.965  1.00  0.00     0.049 A 
ATOM     46  N   UNL A   1      41.333  27.178  29.448  1.00  0.00    -0.248 NA
ATOM     47  C   UNL A   1      39.636  27.193  27.933  1.00  0.00     0.031 C 
ATOM     48  C   UNL A   1      39.560  30.546  31.643  1.00  0.00     0.029 A 
ATOM     49  N   UNL A   1      41.269  29.080  31.654  1.00  0.00    -0.354 N 
ATOM     50  C   UNL A   1      41.576  26.213  28.559  1.00  0.00     0.074 A 
ATOM     51  C   UNL A   1      40.485  26.204  27.575  1.00  0.00     0.031 C 
ATOM     52  C   UNL A   1      40.327  30.818  32.732  1.00  0.00     0.029 A 
ATOM     53  C   UNL A   1      41.396  29.903  32.751  1.00  0.00     0.049 A 
ATOM     54  H   UNL A   1      41.881  28.351  31.405  1.00  0.00     0.167 HD
ATOM     55  C   UNL A   1      42.666  25.341  28.529  1.00  0.00     0.034 A 
ATOM     56  C   UNL A   1      42.379  29.869  33.727  1.00  0.00     0.034 A 
ATOM     57  C   UNL A   1      43.673  25.337  29.481  1.00  0.00     0.049 A 
ATOM     58  C   UNL A   1      43.439  28.959  33.730  1.00  0.00     0.074 A 
ATOM     59  C   UNL A   1      44.782  24.470  29.463  1.00  0.00     0.029 A 
ATOM     60  N   UNL A   1      43.786  26.142  30.593  1.00  0.00    -0.354 N 
ATOM     61  N   UNL A   1      43.703  28.020  32.820  1.00  0.00    -0.248 NA
ATOM     62  C   UNL A   1      44.468  28.894  34.775  1.00  0.00     0.031 C 
ATOM     63  C   UNL A   1      45.549  24.742  30.552  1.00  0.00     0.029 A 
ATOM     64  C   UNL A   1      44.930  25.783  31.269  1.00  0.00     0.049 A 
ATOM     65  H   UNL A   1      43.157  26.852  30.858  1.00  0.00     0.167 HD
ATOM     66  C   UNL A   1      44.811  27.356  33.153  1.00  0.00     0.074 A 
ATOM     67  C   UNL A   1      45.316  27.904  34.419  1.00  0.00     0.031 C 
ATOM     68  C   UNL A   1      45.425  26.318  32.449  1.00  0.00     0.034 A 
BRANCH  55  69
ATOM     69  C   UNL A   1      42.753  24.340  27.389  1.00  0.00     0.023 A 
ATOM     70  C   UNL A   1      43.359  24.710  26.200  1.00  0.00     0.012 A 
ATOM     71  C   UNL A   1      42.239  23.126  27.551  1.00  0.00     0.148 A 
ATOM     72  C   UNL A   1      43.117  23.816  25.130  1.00  0.00     0.002 A 
ATOM     73  C   UNL A   1      42.157  22.254  26.493  1.00  0.00     0.091 A 
ATOM     74  F   UNL A   1      41.799  22.751  28.749  1.00  0.00    -0.205 F 
ATOM     75  C   UNL A   1      42.684  22.577  25.274  1.00  0.00     0.022 A 
BRANCH  73  76
ATOM     76  S   UNL A   1      41.342  20.653  26.717  1.00  0.00     0.127 S 
ATOM     77  O   UNL A   1      41.891  19.972  27.972  1.00  0.00    -0.237 OA
ATOM     78  O   UNL A   1      39.834  20.866  26.870  1.00  0.00    -0.237 OA
ATOM     79  O   UNL A   1      41.643  19.665  25.353  1.00  0.00    -0.744 OA
ENDBRANCH  73  76
ENDBRANCH  55  69
BRANCH  56  80
ATOM     80  C   UNL A   1      42.301  30.882  34.859  1.00  0.00     0.023 A 
ATOM     81  C   UNL A   1      41.563  30.574  35.990  1.00  0.00     0.012 A 
ATOM     82  C   UNL A   1      42.948  32.035  34.751  1.00  0.00     0.148 A 
ATOM     83  C   UNL A   1      41.332  31.680  36.841  1.00  0.00     0.002 A 
ATOM     84  C   UNL A   1      42.780  33.022  35.692  1.00  0.00     0.091 A 
ATOM     85  F   UNL A   1      43.767  32.238  33.722  1.00  0.00    -0.205 F 
ATOM     86  C   UNL A   1      42.017  32.808  36.806  1.00  0.00     0.022 A 
BRANCH  84  87
ATOM     87  S   UNL A   1      43.580  34.628  35.453  1.00  0.00     0.127 S 
ATOM     88  O   UNL A   1      45.099  34.445  35.442  1.00  0.00    -0.237 OA
ATOM     89  O   UNL A   1      43.129  35.229  34.120  1.00  0.00    -0.237 OA
ATOM     90  O   UNL A   1      43.141  35.679  36.729  1.00  0.00    -0.744 OA
ENDBRANCH  84  87
ENDBRANCH  56  80
BRANCH  68  91
ATOM     91  C   UNL A   1      46.714  25.740  33.009  1.00  0.00     0.023 A 
ATOM     92  C   UNL A   1      47.917  26.328  32.655  1.00  0.00     0.012 A 
ATOM     93  C   UNL A   1      46.674  24.690  33.822  1.00  0.00     0.148 A 
ATOM     94  C   UNL A   1      49.054  25.554  32.985  1.00  0.00     0.002 A 
ATOM     95  C   UNL A   1      47.832  24.064  34.214  1.00  0.00     0.091 A 
ATOM     96  F   UNL A   1      45.501  24.243  34.262  1.00  0.00    -0.205 F 
ATOM     97  C   UNL A   1      49.056  24.557  33.852  1.00  0.00     0.022 A 
BRANCH  95  98
ATOM     98  S   UNL A   1      47.738  22.564  35.222  1.00  0.00     0.127 S 
ATOM     99  O   UNL A   1      47.442  22.944  36.675  1.00  0.00    -0.237 OA
ATOM    100  O   UNL A   1      46.620  21.663  34.692  1.00  0.00    -0.237 OA
ATOM    101  O   UNL A   1      49.228  21.730  35.144  1.00  0.00    -0.744 OA
ENDBRANCH  95  98
ENDBRANCH  68  91
ENDBRANCH  42  43
ENDBRANCH  34  37
ENDBRANCH  32  33
ENDBRANCH  31  32
ENDBRANCH   1  31
TORSDOF 19
ENDMDL
MODEL 2
REMARK VINA RESULT:     -12.0      4.453      8.835
REMARK SMILES CCCCc1cc(S(F)(F)(F)(F)F)cc2c1O[C@@H](C(F)(F)F)C(C(=O)NCCCCNC(=O)c1ccc(-c3c4nc(c(-c5cccc(S(=O)(=O)[O-])c5F)c5ccc([nH]5)c(-c5cccc(S(=O)(=O)[O-])c5F)c5nc(c(-c6cccc(S(=O)(=O)[O-])c6F)c6ccc3[nH]6)C=C5)C=C4)cc1)=C2
REMARK SMILES IDX 28 1 27 2 26 3 24 4 25 5 23 7 5 8 6 9 16 10 7 11 15 12 17 13
REMARK SMILES IDX 14 14 97 15 18 16 4 17 3 18 2 19 1 20 8 21 9 22 10 23 11 24
REMARK SMILES IDX 12 25 13 26 19 27 20 28 21 29 22 30 29 31 30 32 31 33 32 34
REMARK SMILES IDX 33 36 34 37 35 38 96 39 36 40 95 41 37 42 38 43 39 44 89 45
REMARK SMILES IDX 40 46 94 47 88 48 90 49 41 50 93 51 87 52 86 53 42 55 74 56
REMARK SMILES IDX 54 57 73 58 55 59 58 60 72 61 91 62 56 63 57 64 71 66 92 67
REMARK SMILES IDX 59 68 43 69 44 70 52 71 45 72 47 73 53 74 46 75 48 76 49 77
REMARK SMILES IDX 50 78 51 79 75 80 76 81 84 82 77 83 79 84 85 85 78 86 80 87
REMARK SMILES IDX 81 88 82 89 83 90 60 91 61 92 69 93 62 94 64 95 70 96 63 97
REMARK SMILES IDX 65 98 66 99 67 100 68 101
REMARK H PARENT 26 6 31 35 90 54 58 65
REMARK Flexibility Score: inf
ROOT
ATOM      1  C   UNL A   1      36.052  22.386  23.976  1.00  0.00     0.023 C 
ENDROOT
BRANCH   1   2
ATOM      2  C   UNL A   1      34.777  22.567  23.170  1.00  0.00     0.116 C 
BRANCH   2   3
ATOM      3  N   UNL A   1      33.795  21.548  23.571  1.00  0.00    -0.352 N 
ATOM      4  C   UNL A   1      32.576  21.945  24.290  1.00  0.00     0.251 C 
ATOM      5  O   UNL A   1      31.728  21.064  24.637  1.00  0.00    -0.270 OA
ATOM      6  H   UNL A   1      33.955  20.601  23.357  1.00  0.00     0.163 HD
BRANCH   4   7
ATOM      7  C   UNL A   1      32.331  23.408  24.620  1.00  0.00     0.067 C 
ATOM      8  C   UNL A   1      31.305  27.261  25.866  1.00  0.00    -0.004 A 
ATOM      9  C   UNL A   1      30.662  28.120  24.994  1.00  0.00     0.032 A 
ATOM     10  C   UNL A   1      31.583  25.982  25.449  1.00  0.00     0.131 A 
ATOM     11  C   UNL A   1      30.301  27.709  23.738  1.00  0.00     0.108 A 
ATOM     12  C   UNL A   1      31.250  25.538  24.181  1.00  0.00     0.019 A 
ATOM     13  O   UNL A   1      32.119  25.108  26.362  1.00  0.00    -0.475 OA
ATOM     14  C   UNL A   1      30.601  26.425  23.331  1.00  0.00     0.036 A 
ATOM     15  C   UNL A   1      31.551  24.156  23.848  1.00  0.00     0.025 C 
ATOM     16  C   UNL A   1      32.971  24.048  25.845  1.00  0.00     0.314 C 
BRANCH   8  17
ATOM     17  C   UNL A   1      31.697  27.722  27.261  1.00  0.00     0.039 C 
BRANCH  17  18
ATOM     18  C   UNL A   1      32.462  29.033  27.164  1.00  0.00     0.005 C 
BRANCH  18  19
ATOM     19  C   UNL A   1      33.833  28.776  26.562  1.00  0.00    -0.003 C 
ATOM     20  C   UNL A   1      34.908  29.165  27.565  1.00  0.00     0.004 C 
ENDBRANCH  18  19
ENDBRANCH  17  18
ENDBRANCH   8  17
BRANCH  11  21
ATOM     21  S   UNL A   1      29.439  28.841  22.620  1.00  0.00     0.310 S 
ATOM     22  F   UNL A   1      29.419  29.997  23.705  1.00  0.00    -0.094 F 
ATOM     23  F   UNL A   1      28.065  28.351  23.214  1.00  0.00    -0.094 F 
ATOM     24  F   UNL A   1      28.706  29.816  21.656  1.00  0.00    -0.094 F 
ATOM     25  F   UNL A   1      30.828  29.419  22.136  1.00  0.00    -0.094 F 
ATOM     26  F   UNL A   1      30.199  27.937  23.671  1.00  0.00    -0.094 F 
ENDBRANCH  11  21
BRANCH  16  27
ATOM     27  C   UNL A   1      33.152  22.988  26.920  1.00  0.00     0.429 C 
ATOM     28  F   UNL A   1      31.963  22.514  27.281  1.00  0.00    -0.167 F 
ATOM     29  F   UNL A   1      33.899  21.996  26.442  1.00  0.00    -0.167 F 
ATOM     30  F   UNL A   1      33.754  23.526  27.977  1.00  0.00    -0.167 F 
ENDBRANCH  16  27
ENDBRANCH   4   7
ENDBRANCH   2   3
ENDBRANCH   1   2
BRANCH   1  31
ATOM     31  C   UNL A   1      36.408  23.694  24.663  1.00  0.00     0.023 C 
BRANCH  31  32
ATOM     32  C   UNL A   1      36.897  23.410  26.073  1.00  0.00     0.116 C 
BRANCH  32  33
ATOM     33  N   UNL A   1      37.827  22.271  26.050  1.00  0.00    -0.352 N 
ATOM     34  C   UNL A   1      39.224  22.455  26.468  1.00  0.00     0.251 C 
ATOM     35  H   UNL A   1      37.514  21.387  25.753  1.00  0.00     0.163 HD
ATOM     36  O   UNL A   1      40.028  21.471  26.447  1.00  0.00    -0.269 OA
BRANCH  34  37
ATOM     37  C   UNL A   1      39.708  23.822  26.925  1.00  0.00     0.039 A 
ATOM     38  C   UNL A   1      39.790  24.079  28.283  1.00  0.00     0.014 A 
ATOM     39  C   UNL A   1      40.045  24.741  26.028  1.00  0.00     0.014 A 
ATOM     40  C   UNL A   1      39.967  25.447  28.598  1.00  0.00     0.010 A 
ATOM     41  C   UNL A   1      40.337  26.025  26.419  1.00  0.00     0.010 A 
ATOM     42  C   UNL A   1      40.380  26.364  27.743  1.00  0.00    -0.014 A 
BRANCH  42  43
ATOM     43  C   UNL A   1      40.874  27.726  28.205  1.00  0.00     0.031 A 
ATOM     44  C   UNL A   1      42.242  27.989  28.125  1.00  0.00     0.074 A 
ATOM     45  C   UNL A   1      39.939  28.630  28.680  1.00  0.00     0.049 A 
ATOM     46  N   UNL A   1      42.874  29.120  28.444  1.00  0.00    -0.248 NA
ATOM     47  C   UNL A   1      43.241  27.018  27.653  1.00  0.00     0.031 C 
ATOM     48  C   UNL A   1      38.555  28.376  28.755  1.00  0.00     0.029 A 
ATOM     49  N   UNL A   1      40.159  29.904  29.154  1.00  0.00    -0.354 N 
ATOM     50  C   UNL A   1      44.183  28.997  28.214  1.00  0.00     0.074 A 
ATOM     51  C   UNL A   1      44.439  27.641  27.708  1.00  0.00     0.031 C 
ATOM     52  C   UNL A   1      37.952  29.476  29.278  1.00  0.00     0.029 A 
ATOM     53  C   UNL A   1      38.948  30.436  29.537  1.00  0.00     0.049 A 
ATOM     54  H   UNL A   1      41.032  30.355  29.210  1.00  0.00     0.167 HD
ATOM     55  C   UNL A   1      45.173  29.963  28.405  1.00  0.00     0.034 A 
ATOM     56  C   UNL A   1      38.706  31.684  30.087  1.00  0.00     0.034 A 
ATOM     57  C   UNL A   1      44.924  31.228  28.914  1.00  0.00     0.049 A 
ATOM     58  C   UNL A   1      39.705  32.631  30.333  1.00  0.00     0.074 A 
ATOM     59  C   UNL A   1      45.908  32.216  29.106  1.00  0.00     0.029 A 
ATOM     60  N   UNL A   1      43.717  31.751  29.321  1.00  0.00    -0.354 N 
ATOM     61  N   UNL A   1      41.007  32.523  30.067  1.00  0.00    -0.248 NA
ATOM     62  C   UNL A   1      39.464  33.944  30.943  1.00  0.00     0.031 C 
ATOM     63  C   UNL A   1      45.306  33.316  29.629  1.00  0.00     0.029 A 
ATOM     64  C   UNL A   1      43.934  33.033  29.774  1.00  0.00     0.049 A 
ATOM     65  H   UNL A   1      42.848  31.288  29.293  1.00  0.00     0.167 HD
ATOM     66  C   UNL A   1      41.644  33.638  30.425  1.00  0.00     0.074 A 
ATOM     67  C   UNL A   1      40.662  34.567  31.001  1.00  0.00     0.031 C 
ATOM     68  C   UNL A   1      43.004  33.922  30.290  1.00  0.00     0.034 A 
BRANCH  55  69
ATOM     69  C   UNL A   1      46.603  29.607  28.034  1.00  0.00     0.023 A 
ATOM     70  C   UNL A   1      47.051  29.838  26.744  1.00  0.00     0.012 A 
ATOM     71  C   UNL A   1      47.398  29.075  28.955  1.00  0.00     0.148 A 
ATOM     72  C   UNL A   1      48.279  29.202  26.441  1.00  0.00     0.002 A 
ATOM     73  C   UNL A   1      48.640  28.596  28.615  1.00  0.00     0.091 A 
ATOM     74  F   UNL A   1      46.989  29.004  30.218  1.00  0.00    -0.205 F 
ATOM     75  C   UNL A   1      49.124  28.738  27.344  1.00  0.00     0.022 A 
BRANCH  73  76
ATOM     76  S   UNL A   1      49.650  27.767  29.866  1.00  0.00     0.127 S 
ATOM     77  O   UNL A   1      49.051  26.394  30.178  1.00  0.00    -0.237 OA
ATOM     78  O   UNL A   1      51.077  27.592  29.337  1.00  0.00    -0.237 OA
ATOM     79  O   UNL A   1      49.683  28.712  31.291  1.00  0.00    -0.744 OA
ENDBRANCH  73  76
ENDBRANCH  55  69
BRANCH  56  80
ATOM     80  C   UNL A   1      37.273  32.046  30.442  1.00  0.00     0.023 A 
ATOM     81  C   UNL A   1      36.815  31.805  31.727  1.00  0.00     0.012 A 
ATOM     82  C   UNL A   1      36.489  32.595  29.523  1.00  0.00     0.148 A 
ATOM     83  C   UNL A   1      35.411  31.917  31.865  1.00  0.00     0.002 A 
ATOM     84  C   UNL A   1      35.154  32.800  29.774  1.00  0.00     0.091 A 
ATOM     85  F   UNL A   1      37.000  32.950  28.348  1.00  0.00    -0.205 F 
ATOM     86  C   UNL A   1      34.620  32.529  31.004  1.00  0.00     0.022 A 
BRANCH  84  87
ATOM     87  S   UNL A   1      34.086  33.437  28.459  1.00  0.00     0.127 S 
ATOM     88  O   UNL A   1      33.465  32.266  27.693  1.00  0.00    -0.237 OA
ATOM     89  O   UNL A   1      32.975  34.291  29.072  1.00  0.00    -0.237 OA
ATOM     90  O   UNL A   1      35.012  34.393  27.385  1.00  0.00    -0.744 OA
ENDBRANCH  84  87
ENDBRANCH  56  80
BRANCH  68  91
ATOM     91  C   UNL A   1      43.496  35.289  30.737  1.00  0.00     0.023 A 
ATOM     92  C   UNL A   1      43.897  35.455  32.053  1.00  0.00     0.012 A 
ATOM     93  C   UNL A   1      43.537  36.296  29.873  1.00  0.00     0.148 A 
ATOM     94  C   UNL A   1      44.057  36.807  32.438  1.00  0.00     0.002 A 
ATOM     95  C   UNL A   1      43.833  37.569  30.295  1.00  0.00     0.091 A 
ATOM     96  F   UNL A   1      43.289  36.070  28.586  1.00  0.00    -0.205 F 
ATOM     97  C   UNL A   1      44.181  37.817  31.595  1.00  0.00     0.022 A 
BRANCH  95  98
ATOM     98  S   UNL A   1      43.760  38.941  29.115  1.00  0.00     0.127 S 
ATOM     99  O   UNL A   1      44.091  40.250  29.835  1.00  0.00    -0.237 OA
ATOM    100  O   UNL A   1      44.775  38.703  27.995  1.00  0.00    -0.237 OA
ATOM    101  O   UNL A   1      42.188  39.036  28.450  1.00  0.00    -0.744 OA
ENDBRANCH  95  98
ENDBRANCH  68  91
ENDBRANCH  42  43
ENDBRANCH  34  37
ENDBRANCH  32  33
ENDBRANCH  31  32
ENDBRANCH   1  31
TORSDOF 19
ENDMDL
MODEL 3
REMARK VINA RESULT:     -11.9      4.449      9.612
REMARK SMILES CCCCc1cc(S(F)(F)(F)(F)F)cc2c1O[C@@H](C(F)(F)F)C(C(=O)NCCCCNC(=O)c1ccc(-c3c4nc(c(-c5cccc(S(=O)(=O)[O-])c5F)c5ccc([nH]5)c(-c5cccc(S(=O)(=O)[O-])c5F)c5nc(c(-c6cccc(S(=O)(=O)[O-])c6F)c6ccc3[nH]6)C=C5)C=C4)cc1)=C2
REMARK SMILES IDX 28 1 27 2 26 3 24 4 25 5 23 7 5 8 6 9 16 10 7 11 15 12 17 13
REMARK SMILES IDX 14 14 97 15 18 16 4 17 3 18 2 19 1 20 8 21 9 22 10 23 11 24
REMARK SMILES IDX 12 25 13 26 19 27 20 28 21 29 22 30 29 31 30 32 31 33 32 34
REMARK SMILES IDX 33 36 34 37 35 38 96 39 36 40 95 41 37 42 38 43 39 44 89 45
REMARK SMILES IDX 40 46 94 47 88 48 90 49 41 50 93 51 87 52 86 53 42 55 74 56
REMARK SMILES IDX 54 57 73 58 55 59 58 60 72 61 91 62 56 63 57 64 71 66 92 67
REMARK SMILES IDX 59 68 43 69 44 70 52 71 45 72 47 73 53 74 46 75 48 76 49 77
REMARK SMILES IDX 50 78 51 79 75 80 76 81 84 82 77 83 79 84 85 85 78 86 80 87
REMARK SMILES IDX 81 88 82 89 83 90 60 91 61 92 69 93 62 94 64 95 70 96 63 97
REMARK SMILES IDX 65 98 66 99 67 100 68 101
REMARK H PARENT 26 6 31 35 90 54 58 65
REMARK Flexibility Score: inf
ROOT
ATOM      1  C   UNL A   1      36.091  22.569  23.985  1.00  0.00     0.023 C 
ENDROOT
BRANCH   1   2
ATOM      2  C   UNL A   1      34.850  22.731  23.123  1.00  0.00     0.116 C 
BRANCH   2   3
ATOM      3  N   UNL A   1      33.853  21.720  23.506  1.00  0.00    -0.352 N 
ATOM      4  C   UNL A   1      32.631  22.126  24.214  1.00  0.00     0.251 C 
ATOM      5  O   UNL A   1      31.769  21.252  24.546  1.00  0.00    -0.270 OA
ATOM      6  H   UNL A   1      34.004  20.773  23.286  1.00  0.00     0.163 HD
BRANCH   4   7
ATOM      7  C   UNL A   1      32.398  23.589  24.553  1.00  0.00     0.067 C 
ATOM      8  C   UNL A   1      31.405  27.444  25.819  1.00  0.00    -0.004 A 
ATOM      9  C   UNL A   1      30.777  28.316  24.949  1.00  0.00     0.032 A 
ATOM     10  C   UNL A   1      31.672  26.165  25.394  1.00  0.00     0.131 A 
ATOM     11  C   UNL A   1      30.420  27.917  23.687  1.00  0.00     0.108 A 
ATOM     12  C   UNL A   1      31.343  25.733  24.122  1.00  0.00     0.019 A 
ATOM     13  O   UNL A   1      32.193  25.279  26.305  1.00  0.00    -0.475 OA
ATOM     14  C   UNL A   1      30.708  26.633  23.274  1.00  0.00     0.036 A 
ATOM     15  C   UNL A   1      31.632  24.350  23.781  1.00  0.00     0.025 C 
ATOM     16  C   UNL A   1      33.038  24.214  25.786  1.00  0.00     0.314 C 
BRANCH   8  17
ATOM     17  C   UNL A   1      31.793  27.892  27.219  1.00  0.00     0.039 C 
BRANCH  17  18
ATOM     18  C   UNL A   1      32.099  29.382  27.208  1.00  0.00     0.005 C 
BRANCH  18  19
ATOM     19  C   UNL A   1      33.422  29.622  26.500  1.00  0.00    -0.003 C 
ATOM     20  C   UNL A   1      34.542  28.950  27.278  1.00  0.00     0.004 C 
ENDBRANCH  18  19
ENDBRANCH  17  18
ENDBRANCH   8  17
BRANCH  11  21
ATOM     21  S   UNL A   1      29.576  29.065  22.572  1.00  0.00     0.310 S 
ATOM     22  F   UNL A   1      29.593  30.226  23.653  1.00  0.00    -0.094 F 
ATOM     23  F   UNL A   1      28.196  28.612  23.179  1.00  0.00    -0.094 F 
ATOM     24  F   UNL A   1      28.859  30.054  21.610  1.00  0.00    -0.094 F 
ATOM     25  F   UNL A   1      30.974  29.607  22.074  1.00  0.00    -0.094 F 
ATOM     26  F   UNL A   1      30.322  28.147  23.621  1.00  0.00    -0.094 F 
ENDBRANCH  11  21
BRANCH  16  27
ATOM     27  C   UNL A   1      33.201  23.145  26.855  1.00  0.00     0.429 C 
ATOM     28  F   UNL A   1      32.002  22.716  27.240  1.00  0.00    -0.167 F 
ATOM     29  F   UNL A   1      33.899  22.126  26.360  1.00  0.00    -0.167 F 
ATOM     30  F   UNL A   1      33.845  23.657  27.900  1.00  0.00    -0.167 F 
ENDBRANCH  16  27
ENDBRANCH   4   7
ENDBRANCH   2   3
ENDBRANCH   1   2
BRANCH   1  31
ATOM     31  C   UNL A   1      36.387  23.878  24.698  1.00  0.00     0.023 C 
BRANCH  31  32
ATOM     32  C   UNL A   1      36.831  23.591  26.123  1.00  0.00     0.116 C 
BRANCH  32  33
ATOM     33  N   UNL A   1      37.766  22.456  26.125  1.00  0.00    -0.352 N 
ATOM     34  C   UNL A   1      39.155  22.650  26.565  1.00  0.00     0.251 C 
ATOM     35  H   UNL A   1      37.462  21.567  25.832  1.00  0.00     0.163 HD
ATOM     36  O   UNL A   1      39.963  21.669  26.567  1.00  0.00    -0.269 OA
BRANCH  34  37
ATOM     37  C   UNL A   1      39.626  24.022  27.016  1.00  0.00     0.039 A 
ATOM     38  C   UNL A   1      39.671  24.298  28.373  1.00  0.00     0.014 A 
ATOM     39  C   UNL A   1      39.987  24.930  26.117  1.00  0.00     0.014 A 
ATOM     40  C   UNL A   1      39.839  25.670  28.674  1.00  0.00     0.010 A 
ATOM     41  C   UNL A   1      40.269  26.219  26.498  1.00  0.00     0.010 A 
ATOM     42  C   UNL A   1      40.275  26.576  27.818  1.00  0.00    -0.014 A 
BRANCH  42  43
ATOM     43  C   UNL A   1      40.756  27.944  28.275  1.00  0.00     0.031 A 
ATOM     44  C   UNL A   1      39.802  28.856  28.731  1.00  0.00     0.074 A 
ATOM     45  C   UNL A   1      42.113  28.209  28.215  1.00  0.00     0.049 A 
ATOM     46  N   UNL A   1      40.012  30.086  29.204  1.00  0.00    -0.248 NA
ATOM     47  C   UNL A   1      38.357  28.589  28.763  1.00  0.00     0.031 C 
ATOM     48  C   UNL A   1      43.083  27.291  27.766  1.00  0.00     0.029 A 
ATOM     49  N   UNL A   1      42.764  29.372  28.566  1.00  0.00    -0.354 N 
ATOM     50  C   UNL A   1      38.855  30.647  29.559  1.00  0.00     0.074 A 
ATOM     51  C   UNL A   1      37.772  29.695  29.275  1.00  0.00     0.031 C 
ATOM     52  C   UNL A   1      44.299  27.895  27.833  1.00  0.00     0.029 A 
ATOM     53  C   UNL A   1      44.109  29.200  28.327  1.00  0.00     0.049 A 
ATOM     54  H   UNL A   1      42.340  30.184  28.924  1.00  0.00     0.167 HD
ATOM     55  C   UNL A   1      38.660  31.915  30.110  1.00  0.00     0.034 A 
ATOM     56  C   UNL A   1      45.129  30.118  28.519  1.00  0.00     0.034 A 
ATOM     57  C   UNL A   1      39.685  32.817  30.343  1.00  0.00     0.049 A 
ATOM     58  C   UNL A   1      44.927  31.409  29.016  1.00  0.00     0.074 A 
ATOM     59  C   UNL A   1      39.507  34.096  30.905  1.00  0.00     0.029 A 
ATOM     60  N   UNL A   1      41.028  32.655  30.081  1.00  0.00    -0.354 N 
ATOM     61  N   UNL A   1      43.776  31.955  29.408  1.00  0.00    -0.248 NA
ATOM     62  C   UNL A   1      45.995  32.401  29.194  1.00  0.00     0.031 C 
ATOM     63  C   UNL A   1      40.723  34.701  30.972  1.00  0.00     0.029 A 
ATOM     64  C   UNL A   1      41.681  33.809  30.452  1.00  0.00     0.049 A 
ATOM     65  H   UNL A   1      41.448  31.853  29.694  1.00  0.00     0.167 HD
ATOM     66  C   UNL A   1      43.981  33.200  29.841  1.00  0.00     0.074 A 
ATOM     67  C   UNL A   1      45.411  33.507  29.703  1.00  0.00     0.031 C 
ATOM     68  C   UNL A   1      43.035  34.091  30.350  1.00  0.00     0.034 A 
BRANCH  55  69
ATOM     69  C   UNL A   1      37.243  32.328  30.475  1.00  0.00     0.023 A 
ATOM     70  C   UNL A   1      36.723  31.967  31.707  1.00  0.00     0.012 A 
ATOM     71  C   UNL A   1      36.526  33.025  29.601  1.00  0.00     0.148 A 
ATOM     72  C   UNL A   1      35.323  32.143  31.811  1.00  0.00     0.002 A 
ATOM     73  C   UNL A   1      35.196  33.277  29.831  1.00  0.00     0.091 A 
ATOM     74  F   UNL A   1      37.101  33.484  28.493  1.00  0.00    -0.205 F 
ATOM     75  C   UNL A   1      34.601  32.897  31.002  1.00  0.00     0.022 A 
BRANCH  73  76
ATOM     76  S   UNL A   1      34.216  34.123  28.567  1.00  0.00     0.127 S 
ATOM     77  O   UNL A   1      34.775  35.530  28.345  1.00  0.00    -0.237 OA
ATOM     78  O   UNL A   1      34.283  33.334  27.256  1.00  0.00    -0.237 OA
ATOM     79  O   UNL A   1      32.589  34.230  29.083  1.00  0.00    -0.744 OA
ENDBRANCH  73  76
ENDBRANCH  55  69
BRANCH  56  80
ATOM     80  C   UNL A   1      46.548  29.698  28.169  1.00  0.00     0.023 A 
ATOM     81  C   UNL A   1      47.022  29.924  26.888  1.00  0.00     0.012 A 
ATOM     82  C   UNL A   1      47.311  29.135  29.097  1.00  0.00     0.148 A 
ATOM     83  C   UNL A   1      48.233  29.252  26.598  1.00  0.00     0.002 A 
ATOM     84  C   UNL A   1      48.542  28.619  28.771  1.00  0.00     0.091 A 
ATOM     85  F   UNL A   1      46.881  29.069  30.354  1.00  0.00    -0.205 F 
ATOM     86  C   UNL A   1      49.049  28.754  27.508  1.00  0.00     0.022 A 
BRANCH  84  87
ATOM     87  S   UNL A   1      49.507  27.749  30.032  1.00  0.00     0.127 S 
ATOM     88  O   UNL A   1      50.914  27.472  29.497  1.00  0.00    -0.237 OA
ATOM     89  O   UNL A   1      49.600  28.614  31.290  1.00  0.00    -0.237 OA
ATOM     90  O   UNL A   1      48.741  26.268  30.414  1.00  0.00    -0.744 OA
ENDBRANCH  84  87
ENDBRANCH  56  80
BRANCH  68  91
ATOM     91  C   UNL A   1      43.517  35.453  30.823  1.00  0.00     0.023 A 
ATOM     92  C   UNL A   1      43.905  35.599  32.145  1.00  0.00     0.012 A 
ATOM     93  C   UNL A   1      43.561  36.474  29.975  1.00  0.00     0.148 A 
ATOM     94  C   UNL A   1      44.056  36.946  32.553  1.00  0.00     0.002 A 
ATOM     95  C   UNL A   1      43.848  37.741  30.420  1.00  0.00     0.091 A 
ATOM     96  F   UNL A   1      43.326  36.266  28.682  1.00  0.00    -0.205 F 
ATOM     97  C   UNL A   1      44.183  37.969  31.727  1.00  0.00     0.022 A 
BRANCH  95  98
ATOM     98  S   UNL A   1      43.781  39.130  29.262  1.00  0.00     0.127 S 
ATOM     99  O   UNL A   1      44.036  40.436  30.017  1.00  0.00    -0.237 OA
ATOM    100  O   UNL A   1      44.851  38.946  28.183  1.00  0.00    -0.237 OA
ATOM    101  O   UNL A   1      42.237  39.187  28.530  1.00  0.00    -0.744 OA
ENDBRANCH  95  98
ENDBRANCH  68  91
ENDBRANCH  42  43
ENDBRANCH  34  37
ENDBRANCH  32  33
ENDBRANCH  31  32
ENDBRANCH   1  31
TORSDOF 19
ENDMDL
