MODEL 1
REMARK VINA RESULT:     -13.2      0.000      0.000
REMARK SMILES O=C(NCCCCNC(=O)[C@H]1[C@H]2CC[C@H](CC2)[C@H]1C(=O)Nc1ccc(C(=O)N2CCCC2)cc1)c1ccc(-c2c3nc(c(-c4cccc(S(=O)(=O)[O-])c4F)c4ccc([nH]4)c(-c4cccc(S(=O)(=O)[O-])c4F)c4nc(c(-c5cccc(S(=O)(=O)[O-])c5F)c5ccc2[nH]5)C=C4)C=C3)cc1
REMARK SMILES IDX 5 1 4 2 3 3 1 4 2 5 35 7 36 8 97 9 37 10 96 11 38 12 39 13
REMARK SMILES IDX 40 14 90 15 41 16 95 17 89 18 91 19 42 20 94 21 88 22 87 23
REMARK SMILES IDX 43 25 75 26 55 27 74 28 56 29 59 30 73 31 92 32 57 33 58 34
REMARK SMILES IDX 72 36 93 37 60 38 44 39 45 40 53 41 46 42 48 43 54 44 47 45
REMARK SMILES IDX 49 46 50 47 51 48 52 49 76 50 77 51 85 52 78 53 80 54 86 55
REMARK SMILES IDX 79 56 81 57 82 58 83 59 84 60 61 61 62 62 70 63 63 64 65 65
REMARK SMILES IDX 71 66 64 67 66 68 67 69 68 70 69 71 6 72 7 73 8 74 9 75
REMARK SMILES IDX 10 77 11 78 12 79 18 80 17 81 13 82 15 83 16 84 14 85 19 86
REMARK SMILES IDX 20 87 21 88 22 90 23 91 34 92 24 93 33 94 25 95 26 96 27 97
REMARK SMILES IDX 28 98 29 99 32 100 30 101 31 102
REMARK H PARENT 3 6 91 24 59 35 8 76 21 89
REMARK Flexibility Score: inf
ROOT
ATOM      1  C   UNL A   1      36.346  23.685  24.436  1.00  0.00     0.023 C 
ENDROOT
BRANCH   1   2
ATOM      2  C   UNL A   1      36.698  23.456  25.898  1.00  0.00     0.116 C 
BRANCH   2   3
ATOM      3  N   UNL A   1      37.771  22.496  26.081  1.00  0.00    -0.352 N 
ATOM      4  O   UNL A   1      39.868  21.791  26.480  1.00  0.00    -0.269 OA
ATOM      5  C   UNL A   1      39.062  22.710  26.508  1.00  0.00     0.251 C 
ATOM      6  H   UNL A   1      37.546  21.562  25.869  1.00  0.00     0.163 HD
BRANCH   5   7
ATOM      7  C   UNL A   1      39.465  24.057  26.973  1.00  0.00     0.039 A 
ATOM      8  C   UNL A   1      39.299  24.431  28.309  1.00  0.00     0.014 A 
ATOM      9  C   UNL A   1      40.032  24.951  26.060  1.00  0.00     0.014 A 
ATOM     10  C   UNL A   1      39.590  25.730  28.707  1.00  0.00     0.010 A 
ATOM     11  C   UNL A   1      40.407  26.230  26.483  1.00  0.00     0.010 A 
ATOM     12  C   UNL A   1      40.179  26.634  27.807  1.00  0.00    -0.014 A 
BRANCH  12  13
ATOM     13  C   UNL A   1      40.684  27.934  28.315  1.00  0.00     0.031 A 
ATOM     14  C   UNL A   1      42.154  28.227  28.426  1.00  0.00     0.074 A 
ATOM     15  C   UNL A   1      39.776  28.852  28.707  1.00  0.00     0.049 A 
ATOM     16  N   UNL A   1      42.739  29.314  28.858  1.00  0.00    -0.248 NA
ATOM     17  C   UNL A   1      43.089  27.170  28.008  1.00  0.00     0.031 C 
ATOM     18  C   UNL A   1      38.323  28.654  28.693  1.00  0.00     0.029 A 
ATOM     19  N   UNL A   1      39.930  30.119  29.206  1.00  0.00    -0.354 N 
ATOM     20  C   UNL A   1      44.104  29.064  28.807  1.00  0.00     0.074 A 
ATOM     21  C   UNL A   1      44.264  27.720  28.291  1.00  0.00     0.031 C 
ATOM     22  C   UNL A   1      37.720  29.758  29.151  1.00  0.00     0.029 A 
ATOM     23  C   UNL A   1      38.740  30.717  29.555  1.00  0.00     0.049 A 
ATOM     24  H   UNL A   1      40.805  30.559  29.305  1.00  0.00     0.167 HD
ATOM     25  C   UNL A   1      45.124  29.883  29.155  1.00  0.00     0.034 A 
ATOM     26  C   UNL A   1      38.494  31.888  30.171  1.00  0.00     0.034 A 
ATOM     27  C   UNL A   1      44.952  31.229  29.641  1.00  0.00     0.049 A 
ATOM     28  C   UNL A   1      39.652  32.769  30.538  1.00  0.00     0.074 A 
ATOM     29  C   UNL A   1      45.929  32.169  29.927  1.00  0.00     0.029 A 
ATOM     30  N   UNL A   1      43.734  31.818  29.939  1.00  0.00    -0.354 N 
ATOM     31  N   UNL A   1      40.930  32.581  30.322  1.00  0.00    -0.248 NA
ATOM     32  C   UNL A   1      39.333  34.035  31.211  1.00  0.00     0.031 C 
ATOM     33  C   UNL A   1      45.303  33.308  30.442  1.00  0.00     0.029 A 
ATOM     34  C   UNL A   1      43.935  33.095  30.439  1.00  0.00     0.049 A 
ATOM     35  H   UNL A   1      42.855  31.393  29.814  1.00  0.00     0.167 HD
ATOM     36  C   UNL A   1      41.567  33.711  30.817  1.00  0.00     0.074 A 
ATOM     37  C   UNL A   1      40.529  34.597  31.304  1.00  0.00     0.031 C 
ATOM     38  C   UNL A   1      42.893  33.982  30.884  1.00  0.00     0.034 A 
BRANCH  25  39
ATOM     39  C   UNL A   1      46.537  29.378  29.016  1.00  0.00     0.023 A 
ATOM     40  C   UNL A   1      47.223  28.892  30.146  1.00  0.00     0.012 A 
ATOM     41  C   UNL A   1      47.129  29.257  27.742  1.00  0.00     0.148 A 
ATOM     42  C   UNL A   1      48.482  28.304  30.012  1.00  0.00     0.002 A 
ATOM     43  C   UNL A   1      48.363  28.633  27.612  1.00  0.00     0.091 A 
ATOM     44  F   UNL A   1      46.462  29.738  26.682  1.00  0.00    -0.205 F 
ATOM     45  C   UNL A   1      49.045  28.163  28.746  1.00  0.00     0.022 A 
BRANCH  43  46
ATOM     46  S   UNL A   1      49.136  28.325  26.018  1.00  0.00     0.127 S 
ATOM     47  O   UNL A   1      50.109  29.415  25.947  1.00  0.00    -0.237 OA
ATOM     48  O   UNL A   1      49.719  26.998  26.213  1.00  0.00    -0.237 OA
ATOM     49  O   UNL A   1      48.066  28.385  25.032  1.00  0.00    -0.744 OA
ENDBRANCH  43  46
ENDBRANCH  25  39
BRANCH  26  50
ATOM     50  C   UNL A   1      37.093  32.286  30.489  1.00  0.00     0.023 A 
ATOM     51  C   UNL A   1      36.574  32.053  31.776  1.00  0.00     0.012 A 
ATOM     52  C   UNL A   1      36.276  32.899  29.518  1.00  0.00     0.148 A 
ATOM     53  C   UNL A   1      35.252  32.384  32.077  1.00  0.00     0.002 A 
ATOM     54  C   UNL A   1      34.983  33.285  29.845  1.00  0.00     0.091 A 
ATOM     55  F   UNL A   1      36.783  33.099  28.293  1.00  0.00    -0.205 F 
ATOM     56  C   UNL A   1      34.460  33.008  31.116  1.00  0.00     0.022 A 
BRANCH  54  57
ATOM     57  S   UNL A   1      33.954  34.223  28.712  1.00  0.00     0.127 S 
ATOM     58  O   UNL A   1      33.625  33.219  27.704  1.00  0.00    -0.237 OA
ATOM     59  O   UNL A   1      32.839  34.622  29.572  1.00  0.00    -0.237 OA
ATOM     60  O   UNL A   1      34.783  35.333  28.261  1.00  0.00    -0.744 OA
ENDBRANCH  54  57
ENDBRANCH  26  50
BRANCH  38  61
ATOM     61  C   UNL A   1      43.298  35.300  31.490  1.00  0.00     0.023 A 
ATOM     62  C   UNL A   1      43.472  35.404  32.884  1.00  0.00     0.012 A 
ATOM     63  C   UNL A   1      43.559  36.418  30.674  1.00  0.00     0.148 A 
ATOM     64  C   UNL A   1      43.862  36.611  33.462  1.00  0.00     0.002 A 
ATOM     65  C   UNL A   1      43.999  37.602  31.250  1.00  0.00     0.091 A 
ATOM     66  F   UNL A   1      43.371  36.302  29.351  1.00  0.00    -0.205 F 
ATOM     67  C   UNL A   1      44.136  37.705  32.645  1.00  0.00     0.022 A 
BRANCH  65  68
ATOM     68  S   UNL A   1      44.466  39.036  30.276  1.00  0.00     0.127 S 
ATOM     69  O   UNL A   1      43.164  39.529  29.828  1.00  0.00    -0.237 OA
ATOM     70  O   UNL A   1      45.130  39.881  31.270  1.00  0.00    -0.237 OA
ATOM     71  O   UNL A   1      45.339  38.541  29.220  1.00  0.00    -0.744 OA
ENDBRANCH  65  68
ENDBRANCH  38  61
ENDBRANCH  12  13
ENDBRANCH   5   7
ENDBRANCH   2   3
ENDBRANCH   1   2
BRANCH   1  72
ATOM     72  C   UNL A   1      35.037  24.436  24.166  1.00  0.00     0.023 C 
BRANCH  72  73
ATOM     73  C   UNL A   1      33.867  23.600  23.621  1.00  0.00     0.116 C 
BRANCH  73  74
ATOM     74  N   UNL A   1      32.878  24.401  22.917  1.00  0.00    -0.356 N 
ATOM     75  C   UNL A   1      32.014  25.246  23.554  1.00  0.00     0.224 C 
ATOM     76  H   UNL A   1      32.830  24.330  21.937  1.00  0.00     0.163 HD
ATOM     77  O   UNL A   1      30.830  24.941  23.454  1.00  0.00    -0.275 OA
BRANCH  75  78
ATOM     78  C   UNL A   1      32.569  26.380  24.427  1.00  0.00     0.094 C 
ATOM     79  C   UNL A   1      32.440  27.920  24.119  1.00  0.00     0.002 C 
ATOM     80  C   UNL A   1      32.434  26.154  25.921  1.00  0.00     0.094 C 
ATOM     81  C   UNL A   1      31.539  28.784  25.061  1.00  0.00     0.005 C 
ATOM     82  C   UNL A   1      33.836  28.491  24.479  1.00  0.00     0.005 C 
ATOM     83  C   UNL A   1      32.883  27.459  26.652  1.00  0.00     0.002 C 
ATOM     84  C   UNL A   1      31.782  28.500  26.544  1.00  0.00     0.005 C 
ATOM     85  C   UNL A   1      34.140  28.094  25.952  1.00  0.00     0.005 C 
BRANCH  80  86
ATOM     86  C   UNL A   1      31.208  25.395  26.502  1.00  0.00     0.228 C 
ATOM     87  O   UNL A   1      30.213  26.095  26.767  1.00  0.00    -0.274 OA
ATOM     88  N   UNL A   1      30.990  24.051  26.612  1.00  0.00    -0.326 N 
ATOM     89  H   UNL A   1      30.051  23.854  26.832  1.00  0.00     0.169 HD
BRANCH  88  90
ATOM     90  C   UNL A   1      31.751  22.877  26.496  1.00  0.00     0.041 A 
ATOM     91  C   UNL A   1      31.302  21.894  25.614  1.00  0.00     0.027 A 
ATOM     92  C   UNL A   1      32.918  22.608  27.192  1.00  0.00     0.027 A 
ATOM     93  C   UNL A   1      32.160  20.849  25.224  1.00  0.00     0.016 A 
ATOM     94  C   UNL A   1      33.773  21.561  26.828  1.00  0.00     0.016 A 
ATOM     95  C   UNL A   1      33.458  20.739  25.756  1.00  0.00     0.040 A 
BRANCH  95  96
ATOM     96  C   UNL A   1      34.494  20.020  24.934  1.00  0.00     0.253 C 
ATOM     97  O   UNL A   1      35.656  20.427  24.987  1.00  0.00    -0.269 OA
ATOM     98  N   UNL A   1      34.213  18.776  24.391  1.00  0.00    -0.339 N 
ATOM     99  C   UNL A   1      33.099  18.323  23.578  1.00  0.00     0.120 C 
ATOM    100  C   UNL A   1      35.127  17.672  24.629  1.00  0.00     0.120 C 
ATOM    101  C   UNL A   1      32.904  16.899  24.072  1.00  0.00     0.023 C 
ATOM    102  C   UNL A   1      34.347  16.416  24.228  1.00  0.00     0.023 C 
ENDBRANCH  95  96
ENDBRANCH  88  90
ENDBRANCH  80  86
ENDBRANCH  75  78
ENDBRANCH  73  74
ENDBRANCH  72  73
ENDBRANCH   1  72
TORSDOF 17
ENDMDL
MODEL 2
REMARK VINA RESULT:     -13.1      1.251      1.433
REMARK SMILES O=C(NCCCCNC(=O)[C@H]1[C@H]2CC[C@H](CC2)[C@H]1C(=O)Nc1ccc(C(=O)N2CCCC2)cc1)c1ccc(-c2c3nc(c(-c4cccc(S(=O)(=O)[O-])c4F)c4ccc([nH]4)c(-c4cccc(S(=O)(=O)[O-])c4F)c4nc(c(-c5cccc(S(=O)(=O)[O-])c5F)c5ccc2[nH]5)C=C4)C=C3)cc1
REMARK SMILES IDX 5 1 4 2 3 3 1 4 2 5 35 7 36 8 97 9 37 10 96 11 38 12 39 13
REMARK SMILES IDX 40 14 90 15 41 16 95 17 89 18 91 19 42 20 94 21 88 22 87 23
REMARK SMILES IDX 43 25 75 26 55 27 74 28 56 29 59 30 73 31 92 32 57 33 58 34
REMARK SMILES IDX 72 36 93 37 60 38 44 39 45 40 53 41 46 42 48 43 54 44 47 45
REMARK SMILES IDX 49 46 50 47 51 48 52 49 76 50 77 51 85 52 78 53 80 54 86 55
REMARK SMILES IDX 79 56 81 57 82 58 83 59 84 60 61 61 62 62 70 63 63 64 65 65
REMARK SMILES IDX 71 66 64 67 66 68 67 69 68 70 69 71 6 72 7 73 8 74 9 75
REMARK SMILES IDX 10 77 11 78 12 79 18 80 17 81 13 82 15 83 16 84 14 85 19 86
REMARK SMILES IDX 20 87 21 88 22 90 23 91 34 92 24 93 33 94 25 95 26 96 27 97
REMARK SMILES IDX 28 98 29 99 32 100 30 101 31 102
REMARK H PARENT 3 6 91 24 59 35 8 76 21 89
REMARK Flexibility Score: inf
ROOT
ATOM      1  C   UNL A   1      36.388  23.534  24.285  1.00  0.00     0.023 C 
ENDROOT
BRANCH   1   2
ATOM      2  C   UNL A   1      36.801  23.441  25.745  1.00  0.00     0.116 C 
BRANCH   2   3
ATOM      3  N   UNL A   1      37.854  22.470  25.978  1.00  0.00    -0.352 N 
ATOM      4  O   UNL A   1      39.924  21.743  26.470  1.00  0.00    -0.269 OA
ATOM      5  C   UNL A   1      39.127  22.671  26.460  1.00  0.00     0.251 C 
ATOM      6  H   UNL A   1      37.628  21.537  25.759  1.00  0.00     0.163 HD
BRANCH   5   7
ATOM      7  C   UNL A   1      39.525  24.015  26.938  1.00  0.00     0.039 A 
ATOM      8  C   UNL A   1      39.355  24.376  28.277  1.00  0.00     0.014 A 
ATOM      9  C   UNL A   1      40.091  24.919  26.034  1.00  0.00     0.014 A 
ATOM     10  C   UNL A   1      39.641  25.673  28.687  1.00  0.00     0.010 A 
ATOM     11  C   UNL A   1      40.461  26.196  26.469  1.00  0.00     0.010 A 
ATOM     12  C   UNL A   1      40.229  26.587  27.797  1.00  0.00    -0.014 A 
BRANCH  12  13
ATOM     13  C   UNL A   1      40.729  27.884  28.317  1.00  0.00     0.031 A 
ATOM     14  C   UNL A   1      42.197  28.166  28.471  1.00  0.00     0.074 A 
ATOM     15  C   UNL A   1      39.817  28.810  28.680  1.00  0.00     0.049 A 
ATOM     16  N   UNL A   1      42.777  29.249  28.918  1.00  0.00    -0.248 NA
ATOM     17  C   UNL A   1      43.136  27.101  28.083  1.00  0.00     0.031 C 
ATOM     18  C   UNL A   1      38.363  28.622  28.623  1.00  0.00     0.029 A 
ATOM     19  N   UNL A   1      39.965  30.077  29.181  1.00  0.00    -0.354 N 
ATOM     20  C   UNL A   1      44.140  28.989  28.909  1.00  0.00     0.074 A 
ATOM     21  C   UNL A   1      44.306  27.643  28.400  1.00  0.00     0.031 C 
ATOM     22  C   UNL A   1      37.755  29.733  29.061  1.00  0.00     0.029 A 
ATOM     23  C   UNL A   1      38.770  30.684  29.493  1.00  0.00     0.049 A 
ATOM     24  H   UNL A   1      40.840  30.510  29.306  1.00  0.00     0.167 HD
ATOM     25  C   UNL A   1      45.157  29.801  29.286  1.00  0.00     0.034 A 
ATOM     26  C   UNL A   1      38.515  31.858  30.100  1.00  0.00     0.034 A 
ATOM     27  C   UNL A   1      44.980  31.149  29.764  1.00  0.00     0.049 A 
ATOM     28  C   UNL A   1      39.668  32.731  30.499  1.00  0.00     0.074 A 
ATOM     29  C   UNL A   1      45.955  32.082  30.077  1.00  0.00     0.029 A 
ATOM     30  N   UNL A   1      43.758  31.748  30.024  1.00  0.00    -0.354 N 
ATOM     31  N   UNL A   1      40.950  32.533  30.322  1.00  0.00    -0.248 NA
ATOM     32  C   UNL A   1      39.339  34.001  31.161  1.00  0.00     0.031 C 
ATOM     33  C   UNL A   1      45.324  33.226  30.572  1.00  0.00     0.029 A 
ATOM     34  C   UNL A   1      43.955  33.024  30.528  1.00  0.00     0.049 A 
ATOM     35  H   UNL A   1      42.881  31.329  29.874  1.00  0.00     0.167 HD
ATOM     36  C   UNL A   1      41.581  33.659  30.834  1.00  0.00     0.074 A 
ATOM     37  C   UNL A   1      40.536  34.554  31.288  1.00  0.00     0.031 C 
ATOM     38  C   UNL A   1      42.906  33.920  30.940  1.00  0.00     0.034 A 
BRANCH  25  39
ATOM     39  C   UNL A   1      46.569  29.284  29.190  1.00  0.00     0.023 A 
ATOM     40  C   UNL A   1      47.145  28.609  30.283  1.00  0.00     0.012 A 
ATOM     41  C   UNL A   1      47.270  29.348  27.967  1.00  0.00     0.148 A 
ATOM     42  C   UNL A   1      48.403  28.015  30.166  1.00  0.00     0.002 A 
ATOM     43  C   UNL A   1      48.502  28.718  27.847  1.00  0.00     0.091 A 
ATOM     44  F   UNL A   1      46.707  30.007  26.944  1.00  0.00    -0.205 F 
ATOM     45  C   UNL A   1      49.073  28.057  28.946  1.00  0.00     0.022 A 
BRANCH  43  46
ATOM     46  S   UNL A   1      49.408  28.641  26.296  1.00  0.00     0.127 S 
ATOM     47  O   UNL A   1      49.977  29.987  26.221  1.00  0.00    -0.237 OA
ATOM     48  O   UNL A   1      50.381  27.583  26.563  1.00  0.00    -0.237 OA
ATOM     49  O   UNL A   1      48.426  28.326  25.268  1.00  0.00    -0.744 OA
ENDBRANCH  43  46
ENDBRANCH  25  39
BRANCH  26  50
ATOM     50  C   UNL A   1      37.108  32.268  30.375  1.00  0.00     0.023 A 
ATOM     51  C   UNL A   1      36.538  32.010  31.635  1.00  0.00     0.012 A 
ATOM     52  C   UNL A   1      36.336  32.916  29.390  1.00  0.00     0.148 A 
ATOM     53  C   UNL A   1      35.210  32.351  31.895  1.00  0.00     0.002 A 
ATOM     54  C   UNL A   1      35.037  33.312  29.678  1.00  0.00     0.091 A 
ATOM     55  F   UNL A   1      36.892  33.140  28.191  1.00  0.00    -0.205 F 
ATOM     56  C   UNL A   1      34.463  33.010  30.922  1.00  0.00     0.022 A 
BRANCH  54  57
ATOM     57  S   UNL A   1      34.064  34.293  28.532  1.00  0.00     0.127 S 
ATOM     58  O   UNL A   1      33.887  33.365  27.418  1.00  0.00    -0.237 OA
ATOM     59  O   UNL A   1      32.853  34.559  29.311  1.00  0.00    -0.237 OA
ATOM     60  O   UNL A   1      34.865  35.477  28.255  1.00  0.00    -0.744 OA
ENDBRANCH  54  57
ENDBRANCH  26  50
BRANCH  38  61
ATOM     61  C   UNL A   1      43.304  35.236  31.556  1.00  0.00     0.023 A 
ATOM     62  C   UNL A   1      43.602  36.335  30.726  1.00  0.00     0.012 A 
ATOM     63  C   UNL A   1      43.329  35.398  32.955  1.00  0.00     0.148 A 
ATOM     64  C   UNL A   1      43.957  37.564  31.278  1.00  0.00     0.002 A 
ATOM     65  C   UNL A   1      43.631  36.640  33.498  1.00  0.00     0.091 A 
ATOM     66  F   UNL A   1      43.058  34.335  33.726  1.00  0.00    -0.205 F 
ATOM     67  C   UNL A   1      43.960  37.719  32.661  1.00  0.00     0.022 A 
BRANCH  65  68
ATOM     68  S   UNL A   1      43.570  36.963  35.263  1.00  0.00     0.127 S 
ATOM     69  O   UNL A   1      42.242  36.459  35.613  1.00  0.00    -0.237 OA
ATOM     70  O   UNL A   1      44.682  36.151  35.762  1.00  0.00    -0.237 OA
ATOM     71  O   UNL A   1      43.751  38.400  35.418  1.00  0.00    -0.744 OA
ENDBRANCH  65  68
ENDBRANCH  38  61
ENDBRANCH  12  13
ENDBRANCH   5   7
ENDBRANCH   2   3
ENDBRANCH   1   2
BRANCH   1  72
ATOM     72  C   UNL A   1      35.123  24.350  23.991  1.00  0.00     0.023 C 
BRANCH  72  73
ATOM     73  C   UNL A   1      33.867  23.553  23.604  1.00  0.00     0.116 C 
BRANCH  73  74
ATOM     74  N   UNL A   1      32.886  24.354  22.889  1.00  0.00    -0.356 N 
ATOM     75  C   UNL A   1      32.021  25.205  23.516  1.00  0.00     0.224 C 
ATOM     76  H   UNL A   1      32.843  24.278  21.909  1.00  0.00     0.163 HD
ATOM     77  O   UNL A   1      30.836  24.905  23.410  1.00  0.00    -0.275 OA
BRANCH  75  78
ATOM     78  C   UNL A   1      32.575  26.342  24.387  1.00  0.00     0.094 C 
ATOM     79  C   UNL A   1      32.452  27.881  24.070  1.00  0.00     0.002 C 
ATOM     80  C   UNL A   1      32.431  26.123  25.881  1.00  0.00     0.094 C 
ATOM     81  C   UNL A   1      31.550  28.753  25.003  1.00  0.00     0.005 C 
ATOM     82  C   UNL A   1      33.848  28.449  24.436  1.00  0.00     0.005 C 
ATOM     83  C   UNL A   1      32.881  27.430  26.608  1.00  0.00     0.002 C 
ATOM     84  C   UNL A   1      31.784  28.475  26.490  1.00  0.00     0.005 C 
ATOM     85  C   UNL A   1      34.143  28.058  25.912  1.00  0.00     0.005 C 
BRANCH  80  86
ATOM     86  C   UNL A   1      31.200  25.372  26.459  1.00  0.00     0.228 C 
ATOM     87  O   UNL A   1      30.205  26.076  26.713  1.00  0.00    -0.274 OA
ATOM     88  N   UNL A   1      30.978  24.029  26.576  1.00  0.00    -0.326 N 
ATOM     89  H   UNL A   1      30.037  23.836  26.792  1.00  0.00     0.169 HD
BRANCH  88  90
ATOM     90  C   UNL A   1      31.737  22.852  26.473  1.00  0.00     0.041 A 
ATOM     91  C   UNL A   1      31.275  21.851  25.619  1.00  0.00     0.027 A 
ATOM     92  C   UNL A   1      32.915  22.597  27.156  1.00  0.00     0.027 A 
ATOM     93  C   UNL A   1      32.126  20.798  25.238  1.00  0.00     0.016 A 
ATOM     94  C   UNL A   1      33.764  21.542  26.801  1.00  0.00     0.016 A 
ATOM     95  C   UNL A   1      33.432  20.698  25.752  1.00  0.00     0.040 A 
BRANCH  95  96
ATOM     96  C   UNL A   1      34.455  19.962  24.929  1.00  0.00     0.253 C 
ATOM     97  O   UNL A   1      35.621  20.361  24.967  1.00  0.00    -0.269 OA
ATOM     98  N   UNL A   1      34.160  18.713  24.405  1.00  0.00    -0.339 N 
ATOM     99  C   UNL A   1      33.036  18.259  23.607  1.00  0.00     0.120 C 
ATOM    100  C   UNL A   1      35.069  17.606  24.647  1.00  0.00     0.120 C 
ATOM    101  C   UNL A   1      32.835  16.842  24.121  1.00  0.00     0.023 C 
ATOM    102  C   UNL A   1      34.276  16.351  24.268  1.00  0.00     0.023 C 
ENDBRANCH  95  96
ENDBRANCH  88  90
ENDBRANCH  80  86
ENDBRANCH  75  78
ENDBRANCH  73  74
ENDBRANCH  72  73
ENDBRANCH   1  72
TORSDOF 17
ENDMDL
MODEL 3
REMARK VINA RESULT:     -13.1      5.316      7.838
REMARK SMILES O=C(NCCCCNC(=O)[C@H]1[C@H]2CC[C@H](CC2)[C@H]1C(=O)Nc1ccc(C(=O)N2CCCC2)cc1)c1ccc(-c2c3nc(c(-c4cccc(S(=O)(=O)[O-])c4F)c4ccc([nH]4)c(-c4cccc(S(=O)(=O)[O-])c4F)c4nc(c(-c5cccc(S(=O)(=O)[O-])c5F)c5ccc2[nH]5)C=C4)C=C3)cc1
REMARK SMILES IDX 5 1 4 2 3 3 1 4 2 5 35 7 36 8 97 9 37 10 96 11 38 12 39 13
REMARK SMILES IDX 40 14 90 15 41 16 95 17 89 18 91 19 42 20 94 21 88 22 87 23
REMARK SMILES IDX 43 25 75 26 55 27 74 28 56 29 59 30 73 31 92 32 57 33 58 34
REMARK SMILES IDX 72 36 93 37 60 38 44 39 45 40 53 41 46 42 48 43 54 44 47 45
REMARK SMILES IDX 49 46 50 47 51 48 52 49 76 50 77 51 85 52 78 53 80 54 86 55
REMARK SMILES IDX 79 56 81 57 82 58 83 59 84 60 61 61 62 62 70 63 63 64 65 65
REMARK SMILES IDX 71 66 64 67 66 68 67 69 68 70 69 71 6 72 7 73 8 74 9 75
REMARK SMILES IDX 10 77 11 78 12 79 18 80 17 81 13 82 15 83 16 84 14 85 19 86
REMARK SMILES IDX 20 87 21 88 22 90 23 91 34 92 24 93 33 94 25 95 26 96 27 97
REMARK SMILES IDX 28 98 29 99 32 100 30 101 31 102
REMARK H PARENT 3 6 91 24 59 35 8 76 21 89
REMARK Flexibility Score: inf
ROOT
ATOM      1  C   UNL A   1      31.465  32.456  26.690  1.00  0.00     0.023 C 
ENDROOT
BRANCH   1   2
ATOM      2  C   UNL A   1      32.763  33.014  27.253  1.00  0.00     0.116 C 
BRANCH   2   3
ATOM      3  N   UNL A   1      32.611  34.338  27.827  1.00  0.00    -0.352 N 
ATOM      4  O   UNL A   1      32.950  36.006  29.296  1.00  0.00    -0.269 OA
ATOM      5  C   UNL A   1      33.306  34.919  28.864  1.00  0.00     0.251 C 
ATOM      6  H   UNL A   1      31.912  34.900  27.420  1.00  0.00     0.163 HD
BRANCH   5   7
ATOM      7  C   UNL A   1      34.460  34.208  29.460  1.00  0.00     0.039 A 
ATOM      8  C   UNL A   1      35.766  34.510  29.065  1.00  0.00     0.014 A 
ATOM      9  C   UNL A   1      34.230  33.238  30.440  1.00  0.00     0.014 A 
ATOM     10  C   UNL A   1      36.829  33.765  29.562  1.00  0.00     0.010 A 
ATOM     11  C   UNL A   1      35.309  32.550  31.003  1.00  0.00     0.010 A 
ATOM     12  C   UNL A   1      36.617  32.801  30.560  1.00  0.00    -0.014 A 
BRANCH  12  13
ATOM     13  C   UNL A   1      37.790  32.183  31.230  1.00  0.00     0.031 A 
ATOM     14  C   UNL A   1      38.554  31.049  30.609  1.00  0.00     0.074 A 
ATOM     15  C   UNL A   1      38.142  32.657  32.444  1.00  0.00     0.049 A 
ATOM     16  N   UNL A   1      39.591  30.409  31.081  1.00  0.00    -0.248 NA
ATOM     17  C   UNL A   1      38.098  30.563  29.296  1.00  0.00     0.031 C 
ATOM     18  C   UNL A   1      37.436  33.721  33.166  1.00  0.00     0.029 A 
ATOM     19  N   UNL A   1      39.158  32.302  33.292  1.00  0.00    -0.354 N 
ATOM     20  C   UNL A   1      39.889  29.419  30.153  1.00  0.00     0.074 A 
ATOM     21  C   UNL A   1      38.927  29.548  29.079  1.00  0.00     0.031 C 
ATOM     22  C   UNL A   1      38.045  33.938  34.340  1.00  0.00     0.029 A 
ATOM     23  C   UNL A   1      39.138  32.987  34.485  1.00  0.00     0.049 A 
ATOM     24  H   UNL A   1      39.836  31.623  33.070  1.00  0.00     0.167 HD
ATOM     25  C   UNL A   1      40.878  28.494  30.196  1.00  0.00     0.034 A 
ATOM     26  C   UNL A   1      39.887  32.840  35.594  1.00  0.00     0.034 A 
ATOM     27  C   UNL A   1      41.848  28.394  31.257  1.00  0.00     0.049 A 
ATOM     28  C   UNL A   1      40.975  31.807  35.600  1.00  0.00     0.074 A 
ATOM     29  C   UNL A   1      42.945  27.553  31.339  1.00  0.00     0.029 A 
ATOM     30  N   UNL A   1      41.825  29.134  32.428  1.00  0.00    -0.354 N 
ATOM     31  N   UNL A   1      41.346  30.997  34.640  1.00  0.00    -0.248 NA
ATOM     32  C   UNL A   1      41.763  31.682  36.834  1.00  0.00     0.031 C 
ATOM     33  C   UNL A   1      43.557  27.751  32.580  1.00  0.00     0.029 A 
ATOM     34  C   UNL A   1      42.867  28.744  33.254  1.00  0.00     0.049 A 
ATOM     35  H   UNL A   1      41.167  29.833  32.642  1.00  0.00     0.167 HD
ATOM     36  C   UNL A   1      42.421  30.279  35.146  1.00  0.00     0.074 A 
ATOM     37  C   UNL A   1      42.668  30.781  36.482  1.00  0.00     0.031 C 
ATOM     38  C   UNL A   1      43.126  29.278  34.566  1.00  0.00     0.034 A 
BRANCH  25  39
ATOM     39  C   UNL A   1      40.997  27.511  29.061  1.00  0.00     0.023 A 
ATOM     40  C   UNL A   1      40.141  26.394  29.007  1.00  0.00     0.012 A 
ATOM     41  C   UNL A   1      41.862  27.772  27.978  1.00  0.00     0.148 A 
ATOM     42  C   UNL A   1      40.152  25.545  27.900  1.00  0.00     0.002 A 
ATOM     43  C   UNL A   1      41.837  26.946  26.861  1.00  0.00     0.091 A 
ATOM     44  F   UNL A   1      42.677  28.834  28.056  1.00  0.00    -0.205 F 
ATOM     45  C   UNL A   1      40.988  25.828  26.823  1.00  0.00     0.022 A 
BRANCH  43  46
ATOM     46  S   UNL A   1      42.813  27.272  25.387  1.00  0.00     0.127 S 
ATOM     47  O   UNL A   1      42.614  26.040  24.624  1.00  0.00    -0.237 OA
ATOM     48  O   UNL A   1      42.145  28.448  24.832  1.00  0.00    -0.237 OA
ATOM     49  O   UNL A   1      44.176  27.501  25.847  1.00  0.00    -0.744 OA
ENDBRANCH  43  46
ENDBRANCH  25  39
BRANCH  26  50
ATOM     50  C   UNL A   1      39.624  33.687  36.792  1.00  0.00     0.023 A 
ATOM     51  C   UNL A   1      40.032  35.034  36.800  1.00  0.00     0.012 A 
ATOM     52  C   UNL A   1      38.966  33.161  37.922  1.00  0.00     0.148 A 
ATOM     53  C   UNL A   1      39.829  35.829  37.929  1.00  0.00     0.002 A 
ATOM     54  C   UNL A   1      38.708  33.977  39.015  1.00  0.00     0.091 A 
ATOM     55  F   UNL A   1      38.598  31.872  37.902  1.00  0.00    -0.205 F 
ATOM     56  C   UNL A   1      39.160  35.304  39.031  1.00  0.00     0.022 A 
BRANCH  54  57
ATOM     57  S   UNL A   1      37.725  33.418  40.410  1.00  0.00     0.127 S 
ATOM     58  O   UNL A   1      37.635  34.631  41.218  1.00  0.00    -0.237 OA
ATOM     59  O   UNL A   1      36.476  33.016  39.760  1.00  0.00    -0.237 OA
ATOM     60  O   UNL A   1      38.472  32.314  40.996  1.00  0.00    -0.744 OA
ENDBRANCH  54  57
ENDBRANCH  26  50
BRANCH  38  61
ATOM     61  C   UNL A   1      44.247  28.669  35.367  1.00  0.00     0.023 A 
ATOM     62  C   UNL A   1      45.560  29.160  35.219  1.00  0.00     0.012 A 
ATOM     63  C   UNL A   1      43.991  27.649  36.304  1.00  0.00     0.148 A 
ATOM     64  C   UNL A   1      46.607  28.619  35.963  1.00  0.00     0.002 A 
ATOM     65  C   UNL A   1      45.029  27.152  37.081  1.00  0.00     0.091 A 
ATOM     66  F   UNL A   1      42.738  27.185  36.417  1.00  0.00    -0.205 F 
ATOM     67  C   UNL A   1      46.340  27.625  36.900  1.00  0.00     0.022 A 
BRANCH  65  68
ATOM     68  S   UNL A   1      44.770  25.938  38.378  1.00  0.00     0.127 S 
ATOM     69  O   UNL A   1      44.270  24.793  37.619  1.00  0.00    -0.237 OA
ATOM     70  O   UNL A   1      46.121  25.771  38.917  1.00  0.00    -0.237 OA
ATOM     71  O   UNL A   1      43.817  26.534  39.305  1.00  0.00    -0.744 OA
ENDBRANCH  65  68
ENDBRANCH  38  61
ENDBRANCH  12  13
ENDBRANCH   5   7
ENDBRANCH   2   3
ENDBRANCH   1   2
BRANCH   1  72
ATOM     72  C   UNL A   1      31.379  30.929  26.578  1.00  0.00     0.023 C 
BRANCH  72  73
ATOM     73  C   UNL A   1      32.711  30.177  26.424  1.00  0.00     0.116 C 
BRANCH  73  74
ATOM     74  N   UNL A   1      32.712  28.883  27.089  1.00  0.00    -0.356 N 
ATOM     75  C   UNL A   1      31.707  27.969  26.939  1.00  0.00     0.224 C 
ATOM     76  H   UNL A   1      33.470  28.657  27.674  1.00  0.00     0.163 HD
ATOM     77  O   UNL A   1      31.078  27.725  27.963  1.00  0.00    -0.275 OA
BRANCH  75  78
ATOM     78  C   UNL A   1      31.362  27.446  25.537  1.00  0.00     0.094 C 
ATOM     79  C   UNL A   1      31.144  28.338  24.256  1.00  0.00     0.002 C 
ATOM     80  C   UNL A   1      32.079  26.168  25.144  1.00  0.00     0.094 C 
ATOM     81  C   UNL A   1      32.197  28.239  23.105  1.00  0.00     0.005 C 
ATOM     82  C   UNL A   1      29.918  27.693  23.558  1.00  0.00     0.005 C 
ATOM     83  C   UNL A   1      31.753  25.872  23.646  1.00  0.00     0.002 C 
ATOM     84  C   UNL A   1      32.572  26.796  22.760  1.00  0.00     0.005 C 
ATOM     85  C   UNL A   1      30.249  26.192  23.320  1.00  0.00     0.005 C 
BRANCH  80  86
ATOM     86  C   UNL A   1      33.528  25.888  25.629  1.00  0.00     0.228 C 
ATOM     87  O   UNL A   1      34.200  26.891  25.937  1.00  0.00    -0.274 OA
ATOM     88  N   UNL A   1      34.129  24.700  25.932  1.00  0.00    -0.326 N 
ATOM     89  H   UNL A   1      34.983  24.836  26.402  1.00  0.00     0.169 HD
BRANCH  88  90
ATOM     90  C   UNL A   1      33.851  23.335  25.750  1.00  0.00     0.041 A 
ATOM     91  C   UNL A   1      32.542  22.903  25.957  1.00  0.00     0.027 A 
ATOM     92  C   UNL A   1      34.778  22.373  25.381  1.00  0.00     0.027 A 
ATOM     93  C   UNL A   1      32.136  21.635  25.501  1.00  0.00     0.016 A 
ATOM     94  C   UNL A   1      34.390  21.102  24.943  1.00  0.00     0.016 A 
ATOM     95  C   UNL A   1      33.047  20.759  24.884  1.00  0.00     0.040 A 
BRANCH  95  96
ATOM     96  C   UNL A   1      32.498  19.732  23.932  1.00  0.00     0.253 C 
ATOM     97  O   UNL A   1      32.081  20.124  22.840  1.00  0.00    -0.269 OA
ATOM     98  N   UNL A   1      32.737  18.384  24.147  1.00  0.00    -0.339 N 
ATOM     99  C   UNL A   1      32.532  17.557  25.322  1.00  0.00     0.120 C 
ATOM    100  C   UNL A   1      33.292  17.579  23.072  1.00  0.00     0.120 C 
ATOM    101  C   UNL A   1      33.707  16.597  25.243  1.00  0.00     0.023 C 
ATOM    102  C   UNL A   1      33.764  16.287  23.747  1.00  0.00     0.023 C 
ENDBRANCH  95  96
ENDBRANCH  88  90
ENDBRANCH  80  86
ENDBRANCH  75  78
ENDBRANCH  73  74
ENDBRANCH  72  73
ENDBRANCH   1  72
TORSDOF 17
ENDMDL
