MODEL 1
REMARK VINA RESULT:     -12.3      0.000      0.000
REMARK SMILES O=C(NCCCCNC(=O)[C@@H]1[C@H](C(=O)NCc2ccncc2)[C@H]2C=C[C@@H]1O2)c1ccc(-c2c3nc(c(-c4cccc(S(=O)(=O)[O-])c4F)c4ccc([nH]4)c(-c4cccc(S(=O)(=O)[O-])c4F)c4nc(c(-c5cccc(S(=O)(=O)[O-])c5F)c5ccc2[nH]5)C=C4)C=C3)cc1
REMARK SMILES IDX 5 1 4 2 3 3 1 4 2 5 28 7 29 8 90 9 30 10 89 11 31 12 32 13
REMARK SMILES IDX 33 14 83 15 34 16 88 17 82 18 84 19 35 20 87 21 81 22 80 23
REMARK SMILES IDX 36 25 68 26 48 27 67 28 49 29 52 30 66 31 85 32 50 33 51 34
REMARK SMILES IDX 65 36 86 37 53 38 37 39 38 40 46 41 39 42 41 43 47 44 40 45
REMARK SMILES IDX 42 46 43 47 44 48 45 49 69 50 70 51 78 52 71 53 73 54 79 55
REMARK SMILES IDX 72 56 74 57 75 58 76 59 77 60 54 61 55 62 63 63 56 64 58 65
REMARK SMILES IDX 64 66 57 67 59 68 60 69 61 70 62 71 6 72 7 73 8 74 9 75
REMARK SMILES IDX 10 77 11 78 12 79 26 80 23 81 25 82 27 83 24 84 13 85 14 86
REMARK SMILES IDX 15 87 16 89 17 90 18 91 22 92 19 93 21 94 20 95
REMARK H PARENT 3 6 84 24 52 35 8 76 15 88
REMARK Flexibility Score: inf
ROOT
ATOM      1  C   UNL A   1      32.903  27.665  25.513  1.00  0.00     0.023 C 
ENDROOT
BRANCH   1   2
ATOM      2  C   UNL A   1      33.481  28.984  25.011  1.00  0.00     0.116 C 
BRANCH   2   3
ATOM      3  N   UNL A   1      32.838  30.140  25.615  1.00  0.00    -0.352 N 
ATOM      4  O   UNL A   1      32.353  31.672  27.184  1.00  0.00    -0.269 OA
ATOM      5  C   UNL A   1      33.154  30.842  26.756  1.00  0.00     0.251 C 
ATOM      6  H   UNL A   1      32.049  30.474  25.130  1.00  0.00     0.163 HD
BRANCH   5   7
ATOM      7  C   UNL A   1      34.419  30.586  27.485  1.00  0.00     0.039 A 
ATOM      8  C   UNL A   1      34.713  29.324  28.001  1.00  0.00     0.014 A 
ATOM      9  C   UNL A   1      35.352  31.621  27.625  1.00  0.00     0.014 A 
ATOM     10  C   UNL A   1      35.839  29.142  28.796  1.00  0.00     0.010 A 
ATOM     11  C   UNL A   1      36.539  31.407  28.339  1.00  0.00     0.010 A 
ATOM     12  C   UNL A   1      36.777  30.174  28.964  1.00  0.00    -0.014 A 
BRANCH  12  13
ATOM     13  C   UNL A   1      38.026  29.893  29.722  1.00  0.00     0.031 A 
ATOM     14  C   UNL A   1      38.259  30.441  31.105  1.00  0.00     0.074 A 
ATOM     15  C   UNL A   1      38.952  29.092  29.155  1.00  0.00     0.049 A 
ATOM     16  N   UNL A   1      39.253  30.201  31.924  1.00  0.00    -0.248 NA
ATOM     17  C   UNL A   1      37.264  31.385  31.635  1.00  0.00     0.031 C 
ATOM     18  C   UNL A   1      38.874  28.556  27.792  1.00  0.00     0.029 A 
ATOM     19  N   UNL A   1      40.125  28.578  29.645  1.00  0.00    -0.354 N 
ATOM     20  C   UNL A   1      39.017  30.974  33.055  1.00  0.00     0.074 A 
ATOM     21  C   UNL A   1      37.796  31.712  32.808  1.00  0.00     0.031 C 
ATOM     22  C   UNL A   1      39.928  27.758  27.572  1.00  0.00     0.029 A 
ATOM     23  C   UNL A   1      40.779  27.758  28.755  1.00  0.00     0.049 A 
ATOM     24  H   UNL A   1      40.465  28.776  30.547  1.00  0.00     0.167 HD
ATOM     25  C   UNL A   1      39.736  31.044  34.201  1.00  0.00     0.034 A 
ATOM     26  C   UNL A   1      41.936  27.079  28.873  1.00  0.00     0.034 A 
ATOM     27  C   UNL A   1      40.935  30.286  34.456  1.00  0.00     0.049 A 
ATOM     28  C   UNL A   1      42.681  27.134  30.176  1.00  0.00     0.074 A 
ATOM     29  C   UNL A   1      41.709  30.260  35.603  1.00  0.00     0.029 A 
ATOM     30  N   UNL A   1      41.533  29.421  33.553  1.00  0.00    -0.354 N 
ATOM     31  N   UNL A   1      42.366  27.769  31.279  1.00  0.00    -0.248 NA
ATOM     32  C   UNL A   1      43.921  26.353  30.262  1.00  0.00     0.031 C 
ATOM     33  C   UNL A   1      42.781  29.385  35.391  1.00  0.00     0.029 A 
ATOM     34  C   UNL A   1      42.667  28.855  34.117  1.00  0.00     0.049 A 
ATOM     35  H   UNL A   1      41.202  29.234  32.645  1.00  0.00     0.167 HD
ATOM     36  C   UNL A   1      43.363  27.456  32.193  1.00  0.00     0.074 A 
ATOM     37  C   UNL A   1      44.266  26.538  31.530  1.00  0.00     0.031 C 
ATOM     38  C   UNL A   1      43.534  27.912  33.459  1.00  0.00     0.034 A 
BRANCH  25  39
ATOM     39  C   UNL A   1      39.218  31.929  35.308  1.00  0.00     0.023 A 
ATOM     40  C   UNL A   1      38.268  31.412  36.213  1.00  0.00     0.012 A 
ATOM     41  C   UNL A   1      39.731  33.226  35.512  1.00  0.00     0.148 A 
ATOM     42  C   UNL A   1      37.821  32.176  37.289  1.00  0.00     0.002 A 
ATOM     43  C   UNL A   1      39.307  33.968  36.610  1.00  0.00     0.091 A 
ATOM     44  F   UNL A   1      40.621  33.708  34.633  1.00  0.00    -0.205 F 
ATOM     45  C   UNL A   1      38.348  33.447  37.495  1.00  0.00     0.022 A 
BRANCH  43  46
ATOM     46  S   UNL A   1      39.976  35.589  37.007  1.00  0.00     0.127 S 
ATOM     47  O   UNL A   1      39.277  35.899  38.253  1.00  0.00    -0.237 OA
ATOM     48  O   UNL A   1      41.402  35.304  37.164  1.00  0.00    -0.237 OA
ATOM     49  O   UNL A   1      39.648  36.447  35.877  1.00  0.00    -0.744 OA
ENDBRANCH  43  46
ENDBRANCH  25  39
BRANCH  26  50
ATOM     50  C   UNL A   1      42.426  26.253  27.734  1.00  0.00     0.023 A 
ATOM     51  C   UNL A   1      43.398  26.773  26.860  1.00  0.00     0.012 A 
ATOM     52  C   UNL A   1      41.967  24.935  27.544  1.00  0.00     0.148 A 
ATOM     53  C   UNL A   1      43.883  26.006  25.799  1.00  0.00     0.002 A 
ATOM     54  C   UNL A   1      42.502  24.154  26.528  1.00  0.00     0.091 A 
ATOM     55  F   UNL A   1      41.025  24.461  28.373  1.00  0.00    -0.205 F 
ATOM     56  C   UNL A   1      43.446  24.692  25.642  1.00  0.00     0.022 A 
BRANCH  54  57
ATOM     57  S   UNL A   1      42.102  22.410  26.371  1.00  0.00     0.127 S 
ATOM     58  O   UNL A   1      42.836  22.040  25.165  1.00  0.00    -0.237 OA
ATOM     59  O   UNL A   1      42.639  21.854  27.614  1.00  0.00    -0.237 OA
ATOM     60  O   UNL A   1      40.648  22.360  26.279  1.00  0.00    -0.744 OA
ENDBRANCH  54  57
ENDBRANCH  26  50
BRANCH  38  61
ATOM     61  C   UNL A   1      44.747  27.422  34.205  1.00  0.00     0.023 A 
ATOM     62  C   UNL A   1      45.937  28.176  34.159  1.00  0.00     0.012 A 
ATOM     63  C   UNL A   1      44.703  26.244  34.975  1.00  0.00     0.148 A 
ATOM     64  C   UNL A   1      47.078  27.743  34.834  1.00  0.00     0.002 A 
ATOM     65  C   UNL A   1      45.831  25.842  35.681  1.00  0.00     0.091 A 
ATOM     66  F   UNL A   1      43.569  25.529  34.989  1.00  0.00    -0.205 F 
ATOM     67  C   UNL A   1      47.022  26.582  35.602  1.00  0.00     0.022 A 
BRANCH  65  68
ATOM     68  S   UNL A   1      45.821  24.406  36.759  1.00  0.00     0.127 S 
ATOM     69  O   UNL A   1      47.248  24.126  36.899  1.00  0.00    -0.237 OA
ATOM     70  O   UNL A   1      45.181  24.924  37.970  1.00  0.00    -0.237 OA
ATOM     71  O   UNL A   1      45.044  23.392  36.057  1.00  0.00    -0.744 OA
ENDBRANCH  65  68
ENDBRANCH  38  61
ENDBRANCH  12  13
ENDBRANCH   5   7
ENDBRANCH   2   3
ENDBRANCH   1   2
BRANCH   1  72
ATOM     72  C   UNL A   1      33.522  26.407  24.895  1.00  0.00     0.023 C 
BRANCH  72  73
ATOM     73  C   UNL A   1      33.214  25.100  25.626  1.00  0.00     0.116 C 
BRANCH  73  74
ATOM     74  N   UNL A   1      32.476  24.156  24.816  1.00  0.00    -0.356 N 
ATOM     75  C   UNL A   1      32.855  23.009  24.202  1.00  0.00     0.227 C 
ATOM     76  H   UNL A   1      31.529  24.389  24.688  1.00  0.00     0.163 HD
ATOM     77  O   UNL A   1      31.957  22.409  23.604  1.00  0.00    -0.275 OA
BRANCH  75  78
ATOM     78  C   UNL A   1      34.295  22.572  24.045  1.00  0.00     0.127 C 
ATOM     79  C   UNL A   1      34.704  21.346  24.922  1.00  0.00     0.127 C 
ATOM     80  C   UNL A   1      35.490  23.507  24.291  1.00  0.00     0.155 C 
ATOM     81  C   UNL A   1      36.108  21.735  25.390  1.00  0.00     0.155 C 
ATOM     82  C   UNL A   1      36.673  22.949  23.544  1.00  0.00     0.004 C 
ATOM     83  O   UNL A   1      35.912  23.150  25.631  1.00  0.00    -0.365 OA
ATOM     84  C   UNL A   1      37.041  21.845  24.212  1.00  0.00     0.004 C 
BRANCH  79  85
ATOM     85  C   UNL A   1      33.838  20.857  26.083  1.00  0.00     0.227 C 
ATOM     86  O   UNL A   1      33.862  21.506  27.139  1.00  0.00    -0.275 OA
ATOM     87  N   UNL A   1      32.979  19.808  26.055  1.00  0.00    -0.352 N 
ATOM     88  H   UNL A   1      32.591  19.599  26.935  1.00  0.00     0.163 HD
BRANCH  87  89
ATOM     89  C   UNL A   1      32.516  18.932  25.001  1.00  0.00     0.151 C 
BRANCH  89  90
ATOM     90  C   UNL A   1      33.172  17.574  25.048  1.00  0.00    -0.026 A 
ATOM     91  C   UNL A   1      32.441  16.459  25.467  1.00  0.00     0.025 A 
ATOM     92  C   UNL A   1      34.523  17.391  24.745  1.00  0.00     0.025 A 
ATOM     93  C   UNL A   1      33.082  15.243  25.620  1.00  0.00     0.111 A 
ATOM     94  C   UNL A   1      35.078  16.130  24.918  1.00  0.00     0.111 A 
ATOM     95  N   UNL A   1      34.391  15.060  25.372  1.00  0.00    -0.265 NA
ENDBRANCH  89  90
ENDBRANCH  87  89
ENDBRANCH  79  85
ENDBRANCH  75  78
ENDBRANCH  73  74
ENDBRANCH  72  73
ENDBRANCH   1  72
TORSDOF 17
ENDMDL
MODEL 2
REMARK VINA RESULT:     -12.2      5.283     10.448
REMARK SMILES O=C(NCCCCNC(=O)[C@@H]1[C@H](C(=O)NCc2ccncc2)[C@H]2C=C[C@@H]1O2)c1ccc(-c2c3nc(c(-c4cccc(S(=O)(=O)[O-])c4F)c4ccc([nH]4)c(-c4cccc(S(=O)(=O)[O-])c4F)c4nc(c(-c5cccc(S(=O)(=O)[O-])c5F)c5ccc2[nH]5)C=C4)C=C3)cc1
REMARK SMILES IDX 5 1 4 2 3 3 1 4 2 5 28 7 29 8 90 9 30 10 89 11 31 12 32 13
REMARK SMILES IDX 33 14 83 15 34 16 88 17 82 18 84 19 35 20 87 21 81 22 80 23
REMARK SMILES IDX 36 25 68 26 48 27 67 28 49 29 52 30 66 31 85 32 50 33 51 34
REMARK SMILES IDX 65 36 86 37 53 38 37 39 38 40 46 41 39 42 41 43 47 44 40 45
REMARK SMILES IDX 42 46 43 47 44 48 45 49 69 50 70 51 78 52 71 53 73 54 79 55
REMARK SMILES IDX 72 56 74 57 75 58 76 59 77 60 54 61 55 62 63 63 56 64 58 65
REMARK SMILES IDX 64 66 57 67 59 68 60 69 61 70 62 71 6 72 7 73 8 74 9 75
REMARK SMILES IDX 10 77 11 78 12 79 26 80 23 81 25 82 27 83 24 84 13 85 14 86
REMARK SMILES IDX 15 87 16 89 17 90 18 91 22 92 19 93 21 94 20 95
REMARK H PARENT 3 6 84 24 52 35 8 76 15 88
REMARK Flexibility Score: inf
ROOT
ATOM      1  C   UNL A   1      35.017  21.948  26.039  1.00  0.00     0.023 C 
ENDROOT
BRANCH   1   2
ATOM      2  C   UNL A   1      36.429  22.514  25.923  1.00  0.00     0.116 C 
BRANCH   2   3
ATOM      3  N   UNL A   1      37.447  21.476  25.913  1.00  0.00    -0.352 N 
ATOM      4  O   UNL A   1      39.504  20.576  25.877  1.00  0.00    -0.269 OA
ATOM      5  C   UNL A   1      38.805  21.558  26.125  1.00  0.00     0.251 C 
ATOM      6  H   UNL A   1      37.111  20.570  25.726  1.00  0.00     0.163 HD
BRANCH   5   7
ATOM      7  C   UNL A   1      39.430  22.811  26.609  1.00  0.00     0.039 A 
ATOM      8  C   UNL A   1      39.042  24.052  26.105  1.00  0.00     0.014 A 
ATOM      9  C   UNL A   1      40.400  22.751  27.617  1.00  0.00     0.014 A 
ATOM     10  C   UNL A   1      39.735  25.201  26.474  1.00  0.00     0.010 A 
ATOM     11  C   UNL A   1      41.025  23.922  28.065  1.00  0.00     0.010 A 
ATOM     12  C   UNL A   1      40.725  25.156  27.470  1.00  0.00    -0.014 A 
BRANCH  12  13
ATOM     13  C   UNL A   1      41.351  26.430  27.918  1.00  0.00     0.031 A 
ATOM     14  C   UNL A   1      42.775  26.779  27.578  1.00  0.00     0.074 A 
ATOM     15  C   UNL A   1      40.596  27.302  28.617  1.00  0.00     0.049 A 
ATOM     16  N   UNL A   1      43.424  27.892  27.814  1.00  0.00    -0.248 NA
ATOM     17  C   UNL A   1      43.581  25.753  26.899  1.00  0.00     0.031 C 
ATOM     18  C   UNL A   1      39.225  27.049  29.069  1.00  0.00     0.029 A 
ATOM     19  N   UNL A   1      40.860  28.573  29.059  1.00  0.00    -0.354 N 
ATOM     20  C   UNL A   1      44.714  27.698  27.334  1.00  0.00     0.074 A 
ATOM     21  C   UNL A   1      44.765  26.348  26.813  1.00  0.00     0.031 C 
ATOM     22  C   UNL A   1      38.755  28.142  29.686  1.00  0.00     0.029 A 
ATOM     23  C   UNL A   1      39.800  29.158  29.713  1.00  0.00     0.049 A 
ATOM     24  H   UNL A   1      41.724  29.024  28.920  1.00  0.00     0.167 HD
ATOM     25  C   UNL A   1      45.751  28.570  27.307  1.00  0.00     0.034 A 
ATOM     26  C   UNL A   1      39.678  30.375  30.275  1.00  0.00     0.034 A 
ATOM     27  C   UNL A   1      45.688  29.922  27.799  1.00  0.00     0.049 A 
ATOM     28  C   UNL A   1      40.827  31.338  30.180  1.00  0.00     0.074 A 
ATOM     29  C   UNL A   1      46.675  30.893  27.778  1.00  0.00     0.029 A 
ATOM     30  N   UNL A   1      44.579  30.497  28.401  1.00  0.00    -0.354 N 
ATOM     31  N   UNL A   1      41.993  31.175  29.603  1.00  0.00    -0.248 NA
ATOM     32  C   UNL A   1      40.632  32.662  30.783  1.00  0.00     0.031 C 
ATOM     33  C   UNL A   1      46.166  32.052  28.374  1.00  0.00     0.029 A 
ATOM     34  C   UNL A   1      44.856  31.809  28.754  1.00  0.00     0.049 A 
ATOM     35  H   UNL A   1      43.720  30.041  28.554  1.00  0.00     0.167 HD
ATOM     36  C   UNL A   1      42.666  32.378  29.763  1.00  0.00     0.074 A 
ATOM     37  C   UNL A   1      41.760  33.276  30.451  1.00  0.00     0.031 C 
ATOM     38  C   UNL A   1      43.932  32.703  29.402  1.00  0.00     0.034 A 
BRANCH  25  39
ATOM     39  C   UNL A   1      47.040  28.115  26.668  1.00  0.00     0.023 A 
ATOM     40  C   UNL A   1      48.064  27.592  27.484  1.00  0.00     0.012 A 
ATOM     41  C   UNL A   1      47.205  28.116  25.268  1.00  0.00     0.148 A 
ATOM     42  C   UNL A   1      49.239  27.096  26.921  1.00  0.00     0.002 A 
ATOM     43  C   UNL A   1      48.365  27.586  24.712  1.00  0.00     0.091 A 
ATOM     44  F   UNL A   1      46.228  28.632  24.509  1.00  0.00    -0.205 F 
ATOM     45  C   UNL A   1      49.385  27.082  25.537  1.00  0.00     0.022 A 
BRANCH  43  46
ATOM     46  S   UNL A   1      48.623  27.454  22.938  1.00  0.00     0.127 S 
ATOM     47  O   UNL A   1      49.947  28.054  22.787  1.00  0.00    -0.237 OA
ATOM     48  O   UNL A   1      48.583  26.006  22.728  1.00  0.00    -0.237 OA
ATOM     49  O   UNL A   1      47.530  28.189  22.317  1.00  0.00    -0.744 OA
ENDBRANCH  43  46
ENDBRANCH  25  39
BRANCH  26  50
ATOM     50  C   UNL A   1      38.397  30.759  30.932  1.00  0.00     0.023 A 
ATOM     51  C   UNL A   1      38.214  30.509  32.305  1.00  0.00     0.012 A 
ATOM     52  C   UNL A   1      37.381  31.416  30.212  1.00  0.00     0.148 A 
ATOM     53  C   UNL A   1      37.028  30.880  32.942  1.00  0.00     0.002 A 
ATOM     54  C   UNL A   1      36.231  31.841  30.866  1.00  0.00     0.091 A 
ATOM     55  F   UNL A   1      37.563  31.628  28.901  1.00  0.00    -0.205 F 
ATOM     56  C   UNL A   1      36.044  31.559  32.227  1.00  0.00     0.022 A 
BRANCH  54  57
ATOM     57  S   UNL A   1      35.002  32.858  30.042  1.00  0.00     0.127 S 
ATOM     58  O   UNL A   1      35.812  33.965  29.542  1.00  0.00    -0.237 OA
ATOM     59  O   UNL A   1      34.490  31.954  29.012  1.00  0.00    -0.237 OA
ATOM     60  O   UNL A   1      34.029  33.190  31.076  1.00  0.00    -0.744 OA
ENDBRANCH  54  57
ENDBRANCH  26  50
BRANCH  38  61
ATOM     61  C   UNL A   1      44.410  34.088  29.749  1.00  0.00     0.023 A 
ATOM     62  C   UNL A   1      45.105  34.298  30.958  1.00  0.00     0.012 A 
ATOM     63  C   UNL A   1      44.203  35.171  28.874  1.00  0.00     0.148 A 
ATOM     64  C   UNL A   1      45.552  35.570  31.308  1.00  0.00     0.002 A 
ATOM     65  C   UNL A   1      44.691  36.429  29.209  1.00  0.00     0.091 A 
ATOM     66  F   UNL A   1      43.520  34.958  27.740  1.00  0.00    -0.205 F 
ATOM     67  C   UNL A   1      45.353  36.633  30.430  1.00  0.00     0.022 A 
BRANCH  65  68
ATOM     68  S   UNL A   1      44.551  37.835  28.100  1.00  0.00     0.127 S 
ATOM     69  O   UNL A   1      43.102  37.989  27.992  1.00  0.00    -0.237 OA
ATOM     70  O   UNL A   1      45.222  38.897  28.851  1.00  0.00    -0.237 OA
ATOM     71  O   UNL A   1      45.237  37.440  26.876  1.00  0.00    -0.744 OA
ENDBRANCH  65  68
ENDBRANCH  38  61
ENDBRANCH  12  13
ENDBRANCH   5   7
ENDBRANCH   2   3
ENDBRANCH   1   2
BRANCH   1  72
ATOM     72  C   UNL A   1      34.209  22.453  27.238  1.00  0.00     0.023 C 
BRANCH  72  73
ATOM     73  C   UNL A   1      32.988  23.305  26.890  1.00  0.00     0.116 C 
BRANCH  73  74
ATOM     74  N   UNL A   1      33.029  23.834  25.545  1.00  0.00    -0.356 N 
ATOM     75  C   UNL A   1      33.197  25.095  25.078  1.00  0.00     0.227 C 
ATOM     76  H   UNL A   1      32.916  23.156  24.841  1.00  0.00     0.163 HD
ATOM     77  O   UNL A   1      33.216  25.206  23.849  1.00  0.00    -0.275 OA
BRANCH  75  78
ATOM     78  C   UNL A   1      33.146  26.331  25.951  1.00  0.00     0.127 C 
ATOM     79  C   UNL A   1      31.712  26.746  26.412  1.00  0.00     0.127 C 
ATOM     80  C   UNL A   1      33.709  27.693  25.516  1.00  0.00     0.155 C 
ATOM     81  C   UNL A   1      31.762  28.271  26.294  1.00  0.00     0.155 C 
ATOM     82  C   UNL A   1      33.983  28.497  26.760  1.00  0.00     0.004 C 
ATOM     83  O   UNL A   1      32.528  28.406  25.072  1.00  0.00    -0.365 OA
ATOM     84  C   UNL A   1      32.781  28.837  27.249  1.00  0.00     0.004 C 
BRANCH  79  85
ATOM     85  C   UNL A   1      30.455  26.171  25.759  1.00  0.00     0.227 C 
ATOM     86  O   UNL A   1      29.654  25.559  26.481  1.00  0.00    -0.275 OA
ATOM     87  N   UNL A   1      30.085  26.322  24.464  1.00  0.00    -0.352 N 
ATOM     88  H   UNL A   1      29.292  25.792  24.221  1.00  0.00     0.163 HD
BRANCH  87  89
ATOM     89  C   UNL A   1      30.612  27.101  23.364  1.00  0.00     0.151 C 
BRANCH  89  90
ATOM     90  C   UNL A   1      29.716  28.256  22.992  1.00  0.00    -0.026 A 
ATOM     91  C   UNL A   1      28.337  28.166  23.201  1.00  0.00     0.025 A 
ATOM     92  C   UNL A   1      30.207  29.408  22.375  1.00  0.00     0.025 A 
ATOM     93  C   UNL A   1      27.511  29.179  22.748  1.00  0.00     0.111 A 
ATOM     94  C   UNL A   1      29.303  30.378  21.963  1.00  0.00     0.111 A 
ATOM     95  N   UNL A   1      27.965  30.276  22.116  1.00  0.00    -0.265 NA
ENDBRANCH  89  90
ENDBRANCH  87  89
ENDBRANCH  79  85
ENDBRANCH  75  78
ENDBRANCH  73  74
ENDBRANCH  72  73
ENDBRANCH   1  72
TORSDOF 17
ENDMDL
MODEL 3
REMARK VINA RESULT:     -12.0      1.959      2.707
REMARK SMILES O=C(NCCCCNC(=O)[C@@H]1[C@H](C(=O)NCc2ccncc2)[C@H]2C=C[C@@H]1O2)c1ccc(-c2c3nc(c(-c4cccc(S(=O)(=O)[O-])c4F)c4ccc([nH]4)c(-c4cccc(S(=O)(=O)[O-])c4F)c4nc(c(-c5cccc(S(=O)(=O)[O-])c5F)c5ccc2[nH]5)C=C4)C=C3)cc1
REMARK SMILES IDX 5 1 4 2 3 3 1 4 2 5 28 7 29 8 90 9 30 10 89 11 31 12 32 13
REMARK SMILES IDX 33 14 83 15 34 16 88 17 82 18 84 19 35 20 87 21 81 22 80 23
REMARK SMILES IDX 36 25 68 26 48 27 67 28 49 29 52 30 66 31 85 32 50 33 51 34
REMARK SMILES IDX 65 36 86 37 53 38 37 39 38 40 46 41 39 42 41 43 47 44 40 45
REMARK SMILES IDX 42 46 43 47 44 48 45 49 69 50 70 51 78 52 71 53 73 54 79 55
REMARK SMILES IDX 72 56 74 57 75 58 76 59 77 60 54 61 55 62 63 63 56 64 58 65
REMARK SMILES IDX 64 66 57 67 59 68 60 69 61 70 62 71 6 72 7 73 8 74 9 75
REMARK SMILES IDX 10 77 11 78 12 79 26 80 23 81 25 82 27 83 24 84 13 85 14 86
REMARK SMILES IDX 15 87 16 89 17 90 18 91 22 92 19 93 21 94 20 95
REMARK H PARENT 3 6 84 24 52 35 8 76 15 88
REMARK Flexibility Score: inf
ROOT
ATOM      1  C   UNL A   1      32.874  27.525  26.666  1.00  0.00     0.023 C 
ENDROOT
BRANCH   1   2
ATOM      2  C   UNL A   1      34.013  28.501  26.389  1.00  0.00     0.116 C 
BRANCH   2   3
ATOM      3  N   UNL A   1      33.735  29.838  26.888  1.00  0.00    -0.352 N 
ATOM      4  O   UNL A   1      33.917  31.653  28.198  1.00  0.00    -0.269 OA
ATOM      5  C   UNL A   1      34.441  30.626  27.768  1.00  0.00     0.251 C 
ATOM      6  H   UNL A   1      32.909  30.245  26.539  1.00  0.00     0.163 HD
BRANCH   5   7
ATOM      7  C   UNL A   1      35.796  30.237  28.226  1.00  0.00     0.039 A 
ATOM      8  C   UNL A   1      36.930  30.563  27.483  1.00  0.00     0.014 A 
ATOM      9  C   UNL A   1      35.943  29.563  29.444  1.00  0.00     0.014 A 
ATOM     10  C   UNL A   1      38.175  30.071  27.860  1.00  0.00     0.010 A 
ATOM     11  C   UNL A   1      37.212  29.158  29.878  1.00  0.00     0.010 A 
ATOM     12  C   UNL A   1      38.339  29.376  29.070  1.00  0.00    -0.014 A 
BRANCH  12  13
ATOM     13  C   UNL A   1      39.710  28.978  29.490  1.00  0.00     0.031 A 
ATOM     14  C   UNL A   1      40.434  29.678  30.609  1.00  0.00     0.074 A 
ATOM     15  C   UNL A   1      40.292  27.935  28.864  1.00  0.00     0.049 A 
ATOM     16  N   UNL A   1      41.590  29.379  31.149  1.00  0.00    -0.248 NA
ATOM     17  C   UNL A   1      39.795  30.868  31.190  1.00  0.00     0.031 C 
ATOM     18  C   UNL A   1      39.722  27.221  27.718  1.00  0.00     0.029 A 
ATOM     19  N   UNL A   1      41.477  27.286  29.101  1.00  0.00    -0.354 N 
ATOM     20  C   UNL A   1      41.826  30.349  32.116  1.00  0.00     0.074 A 
ATOM     21  C   UNL A   1      40.704  31.262  32.075  1.00  0.00     0.031 C 
ATOM     22  C   UNL A   1      40.534  26.209  27.381  1.00  0.00     0.029 A 
ATOM     23  C   UNL A   1      41.702  26.227  28.253  1.00  0.00     0.049 A 
ATOM     24  H   UNL A   1      42.104  27.551  29.811  1.00  0.00     0.167 HD
ATOM     25  C   UNL A   1      42.869  30.455  32.976  1.00  0.00     0.034 A 
ATOM     26  C   UNL A   1      42.732  25.363  28.179  1.00  0.00     0.034 A 
ATOM     27  C   UNL A   1      43.970  29.527  33.035  1.00  0.00     0.049 A 
ATOM     28  C   UNL A   1      43.845  25.473  29.181  1.00  0.00     0.074 A 
ATOM     29  C   UNL A   1      45.051  29.529  33.900  1.00  0.00     0.029 A 
ATOM     30  N   UNL A   1      44.132  28.433  32.199  1.00  0.00    -0.354 N 
ATOM     31  N   UNL A   1      43.980  26.320  30.173  1.00  0.00    -0.248 NA
ATOM     32  C   UNL A   1      44.930  24.489  29.076  1.00  0.00     0.031 C 
ATOM     33  C   UNL A   1      45.872  28.441  33.581  1.00  0.00     0.029 A 
ATOM     34  C   UNL A   1      45.295  27.753  32.527  1.00  0.00     0.049 A 
ATOM     35  H   UNL A   1      43.513  28.177  31.478  1.00  0.00     0.167 HD
ATOM     36  C   UNL A   1      45.157  25.965  30.816  1.00  0.00     0.074 A 
ATOM     37  C   UNL A   1      45.673  24.798  30.131  1.00  0.00     0.031 C 
ATOM     38  C   UNL A   1      45.775  26.569  31.862  1.00  0.00     0.034 A 
BRANCH  25  39
ATOM     39  C   UNL A   1      42.848  31.584  33.976  1.00  0.00     0.023 A 
ATOM     40  C   UNL A   1      43.359  32.843  33.600  1.00  0.00     0.012 A 
ATOM     41  C   UNL A   1      42.246  31.433  35.241  1.00  0.00     0.148 A 
ATOM     42  C   UNL A   1      43.291  33.928  34.473  1.00  0.00     0.002 A 
ATOM     43  C   UNL A   1      42.149  32.530  36.092  1.00  0.00     0.091 A 
ATOM     44  F   UNL A   1      41.780  30.225  35.588  1.00  0.00    -0.205 F 
ATOM     45  C   UNL A   1      42.677  33.775  35.712  1.00  0.00     0.022 A 
BRANCH  43  46
ATOM     46  S   UNL A   1      41.312  32.458  37.681  1.00  0.00     0.127 S 
ATOM     47  O   UNL A   1      42.174  31.543  38.427  1.00  0.00    -0.237 OA
ATOM     48  O   UNL A   1      41.375  33.851  38.125  1.00  0.00    -0.237 OA
ATOM     49  O   UNL A   1      39.969  31.967  37.407  1.00  0.00    -0.744 OA
ENDBRANCH  43  46
ENDBRANCH  25  39
BRANCH  26  50
ATOM     50  C   UNL A   1      42.724  24.291  27.144  1.00  0.00     0.023 A 
ATOM     51  C   UNL A   1      43.458  24.462  25.955  1.00  0.00     0.012 A 
ATOM     52  C   UNL A   1      42.031  23.084  27.356  1.00  0.00     0.148 A 
ATOM     53  C   UNL A   1      43.478  23.460  24.983  1.00  0.00     0.002 A 
ATOM     54  C   UNL A   1      42.110  22.065  26.415  1.00  0.00     0.091 A 
ATOM     55  F   UNL A   1      41.320  22.945  28.484  1.00  0.00    -0.205 F 
ATOM     56  C   UNL A   1      42.817  22.257  25.220  1.00  0.00     0.022 A 
BRANCH  54  57
ATOM     57  S   UNL A   1      41.417  20.438  26.729  1.00  0.00     0.127 S 
ATOM     58  O   UNL A   1      40.025  20.757  27.030  1.00  0.00    -0.237 OA
ATOM     59  O   UNL A   1      41.631  19.756  25.451  1.00  0.00    -0.237 OA
ATOM     60  O   UNL A   1      42.205  19.895  27.828  1.00  0.00    -0.744 OA
ENDBRANCH  54  57
ENDBRANCH  26  50
BRANCH  38  61
ATOM     61  C   UNL A   1      47.079  25.975  32.324  1.00  0.00     0.023 A 
ATOM     62  C   UNL A   1      48.283  26.401  31.726  1.00  0.00     0.012 A 
ATOM     63  C   UNL A   1      47.122  25.027  33.363  1.00  0.00     0.148 A 
ATOM     64  C   UNL A   1      49.505  25.863  32.127  1.00  0.00     0.002 A 
ATOM     65  C   UNL A   1      48.347  24.528  33.789  1.00  0.00     0.091 A 
ATOM     66  F   UNL A   1      45.966  24.617  33.905  1.00  0.00    -0.205 F 
ATOM     67  C   UNL A   1      49.537  24.934  33.165  1.00  0.00     0.022 A 
BRANCH  65  68
ATOM     68  S   UNL A   1      48.487  23.391  35.173  1.00  0.00     0.127 S 
ATOM     69  O   UNL A   1      47.535  22.346  34.800  1.00  0.00    -0.237 OA
ATOM     70  O   UNL A   1      49.892  22.986  35.108  1.00  0.00    -0.237 OA
ATOM     71  O   UNL A   1      48.140  24.167  36.357  1.00  0.00    -0.744 OA
ENDBRANCH  65  68
ENDBRANCH  38  61
ENDBRANCH  12  13
ENDBRANCH   5   7
ENDBRANCH   2   3
ENDBRANCH   1   2
BRANCH   1  72
ATOM     72  C   UNL A   1      32.494  26.618  25.491  1.00  0.00     0.023 C 
BRANCH  72  73
ATOM     73  C   UNL A   1      33.355  25.365  25.329  1.00  0.00     0.116 C 
BRANCH  73  74
ATOM     74  N   UNL A   1      32.615  24.228  24.829  1.00  0.00    -0.356 N 
ATOM     75  C   UNL A   1      33.011  22.983  24.471  1.00  0.00     0.227 C 
ATOM     76  H   UNL A   1      31.648  24.387  24.732  1.00  0.00     0.163 HD
ATOM     77  O   UNL A   1      32.106  22.224  24.109  1.00  0.00    -0.275 OA
BRANCH  75  78
ATOM     78  C   UNL A   1      34.458  22.576  24.297  1.00  0.00     0.127 C 
ATOM     79  C   UNL A   1      34.890  21.329  25.134  1.00  0.00     0.127 C 
ATOM     80  C   UNL A   1      35.637  23.523  24.570  1.00  0.00     0.155 C 
ATOM     81  C   UNL A   1      36.289  21.728  25.611  1.00  0.00     0.155 C 
ATOM     82  C   UNL A   1      36.827  23.009  23.803  1.00  0.00     0.004 C 
ATOM     83  O   UNL A   1      36.069  23.131  25.896  1.00  0.00    -0.365 OA
ATOM     84  C   UNL A   1      37.217  21.891  24.435  1.00  0.00     0.004 C 
BRANCH  79  85
ATOM     85  C   UNL A   1      34.036  20.789  26.280  1.00  0.00     0.227 C 
ATOM     86  O   UNL A   1      34.108  21.362  27.377  1.00  0.00    -0.275 OA
ATOM     87  N   UNL A   1      33.142  19.773  26.203  1.00  0.00    -0.352 N 
ATOM     88  H   UNL A   1      32.768  19.517  27.077  1.00  0.00     0.163 HD
BRANCH  87  89
ATOM     89  C   UNL A   1      32.623  18.989  25.104  1.00  0.00     0.151 C 
BRANCH  89  90
ATOM     90  C   UNL A   1      33.201  17.596  25.065  1.00  0.00    -0.026 A 
ATOM     91  C   UNL A   1      32.404  16.498  25.402  1.00  0.00     0.025 A 
ATOM     92  C   UNL A   1      34.544  17.357  24.764  1.00  0.00     0.025 A 
ATOM     93  C   UNL A   1      32.973  15.240  25.479  1.00  0.00     0.111 A 
ATOM     94  C   UNL A   1      35.025  16.057  24.858  1.00  0.00     0.111 A 
ATOM     95  N   UNL A   1      34.273  15.000  25.231  1.00  0.00    -0.265 NA
ENDBRANCH  89  90
ENDBRANCH  87  89
ENDBRANCH  79  85
ENDBRANCH  75  78
ENDBRANCH  73  74
ENDBRANCH  72  73
ENDBRANCH   1  72
TORSDOF 17
ENDMDL
