MODEL 1
REMARK VINA RESULT:     -11.5      0.000      0.000
REMARK SMILES COC[C@H]1CCN(C(=O)N2CC[C@H](C(=O)NCCCCNC(=O)c3ccc(-c4c5nc(c(-c6cccc(S(=O)(=O)[O-])c6F)c6ccc([nH]6)c(-c6cccc(S(=O)(=O)[O-])c6F)c6nc(c(-c7cccc(S(=O)(=O)[O-])c7F)c7ccc4[nH]7)C=C6)C=C5)cc3)[C@@H]2C)C1
REMARK SMILES IDX 18 1 17 2 16 3 14 4 15 5 13 7 10 8 11 9 87 10 12 11 88 12
REMARK SMILES IDX 8 13 9 14 7 15 4 16 5 17 89 18 6 19 3 20 2 21 1 22 19 23
REMARK SMILES IDX 20 24 21 25 22 26 23 28 24 29 25 30 86 31 26 32 85 33 27 34
REMARK SMILES IDX 28 35 29 36 79 37 30 38 84 39 78 40 80 41 31 42 83 43 77 44
REMARK SMILES IDX 76 45 32 47 64 48 44 49 63 50 45 51 48 52 62 53 81 54 46 55
REMARK SMILES IDX 47 56 61 58 82 59 49 60 33 61 34 62 42 63 35 64 37 65 43 66
REMARK SMILES IDX 36 67 38 68 39 69 40 70 41 71 65 72 66 73 74 74 67 75 69 76
REMARK SMILES IDX 75 77 68 78 70 79 71 80 72 81 73 82 50 83 51 84 59 85 52 86
REMARK SMILES IDX 54 87 60 88 53 89 55 90 56 91 57 92 58 93
REMARK H PARENT 16 6 21 27 80 46 48 57
REMARK Flexibility Score: inf
ROOT
ATOM      1  C   UNL A   1      31.894  30.046  26.920  1.00  0.00     0.023 C 
ENDROOT
BRANCH   1   2
ATOM      2  C   UNL A   1      33.162  29.382  26.400  1.00  0.00     0.116 C 
BRANCH   2   3
ATOM      3  N   UNL A   1      33.316  29.477  24.964  1.00  0.00    -0.356 N 
ATOM      4  C   UNL A   1      32.745  28.755  23.963  1.00  0.00     0.225 C 
ATOM      5  O   UNL A   1      32.968  29.123  22.805  1.00  0.00    -0.275 OA
ATOM      6  H   UNL A   1      33.936  30.180  24.663  1.00  0.00     0.163 HD
BRANCH   4   7
ATOM      7  C   UNL A   1      31.882  27.518  24.198  1.00  0.00     0.102 C 
ATOM      8  N   UNL A   1      32.272  25.401  23.237  1.00  0.00    -0.321 N 
ATOM      9  C   UNL A   1      30.930  25.766  22.832  1.00  0.00     0.122 C 
ATOM     10  C   UNL A   1      32.600  26.172  24.435  1.00  0.00     0.096 C 
ATOM     11  C   UNL A   1      30.872  27.264  23.063  1.00  0.00     0.037 C 
ATOM     12  C   UNL A   1      34.080  26.243  24.797  1.00  0.00     0.032 C 
BRANCH   8  13
ATOM     13  C   UNL A   1      32.803  24.161  22.981  1.00  0.00     0.320 C 
ATOM     14  O   UNL A   1      33.502  23.950  21.992  1.00  0.00    -0.248 OA
BRANCH  13  15
ATOM     15  N   UNL A   1      32.449  23.152  23.850  1.00  0.00    -0.324 N 
ATOM     16  C   UNL A   1      32.341  20.929  24.680  1.00  0.00     0.036 C 
ATOM     17  C   UNL A   1      31.527  21.864  25.574  1.00  0.00     0.029 C 
ATOM     18  C   UNL A   1      33.173  21.889  23.824  1.00  0.00     0.127 C 
ATOM     19  C   UNL A   1      31.227  23.015  24.631  1.00  0.00     0.122 C 
BRANCH  16  20
ATOM     20  C   UNL A   1      33.183  19.929  25.460  1.00  0.00     0.165 C 
BRANCH  20  21
ATOM     21  O   UNL A   1      32.493  18.706  25.706  1.00  0.00    -0.384 OA
ATOM     22  C   UNL A   1      32.476  17.827  24.590  1.00  0.00     0.194 C 
ENDBRANCH  20  21
ENDBRANCH  16  20
ENDBRANCH  13  15
ENDBRANCH   8  13
ENDBRANCH   4   7
ENDBRANCH   2   3
ENDBRANCH   1   2
BRANCH   1  23
ATOM     23  C   UNL A   1      31.829  31.558  26.717  1.00  0.00     0.023 C 
BRANCH  23  24
ATOM     24  C   UNL A   1      32.942  32.363  27.380  1.00  0.00     0.116 C 
BRANCH  24  25
ATOM     25  N   UNL A   1      32.593  33.760  27.614  1.00  0.00    -0.352 N 
ATOM     26  C   UNL A   1      33.130  34.642  28.521  1.00  0.00     0.251 C 
ATOM     27  H   UNL A   1      31.874  34.118  27.046  1.00  0.00     0.163 HD
ATOM     28  O   UNL A   1      32.642  35.762  28.652  1.00  0.00    -0.269 OA
BRANCH  26  29
ATOM     29  C   UNL A   1      34.275  34.221  29.359  1.00  0.00     0.039 A 
ATOM     30  C   UNL A   1      34.027  33.495  30.527  1.00  0.00     0.014 A 
ATOM     31  C   UNL A   1      35.585  34.501  28.967  1.00  0.00     0.014 A 
ATOM     32  C   UNL A   1      35.101  32.979  31.258  1.00  0.00     0.010 A 
ATOM     33  C   UNL A   1      36.649  33.925  29.654  1.00  0.00     0.010 A 
ATOM     34  C   UNL A   1      36.419  33.154  30.805  1.00  0.00    -0.014 A 
BRANCH  34  35
ATOM     35  C   UNL A   1      37.568  32.518  31.500  1.00  0.00     0.031 A 
ATOM     36  C   UNL A   1      38.306  31.374  30.859  1.00  0.00     0.074 A 
ATOM     37  C   UNL A   1      37.881  32.901  32.754  1.00  0.00     0.049 A 
ATOM     38  N   UNL A   1      39.288  30.657  31.337  1.00  0.00    -0.248 NA
ATOM     39  C   UNL A   1      37.863  30.964  29.516  1.00  0.00     0.031 C 
ATOM     40  C   UNL A   1      37.183  33.934  33.524  1.00  0.00     0.029 A 
ATOM     41  N   UNL A   1      38.849  32.447  33.615  1.00  0.00    -0.354 N 
ATOM     42  C   UNL A   1      39.555  29.688  30.377  1.00  0.00     0.074 A 
ATOM     43  C   UNL A   1      38.608  29.890  29.302  1.00  0.00     0.031 C 
ATOM     44  C   UNL A   1      37.745  34.035  34.739  1.00  0.00     0.029 A 
ATOM     45  C   UNL A   1      38.828  33.063  34.846  1.00  0.00     0.049 A 
ATOM     46  H   UNL A   1      39.498  31.747  33.375  1.00  0.00     0.167 HD
ATOM     47  C   UNL A   1      40.519  28.738  30.373  1.00  0.00     0.034 A 
ATOM     48  C   UNL A   1      39.593  32.866  35.938  1.00  0.00     0.034 A 
ATOM     49  C   UNL A   1      41.496  28.578  31.416  1.00  0.00     0.049 A 
ATOM     50  C   UNL A   1      40.702  31.849  35.882  1.00  0.00     0.074 A 
ATOM     51  C   UNL A   1      42.576  27.713  31.458  1.00  0.00     0.029 A 
ATOM     52  N   UNL A   1      41.512  29.294  32.602  1.00  0.00    -0.354 N 
ATOM     53  N   UNL A   1      41.050  31.063  34.891  1.00  0.00    -0.248 NA
ATOM     54  C   UNL A   1      41.549  31.719  37.076  1.00  0.00     0.031 C 
ATOM     55  C   UNL A   1      43.239  27.901  32.675  1.00  0.00     0.029 A 
ATOM     56  C   UNL A   1      42.580  28.891  33.385  1.00  0.00     0.049 A 
ATOM     57  H   UNL A   1      40.859  29.988  32.852  1.00  0.00     0.167 HD
ATOM     58  C   UNL A   1      42.174  30.373  35.329  1.00  0.00     0.074 A 
ATOM     59  C   UNL A   1      42.462  30.849  36.667  1.00  0.00     0.031 C 
ATOM     60  C   UNL A   1      42.892  29.417  34.689  1.00  0.00     0.034 A 
BRANCH  47  61
ATOM     61  C   UNL A   1      40.612  27.841  29.168  1.00  0.00     0.023 A 
ATOM     62  C   UNL A   1      39.747  26.732  29.065  1.00  0.00     0.012 A 
ATOM     63  C   UNL A   1      41.504  28.121  28.115  1.00  0.00     0.148 A 
ATOM     64  C   UNL A   1      39.791  25.897  27.950  1.00  0.00     0.002 A 
ATOM     65  C   UNL A   1      41.513  27.307  26.988  1.00  0.00     0.091 A 
ATOM     66  F   UNL A   1      42.335  29.166  28.240  1.00  0.00    -0.205 F 
ATOM     67  C   UNL A   1      40.666  26.190  26.909  1.00  0.00     0.022 A 
BRANCH  65  68
ATOM     68  S   UNL A   1      42.550  27.645  25.559  1.00  0.00     0.127 S 
ATOM     69  O   UNL A   1      42.288  26.477  24.722  1.00  0.00    -0.237 OA
ATOM     70  O   UNL A   1      41.983  28.896  25.055  1.00  0.00    -0.237 OA
ATOM     71  O   UNL A   1      43.909  27.761  26.071  1.00  0.00    -0.744 OA
ENDBRANCH  65  68
ENDBRANCH  47  61
BRANCH  48  72
ATOM     72  C   UNL A   1      39.392  33.711  37.149  1.00  0.00     0.023 A 
ATOM     73  C   UNL A   1      39.858  35.040  37.144  1.00  0.00     0.012 A 
ATOM     74  C   UNL A   1      38.719  33.223  38.286  1.00  0.00     0.148 A 
ATOM     75  C   UNL A   1      39.685  35.860  38.261  1.00  0.00     0.002 A 
ATOM     76  C   UNL A   1      38.502  34.062  39.374  1.00  0.00     0.091 A 
ATOM     77  F   UNL A   1      38.295  31.952  38.277  1.00  0.00    -0.205 F 
ATOM     78  C   UNL A   1      38.998  35.375  39.370  1.00  0.00     0.022 A 
BRANCH  76  79
ATOM     79  S   UNL A   1      37.510  33.563  40.786  1.00  0.00     0.127 S 
ATOM     80  O   UNL A   1      36.306  33.049  40.139  1.00  0.00    -0.237 OA
ATOM     81  O   UNL A   1      38.357  32.546  41.411  1.00  0.00    -0.237 OA
ATOM     82  O   UNL A   1      37.338  34.768  41.586  1.00  0.00    -0.744 OA
ENDBRANCH  76  79
ENDBRANCH  48  72
BRANCH  60  83
ATOM     83  C   UNL A   1      44.082  28.837  35.407  1.00  0.00     0.023 A 
ATOM     84  C   UNL A   1      45.358  29.399  35.208  1.00  0.00     0.012 A 
ATOM     85  C   UNL A   1      43.923  27.791  36.337  1.00  0.00     0.148 A 
ATOM     86  C   UNL A   1      46.464  28.910  35.903  1.00  0.00     0.002 A 
ATOM     87  C   UNL A   1      45.021  27.338  37.059  1.00  0.00     0.091 A 
ATOM     88  F   UNL A   1      42.704  27.255  36.497  1.00  0.00    -0.205 F 
ATOM     89  C   UNL A   1      46.293  27.890  36.836  1.00  0.00     0.022 A 
BRANCH  87  90
ATOM     90  S   UNL A   1      44.875  26.093  38.346  1.00  0.00     0.127 S 
ATOM     91  O   UNL A   1      44.472  24.917  37.580  1.00  0.00    -0.237 OA
ATOM     92  O   UNL A   1      46.236  26.036  38.883  1.00  0.00    -0.237 OA
ATOM     93  O   UNL A   1      43.882  26.605  39.282  1.00  0.00    -0.744 OA
ENDBRANCH  87  90
ENDBRANCH  60  83
ENDBRANCH  34  35
ENDBRANCH  26  29
ENDBRANCH  24  25
ENDBRANCH  23  24
ENDBRANCH   1  23
TORSDOF 18
ENDMDL
MODEL 2
REMARK VINA RESULT:     -11.4      6.215     11.681
REMARK SMILES COC[C@H]1CCN(C(=O)N2CC[C@H](C(=O)NCCCCNC(=O)c3ccc(-c4c5nc(c(-c6cccc(S(=O)(=O)[O-])c6F)c6ccc([nH]6)c(-c6cccc(S(=O)(=O)[O-])c6F)c6nc(c(-c7cccc(S(=O)(=O)[O-])c7F)c7ccc4[nH]7)C=C6)C=C5)cc3)[C@@H]2C)C1
REMARK SMILES IDX 18 1 17 2 16 3 14 4 15 5 13 7 10 8 11 9 87 10 12 11 88 12
REMARK SMILES IDX 8 13 9 14 7 15 4 16 5 17 89 18 6 19 3 20 2 21 1 22 19 23
REMARK SMILES IDX 20 24 21 25 22 26 23 28 24 29 25 30 86 31 26 32 85 33 27 34
REMARK SMILES IDX 28 35 29 36 79 37 30 38 84 39 78 40 80 41 31 42 83 43 77 44
REMARK SMILES IDX 76 45 32 47 64 48 44 49 63 50 45 51 48 52 62 53 81 54 46 55
REMARK SMILES IDX 47 56 61 58 82 59 49 60 33 61 34 62 42 63 35 64 37 65 43 66
REMARK SMILES IDX 36 67 38 68 39 69 40 70 41 71 65 72 66 73 74 74 67 75 69 76
REMARK SMILES IDX 75 77 68 78 70 79 71 80 72 81 73 82 50 83 51 84 59 85 52 86
REMARK SMILES IDX 54 87 60 88 53 89 55 90 56 91 57 92 58 93
REMARK H PARENT 16 6 21 27 80 46 48 57
REMARK Flexibility Score: inf
ROOT
ATOM      1  C   UNL A   1      36.404  19.590  25.006  1.00  0.00     0.023 C 
ENDROOT
BRANCH   1   2
ATOM      2  C   UNL A   1      35.531  18.495  24.409  1.00  0.00     0.116 C 
BRANCH   2   3
ATOM      3  N   UNL A   1      34.207  18.431  24.991  1.00  0.00    -0.356 N 
ATOM      4  C   UNL A   1      33.221  19.367  25.050  1.00  0.00     0.225 C 
ATOM      5  O   UNL A   1      32.133  19.009  25.512  1.00  0.00    -0.275 OA
ATOM      6  H   UNL A   1      33.984  17.570  25.413  1.00  0.00     0.163 HD
BRANCH   4   7
ATOM      7  C   UNL A   1      33.402  20.815  24.606  1.00  0.00     0.102 C 
ATOM      8  N   UNL A   1      32.317  22.667  25.582  1.00  0.00    -0.321 N 
ATOM      9  C   UNL A   1      31.956  22.706  24.179  1.00  0.00     0.122 C 
ATOM     10  C   UNL A   1      33.550  21.892  25.703  1.00  0.00     0.096 C 
ATOM     11  C   UNL A   1      32.271  21.307  23.681  1.00  0.00     0.037 C 
ATOM     12  C   UNL A   1      33.890  21.396  27.104  1.00  0.00     0.032 C 
BRANCH   8  13
ATOM     13  C   UNL A   1      31.983  23.676  26.451  1.00  0.00     0.320 C 
ATOM     14  O   UNL A   1      31.257  23.476  27.423  1.00  0.00    -0.248 OA
BRANCH  13  15
ATOM     15  N   UNL A   1      32.444  24.935  26.134  1.00  0.00    -0.324 N 
ATOM     16  C   UNL A   1      32.360  27.112  25.187  1.00  0.00     0.036 C 
ATOM     17  C   UNL A   1      33.729  26.867  25.822  1.00  0.00     0.029 C 
ATOM     18  C   UNL A   1      31.500  25.973  25.743  1.00  0.00     0.127 C 
ATOM     19  C   UNL A   1      33.804  25.351  25.825  1.00  0.00     0.122 C 
BRANCH  16  20
ATOM     20  C   UNL A   1      31.796  28.495  25.480  1.00  0.00     0.165 C 
BRANCH  20  21
ATOM     21  O   UNL A   1      31.859  29.362  24.350  1.00  0.00    -0.384 OA
ATOM     22  C   UNL A   1      32.399  28.748  23.189  1.00  0.00     0.194 C 
ENDBRANCH  20  21
ENDBRANCH  16  20
ENDBRANCH  13  15
ENDBRANCH   8  13
ENDBRANCH   4   7
ENDBRANCH   2   3
ENDBRANCH   1   2
BRANCH   1  23
ATOM     23  C   UNL A   1      37.898  19.450  24.722  1.00  0.00     0.023 C 
BRANCH  23  24
ATOM     24  C   UNL A   1      38.831  20.037  25.776  1.00  0.00     0.116 C 
BRANCH  24  25
ATOM     25  N   UNL A   1      40.032  19.242  26.001  1.00  0.00    -0.352 N 
ATOM     26  C   UNL A   1      41.281  19.660  26.396  1.00  0.00     0.251 C 
ATOM     27  H   UNL A   1      39.936  18.275  25.848  1.00  0.00     0.163 HD
ATOM     28  O   UNL A   1      42.212  18.859  26.439  1.00  0.00    -0.269 OA
BRANCH  26  29
ATOM     29  C   UNL A   1      41.502  21.083  26.733  1.00  0.00     0.039 A 
ATOM     30  C   UNL A   1      41.915  21.417  28.025  1.00  0.00     0.014 A 
ATOM     31  C   UNL A   1      41.347  22.077  25.763  1.00  0.00     0.014 A 
ATOM     32  C   UNL A   1      42.253  22.740  28.321  1.00  0.00     0.010 A 
ATOM     33  C   UNL A   1      41.754  23.378  26.039  1.00  0.00     0.010 A 
ATOM     34  C   UNL A   1      42.215  23.724  27.319  1.00  0.00    -0.014 A 
BRANCH  34  35
ATOM     35  C   UNL A   1      42.678  25.113  27.577  1.00  0.00     0.031 A 
ATOM     36  C   UNL A   1      41.748  26.122  28.193  1.00  0.00     0.074 A 
ATOM     37  C   UNL A   1      43.903  25.493  27.160  1.00  0.00     0.049 A 
ATOM     38  N   UNL A   1      41.954  27.390  28.435  1.00  0.00    -0.248 NA
ATOM     39  C   UNL A   1      40.402  25.652  28.559  1.00  0.00     0.031 C 
ATOM     40  C   UNL A   1      44.865  24.635  26.465  1.00  0.00     0.029 A 
ATOM     41  N   UNL A   1      44.538  26.708  27.234  1.00  0.00    -0.354 N 
ATOM     42  C   UNL A   1      40.756  27.880  28.942  1.00  0.00     0.074 A 
ATOM     43  C   UNL A   1      39.818  26.778  28.942  1.00  0.00     0.031 C 
ATOM     44  C   UNL A   1      45.966  25.348  26.178  1.00  0.00     0.029 A 
ATOM     45  C   UNL A   1      45.783  26.718  26.648  1.00  0.00     0.049 A 
ATOM     46  H   UNL A   1      44.141  27.498  27.667  1.00  0.00     0.167 HD
ATOM     47  C   UNL A   1      40.470  29.122  29.397  1.00  0.00     0.034 A 
ATOM     48  C   UNL A   1      46.676  27.717  26.503  1.00  0.00     0.034 A 
ATOM     49  C   UNL A   1      41.421  30.199  29.449  1.00  0.00     0.049 A 
ATOM     50  C   UNL A   1      46.359  29.071  27.078  1.00  0.00     0.074 A 
ATOM     51  C   UNL A   1      41.260  31.465  29.986  1.00  0.00     0.029 A 
ATOM     52  N   UNL A   1      42.711  30.141  28.946  1.00  0.00    -0.354 N 
ATOM     53  N   UNL A   1      45.282  29.465  27.716  1.00  0.00    -0.248 NA
ATOM     54  C   UNL A   1      47.393  30.108  26.952  1.00  0.00     0.031 C 
ATOM     55  C   UNL A   1      42.450  32.174  29.798  1.00  0.00     0.029 A 
ATOM     56  C   UNL A   1      43.357  31.348  29.156  1.00  0.00     0.049 A 
ATOM     57  H   UNL A   1      43.110  29.357  28.503  1.00  0.00     0.167 HD
ATOM     58  C   UNL A   1      45.523  30.780  28.095  1.00  0.00     0.074 A 
ATOM     59  C   UNL A   1      46.856  31.110  27.636  1.00  0.00     0.031 C 
ATOM     60  C   UNL A   1      44.706  31.643  28.749  1.00  0.00     0.034 A 
BRANCH  47  61
ATOM     61  C   UNL A   1      39.088  29.366  29.942  1.00  0.00     0.023 A 
ATOM     62  C   UNL A   1      38.770  28.918  31.240  1.00  0.00     0.012 A 
ATOM     63  C   UNL A   1      38.127  30.084  29.204  1.00  0.00     0.148 A 
ATOM     64  C   UNL A   1      37.507  29.150  31.783  1.00  0.00     0.002 A 
ATOM     65  C   UNL A   1      36.884  30.347  29.768  1.00  0.00     0.091 A 
ATOM     66  F   UNL A   1      38.440  30.482  27.962  1.00  0.00    -0.205 F 
ATOM     67  C   UNL A   1      36.569  29.872  31.052  1.00  0.00     0.022 A 
BRANCH  65  68
ATOM     68  S   UNL A   1      35.635  31.335  28.936  1.00  0.00     0.127 S 
ATOM     69  O   UNL A   1      34.885  31.876  30.068  1.00  0.00    -0.237 OA
ATOM     70  O   UNL A   1      36.446  32.318  28.217  1.00  0.00    -0.237 OA
ATOM     71  O   UNL A   1      34.902  30.414  28.080  1.00  0.00    -0.744 OA
ENDBRANCH  65  68
ENDBRANCH  47  61
BRANCH  48  72
ATOM     72  C   UNL A   1      47.993  27.449  25.859  1.00  0.00     0.023 A 
ATOM     73  C   UNL A   1      49.071  27.015  26.654  1.00  0.00     0.012 A 
ATOM     74  C   UNL A   1      48.177  27.590  24.470  1.00  0.00     0.148 A 
ATOM     75  C   UNL A   1      50.318  26.754  26.083  1.00  0.00     0.002 A 
ATOM     76  C   UNL A   1      49.406  27.276  23.900  1.00  0.00     0.091 A 
ATOM     77  F   UNL A   1      47.144  28.017  23.731  1.00  0.00    -0.205 F 
ATOM     78  C   UNL A   1      50.483  26.873  24.706  1.00  0.00     0.022 A 
BRANCH  76  79
ATOM     79  S   UNL A   1      49.665  27.271  22.122  1.00  0.00     0.127 S 
ATOM     80  O   UNL A   1      49.415  28.668  21.780  1.00  0.00    -0.237 OA
ATOM     81  O   UNL A   1      51.063  26.850  22.018  1.00  0.00    -0.237 OA
ATOM     82  O   UNL A   1      48.712  26.305  21.593  1.00  0.00    -0.744 OA
ENDBRANCH  76  79
ENDBRANCH  48  72
BRANCH  60  83
ATOM     83  C   UNL A   1      45.235  33.023  29.039  1.00  0.00     0.023 A 
ATOM     84  C   UNL A   1      45.947  33.259  30.231  1.00  0.00     0.012 A 
ATOM     85  C   UNL A   1      45.095  34.061  28.097  1.00  0.00     0.148 A 
ATOM     86  C   UNL A   1      46.490  34.517  30.494  1.00  0.00     0.002 A 
ATOM     87  C   UNL A   1      45.676  35.299  28.346  1.00  0.00     0.091 A 
ATOM     88  F   UNL A   1      44.395  33.822  26.979  1.00  0.00    -0.205 F 
ATOM     89  C   UNL A   1      46.365  35.531  29.547  1.00  0.00     0.022 A 
BRANCH  87  90
ATOM     90  S   UNL A   1      45.644  36.632  27.141  1.00  0.00     0.127 S 
ATOM     91  O   UNL A   1      46.410  37.671  27.825  1.00  0.00    -0.237 OA
ATOM     92  O   UNL A   1      46.322  36.031  25.991  1.00  0.00    -0.237 OA
ATOM     93  O   UNL A   1      44.236  36.932  26.918  1.00  0.00    -0.744 OA
ENDBRANCH  87  90
ENDBRANCH  60  83
ENDBRANCH  34  35
ENDBRANCH  26  29
ENDBRANCH  24  25
ENDBRANCH  23  24
ENDBRANCH   1  23
TORSDOF 18
ENDMDL
MODEL 3
REMARK VINA RESULT:     -11.3      5.887     11.680
REMARK SMILES COC[C@H]1CCN(C(=O)N2CC[C@H](C(=O)NCCCCNC(=O)c3ccc(-c4c5nc(c(-c6cccc(S(=O)(=O)[O-])c6F)c6ccc([nH]6)c(-c6cccc(S(=O)(=O)[O-])c6F)c6nc(c(-c7cccc(S(=O)(=O)[O-])c7F)c7ccc4[nH]7)C=C6)C=C5)cc3)[C@@H]2C)C1
REMARK SMILES IDX 18 1 17 2 16 3 14 4 15 5 13 7 10 8 11 9 87 10 12 11 88 12
REMARK SMILES IDX 8 13 9 14 7 15 4 16 5 17 89 18 6 19 3 20 2 21 1 22 19 23
REMARK SMILES IDX 20 24 21 25 22 26 23 28 24 29 25 30 86 31 26 32 85 33 27 34
REMARK SMILES IDX 28 35 29 36 79 37 30 38 84 39 78 40 80 41 31 42 83 43 77 44
REMARK SMILES IDX 76 45 32 47 64 48 44 49 63 50 45 51 48 52 62 53 81 54 46 55
REMARK SMILES IDX 47 56 61 58 82 59 49 60 33 61 34 62 42 63 35 64 37 65 43 66
REMARK SMILES IDX 36 67 38 68 39 69 40 70 41 71 65 72 66 73 74 74 67 75 69 76
REMARK SMILES IDX 75 77 68 78 70 79 71 80 72 81 73 82 50 83 51 84 59 85 52 86
REMARK SMILES IDX 54 87 60 88 53 89 55 90 56 91 57 92 58 93
REMARK H PARENT 16 6 21 27 80 46 48 57
REMARK Flexibility Score: inf
ROOT
ATOM      1  C   UNL A   1      36.984  19.859  25.010  1.00  0.00     0.023 C 
ENDROOT
BRANCH   1   2
ATOM      2  C   UNL A   1      36.505  21.229  24.549  1.00  0.00     0.116 C 
BRANCH   2   3
ATOM      3  N   UNL A   1      37.115  22.327  25.270  1.00  0.00    -0.356 N 
ATOM      4  C   UNL A   1      36.586  23.502  25.705  1.00  0.00     0.225 C 
ATOM      5  O   UNL A   1      37.309  24.221  26.402  1.00  0.00    -0.275 OA
ATOM      6  H   UNL A   1      38.069  22.202  25.478  1.00  0.00     0.163 HD
BRANCH   4   7
ATOM      7  C   UNL A   1      35.178  23.976  25.357  1.00  0.00     0.102 C 
ATOM      8  N   UNL A   1      33.340  22.555  24.955  1.00  0.00    -0.321 N 
ATOM      9  C   UNL A   1      33.473  23.360  23.757  1.00  0.00     0.122 C 
ATOM     10  C   UNL A   1      33.990  23.274  26.049  1.00  0.00     0.096 C 
ATOM     11  C   UNL A   1      34.881  23.919  23.846  1.00  0.00     0.037 C 
ATOM     12  C   UNL A   1      34.313  22.449  27.290  1.00  0.00     0.032 C 
BRANCH   8  13
ATOM     13  C   UNL A   1      32.283  21.700  25.149  1.00  0.00     0.320 C 
ATOM     14  O   UNL A   1      31.278  22.048  25.765  1.00  0.00    -0.248 OA
BRANCH  13  15
ATOM     15  N   UNL A   1      32.442  20.414  24.681  1.00  0.00    -0.324 N 
ATOM     16  C   UNL A   1      33.334  18.214  24.618  1.00  0.00     0.036 C 
ATOM     17  C   UNL A   1      32.366  18.422  23.454  1.00  0.00     0.029 C 
ATOM     18  C   UNL A   1      33.047  19.404  25.539  1.00  0.00     0.127 C 
ATOM     19  C   UNL A   1      32.374  19.933  23.309  1.00  0.00     0.122 C 
BRANCH  16  20
ATOM     20  C   UNL A   1      33.172  16.865  25.305  1.00  0.00     0.165 C 
BRANCH  20  21
ATOM     21  O   UNL A   1      34.009  15.859  24.739  1.00  0.00    -0.384 OA
ATOM     22  C   UNL A   1      35.324  15.841  25.279  1.00  0.00     0.194 C 
ENDBRANCH  20  21
ENDBRANCH  16  20
ENDBRANCH  13  15
ENDBRANCH   8  13
ENDBRANCH   4   7
ENDBRANCH   2   3
ENDBRANCH   1   2
BRANCH   1  23
ATOM     23  C   UNL A   1      38.478  19.603  24.825  1.00  0.00     0.023 C 
BRANCH  23  24
ATOM     24  C   UNL A   1      39.347  19.825  26.059  1.00  0.00     0.116 C 
BRANCH  24  25
ATOM     25  N   UNL A   1      40.586  19.056  26.048  1.00  0.00    -0.352 N 
ATOM     26  C   UNL A   1      41.878  19.500  26.202  1.00  0.00     0.251 C 
ATOM     27  H   UNL A   1      40.483  18.087  25.909  1.00  0.00     0.163 HD
ATOM     28  O   UNL A   1      42.817  18.720  26.063  1.00  0.00    -0.269 OA
BRANCH  26  29
ATOM     29  C   UNL A   1      42.128  20.928  26.501  1.00  0.00     0.039 A 
ATOM     30  C   UNL A   1      42.315  21.318  27.830  1.00  0.00     0.014 A 
ATOM     31  C   UNL A   1      42.225  21.864  25.470  1.00  0.00     0.014 A 
ATOM     32  C   UNL A   1      42.681  22.636  28.115  1.00  0.00     0.010 A 
ATOM     33  C   UNL A   1      42.660  23.156  25.750  1.00  0.00     0.010 A 
ATOM     34  C   UNL A   1      42.897  23.555  27.075  1.00  0.00    -0.014 A 
BRANCH  34  35
ATOM     35  C   UNL A   1      43.398  24.928  27.345  1.00  0.00     0.031 A 
ATOM     36  C   UNL A   1      42.465  25.990  27.859  1.00  0.00     0.074 A 
ATOM     37  C   UNL A   1      44.669  25.247  27.026  1.00  0.00     0.049 A 
ATOM     38  N   UNL A   1      42.704  27.254  28.092  1.00  0.00    -0.248 NA
ATOM     39  C   UNL A   1      41.073  25.586  28.117  1.00  0.00     0.031 C 
ATOM     40  C   UNL A   1      45.648  24.333  26.432  1.00  0.00     0.029 A 
ATOM     41  N   UNL A   1      45.348  26.435  27.130  1.00  0.00    -0.354 N 
ATOM     42  C   UNL A   1      41.491  27.805  28.485  1.00  0.00     0.074 A 
ATOM     43  C   UNL A   1      40.508  26.744  28.427  1.00  0.00     0.031 C 
ATOM     44  C   UNL A   1      46.799  24.992  26.227  1.00  0.00     0.029 A 
ATOM     45  C   UNL A   1      46.637  26.379  26.652  1.00  0.00     0.049 A 
ATOM     46  H   UNL A   1      44.951  27.251  27.512  1.00  0.00     0.167 HD
ATOM     47  C   UNL A   1      41.222  29.069  28.889  1.00  0.00     0.034 A 
ATOM     48  C   UNL A   1      47.583  27.336  26.565  1.00  0.00     0.034 A 
ATOM     49  C   UNL A   1      42.212  30.106  29.002  1.00  0.00     0.049 A 
ATOM     50  C   UNL A   1      47.278  28.716  27.084  1.00  0.00     0.074 A 
ATOM     51  C   UNL A   1      42.061  31.389  29.498  1.00  0.00     0.029 A 
ATOM     52  N   UNL A   1      43.536  29.982  28.612  1.00  0.00    -0.354 N 
ATOM     53  N   UNL A   1      46.169  29.169  27.619  1.00  0.00    -0.248 NA
ATOM     54  C   UNL A   1      48.363  29.705  27.026  1.00  0.00     0.031 C 
ATOM     55  C   UNL A   1      43.294  32.043  29.398  1.00  0.00     0.029 A 
ATOM     56  C   UNL A   1      44.214  31.165  28.853  1.00  0.00     0.049 A 
ATOM     57  H   UNL A   1      43.936  29.172  28.221  1.00  0.00     0.167 HD
ATOM     58  C   UNL A   1      46.435  30.481  27.992  1.00  0.00     0.074 A 
ATOM     59  C   UNL A   1      47.816  30.744  27.642  1.00  0.00     0.031 C 
ATOM     60  C   UNL A   1      45.605  31.393  28.556  1.00  0.00     0.034 A 
BRANCH  47  61
ATOM     61  C   UNL A   1      39.811  29.384  29.309  1.00  0.00     0.023 A 
ATOM     62  C   UNL A   1      38.825  29.581  28.321  1.00  0.00     0.012 A 
ATOM     63  C   UNL A   1      39.446  29.428  30.669  1.00  0.00     0.148 A 
ATOM     64  C   UNL A   1      37.505  29.849  28.678  1.00  0.00     0.002 A 
ATOM     65  C   UNL A   1      38.119  29.655  31.016  1.00  0.00     0.091 A 
ATOM     66  F   UNL A   1      40.402  29.262  31.594  1.00  0.00    -0.205 F 
ATOM     67  C   UNL A   1      37.151  29.876  30.024  1.00  0.00     0.022 A 
BRANCH  65  68
ATOM     68  S   UNL A   1      37.549  29.633  32.720  1.00  0.00     0.127 S 
ATOM     69  O   UNL A   1      37.478  28.199  32.989  1.00  0.00    -0.237 OA
ATOM     70  O   UNL A   1      38.629  30.331  33.417  1.00  0.00    -0.237 OA
ATOM     71  O   UNL A   1      36.274  30.337  32.723  1.00  0.00    -0.744 OA
ENDBRANCH  65  68
ENDBRANCH  47  61
BRANCH  48  72
ATOM     72  C   UNL A   1      48.936  26.999  26.041  1.00  0.00     0.023 A 
ATOM     73  C   UNL A   1      49.820  26.257  26.849  1.00  0.00     0.012 A 
ATOM     74  C   UNL A   1      49.342  27.375  24.746  1.00  0.00     0.148 A 
ATOM     75  C   UNL A   1      51.095  25.922  26.389  1.00  0.00     0.002 A 
ATOM     76  C   UNL A   1      50.592  26.991  24.273  1.00  0.00     0.091 A 
ATOM     77  F   UNL A   1      48.492  28.092  23.997  1.00  0.00    -0.205 F 
ATOM     78  C   UNL A   1      51.477  26.279  25.099  1.00  0.00     0.022 A 
BRANCH  76  79
ATOM     79  S   UNL A   1      51.110  27.291  22.580  1.00  0.00     0.127 S 
ATOM     80  O   UNL A   1      52.403  26.614  22.538  1.00  0.00    -0.237 OA
ATOM     81  O   UNL A   1      50.047  26.639  21.815  1.00  0.00    -0.237 OA
ATOM     82  O   UNL A   1      51.145  28.740  22.434  1.00  0.00    -0.744 OA
ENDBRANCH  76  79
ENDBRANCH  48  72
BRANCH  60  83
ATOM     83  C   UNL A   1      46.167  32.756  28.864  1.00  0.00     0.023 A 
ATOM     84  C   UNL A   1      46.881  32.961  30.060  1.00  0.00     0.012 A 
ATOM     85  C   UNL A   1      46.057  33.807  27.933  1.00  0.00     0.148 A 
ATOM     86  C   UNL A   1      47.454  34.202  30.339  1.00  0.00     0.002 A 
ATOM     87  C   UNL A   1      46.669  35.027  28.197  1.00  0.00     0.091 A 
ATOM     88  F   UNL A   1      45.356  33.599  26.810  1.00  0.00    -0.205 F 
ATOM     89  C   UNL A   1      47.358  35.229  29.403  1.00  0.00     0.022 A 
BRANCH  87  90
ATOM     90  S   UNL A   1      46.675  36.374  27.007  1.00  0.00     0.127 S 
ATOM     91  O   UNL A   1      45.253  36.697  26.914  1.00  0.00    -0.237 OA
ATOM     92  O   UNL A   1      47.489  37.385  27.683  1.00  0.00    -0.237 OA
ATOM     93  O   UNL A   1      47.277  35.830  25.796  1.00  0.00    -0.744 OA
ENDBRANCH  87  90
ENDBRANCH  60  83
ENDBRANCH  34  35
ENDBRANCH  26  29
ENDBRANCH  24  25
ENDBRANCH  23  24
ENDBRANCH   1  23
TORSDOF 18
ENDMDL
