MODEL 1
REMARK VINA RESULT:     -11.7      0.000      0.000
REMARK SMILES O=C(NCCCCNC(=O)[C@H]1CC[C@H](CNC(=O)c2ccccc2O)O1)c1ccc(-c2c3nc(c(-c4cccc(S(=O)(=O)[O-])c4F)c4ccc([nH]4)c(-c4cccc(S(=O)(=O)[O-])c4F)c4nc(c(-c5cccc(S(=O)(=O)[O-])c5F)c5ccc2[nH]5)C=C4)C=C3)cc1
REMARK SMILES IDX 6 1 5 2 4 3 3 4 1 5 2 6 27 8 28 9 89 10 29 11 88 12 30 13
REMARK SMILES IDX 31 14 32 15 82 16 33 17 87 18 81 19 83 20 34 21 86 22 80 23
REMARK SMILES IDX 79 24 35 26 67 27 47 28 66 29 48 30 51 31 65 32 84 33 49 34
REMARK SMILES IDX 50 35 64 37 85 38 52 39 36 40 37 41 45 42 38 43 40 44 46 45
REMARK SMILES IDX 39 46 41 47 42 48 43 49 44 50 68 51 69 52 77 53 70 54 72 55
REMARK SMILES IDX 78 56 71 57 73 58 74 59 75 60 76 61 53 62 54 63 62 64 55 65
REMARK SMILES IDX 57 66 63 67 56 68 58 69 59 70 60 71 61 72 7 73 8 74 9 75
REMARK SMILES IDX 10 77 11 78 12 79 26 80 13 81 14 82 15 83 16 84 17 85 18 87
REMARK SMILES IDX 19 88 20 89 24 90 21 91 23 92 22 93 25 94
REMARK H PARENT 3 7 83 25 51 36 8 76 16 86 25 95
REMARK Flexibility Score: inf
ROOT
ATOM      1  C   UNL A   1      36.659  19.896  25.003  1.00  0.00     0.023 C 
ENDROOT
BRANCH   1   2
ATOM      2  C   UNL A   1      38.141  19.593  24.775  1.00  0.00     0.023 C 
BRANCH   2   3
ATOM      3  C   UNL A   1      39.070  19.979  25.920  1.00  0.00     0.116 C 
BRANCH   3   4
ATOM      4  N   UNL A   1      40.266  19.156  25.977  1.00  0.00    -0.352 N 
ATOM      5  O   UNL A   1      42.477  18.737  26.023  1.00  0.00    -0.269 OA
ATOM      6  C   UNL A   1      41.569  19.553  26.159  1.00  0.00     0.251 C 
ATOM      7  H   UNL A   1      40.124  18.188  25.870  1.00  0.00     0.163 HD
BRANCH   6   8
ATOM      8  C   UNL A   1      41.868  20.964  26.492  1.00  0.00     0.039 A 
ATOM      9  C   UNL A   1      42.047  21.360  27.821  1.00  0.00     0.014 A 
ATOM     10  C   UNL A   1      41.988  21.898  25.460  1.00  0.00     0.014 A 
ATOM     11  C   UNL A   1      42.234  22.705  28.124  1.00  0.00     0.010 A 
ATOM     12  C   UNL A   1      42.249  23.238  25.762  1.00  0.00     0.010 A 
ATOM     13  C   UNL A   1      42.360  23.655  27.099  1.00  0.00    -0.014 A 
BRANCH  13  14
ATOM     14  C   UNL A   1      42.745  25.049  27.438  1.00  0.00     0.031 A 
ATOM     15  C   UNL A   1      41.770  26.009  28.060  1.00  0.00     0.074 A 
ATOM     16  C   UNL A   1      43.997  25.450  27.138  1.00  0.00     0.049 A 
ATOM     17  N   UNL A   1      41.964  27.254  28.413  1.00  0.00    -0.248 NA
ATOM     18  C   UNL A   1      40.406  25.521  28.313  1.00  0.00     0.031 C 
ATOM     19  C   UNL A   1      45.007  24.621  26.475  1.00  0.00     0.029 A 
ATOM     20  N   UNL A   1      44.628  26.652  27.329  1.00  0.00    -0.354 N 
ATOM     21  C   UNL A   1      40.743  27.712  28.892  1.00  0.00     0.074 A 
ATOM     22  C   UNL A   1      39.811  26.609  28.790  1.00  0.00     0.031 C 
ATOM     23  C   UNL A   1      46.130  25.335  26.316  1.00  0.00     0.029 A 
ATOM     24  C   UNL A   1      45.906  26.684  26.820  1.00  0.00     0.049 A 
ATOM     25  H   UNL A   1      44.210  27.417  27.786  1.00  0.00     0.167 HD
ATOM     26  C   UNL A   1      40.436  28.938  29.381  1.00  0.00     0.034 A 
ATOM     27  C   UNL A   1      46.793  27.695  26.736  1.00  0.00     0.034 A 
ATOM     28  C   UNL A   1      41.382  30.014  29.520  1.00  0.00     0.049 A 
ATOM     29  C   UNL A   1      46.423  29.033  27.308  1.00  0.00     0.074 A 
ATOM     30  C   UNL A   1      41.194  31.250  30.116  1.00  0.00     0.029 A 
ATOM     31  N   UNL A   1      42.682  29.997  29.041  1.00  0.00    -0.354 N 
ATOM     32  N   UNL A   1      45.324  29.388  27.927  1.00  0.00    -0.248 NA
ATOM     33  C   UNL A   1      47.421  30.104  27.188  1.00  0.00     0.031 C 
ATOM     34  C   UNL A   1      42.371  31.992  29.970  1.00  0.00     0.029 A 
ATOM     35  C   UNL A   1      43.297  31.212  29.297  1.00  0.00     0.049 A 
ATOM     36  H   UNL A   1      43.105  29.235  28.585  1.00  0.00     0.167 HD
ATOM     37  C   UNL A   1      45.502  30.718  28.280  1.00  0.00     0.074 A 
ATOM     38  C   UNL A   1      46.830  31.095  27.843  1.00  0.00     0.031 C 
ATOM     39  C   UNL A   1      44.632  31.561  28.889  1.00  0.00     0.034 A 
BRANCH  26  40
ATOM     40  C   UNL A   1      39.029  29.192  29.852  1.00  0.00     0.023 A 
ATOM     41  C   UNL A   1      38.678  28.893  31.183  1.00  0.00     0.012 A 
ATOM     42  C   UNL A   1      38.099  29.846  29.020  1.00  0.00     0.148 A 
ATOM     43  C   UNL A   1      37.419  29.234  31.678  1.00  0.00     0.002 A 
ATOM     44  C   UNL A   1      36.858  30.213  29.530  1.00  0.00     0.091 A 
ATOM     45  F   UNL A   1      38.449  30.108  27.753  1.00  0.00    -0.205 F 
ATOM     46  C   UNL A   1      36.516  29.903  30.856  1.00  0.00     0.022 A 
BRANCH  44  47
ATOM     47  S   UNL A   1      35.649  31.142  28.578  1.00  0.00     0.127 S 
ATOM     48  O   UNL A   1      34.751  31.618  29.629  1.00  0.00    -0.237 OA
ATOM     49  O   UNL A   1      36.475  32.183  27.965  1.00  0.00    -0.237 OA
ATOM     50  O   UNL A   1      35.061  30.197  27.639  1.00  0.00    -0.744 OA
ENDBRANCH  44  47
ENDBRANCH  26  40
BRANCH  27  51
ATOM     51  C   UNL A   1      48.119  27.465  26.101  1.00  0.00     0.023 A 
ATOM     52  C   UNL A   1      49.215  27.078  26.895  1.00  0.00     0.012 A 
ATOM     53  C   UNL A   1      48.291  27.592  24.709  1.00  0.00     0.148 A 
ATOM     54  C   UNL A   1      50.464  26.850  26.318  1.00  0.00     0.002 A 
ATOM     55  C   UNL A   1      49.522  27.302  24.133  1.00  0.00     0.091 A 
ATOM     56  F   UNL A   1      47.243  27.984  23.969  1.00  0.00    -0.205 F 
ATOM     57  C   UNL A   1      50.615  26.948  24.936  1.00  0.00     0.022 A 
BRANCH  55  58
ATOM     58  S   UNL A   1      49.738  27.260  22.350  1.00  0.00     0.127 S 
ATOM     59  O   UNL A   1      49.481  28.649  21.982  1.00  0.00    -0.237 OA
ATOM     60  O   UNL A   1      51.131  26.834  22.215  1.00  0.00    -0.237 OA
ATOM     61  O   UNL A   1      48.771  26.278  21.876  1.00  0.00    -0.744 OA
ENDBRANCH  55  58
ENDBRANCH  27  51
BRANCH  39  62
ATOM     62  C   UNL A   1      45.088  32.978  29.112  1.00  0.00     0.023 A 
ATOM     63  C   UNL A   1      45.756  33.306  30.309  1.00  0.00     0.012 A 
ATOM     64  C   UNL A   1      44.913  33.964  28.122  1.00  0.00     0.148 A 
ATOM     65  C   UNL A   1      46.217  34.603  30.530  1.00  0.00     0.002 A 
ATOM     66  C   UNL A   1      45.415  35.243  28.331  1.00  0.00     0.091 A 
ATOM     67  F   UNL A   1      44.258  33.634  26.999  1.00  0.00    -0.205 F 
ATOM     68  C   UNL A   1      46.057  35.567  29.537  1.00  0.00     0.022 A 
BRANCH  66  69
ATOM     69  S   UNL A   1      45.332  36.526  27.076  1.00  0.00     0.127 S 
ATOM     70  O   UNL A   1      43.899  36.575  26.794  1.00  0.00    -0.237 OA
ATOM     71  O   UNL A   1      45.853  37.693  27.790  1.00  0.00    -0.237 OA
ATOM     72  O   UNL A   1      46.170  36.067  25.977  1.00  0.00    -0.744 OA
ENDBRANCH  66  69
ENDBRANCH  39  62
ENDBRANCH  13  14
ENDBRANCH   6   8
ENDBRANCH   3   4
ENDBRANCH   2   3
ENDBRANCH   1   2
BRANCH   1  73
ATOM     73  C   UNL A   1      36.358  21.318  25.475  1.00  0.00     0.116 C 
BRANCH  73  74
ATOM     74  N   UNL A   1      35.324  21.359  26.494  1.00  0.00    -0.354 N 
ATOM     75  C   UNL A   1      34.132  22.036  26.469  1.00  0.00     0.249 C 
ATOM     76  H   UNL A   1      35.502  20.834  27.308  1.00  0.00     0.163 HD
ATOM     77  O   UNL A   1      33.372  21.935  27.431  1.00  0.00    -0.272 OA
BRANCH  75  78
ATOM     78  C   UNL A   1      33.793  22.862  25.217  1.00  0.00     0.207 C 
ATOM     79  C   UNL A   1      33.504  22.025  23.983  1.00  0.00     0.045 C 
ATOM     80  O   UNL A   1      32.619  23.649  25.475  1.00  0.00    -0.363 OA
ATOM     81  C   UNL A   1      32.002  21.893  24.009  1.00  0.00     0.037 C 
ATOM     82  C   UNL A   1      31.553  23.216  24.607  1.00  0.00     0.138 C 
BRANCH  82  83
ATOM     83  C   UNL A   1      31.324  24.338  23.585  1.00  0.00     0.148 C 
BRANCH  83  84
ATOM     84  N   UNL A   1      29.981  24.891  23.601  1.00  0.00    -0.349 N 
ATOM     85  C   UNL A   1      29.547  26.091  24.108  1.00  0.00     0.255 C 
ATOM     86  H   UNL A   1      29.286  24.328  23.190  1.00  0.00     0.163 HD
ATOM     87  O   UNL A   1      28.351  26.372  24.061  1.00  0.00    -0.269 OA
BRANCH  85  88
ATOM     88  C   UNL A   1      30.480  27.013  24.790  1.00  0.00     0.081 A 
ATOM     89  C   UNL A   1      30.894  28.141  24.069  1.00  0.00     0.018 A 
ATOM     90  C   UNL A   1      30.989  26.788  26.075  1.00  0.00     0.128 A 
ATOM     91  C   UNL A   1      31.768  29.062  24.647  1.00  0.00     0.001 A 
ATOM     92  C   UNL A   1      31.855  27.718  26.657  1.00  0.00     0.047 A 
ATOM     93  C   UNL A   1      32.238  28.855  25.943  1.00  0.00     0.004 A 
BRANCH  90  94
ATOM     94  O   UNL A   1      30.651  25.660  26.771  1.00  0.00    -0.507 OA
ATOM     95  H   UNL A   1      31.226  24.921  26.771  1.00  0.00     0.293 HD
ENDBRANCH  90  94
ENDBRANCH  85  88
ENDBRANCH  83  84
ENDBRANCH  82  83
ENDBRANCH  75  78
ENDBRANCH  73  74
ENDBRANCH   1  73
TORSDOF 18
ENDMDL
MODEL 2
REMARK VINA RESULT:     -11.7      5.658     11.141
REMARK SMILES O=C(NCCCCNC(=O)[C@H]1CC[C@H](CNC(=O)c2ccccc2O)O1)c1ccc(-c2c3nc(c(-c4cccc(S(=O)(=O)[O-])c4F)c4ccc([nH]4)c(-c4cccc(S(=O)(=O)[O-])c4F)c4nc(c(-c5cccc(S(=O)(=O)[O-])c5F)c5ccc2[nH]5)C=C4)C=C3)cc1
REMARK SMILES IDX 6 1 5 2 4 3 3 4 1 5 2 6 27 8 28 9 89 10 29 11 88 12 30 13
REMARK SMILES IDX 31 14 32 15 82 16 33 17 87 18 81 19 83 20 34 21 86 22 80 23
REMARK SMILES IDX 79 24 35 26 67 27 47 28 66 29 48 30 51 31 65 32 84 33 49 34
REMARK SMILES IDX 50 35 64 37 85 38 52 39 36 40 37 41 45 42 38 43 40 44 46 45
REMARK SMILES IDX 39 46 41 47 42 48 43 49 44 50 68 51 69 52 77 53 70 54 72 55
REMARK SMILES IDX 78 56 71 57 73 58 74 59 75 60 76 61 53 62 54 63 62 64 55 65
REMARK SMILES IDX 57 66 63 67 56 68 58 69 59 70 60 71 61 72 7 73 8 74 9 75
REMARK SMILES IDX 10 77 11 78 12 79 26 80 13 81 14 82 15 83 16 84 17 85 18 87
REMARK SMILES IDX 19 88 20 89 24 90 21 91 23 92 22 93 25 94
REMARK H PARENT 3 7 83 25 51 36 8 76 16 86 25 95
REMARK Flexibility Score: inf
ROOT
ATOM      1  C   UNL A   1      31.225  30.754  25.614  1.00  0.00     0.023 C 
ENDROOT
BRANCH   1   2
ATOM      2  C   UNL A   1      31.185  32.043  26.437  1.00  0.00     0.023 C 
BRANCH   2   3
ATOM      3  C   UNL A   1      32.513  32.468  27.051  1.00  0.00     0.116 C 
BRANCH   3   4
ATOM      4  N   UNL A   1      32.523  33.861  27.464  1.00  0.00    -0.352 N 
ATOM      5  O   UNL A   1      33.125  35.634  28.714  1.00  0.00    -0.269 OA
ATOM      6  C   UNL A   1      33.358  34.481  28.363  1.00  0.00     0.251 C 
ATOM      7  H   UNL A   1      31.841  34.436  27.046  1.00  0.00     0.163 HD
BRANCH   6   8
ATOM      8  C   UNL A   1      34.515  33.744  28.919  1.00  0.00     0.039 A 
ATOM      9  C   UNL A   1      35.822  34.131  28.610  1.00  0.00     0.014 A 
ATOM     10  C   UNL A   1      34.289  32.662  29.775  1.00  0.00     0.014 A 
ATOM     11  C   UNL A   1      36.897  33.372  29.065  1.00  0.00     0.010 A 
ATOM     12  C   UNL A   1      35.373  31.945  30.291  1.00  0.00     0.010 A 
ATOM     13  C   UNL A   1      36.686  32.286  29.928  1.00  0.00    -0.014 A 
BRANCH  13  14
ATOM     14  C   UNL A   1      37.853  31.609  30.548  1.00  0.00     0.031 A 
ATOM     15  C   UNL A   1      38.632  30.550  29.819  1.00  0.00     0.074 A 
ATOM     16  C   UNL A   1      38.182  31.946  31.811  1.00  0.00     0.049 A 
ATOM     17  N   UNL A   1      39.674  29.874  30.231  1.00  0.00    -0.248 NA
ATOM     18  C   UNL A   1      38.187  30.194  28.462  1.00  0.00     0.031 C 
ATOM     19  C   UNL A   1      37.456  32.915  32.636  1.00  0.00     0.029 A 
ATOM     20  N   UNL A   1      39.189  31.502  32.629  1.00  0.00    -0.354 N 
ATOM     21  C   UNL A   1      39.987  28.988  29.208  1.00  0.00     0.074 A 
ATOM     22  C   UNL A   1      39.027  29.214  28.149  1.00  0.00     0.031 C 
ATOM     23  C   UNL A   1      38.041  32.996  33.840  1.00  0.00     0.029 A 
ATOM     24  C   UNL A   1      39.149  32.052  33.890  1.00  0.00     0.049 A 
ATOM     25  H   UNL A   1      39.873  30.855  32.343  1.00  0.00     0.167 HD
ATOM     26  C   UNL A   1      40.992  28.080  29.157  1.00  0.00     0.034 A 
ATOM     27  C   UNL A   1      39.901  31.803  34.980  1.00  0.00     0.034 A 
ATOM     28  C   UNL A   1      41.969  27.896  30.199  1.00  0.00     0.049 A 
ATOM     29  C   UNL A   1      41.017  30.804  34.879  1.00  0.00     0.074 A 
ATOM     30  C   UNL A   1      43.093  27.087  30.186  1.00  0.00     0.029 A 
ATOM     31  N   UNL A   1      41.930  28.504  31.443  1.00  0.00    -0.354 N 
ATOM     32  N   UNL A   1      41.412  30.114  33.837  1.00  0.00    -0.248 NA
ATOM     33  C   UNL A   1      41.806  30.564  36.095  1.00  0.00     0.031 C 
ATOM     34  C   UNL A   1      43.717  27.183  31.434  1.00  0.00     0.029 A 
ATOM     35  C   UNL A   1      42.990  28.064  32.218  1.00  0.00     0.049 A 
ATOM     36  H   UNL A   1      41.249  29.153  31.733  1.00  0.00     0.167 HD
ATOM     37  C   UNL A   1      42.499  29.367  34.267  1.00  0.00     0.074 A 
ATOM     38  C   UNL A   1      42.727  29.719  35.654  1.00  0.00     0.031 C 
ATOM     39  C   UNL A   1      43.228  28.451  33.584  1.00  0.00     0.034 A 
BRANCH  26  40
ATOM     40  C   UNL A   1      41.132  27.232  27.922  1.00  0.00     0.023 A 
ATOM     41  C   UNL A   1      41.778  27.760  26.787  1.00  0.00     0.012 A 
ATOM     42  C   UNL A   1      40.746  25.877  27.932  1.00  0.00     0.148 A 
ATOM     43  C   UNL A   1      42.031  26.956  25.677  1.00  0.00     0.002 A 
ATOM     44  C   UNL A   1      41.030  25.072  26.834  1.00  0.00     0.091 A 
ATOM     45  F   UNL A   1      40.119  25.399  29.016  1.00  0.00    -0.205 F 
ATOM     46  C   UNL A   1      41.669  25.611  25.705  1.00  0.00     0.022 A 
BRANCH  44  47
ATOM     47  S   UNL A   1      40.672  23.311  26.797  1.00  0.00     0.127 S 
ATOM     48  O   UNL A   1      41.533  22.860  25.705  1.00  0.00    -0.237 OA
ATOM     49  O   UNL A   1      41.102  22.882  28.129  1.00  0.00    -0.237 OA
ATOM     50  O   UNL A   1      39.242  23.196  26.550  1.00  0.00    -0.744 OA
ENDBRANCH  44  47
ENDBRANCH  26  40
BRANCH  27  51
ATOM     51  C   UNL A   1      39.626  32.529  36.250  1.00  0.00     0.023 A 
ATOM     52  C   UNL A   1      40.308  33.728  36.529  1.00  0.00     0.012 A 
ATOM     53  C   UNL A   1      38.665  32.057  37.165  1.00  0.00     0.148 A 
ATOM     54  C   UNL A   1      40.058  34.428  37.710  1.00  0.00     0.002 A 
ATOM     55  C   UNL A   1      38.377  32.792  38.308  1.00  0.00     0.091 A 
ATOM     56  F   UNL A   1      38.041  30.901  36.896  1.00  0.00    -0.205 F 
ATOM     57  C   UNL A   1      39.084  33.968  38.592  1.00  0.00     0.022 A 
BRANCH  55  58
ATOM     58  S   UNL A   1      37.028  32.334  39.403  1.00  0.00     0.127 S 
ATOM     59  O   UNL A   1      37.264  33.203  40.553  1.00  0.00    -0.237 OA
ATOM     60  O   UNL A   1      35.850  32.675  38.605  1.00  0.00    -0.237 OA
ATOM     61  O   UNL A   1      37.195  30.905  39.631  1.00  0.00    -0.744 OA
ENDBRANCH  55  58
ENDBRANCH  27  51
BRANCH  39  62
ATOM     62  C   UNL A   1      44.337  27.758  34.328  1.00  0.00     0.023 A 
ATOM     63  C   UNL A   1      45.607  28.365  34.392  1.00  0.00     0.012 A 
ATOM     64  C   UNL A   1      44.111  26.547  35.012  1.00  0.00     0.148 A 
ATOM     65  C   UNL A   1      46.646  27.763  35.101  1.00  0.00     0.002 A 
ATOM     66  C   UNL A   1      45.139  25.976  35.752  1.00  0.00     0.091 A 
ATOM     67  F   UNL A   1      42.901  25.979  34.921  1.00  0.00    -0.205 F 
ATOM     68  C   UNL A   1      46.408  26.575  35.789  1.00  0.00     0.022 A 
BRANCH  66  69
ATOM     69  S   UNL A   1      44.903  24.494  36.740  1.00  0.00     0.127 S 
ATOM     70  O   UNL A   1      44.152  23.640  35.823  1.00  0.00    -0.237 OA
ATOM     71  O   UNL A   1      46.279  24.062  36.987  1.00  0.00    -0.237 OA
ATOM     72  O   UNL A   1      44.181  24.918  37.933  1.00  0.00    -0.744 OA
ENDBRANCH  66  69
ENDBRANCH  39  62
ENDBRANCH  13  14
ENDBRANCH   6   8
ENDBRANCH   3   4
ENDBRANCH   2   3
ENDBRANCH   1   2
BRANCH   1  73
ATOM     73  C   UNL A   1      32.453  29.877  25.852  1.00  0.00     0.116 C 
BRANCH  73  74
ATOM     74  N   UNL A   1      33.235  29.672  24.645  1.00  0.00    -0.354 N 
ATOM     75  C   UNL A   1      33.128  28.664  23.724  1.00  0.00     0.249 C 
ATOM     76  H   UNL A   1      33.932  30.345  24.467  1.00  0.00     0.163 HD
ATOM     77  O   UNL A   1      33.877  28.669  22.748  1.00  0.00    -0.272 OA
BRANCH  75  78
ATOM     78  C   UNL A   1      32.047  27.592  23.942  1.00  0.00     0.207 C 
ATOM     79  C   UNL A   1      31.027  27.505  22.821  1.00  0.00     0.045 C 
ATOM     80  O   UNL A   1      32.674  26.303  24.043  1.00  0.00    -0.363 OA
ATOM     81  C   UNL A   1      31.587  26.416  21.940  1.00  0.00     0.037 C 
ATOM     82  C   UNL A   1      32.255  25.481  22.935  1.00  0.00     0.138 C 
BRANCH  82  83
ATOM     83  C   UNL A   1      31.339  24.391  23.507  1.00  0.00     0.148 C 
BRANCH  83  84
ATOM     84  N   UNL A   1      31.377  23.138  22.774  1.00  0.00    -0.349 N 
ATOM     85  C   UNL A   1      32.060  21.985  23.070  1.00  0.00     0.255 C 
ATOM     86  H   UNL A   1      30.837  23.112  21.951  1.00  0.00     0.163 HD
ATOM     87  O   UNL A   1      31.998  21.028  22.301  1.00  0.00    -0.269 OA
BRANCH  85  88
ATOM     88  C   UNL A   1      32.942  21.903  24.254  1.00  0.00     0.081 A 
ATOM     89  C   UNL A   1      34.316  22.071  24.032  1.00  0.00     0.018 A 
ATOM     90  C   UNL A   1      32.480  21.628  25.546  1.00  0.00     0.128 A 
ATOM     91  C   UNL A   1      35.213  22.015  25.099  1.00  0.00     0.001 A 
ATOM     92  C   UNL A   1      33.378  21.585  26.617  1.00  0.00     0.047 A 
ATOM     93  C   UNL A   1      34.741  21.784  26.391  1.00  0.00     0.004 A 
BRANCH  90  94
ATOM     94  O   UNL A   1      31.152  21.396  25.777  1.00  0.00    -0.507 OA
ATOM     95  H   UNL A   1      30.672  21.957  26.353  1.00  0.00     0.293 HD
ENDBRANCH  90  94
ENDBRANCH  85  88
ENDBRANCH  83  84
ENDBRANCH  82  83
ENDBRANCH  75  78
ENDBRANCH  73  74
ENDBRANCH   1  73
TORSDOF 18
ENDMDL
MODEL 3
REMARK VINA RESULT:     -11.6      6.196     11.346
REMARK SMILES O=C(NCCCCNC(=O)[C@H]1CC[C@H](CNC(=O)c2ccccc2O)O1)c1ccc(-c2c3nc(c(-c4cccc(S(=O)(=O)[O-])c4F)c4ccc([nH]4)c(-c4cccc(S(=O)(=O)[O-])c4F)c4nc(c(-c5cccc(S(=O)(=O)[O-])c5F)c5ccc2[nH]5)C=C4)C=C3)cc1
REMARK SMILES IDX 6 1 5 2 4 3 3 4 1 5 2 6 27 8 28 9 89 10 29 11 88 12 30 13
REMARK SMILES IDX 31 14 32 15 82 16 33 17 87 18 81 19 83 20 34 21 86 22 80 23
REMARK SMILES IDX 79 24 35 26 67 27 47 28 66 29 48 30 51 31 65 32 84 33 49 34
REMARK SMILES IDX 50 35 64 37 85 38 52 39 36 40 37 41 45 42 38 43 40 44 46 45
REMARK SMILES IDX 39 46 41 47 42 48 43 49 44 50 68 51 69 52 77 53 70 54 72 55
REMARK SMILES IDX 78 56 71 57 73 58 74 59 75 60 76 61 53 62 54 63 62 64 55 65
REMARK SMILES IDX 57 66 63 67 56 68 58 69 59 70 60 71 61 72 7 73 8 74 9 75
REMARK SMILES IDX 10 77 11 78 12 79 26 80 13 81 14 82 15 83 16 84 17 85 18 87
REMARK SMILES IDX 19 88 20 89 24 90 21 91 23 92 22 93 25 94
REMARK H PARENT 3 7 83 25 51 36 8 76 16 86 25 95
REMARK Flexibility Score: inf
ROOT
ATOM      1  C   UNL A   1      31.758  30.164  26.544  1.00  0.00     0.023 C 
ENDROOT
BRANCH   1   2
ATOM      2  C   UNL A   1      31.627  31.682  26.672  1.00  0.00     0.023 C 
BRANCH   2   3
ATOM      3  C   UNL A   1      32.876  32.407  27.159  1.00  0.00     0.116 C 
BRANCH   3   4
ATOM      4  N   UNL A   1      32.609  33.774  27.576  1.00  0.00    -0.352 N 
ATOM      5  O   UNL A   1      32.745  35.585  28.904  1.00  0.00    -0.269 OA
ATOM      6  C   UNL A   1      33.204  34.492  28.585  1.00  0.00     0.251 C 
ATOM      7  H   UNL A   1      31.910  34.245  27.068  1.00  0.00     0.163 HD
BRANCH   6   8
ATOM      8  C   UNL A   1      34.375  33.930  29.295  1.00  0.00     0.039 A 
ATOM      9  C   UNL A   1      34.205  32.999  30.324  1.00  0.00     0.014 A 
ATOM     10  C   UNL A   1      35.659  34.327  28.915  1.00  0.00     0.014 A 
ATOM     11  C   UNL A   1      35.309  32.550  31.043  1.00  0.00     0.010 A 
ATOM     12  C   UNL A   1      36.773  33.819  29.591  1.00  0.00     0.010 A 
ATOM     13  C   UNL A   1      36.606  32.938  30.671  1.00  0.00    -0.014 A 
BRANCH  13  14
ATOM     14  C   UNL A   1      37.775  32.303  31.331  1.00  0.00     0.031 A 
ATOM     15  C   UNL A   1      38.520  31.163  30.696  1.00  0.00     0.074 A 
ATOM     16  C   UNL A   1      38.137  32.758  32.548  1.00  0.00     0.049 A 
ATOM     17  N   UNL A   1      39.559  30.513  31.152  1.00  0.00    -0.248 NA
ATOM     18  C   UNL A   1      38.040  30.683  29.390  1.00  0.00     0.031 C 
ATOM     19  C   UNL A   1      37.446  33.818  33.287  1.00  0.00     0.029 A 
ATOM     20  N   UNL A   1      39.154  32.379  33.386  1.00  0.00    -0.354 N 
ATOM     21  C   UNL A   1      39.835  29.524  30.216  1.00  0.00     0.074 A 
ATOM     22  C   UNL A   1      38.856  29.661  29.159  1.00  0.00     0.031 C 
ATOM     23  C   UNL A   1      38.058  34.006  34.465  1.00  0.00     0.029 A 
ATOM     24  C   UNL A   1      39.151  33.051  34.586  1.00  0.00     0.049 A 
ATOM     25  H   UNL A   1      39.821  31.694  33.152  1.00  0.00     0.167 HD
ATOM     26  C   UNL A   1      40.823  28.596  30.236  1.00  0.00     0.034 A 
ATOM     27  C   UNL A   1      39.922  32.898  35.680  1.00  0.00     0.034 A 
ATOM     28  C   UNL A   1      41.820  28.497  31.271  1.00  0.00     0.049 A 
ATOM     29  C   UNL A   1      41.019  31.873  35.656  1.00  0.00     0.074 A 
ATOM     30  C   UNL A   1      42.930  27.670  31.317  1.00  0.00     0.029 A 
ATOM     31  N   UNL A   1      41.818  29.227  32.449  1.00  0.00    -0.354 N 
ATOM     32  N   UNL A   1      41.379  31.075  34.681  1.00  0.00    -0.248 NA
ATOM     33  C   UNL A   1      41.830  31.740  36.874  1.00  0.00     0.031 C 
ATOM     34  C   UNL A   1      43.582  27.878  32.536  1.00  0.00     0.029 A 
ATOM     35  C   UNL A   1      42.888  28.846  33.242  1.00  0.00     0.049 A 
ATOM     36  H   UNL A   1      41.155  29.914  32.686  1.00  0.00     0.167 HD
ATOM     37  C   UNL A   1      42.463  30.355  35.162  1.00  0.00     0.074 A 
ATOM     38  C   UNL A   1      42.727  30.838  36.501  1.00  0.00     0.031 C 
ATOM     39  C   UNL A   1      43.161  29.361  34.559  1.00  0.00     0.034 A 
BRANCH  26  40
ATOM     40  C   UNL A   1      40.923  27.627  29.089  1.00  0.00     0.023 A 
ATOM     41  C   UNL A   1      40.029  26.541  29.019  1.00  0.00     0.012 A 
ATOM     42  C   UNL A   1      41.807  27.869  28.018  1.00  0.00     0.148 A 
ATOM     43  C   UNL A   1      40.018  25.702  27.904  1.00  0.00     0.002 A 
ATOM     44  C   UNL A   1      41.768  27.048  26.895  1.00  0.00     0.091 A 
ATOM     45  F   UNL A   1      42.658  28.900  28.112  1.00  0.00    -0.205 F 
ATOM     46  C   UNL A   1      40.877  25.963  26.839  1.00  0.00     0.022 A 
BRANCH  44  47
ATOM     47  S   UNL A   1      42.780  27.340  25.439  1.00  0.00     0.127 S 
ATOM     48  O   UNL A   1      42.612  26.084  24.709  1.00  0.00    -0.237 OA
ATOM     49  O   UNL A   1      42.117  28.493  24.829  1.00  0.00    -0.237 OA
ATOM     50  O   UNL A   1      44.127  27.598  25.930  1.00  0.00    -0.744 OA
ENDBRANCH  44  47
ENDBRANCH  26  40
BRANCH  27  51
ATOM     51  C   UNL A   1      39.687  33.751  36.877  1.00  0.00     0.023 A 
ATOM     52  C   UNL A   1      40.075  35.104  36.855  1.00  0.00     0.012 A 
ATOM     53  C   UNL A   1      39.049  33.238  38.023  1.00  0.00     0.148 A 
ATOM     54  C   UNL A   1      39.855  35.923  37.963  1.00  0.00     0.002 A 
ATOM     55  C   UNL A   1      38.777  34.075  39.098  1.00  0.00     0.091 A 
ATOM     56  F   UNL A   1      38.707  31.941  38.037  1.00  0.00    -0.205 F 
ATOM     57  C   UNL A   1      39.194  35.413  39.079  1.00  0.00     0.022 A 
BRANCH  55  58
ATOM     58  S   UNL A   1      37.795  33.519  40.496  1.00  0.00     0.127 S 
ATOM     59  O   UNL A   1      38.664  32.506  41.090  1.00  0.00    -0.237 OA
ATOM     60  O   UNL A   1      37.650  34.744  41.282  1.00  0.00    -0.237 OA
ATOM     61  O   UNL A   1      36.549  33.038  39.915  1.00  0.00    -0.744 OA
ENDBRANCH  55  58
ENDBRANCH  27  51
BRANCH  39  62
ATOM     62  C   UNL A   1      44.275  28.725  35.346  1.00  0.00     0.023 A 
ATOM     63  C   UNL A   1      45.590  29.209  35.193  1.00  0.00     0.012 A 
ATOM     64  C   UNL A   1      44.017  27.699  36.275  1.00  0.00     0.148 A 
ATOM     65  C   UNL A   1      46.637  28.661  35.932  1.00  0.00     0.002 A 
ATOM     66  C   UNL A   1      45.058  27.188  37.040  1.00  0.00     0.091 A 
ATOM     67  F   UNL A   1      42.761  27.242  36.389  1.00  0.00    -0.205 F 
ATOM     68  C   UNL A   1      46.369  27.659  36.862  1.00  0.00     0.022 A 
BRANCH  66  69
ATOM     69  S   UNL A   1      44.795  25.958  38.322  1.00  0.00     0.127 S 
ATOM     70  O   UNL A   1      46.145  25.795  38.861  1.00  0.00    -0.237 OA
ATOM     71  O   UNL A   1      43.859  26.638  39.219  1.00  0.00    -0.237 OA
ATOM     72  O   UNL A   1      44.246  24.789  37.650  1.00  0.00    -0.744 OA
ENDBRANCH  66  69
ENDBRANCH  39  62
ENDBRANCH  13  14
ENDBRANCH   6   8
ENDBRANCH   3   4
ENDBRANCH   2   3
ENDBRANCH   1   2
BRANCH   1  73
ATOM     73  C   UNL A   1      32.617  29.687  25.374  1.00  0.00     0.116 C 
BRANCH  73  74
ATOM     74  N   UNL A   1      31.886  29.667  24.119  1.00  0.00    -0.354 N 
ATOM     75  C   UNL A   1      31.387  28.584  23.444  1.00  0.00     0.249 C 
ATOM     76  H   UNL A   1      31.730  30.543  23.699  1.00  0.00     0.163 HD
ATOM     77  O   UNL A   1      30.776  28.770  22.392  1.00  0.00    -0.272 OA
BRANCH  75  78
ATOM     78  C   UNL A   1      31.587  27.189  24.059  1.00  0.00     0.207 C 
ATOM     79  C   UNL A   1      30.680  26.898  25.242  1.00  0.00     0.045 C 
ATOM     80  O   UNL A   1      31.314  26.190  23.063  1.00  0.00    -0.363 OA
ATOM     81  C   UNL A   1      29.514  26.185  24.604  1.00  0.00     0.037 C 
ATOM     82  C   UNL A   1      30.164  25.419  23.464  1.00  0.00     0.138 C 
BRANCH  82  83
ATOM     83  C   UNL A   1      30.671  24.019  23.836  1.00  0.00     0.148 C 
BRANCH  83  84
ATOM     84  N   UNL A   1      30.613  23.725  25.258  1.00  0.00    -0.349 N 
ATOM     85  C   UNL A   1      31.642  23.460  26.127  1.00  0.00     0.255 C 
ATOM     86  H   UNL A   1      29.711  23.716  25.653  1.00  0.00     0.163 HD
ATOM     87  O   UNL A   1      31.392  23.195  27.301  1.00  0.00    -0.269 OA
BRANCH  85  88
ATOM     88  C   UNL A   1      33.043  23.400  25.655  1.00  0.00     0.081 A 
ATOM     89  C   UNL A   1      33.833  24.537  25.876  1.00  0.00     0.018 A 
ATOM     90  C   UNL A   1      33.584  22.303  24.975  1.00  0.00     0.128 A 
ATOM     91  C   UNL A   1      35.167  24.555  25.467  1.00  0.00     0.001 A 
ATOM     92  C   UNL A   1      34.924  22.318  24.577  1.00  0.00     0.047 A 
ATOM     93  C   UNL A   1      35.713  23.443  24.828  1.00  0.00     0.004 A 
BRANCH  90  94
ATOM     94  O   UNL A   1      32.813  21.210  24.690  1.00  0.00    -0.507 OA
ATOM     95  H   UNL A   1      32.784  20.489  25.287  1.00  0.00     0.293 HD
ENDBRANCH  90  94
ENDBRANCH  85  88
ENDBRANCH  83  84
ENDBRANCH  82  83
ENDBRANCH  75  78
ENDBRANCH  73  74
ENDBRANCH   1  73
TORSDOF 18
ENDMDL
