MODEL 1
REMARK VINA RESULT:     -11.5      0.000      0.000
REMARK SMILES CNC(=O)C[N@@H+]1CC[C@@H](C(=O)NCCCCNC(=O)c2ccc(-c3c4nc(c(-c5cccc(S(=O)(=O)[O-])c5F)c5ccc([nH]5)c(-c5cccc(S(=O)(=O)[O-])c5F)c5nc(c(-c6cccc(S(=O)(=O)[O-])c6F)c6ccc3[nH]6)C=C5)C=C4)cc2)[C@H]1C
REMARK SMILES IDX 15 1 14 2 13 3 12 4 10 5 11 6 9 8 6 9 7 10 83 11 8 13 84 14
REMARK SMILES IDX 5 15 3 16 1 17 2 18 4 20 16 21 17 22 18 23 19 25 20 26 21 27
REMARK SMILES IDX 82 28 22 29 81 30 23 31 24 32 25 33 75 34 26 35 80 36 74 37
REMARK SMILES IDX 76 38 27 39 79 40 73 41 72 42 28 44 60 45 40 46 59 47 41 48
REMARK SMILES IDX 44 49 58 50 77 51 42 52 43 53 57 55 78 56 45 57 29 58 30 59
REMARK SMILES IDX 38 60 31 61 33 62 39 63 32 64 34 65 35 66 36 67 37 68 61 69
REMARK SMILES IDX 62 70 70 71 63 72 65 73 71 74 64 75 66 76 67 77 68 78 69 79
REMARK SMILES IDX 46 80 47 81 55 82 48 83 50 84 56 85 49 86 51 87 52 88 53 89
REMARK SMILES IDX 54 90
REMARK H PARENT 12 7 6 12 2 19 17 24 76 43 44 54
REMARK Flexibility Score: inf
ROOT
ATOM      1  C   UNL A   1      31.440  29.275  25.425  1.00  0.00     0.023 C 
ENDROOT
BRANCH   1   2
ATOM      2  C   UNL A   1      31.722  27.866  24.921  1.00  0.00     0.023 C 
BRANCH   2   3
ATOM      3  C   UNL A   1      30.581  26.860  25.093  1.00  0.00     0.116 C 
BRANCH   3   4
ATOM      4  N   UNL A   1      30.815  25.961  26.202  1.00  0.00    -0.356 N 
ATOM      5  C   UNL A   1      31.382  24.729  26.247  1.00  0.00     0.229 C 
ATOM      6  O   UNL A   1      31.454  24.192  27.360  1.00  0.00    -0.275 OA
ATOM      7  H   UNL A   1      30.509  26.301  27.075  1.00  0.00     0.163 HD
BRANCH   5   8
ATOM      8  C   UNL A   1      31.973  24.003  25.041  1.00  0.00     0.142 C 
ATOM      9  N   UNL A   1      33.977  22.763  24.898  1.00  0.00    -0.324 N 
ATOM     10  C   UNL A   1      32.926  21.900  24.356  1.00  0.00     0.263 C 
ATOM     11  C   UNL A   1      33.466  24.134  24.685  1.00  0.00     0.194 C 
ATOM     12  H   UNL A   1      34.146  22.572  25.885  1.00  0.00     0.348 HD
ATOM     13  C   UNL A   1      31.695  22.495  25.025  1.00  0.00     0.081 C 
ATOM     14  C   UNL A   1      34.278  25.227  25.363  1.00  0.00     0.076 C 
BRANCH   9  15
ATOM     15  C   UNL A   1      35.313  22.522  24.337  1.00  0.00     0.363 C 
BRANCH  15  16
ATOM     16  C   UNL A   1      36.229  21.710  25.267  1.00  0.00     0.274 C 
ATOM     17  C   UNL A   1      37.578  23.706  26.048  1.00  0.00     0.143 C 
ATOM     18  N   UNL A   1      37.237  22.308  25.969  1.00  0.00    -0.354 N 
ATOM     19  H   UNL A   1      37.808  21.700  26.493  1.00  0.00     0.163 HD
ATOM     20  O   UNL A   1      36.111  20.484  25.354  1.00  0.00    -0.269 OA
ENDBRANCH  15  16
ENDBRANCH   9  15
ENDBRANCH   5   8
ENDBRANCH   3   4
ENDBRANCH   2   3
ENDBRANCH   1   2
BRANCH   1  21
ATOM     21  C   UNL A   1      32.376  29.782  26.512  1.00  0.00     0.116 C 
BRANCH  21  22
ATOM     22  N   UNL A   1      32.258  31.209  26.787  1.00  0.00    -0.352 N 
ATOM     23  C   UNL A   1      33.180  32.055  27.365  1.00  0.00     0.251 C 
ATOM     24  H   UNL A   1      31.405  31.624  26.524  1.00  0.00     0.163 HD
ATOM     25  O   UNL A   1      32.891  33.231  27.572  1.00  0.00    -0.269 OA
BRANCH  23  26
ATOM     26  C   UNL A   1      34.497  31.522  27.780  1.00  0.00     0.039 A 
ATOM     27  C   UNL A   1      35.573  32.402  27.909  1.00  0.00     0.014 A 
ATOM     28  C   UNL A   1      34.644  30.176  28.124  1.00  0.00     0.014 A 
ATOM     29  C   UNL A   1      36.766  31.950  28.478  1.00  0.00     0.010 A 
ATOM     30  C   UNL A   1      35.795  29.756  28.782  1.00  0.00     0.010 A 
ATOM     31  C   UNL A   1      36.869  30.638  28.971  1.00  0.00    -0.014 A 
BRANCH  31  32
ATOM     32  C   UNL A   1      38.072  30.189  29.722  1.00  0.00     0.031 A 
ATOM     33  C   UNL A   1      38.335  30.682  31.120  1.00  0.00     0.074 A 
ATOM     34  C   UNL A   1      38.985  29.408  29.107  1.00  0.00     0.049 A 
ATOM     35  N   UNL A   1      39.330  30.397  31.919  1.00  0.00    -0.248 NA
ATOM     36  C   UNL A   1      37.380  31.652  31.680  1.00  0.00     0.031 C 
ATOM     37  C   UNL A   1      38.917  28.964  27.712  1.00  0.00     0.029 A 
ATOM     38  N   UNL A   1      40.159  28.866  29.567  1.00  0.00    -0.354 N 
ATOM     39  C   UNL A   1      39.143  31.175  33.054  1.00  0.00     0.074 A 
ATOM     40  C   UNL A   1      37.964  31.981  32.822  1.00  0.00     0.031 C 
ATOM     41  C   UNL A   1      39.988  28.203  27.439  1.00  0.00     0.029 A 
ATOM     42  C   UNL A   1      40.830  28.118  28.627  1.00  0.00     0.049 A 
ATOM     43  H   UNL A   1      40.490  29.000  30.485  1.00  0.00     0.167 HD
ATOM     44  C   UNL A   1      39.861  31.194  34.202  1.00  0.00     0.034 A 
ATOM     45  C   UNL A   1      41.984  27.429  28.715  1.00  0.00     0.034 A 
ATOM     46  C   UNL A   1      40.998  30.350  34.453  1.00  0.00     0.049 A 
ATOM     47  C   UNL A   1      42.707  27.381  30.033  1.00  0.00     0.074 A 
ATOM     48  C   UNL A   1      41.723  30.206  35.623  1.00  0.00     0.029 A 
ATOM     49  N   UNL A   1      41.579  29.509  33.517  1.00  0.00    -0.354 N 
ATOM     50  N   UNL A   1      42.401  27.971  31.163  1.00  0.00    -0.248 NA
ATOM     51  C   UNL A   1      43.906  26.533  30.105  1.00  0.00     0.031 C 
ATOM     52  C   UNL A   1      42.753  29.289  35.388  1.00  0.00     0.029 A 
ATOM     53  C   UNL A   1      42.657  28.845  34.079  1.00  0.00     0.049 A 
ATOM     54  H   UNL A   1      41.270  29.399  32.588  1.00  0.00     0.167 HD
ATOM     55  C   UNL A   1      43.347  27.544  32.086  1.00  0.00     0.074 A 
ATOM     56  C   UNL A   1      44.222  26.622  31.389  1.00  0.00     0.031 C 
ATOM     57  C   UNL A   1      43.490  27.894  33.388  1.00  0.00     0.034 A 
BRANCH  44  58
ATOM     58  C   UNL A   1      39.391  32.112  35.302  1.00  0.00     0.023 A 
ATOM     59  C   UNL A   1      38.478  31.632  36.264  1.00  0.00     0.012 A 
ATOM     60  C   UNL A   1      39.879  33.428  35.412  1.00  0.00     0.148 A 
ATOM     61  C   UNL A   1      38.024  32.457  37.290  1.00  0.00     0.002 A 
ATOM     62  C   UNL A   1      39.457  34.231  36.466  1.00  0.00     0.091 A 
ATOM     63  F   UNL A   1      40.728  33.877  34.477  1.00  0.00    -0.205 F 
ATOM     64  C   UNL A   1      38.521  33.753  37.397  1.00  0.00     0.022 A 
BRANCH  62  65
ATOM     65  S   UNL A   1      40.101  35.886  36.735  1.00  0.00     0.127 S 
ATOM     66  O   UNL A   1      41.533  35.629  36.871  1.00  0.00    -0.237 OA
ATOM     67  O   UNL A   1      39.719  36.572  35.499  1.00  0.00    -0.237 OA
ATOM     68  O   UNL A   1      39.434  36.384  37.931  1.00  0.00    -0.744 OA
ENDBRANCH  62  65
ENDBRANCH  44  58
BRANCH  45  69
ATOM     69  C   UNL A   1      42.467  26.646  27.542  1.00  0.00     0.023 A 
ATOM     70  C   UNL A   1      43.307  27.266  26.598  1.00  0.00     0.012 A 
ATOM     71  C   UNL A   1      42.144  25.285  27.384  1.00  0.00     0.148 A 
ATOM     72  C   UNL A   1      43.795  26.554  25.501  1.00  0.00     0.002 A 
ATOM     73  C   UNL A   1      42.678  24.565  26.321  1.00  0.00     0.091 A 
ATOM     74  F   UNL A   1      41.336  24.715  28.290  1.00  0.00    -0.205 F 
ATOM     75  C   UNL A   1      43.490  25.202  25.369  1.00  0.00     0.022 A 
BRANCH  73  76
ATOM     76  S   UNL A   1      42.454  22.792  26.149  1.00  0.00     0.127 S 
ATOM     77  O   UNL A   1      43.158  22.285  27.323  1.00  0.00    -0.237 OA
ATOM     78  O   UNL A   1      40.996  22.666  26.201  1.00  0.00    -0.237 OA
ATOM     79  O   UNL A   1      43.037  22.446  24.859  1.00  0.00    -0.744 OA
ENDBRANCH  73  76
ENDBRANCH  45  69
BRANCH  57  80
ATOM     80  C   UNL A   1      44.618  27.261  34.160  1.00  0.00     0.023 A 
ATOM     81  C   UNL A   1      45.902  27.840  34.124  1.00  0.00     0.012 A 
ATOM     82  C   UNL A   1      44.392  26.131  34.970  1.00  0.00     0.148 A 
ATOM     83  C   UNL A   1      46.952  27.281  34.851  1.00  0.00     0.002 A 
ATOM     84  C   UNL A   1      45.432  25.608  35.731  1.00  0.00     0.091 A 
ATOM     85  F   UNL A   1      43.169  25.579  34.977  1.00  0.00    -0.205 F 
ATOM     86  C   UNL A   1      46.715  26.174  35.662  1.00  0.00     0.022 A 
BRANCH  84  87
ATOM     87  S   UNL A   1      45.185  24.244  36.872  1.00  0.00     0.127 S 
ATOM     88  O   UNL A   1      44.673  23.201  35.986  1.00  0.00    -0.237 OA
ATOM     89  O   UNL A   1      46.540  24.004  37.374  1.00  0.00    -0.237 OA
ATOM     90  O   UNL A   1      44.251  24.734  37.878  1.00  0.00    -0.744 OA
ENDBRANCH  84  87
ENDBRANCH  57  80
ENDBRANCH  31  32
ENDBRANCH  23  26
ENDBRANCH  21  22
ENDBRANCH   1  21
TORSDOF 16
ENDMDL
MODEL 2
REMARK VINA RESULT:     -11.4      1.932      2.593
REMARK SMILES CNC(=O)C[N@@H+]1CC[C@@H](C(=O)NCCCCNC(=O)c2ccc(-c3c4nc(c(-c5cccc(S(=O)(=O)[O-])c5F)c5ccc([nH]5)c(-c5cccc(S(=O)(=O)[O-])c5F)c5nc(c(-c6cccc(S(=O)(=O)[O-])c6F)c6ccc3[nH]6)C=C5)C=C4)cc2)[C@H]1C
REMARK SMILES IDX 15 1 14 2 13 3 12 4 10 5 11 6 9 8 6 9 7 10 83 11 8 13 84 14
REMARK SMILES IDX 5 15 3 16 1 17 2 18 4 20 16 21 17 22 18 23 19 25 20 26 21 27
REMARK SMILES IDX 82 28 22 29 81 30 23 31 24 32 25 33 75 34 26 35 80 36 74 37
REMARK SMILES IDX 76 38 27 39 79 40 73 41 72 42 28 44 60 45 40 46 59 47 41 48
REMARK SMILES IDX 44 49 58 50 77 51 42 52 43 53 57 55 78 56 45 57 29 58 30 59
REMARK SMILES IDX 38 60 31 61 33 62 39 63 32 64 34 65 35 66 36 67 37 68 61 69
REMARK SMILES IDX 62 70 70 71 63 72 65 73 71 74 64 75 66 76 67 77 68 78 69 79
REMARK SMILES IDX 46 80 47 81 55 82 48 83 50 84 56 85 49 86 51 87 52 88 53 89
REMARK SMILES IDX 54 90
REMARK H PARENT 12 7 6 12 2 19 17 24 76 43 44 54
REMARK Flexibility Score: inf
ROOT
ATOM      1  C   UNL A   1      31.828  29.132  26.576  1.00  0.00     0.023 C 
ENDROOT
BRANCH   1   2
ATOM      2  C   UNL A   1      32.168  27.821  27.272  1.00  0.00     0.023 C 
BRANCH   2   3
ATOM      3  C   UNL A   1      32.123  26.571  26.390  1.00  0.00     0.116 C 
BRANCH   3   4
ATOM      4  N   UNL A   1      31.298  25.531  26.967  1.00  0.00    -0.356 N 
ATOM      5  C   UNL A   1      30.721  24.437  26.408  1.00  0.00     0.229 C 
ATOM      6  O   UNL A   1      30.065  23.710  27.164  1.00  0.00    -0.275 OA
ATOM      7  H   UNL A   1      31.124  25.636  27.931  1.00  0.00     0.163 HD
BRANCH   5   8
ATOM      8  C   UNL A   1      30.876  24.029  24.946  1.00  0.00     0.142 C 
ATOM      9  N   UNL A   1      31.650  25.318  23.125  1.00  0.00    -0.324 N 
ATOM     10  C   UNL A   1      32.427  24.077  23.103  1.00  0.00     0.263 C 
ATOM     11  C   UNL A   1      30.391  24.946  23.806  1.00  0.00     0.194 C 
ATOM     12  H   UNL A   1      32.143  26.059  23.622  1.00  0.00     0.348 HD
ATOM     13  C   UNL A   1      32.308  23.641  24.557  1.00  0.00     0.081 C 
ATOM     14  C   UNL A   1      29.489  26.118  24.157  1.00  0.00     0.076 C 
BRANCH   9  15
ATOM     15  C   UNL A   1      31.463  25.943  21.810  1.00  0.00     0.363 C 
BRANCH  15  16
ATOM     16  C   UNL A   1      32.784  26.286  21.101  1.00  0.00     0.274 C 
ATOM     17  C   UNL A   1      33.357  28.225  22.627  1.00  0.00     0.143 C 
ATOM     18  N   UNL A   1      33.553  27.339  21.506  1.00  0.00    -0.354 N 
ATOM     19  H   UNL A   1      34.352  27.518  20.957  1.00  0.00     0.163 HD
ATOM     20  O   UNL A   1      33.150  25.648  20.109  1.00  0.00    -0.269 OA
ENDBRANCH  15  16
ENDBRANCH   9  15
ENDBRANCH   5   8
ENDBRANCH   3   4
ENDBRANCH   2   3
ENDBRANCH   1   2
BRANCH   1  21
ATOM     21  C   UNL A   1      33.006  30.057  26.311  1.00  0.00     0.116 C 
BRANCH  21  22
ATOM     22  N   UNL A   1      32.866  31.387  26.892  1.00  0.00    -0.352 N 
ATOM     23  C   UNL A   1      33.751  32.076  27.693  1.00  0.00     0.251 C 
ATOM     24  H   UNL A   1      32.026  31.857  26.684  1.00  0.00     0.163 HD
ATOM     25  O   UNL A   1      33.445  33.177  28.144  1.00  0.00    -0.269 OA
BRANCH  23  26
ATOM     26  C   UNL A   1      35.048  31.454  28.047  1.00  0.00     0.039 A 
ATOM     27  C   UNL A   1      36.190  32.255  28.098  1.00  0.00     0.014 A 
ATOM     28  C   UNL A   1      35.116  30.108  28.411  1.00  0.00     0.014 A 
ATOM     29  C   UNL A   1      37.378  31.727  28.611  1.00  0.00     0.010 A 
ATOM     30  C   UNL A   1      36.268  29.616  29.014  1.00  0.00     0.010 A 
ATOM     31  C   UNL A   1      37.412  30.419  29.125  1.00  0.00    -0.014 A 
BRANCH  31  32
ATOM     32  C   UNL A   1      38.620  29.897  29.819  1.00  0.00     0.031 A 
ATOM     33  C   UNL A   1      38.995  30.393  31.189  1.00  0.00     0.074 A 
ATOM     34  C   UNL A   1      39.438  29.040  29.171  1.00  0.00     0.049 A 
ATOM     35  N   UNL A   1      40.011  30.049  31.939  1.00  0.00    -0.248 NA
ATOM     36  C   UNL A   1      38.146  31.440  31.781  1.00  0.00     0.031 C 
ATOM     37  C   UNL A   1      39.260  28.579  27.792  1.00  0.00     0.029 A 
ATOM     38  N   UNL A   1      40.594  28.422  29.578  1.00  0.00    -0.354 N 
ATOM     39  C   UNL A   1      39.944  30.858  33.066  1.00  0.00     0.074 A 
ATOM     40  C   UNL A   1      38.816  31.745  32.882  1.00  0.00     0.031 C 
ATOM     41  C   UNL A   1      40.256  27.737  27.477  1.00  0.00     0.029 A 
ATOM     42  C   UNL A   1      41.155  27.610  28.619  1.00  0.00     0.049 A 
ATOM     43  H   UNL A   1      40.984  28.547  30.473  1.00  0.00     0.167 HD
ATOM     44  C   UNL A   1      40.725  30.844  34.173  1.00  0.00     0.034 A 
ATOM     45  C   UNL A   1      42.259  26.840  28.659  1.00  0.00     0.034 A 
ATOM     46  C   UNL A   1      41.810  29.923  34.379  1.00  0.00     0.049 A 
ATOM     47  C   UNL A   1      43.049  26.761  29.935  1.00  0.00     0.074 A 
ATOM     48  C   UNL A   1      42.587  29.747  35.510  1.00  0.00     0.029 A 
ATOM     49  N   UNL A   1      42.275  29.026  33.430  1.00  0.00    -0.354 N 
ATOM     50  N   UNL A   1      42.850  27.392  31.068  1.00  0.00    -0.248 NA
ATOM     51  C   UNL A   1      44.186  25.830  29.960  1.00  0.00     0.031 C 
ATOM     52  C   UNL A   1      43.533  28.752  35.238  1.00  0.00     0.029 A 
ATOM     53  C   UNL A   1      43.332  28.295  33.946  1.00  0.00     0.049 A 
ATOM     54  H   UNL A   1      41.908  28.923  32.522  1.00  0.00     0.167 HD
ATOM     55  C   UNL A   1      43.814  26.912  31.946  1.00  0.00     0.074 A 
ATOM     56  C   UNL A   1      44.579  25.917  31.223  1.00  0.00     0.031 C 
ATOM     57  C   UNL A   1      44.054  27.273  33.232  1.00  0.00     0.034 A 
BRANCH  44  58
ATOM     58  C   UNL A   1      40.385  31.812  35.276  1.00  0.00     0.023 A 
ATOM     59  C   UNL A   1      41.160  32.979  35.440  1.00  0.00     0.012 A 
ATOM     60  C   UNL A   1      39.280  31.594  36.123  1.00  0.00     0.148 A 
ATOM     61  C   UNL A   1      40.870  33.892  36.453  1.00  0.00     0.002 A 
ATOM     62  C   UNL A   1      38.970  32.532  37.101  1.00  0.00     0.091 A 
ATOM     63  F   UNL A   1      38.568  30.469  35.970  1.00  0.00    -0.205 F 
ATOM     64  C   UNL A   1      39.769  33.673  37.277  1.00  0.00     0.022 A 
BRANCH  62  65
ATOM     65  S   UNL A   1      37.526  32.380  38.159  1.00  0.00     0.127 S 
ATOM     66  O   UNL A   1      36.506  33.069  37.369  1.00  0.00    -0.237 OA
ATOM     67  O   UNL A   1      37.354  30.929  38.243  1.00  0.00    -0.237 OA
ATOM     68  O   UNL A   1      37.884  33.019  39.418  1.00  0.00    -0.744 OA
ENDBRANCH  62  65
ENDBRANCH  44  58
BRANCH  45  69
ATOM     69  C   UNL A   1      42.618  26.004  27.478  1.00  0.00     0.023 A 
ATOM     70  C   UNL A   1      43.462  26.537  26.485  1.00  0.00     0.012 A 
ATOM     71  C   UNL A   1      42.174  24.673  27.358  1.00  0.00     0.148 A 
ATOM     72  C   UNL A   1      43.835  25.772  25.379  1.00  0.00     0.002 A 
ATOM     73  C   UNL A   1      42.594  23.897  26.283  1.00  0.00     0.091 A 
ATOM     74  F   UNL A   1      41.363  24.186  28.308  1.00  0.00    -0.205 F 
ATOM     75  C   UNL A   1      43.411  24.450  25.284  1.00  0.00     0.022 A 
BRANCH  73  76
ATOM     76  S   UNL A   1      42.211  22.147  26.151  1.00  0.00     0.127 S 
ATOM     77  O   UNL A   1      40.765  22.171  25.954  1.00  0.00    -0.237 OA
ATOM     78  O   UNL A   1      42.989  21.757  24.973  1.00  0.00    -0.237 OA
ATOM     79  O   UNL A   1      42.673  21.550  27.397  1.00  0.00    -0.744 OA
ENDBRANCH  73  76
ENDBRANCH  45  69
BRANCH  57  80
ATOM     80  C   UNL A   1      45.175  26.572  33.954  1.00  0.00     0.023 A 
ATOM     81  C   UNL A   1      46.487  27.078  33.867  1.00  0.00     0.012 A 
ATOM     82  C   UNL A   1      44.918  25.452  34.768  1.00  0.00     0.148 A 
ATOM     83  C   UNL A   1      47.533  26.456  34.549  1.00  0.00     0.002 A 
ATOM     84  C   UNL A   1      45.957  24.866  35.483  1.00  0.00     0.091 A 
ATOM     85  F   UNL A   1      43.667  24.970  34.823  1.00  0.00    -0.205 F 
ATOM     86  C   UNL A   1      47.266  25.359  35.364  1.00  0.00     0.022 A 
BRANCH  84  87
ATOM     87  S   UNL A   1      45.679  23.510  36.628  1.00  0.00     0.127 S 
ATOM     88  O   UNL A   1      47.039  23.208  37.069  1.00  0.00    -0.237 OA
ATOM     89  O   UNL A   1      44.832  24.130  37.649  1.00  0.00    -0.237 OA
ATOM     90  O   UNL A   1      45.019  22.468  35.854  1.00  0.00    -0.744 OA
ENDBRANCH  84  87
ENDBRANCH  57  80
ENDBRANCH  31  32
ENDBRANCH  23  26
ENDBRANCH  21  22
ENDBRANCH   1  21
TORSDOF 16
ENDMDL
MODEL 3
REMARK VINA RESULT:     -11.3      1.297      1.856
REMARK SMILES CNC(=O)C[N@@H+]1CC[C@@H](C(=O)NCCCCNC(=O)c2ccc(-c3c4nc(c(-c5cccc(S(=O)(=O)[O-])c5F)c5ccc([nH]5)c(-c5cccc(S(=O)(=O)[O-])c5F)c5nc(c(-c6cccc(S(=O)(=O)[O-])c6F)c6ccc3[nH]6)C=C5)C=C4)cc2)[C@H]1C
REMARK SMILES IDX 15 1 14 2 13 3 12 4 10 5 11 6 9 8 6 9 7 10 83 11 8 13 84 14
REMARK SMILES IDX 5 15 3 16 1 17 2 18 4 20 16 21 17 22 18 23 19 25 20 26 21 27
REMARK SMILES IDX 82 28 22 29 81 30 23 31 24 32 25 33 75 34 26 35 80 36 74 37
REMARK SMILES IDX 76 38 27 39 79 40 73 41 72 42 28 44 60 45 40 46 59 47 41 48
REMARK SMILES IDX 44 49 58 50 77 51 42 52 43 53 57 55 78 56 45 57 29 58 30 59
REMARK SMILES IDX 38 60 31 61 33 62 39 63 32 64 34 65 35 66 36 67 37 68 61 69
REMARK SMILES IDX 62 70 70 71 63 72 65 73 71 74 64 75 66 76 67 77 68 78 69 79
REMARK SMILES IDX 46 80 47 81 55 82 48 83 50 84 56 85 49 86 51 87 52 88 53 89
REMARK SMILES IDX 54 90
REMARK H PARENT 12 7 6 12 2 19 17 24 76 43 44 54
REMARK Flexibility Score: inf
ROOT
ATOM      1  C   UNL A   1      32.161  29.440  25.146  1.00  0.00     0.023 C 
ENDROOT
BRANCH   1   2
ATOM      2  C   UNL A   1      33.396  28.788  24.538  1.00  0.00     0.023 C 
BRANCH   2   3
ATOM      3  C   UNL A   1      33.490  27.269  24.700  1.00  0.00     0.116 C 
BRANCH   3   4
ATOM      4  N   UNL A   1      33.551  26.592  23.422  1.00  0.00    -0.356 N 
ATOM      5  C   UNL A   1      33.824  25.300  23.109  1.00  0.00     0.229 C 
ATOM      6  O   UNL A   1      33.797  25.003  21.908  1.00  0.00    -0.275 OA
ATOM      7  H   UNL A   1      33.363  27.168  22.646  1.00  0.00     0.163 HD
BRANCH   5   8
ATOM      8  C   UNL A   1      34.104  24.202  24.133  1.00  0.00     0.142 C 
ATOM      9  N   UNL A   1      33.332  21.972  24.157  1.00  0.00    -0.324 N 
ATOM     10  C   UNL A   1      34.784  21.900  24.326  1.00  0.00     0.263 C 
ATOM     11  C   UNL A   1      32.972  23.309  24.674  1.00  0.00     0.194 C 
ATOM     12  H   UNL A   1      33.063  21.859  23.180  1.00  0.00     0.348 HD
ATOM     13  C   UNL A   1      35.209  23.225  23.710  1.00  0.00     0.081 C 
ATOM     14  C   UNL A   1      31.534  23.726  24.410  1.00  0.00     0.076 C 
BRANCH   9  15
ATOM     15  C   UNL A   1      32.591  20.865  24.776  1.00  0.00     0.363 C 
BRANCH  15  16
ATOM     16  C   UNL A   1      32.352  19.680  23.826  1.00  0.00     0.274 C 
ATOM     17  C   UNL A   1      32.704  17.902  25.595  1.00  0.00     0.143 C 
ATOM     18  N   UNL A   1      32.455  18.390  24.261  1.00  0.00    -0.354 N 
ATOM     19  H   UNL A   1      32.342  17.698  23.569  1.00  0.00     0.163 HD
ATOM     20  O   UNL A   1      32.120  19.871  22.628  1.00  0.00    -0.269 OA
ENDBRANCH  15  16
ENDBRANCH   9  15
ENDBRANCH   5   8
ENDBRANCH   3   4
ENDBRANCH   2   3
ENDBRANCH   1   2
BRANCH   1  21
ATOM     21  C   UNL A   1      32.288  29.847  26.607  1.00  0.00     0.116 C 
BRANCH  21  22
ATOM     22  N   UNL A   1      32.190  31.283  26.839  1.00  0.00    -0.352 N 
ATOM     23  C   UNL A   1      33.130  32.137  27.374  1.00  0.00     0.251 C 
ATOM     24  H   UNL A   1      31.336  31.699  26.579  1.00  0.00     0.163 HD
ATOM     25  O   UNL A   1      32.857  33.321  27.550  1.00  0.00    -0.269 OA
BRANCH  23  26
ATOM     26  C   UNL A   1      34.449  31.603  27.781  1.00  0.00     0.039 A 
ATOM     27  C   UNL A   1      35.511  32.490  27.967  1.00  0.00     0.014 A 
ATOM     28  C   UNL A   1      34.611  30.244  28.063  1.00  0.00     0.014 A 
ATOM     29  C   UNL A   1      36.703  32.029  28.531  1.00  0.00     0.010 A 
ATOM     30  C   UNL A   1      35.759  29.809  28.717  1.00  0.00     0.010 A 
ATOM     31  C   UNL A   1      36.818  30.696  28.962  1.00  0.00    -0.014 A 
BRANCH  31  32
ATOM     32  C   UNL A   1      38.017  30.229  29.708  1.00  0.00     0.031 A 
ATOM     33  C   UNL A   1      38.274  30.689  31.117  1.00  0.00     0.074 A 
ATOM     34  C   UNL A   1      38.932  29.461  29.078  1.00  0.00     0.049 A 
ATOM     35  N   UNL A   1      39.266  30.384  31.914  1.00  0.00    -0.248 NA
ATOM     36  C   UNL A   1      37.318  31.646  31.696  1.00  0.00     0.031 C 
ATOM     37  C   UNL A   1      38.870  29.050  27.673  1.00  0.00     0.029 A 
ATOM     38  N   UNL A   1      40.103  28.907  29.531  1.00  0.00    -0.354 N 
ATOM     39  C   UNL A   1      39.075  31.136  33.066  1.00  0.00     0.074 A 
ATOM     40  C   UNL A   1      37.898  31.948  32.848  1.00  0.00     0.031 C 
ATOM     41  C   UNL A   1      39.941  28.294  27.387  1.00  0.00     0.029 A 
ATOM     42  C   UNL A   1      40.777  28.180  28.577  1.00  0.00     0.049 A 
ATOM     43  H   UNL A   1      40.431  29.020  30.453  1.00  0.00     0.167 HD
ATOM     44  C   UNL A   1      39.788  31.128  34.218  1.00  0.00     0.034 A 
ATOM     45  C   UNL A   1      41.931  27.488  28.654  1.00  0.00     0.034 A 
ATOM     46  C   UNL A   1      40.923  30.276  34.454  1.00  0.00     0.049 A 
ATOM     47  C   UNL A   1      42.648  27.409  29.973  1.00  0.00     0.074 A 
ATOM     48  C   UNL A   1      41.643  30.105  35.623  1.00  0.00     0.029 A 
ATOM     49  N   UNL A   1      41.507  29.457  33.501  1.00  0.00    -0.354 N 
ATOM     50  N   UNL A   1      42.337  27.973  31.115  1.00  0.00    -0.248 NA
ATOM     51  C   UNL A   1      43.845  26.559  30.030  1.00  0.00     0.031 C 
ATOM     52  C   UNL A   1      42.673  29.192  35.371  1.00  0.00     0.029 A 
ATOM     53  C   UNL A   1      42.582  28.779  34.052  1.00  0.00     0.049 A 
ATOM     54  H   UNL A   1      41.202  29.369  32.569  1.00  0.00     0.167 HD
ATOM     55  C   UNL A   1      43.279  27.523  32.032  1.00  0.00     0.074 A 
ATOM     56  C   UNL A   1      44.156  26.617  31.318  1.00  0.00     0.031 C 
ATOM     57  C   UNL A   1      43.417  27.843  33.343  1.00  0.00     0.034 A 
BRANCH  44  58
ATOM     58  C   UNL A   1      39.314  32.019  35.336  1.00  0.00     0.023 A 
ATOM     59  C   UNL A   1      38.382  31.524  36.272  1.00  0.00     0.012 A 
ATOM     60  C   UNL A   1      39.817  33.326  35.490  1.00  0.00     0.148 A 
ATOM     61  C   UNL A   1      37.924  32.326  37.316  1.00  0.00     0.002 A 
ATOM     62  C   UNL A   1      39.390  34.105  36.560  1.00  0.00     0.091 A 
ATOM     63  F   UNL A   1      40.683  33.791  34.579  1.00  0.00    -0.205 F 
ATOM     64  C   UNL A   1      38.436  33.613  37.465  1.00  0.00     0.022 A 
BRANCH  62  65
ATOM     65  S   UNL A   1      40.049  35.744  36.884  1.00  0.00     0.127 S 
ATOM     66  O   UNL A   1      41.485  35.477  36.954  1.00  0.00    -0.237 OA
ATOM     67  O   UNL A   1      39.626  36.489  35.697  1.00  0.00    -0.237 OA
ATOM     68  O   UNL A   1      39.429  36.185  38.126  1.00  0.00    -0.744 OA
ENDBRANCH  62  65
ENDBRANCH  44  58
BRANCH  45  69
ATOM     69  C   UNL A   1      42.418  26.732  27.465  1.00  0.00     0.023 A 
ATOM     70  C   UNL A   1      43.224  27.387  26.514  1.00  0.00     0.012 A 
ATOM     71  C   UNL A   1      42.134  25.364  27.298  1.00  0.00     0.148 A 
ATOM     72  C   UNL A   1      43.715  26.701  25.402  1.00  0.00     0.002 A 
ATOM     73  C   UNL A   1      42.672  24.671  26.218  1.00  0.00     0.091 A 
ATOM     74  F   UNL A   1      41.357  24.760  28.209  1.00  0.00    -0.205 F 
ATOM     75  C   UNL A   1      43.449  25.342  25.261  1.00  0.00     0.022 A 
BRANCH  73  76
ATOM     76  S   UNL A   1      42.497  22.894  26.030  1.00  0.00     0.127 S 
ATOM     77  O   UNL A   1      43.287  22.395  27.152  1.00  0.00    -0.237 OA
ATOM     78  O   UNL A   1      41.050  22.716  26.167  1.00  0.00    -0.237 OA
ATOM     79  O   UNL A   1      43.015  22.587  24.703  1.00  0.00    -0.744 OA
ENDBRANCH  73  76
ENDBRANCH  45  69
BRANCH  57  80
ATOM     80  C   UNL A   1      44.541  27.191  34.105  1.00  0.00     0.023 A 
ATOM     81  C   UNL A   1      45.796  27.826  34.179  1.00  0.00     0.012 A 
ATOM     82  C   UNL A   1      44.336  25.982  34.797  1.00  0.00     0.148 A 
ATOM     83  C   UNL A   1      46.841  27.249  34.900  1.00  0.00     0.002 A 
ATOM     84  C   UNL A   1      45.367  25.436  35.554  1.00  0.00     0.091 A 
ATOM     85  F   UNL A   1      43.142  25.379  34.699  1.00  0.00    -0.205 F 
ATOM     86  C   UNL A   1      46.624  26.062  35.596  1.00  0.00     0.022 A 
BRANCH  84  87
ATOM     87  S   UNL A   1      45.139  23.963  36.555  1.00  0.00     0.127 S 
ATOM     88  O   UNL A   1      46.518  23.546  36.793  1.00  0.00    -0.237 OA
ATOM     89  O   UNL A   1      44.449  24.488  37.735  1.00  0.00    -0.237 OA
ATOM     90  O   UNL A   1      44.335  23.056  35.745  1.00  0.00    -0.744 OA
ENDBRANCH  84  87
ENDBRANCH  57  80
ENDBRANCH  31  32
ENDBRANCH  23  26
ENDBRANCH  21  22
ENDBRANCH   1  21
TORSDOF 16
ENDMDL
