MODEL 1
REMARK VINA RESULT:     -11.7      0.000      0.000
REMARK SMILES CC[NH2+][C@@]1(C(=O)NCCCCNC(=O)c2ccc(-c3c4nc(c(-c5cccc(S(=O)(=O)[O-])c5F)c5ccc([nH]5)c(-c5cccc(S(=O)(=O)[O-])c5F)c5nc(c(-c6cccc(S(=O)(=O)[O-])c6F)c6ccc3[nH]6)C=C5)C=C4)cc2)CC[C@@H]([NH+]2CCC(C)(CC)CC2)C1
REMARK SMILES IDX 10 1 9 2 8 3 7 4 5 5 6 6 4 8 78 9 90 10 79 11 80 12 3 13
REMARK SMILES IDX 2 16 1 17 81 18 82 19 89 20 83 22 88 23 84 24 85 25 86 26
REMARK SMILES IDX 87 27 11 28 12 29 13 30 14 32 15 33 16 34 77 35 17 36 76 37
REMARK SMILES IDX 18 38 19 39 20 40 70 41 21 42 75 43 69 44 71 45 22 46 74 47
REMARK SMILES IDX 68 48 67 49 23 51 55 52 35 53 54 54 36 55 39 56 53 57 72 58
REMARK SMILES IDX 37 59 38 60 52 62 73 63 40 64 24 65 25 66 33 67 26 68 28 69
REMARK SMILES IDX 34 70 27 71 29 72 30 73 31 74 32 75 56 76 57 77 65 78 58 79
REMARK SMILES IDX 60 80 66 81 59 82 61 83 62 84 63 85 64 86 41 87 42 88 50 89
REMARK SMILES IDX 43 90 45 91 51 92 44 93 46 94 47 95 48 96 49 97
REMARK H PARENT 7 7 3 14 3 15 81 21 12 31 71 50 39 61
REMARK Flexibility Score: inf
ROOT
ATOM      1  C   UNL A   1      31.262  31.733  26.350  1.00  0.00     0.023 C 
ENDROOT
BRANCH   1   2
ATOM      2  C   UNL A   1      31.388  30.466  25.506  1.00  0.00     0.023 C 
BRANCH   2   3
ATOM      3  C   UNL A   1      32.694  29.691  25.683  1.00  0.00     0.116 C 
BRANCH   3   4
ATOM      4  N   UNL A   1      33.409  29.516  24.442  1.00  0.00    -0.351 N 
ATOM      5  C   UNL A   1      33.617  28.443  23.631  1.00  0.00     0.281 C 
ATOM      6  O   UNL A   1      34.289  28.700  22.624  1.00  0.00    -0.268 OA
ATOM      7  H   UNL A   1      33.832  30.342  24.114  1.00  0.00     0.163 HD
BRANCH   5   8
ATOM      8  C   UNL A   1      33.082  26.981  23.938  1.00  0.00     0.181 C 
ATOM      9  C   UNL A   1      33.538  26.380  25.277  1.00  0.00     0.085 C 
ATOM     10  C   UNL A   1      33.552  25.993  22.852  1.00  0.00     0.144 C 
ATOM     11  C   UNL A   1      34.461  25.198  25.005  1.00  0.00     0.072 C 
ATOM     12  C   UNL A   1      34.492  24.963  23.489  1.00  0.00     0.191 C 
BRANCH   8  13
ATOM     13  N   UNL A   1      31.584  26.984  23.846  1.00  0.00    -0.334 N 
ATOM     14  H   UNL A   1      31.249  26.094  24.213  1.00  0.00     0.347 HD
ATOM     15  H   UNL A   1      31.284  27.802  24.375  1.00  0.00     0.347 HD
BRANCH  13  16
ATOM     16  C   UNL A   1      31.013  27.157  22.511  1.00  0.00     0.257 C 
ATOM     17  C   UNL A   1      29.985  28.279  22.568  1.00  0.00     0.071 C 
ENDBRANCH  13  16
ENDBRANCH   8  13
BRANCH  12  18
ATOM     18  N   UNL A   1      34.394  23.556  23.076  1.00  0.00    -0.332 N 
ATOM     19  C   UNL A   1      33.110  23.160  22.499  1.00  0.00     0.263 C 
ATOM     20  C   UNL A   1      34.901  22.523  23.971  1.00  0.00     0.263 C 
ATOM     21  H   UNL A   1      35.087  23.590  22.328  1.00  0.00     0.348 HD
ATOM     22  C   UNL A   1      32.030  22.748  23.509  1.00  0.00     0.068 C 
ATOM     23  C   UNL A   1      33.961  22.141  25.110  1.00  0.00     0.068 C 
ATOM     24  C   UNL A   1      32.500  21.851  24.688  1.00  0.00    -0.022 C 
ATOM     25  C   UNL A   1      31.594  22.166  25.910  1.00  0.00     0.012 C 
BRANCH  24  26
ATOM     26  C   UNL A   1      32.280  20.338  24.390  1.00  0.00     0.004 C 
ATOM     27  C   UNL A   1      33.493  19.425  24.429  1.00  0.00     0.004 C 
ENDBRANCH  24  26
ENDBRANCH  12  18
ENDBRANCH   5   8
ENDBRANCH   3   4
ENDBRANCH   2   3
ENDBRANCH   1   2
BRANCH   1  28
ATOM     28  C   UNL A   1      32.527  32.144  27.092  1.00  0.00     0.116 C 
BRANCH  28  29
ATOM     29  N   UNL A   1      32.588  33.556  27.451  1.00  0.00    -0.352 N 
ATOM     30  C   UNL A   1      33.602  34.193  28.135  1.00  0.00     0.251 C 
ATOM     31  H   UNL A   1      31.824  34.114  27.175  1.00  0.00     0.163 HD
ATOM     32  O   UNL A   1      33.521  35.372  28.444  1.00  0.00    -0.269 OA
BRANCH  30  33
ATOM     33  C   UNL A   1      34.771  33.381  28.534  1.00  0.00     0.039 A 
ATOM     34  C   UNL A   1      36.050  33.915  28.371  1.00  0.00     0.014 A 
ATOM     35  C   UNL A   1      34.576  32.170  29.200  1.00  0.00     0.014 A 
ATOM     36  C   UNL A   1      37.137  33.268  28.959  1.00  0.00     0.010 A 
ATOM     37  C   UNL A   1      35.647  31.575  29.852  1.00  0.00     0.010 A 
ATOM     38  C   UNL A   1      36.936  32.120  29.743  1.00  0.00    -0.014 A 
BRANCH  38  39
ATOM     39  C   UNL A   1      38.052  31.480  30.482  1.00  0.00     0.031 A 
ATOM     40  C   UNL A   1      38.875  30.413  29.817  1.00  0.00     0.074 A 
ATOM     41  C   UNL A   1      38.252  31.778  31.781  1.00  0.00     0.049 A 
ATOM     42  N   UNL A   1      39.848  29.695  30.311  1.00  0.00    -0.248 NA
ATOM     43  C   UNL A   1      38.536  30.085  28.422  1.00  0.00     0.031 C 
ATOM     44  C   UNL A   1      37.458  32.728  32.564  1.00  0.00     0.029 A 
ATOM     45  N   UNL A   1      39.172  31.297  32.679  1.00  0.00    -0.354 N 
ATOM     46  C   UNL A   1      40.205  28.802  29.309  1.00  0.00     0.074 A 
ATOM     47  C   UNL A   1      39.318  29.041  28.193  1.00  0.00     0.031 C 
ATOM     48  C   UNL A   1      37.939  32.776  33.818  1.00  0.00     0.029 A 
ATOM     49  C   UNL A   1      39.058  31.846  33.934  1.00  0.00     0.049 A 
ATOM     50  H   UNL A   1      39.849  30.622  32.444  1.00  0.00     0.167 HD
ATOM     51  C   UNL A   1      41.208  27.892  29.301  1.00  0.00     0.034 A 
ATOM     52  C   UNL A   1      39.785  31.632  35.049  1.00  0.00     0.034 A 
ATOM     53  C   UNL A   1      42.131  27.708  30.385  1.00  0.00     0.049 A 
ATOM     54  C   UNL A   1      40.935  30.663  34.995  1.00  0.00     0.074 A 
ATOM     55  C   UNL A   1      43.251  26.898  30.436  1.00  0.00     0.029 A 
ATOM     56  N   UNL A   1      42.042  28.347  31.613  1.00  0.00    -0.354 N 
ATOM     57  N   UNL A   1      41.368  29.954  33.981  1.00  0.00    -0.248 NA
ATOM     58  C   UNL A   1      41.716  30.490  36.228  1.00  0.00     0.031 C 
ATOM     59  C   UNL A   1      43.837  27.045  31.698  1.00  0.00     0.029 A 
ATOM     60  C   UNL A   1      43.084  27.949  32.431  1.00  0.00     0.049 A 
ATOM     61  H   UNL A   1      41.341  28.990  31.865  1.00  0.00     0.167 HD
ATOM     62  C   UNL A   1      42.494  29.279  34.441  1.00  0.00     0.074 A 
ATOM     63  C   UNL A   1      42.684  29.677  35.822  1.00  0.00     0.031 C 
ATOM     64  C   UNL A   1      43.290  28.400  33.785  1.00  0.00     0.034 A 
BRANCH  51  65
ATOM     65  C   UNL A   1      41.393  27.087  28.042  1.00  0.00     0.023 A 
ATOM     66  C   UNL A   1      41.931  27.709  26.897  1.00  0.00     0.012 A 
ATOM     67  C   UNL A   1      41.045  25.724  27.988  1.00  0.00     0.148 A 
ATOM     68  C   UNL A   1      42.076  27.003  25.705  1.00  0.00     0.002 A 
ATOM     69  C   UNL A   1      41.232  25.014  26.806  1.00  0.00     0.091 A 
ATOM     70  F   UNL A   1      40.506  25.152  29.074  1.00  0.00    -0.205 F 
ATOM     71  C   UNL A   1      41.735  25.654  25.661  1.00  0.00     0.022 A 
BRANCH  69  72
ATOM     72  S   UNL A   1      40.886  23.256  26.689  1.00  0.00     0.127 S 
ATOM     73  O   UNL A   1      41.273  22.788  28.018  1.00  0.00    -0.237 OA
ATOM     74  O   UNL A   1      39.444  23.234  26.433  1.00  0.00    -0.237 OA
ATOM     75  O   UNL A   1      41.698  22.773  25.581  1.00  0.00    -0.744 OA
ENDBRANCH  69  72
ENDBRANCH  51  65
BRANCH  52  76
ATOM     76  C   UNL A   1      39.519  32.441  36.272  1.00  0.00     0.023 A 
ATOM     77  C   UNL A   1      40.181  33.676  36.423  1.00  0.00     0.012 A 
ATOM     78  C   UNL A   1      38.590  32.035  37.248  1.00  0.00     0.148 A 
ATOM     79  C   UNL A   1      39.939  34.481  37.535  1.00  0.00     0.002 A 
ATOM     80  C   UNL A   1      38.319  32.865  38.331  1.00  0.00     0.091 A 
ATOM     81  F   UNL A   1      37.977  30.854  37.088  1.00  0.00    -0.205 F 
ATOM     82  C   UNL A   1      39.002  34.081  38.484  1.00  0.00     0.022 A 
BRANCH  80  83
ATOM     83  S   UNL A   1      37.043  32.494  39.541  1.00  0.00     0.127 S 
ATOM     84  O   UNL A   1      35.833  32.544  38.724  1.00  0.00    -0.237 OA
ATOM     85  O   UNL A   1      37.431  31.155  39.986  1.00  0.00    -0.237 OA
ATOM     86  O   UNL A   1      37.159  33.525  40.563  1.00  0.00    -0.744 OA
ENDBRANCH  80  83
ENDBRANCH  52  76
BRANCH  64  87
ATOM     87  C   UNL A   1      44.457  27.818  34.537  1.00  0.00     0.023 A 
ATOM     88  C   UNL A   1      45.675  28.521  34.578  1.00  0.00     0.012 A 
ATOM     89  C   UNL A   1      44.319  26.624  35.271  1.00  0.00     0.148 A 
ATOM     90  C   UNL A   1      46.749  28.033  35.322  1.00  0.00     0.002 A 
ATOM     91  C   UNL A   1      45.380  26.165  36.044  1.00  0.00     0.091 A 
ATOM     92  F   UNL A   1      43.157  25.956  35.200  1.00  0.00    -0.205 F 
ATOM     93  C   UNL A   1      46.597  26.864  36.064  1.00  0.00     0.022 A 
BRANCH  91  94
ATOM     94  S   UNL A   1      45.235  24.720  37.102  1.00  0.00     0.127 S 
ATOM     95  O   UNL A   1      46.629  24.479  37.470  1.00  0.00    -0.237 OA
ATOM     96  O   UNL A   1      44.394  25.213  38.194  1.00  0.00    -0.237 OA
ATOM     97  O   UNL A   1      44.610  23.691  36.283  1.00  0.00    -0.744 OA
ENDBRANCH  91  94
ENDBRANCH  64  87
ENDBRANCH  38  39
ENDBRANCH  30  33
ENDBRANCH  28  29
ENDBRANCH   1  28
TORSDOF 18
ENDMDL
MODEL 2
REMARK VINA RESULT:     -11.6      1.944      2.742
REMARK SMILES CC[NH2+][C@@]1(C(=O)NCCCCNC(=O)c2ccc(-c3c4nc(c(-c5cccc(S(=O)(=O)[O-])c5F)c5ccc([nH]5)c(-c5cccc(S(=O)(=O)[O-])c5F)c5nc(c(-c6cccc(S(=O)(=O)[O-])c6F)c6ccc3[nH]6)C=C5)C=C4)cc2)CC[C@@H]([NH+]2CCC(C)(CC)CC2)C1
REMARK SMILES IDX 10 1 9 2 8 3 7 4 5 5 6 6 4 8 78 9 90 10 79 11 80 12 3 13
REMARK SMILES IDX 2 16 1 17 81 18 82 19 89 20 83 22 88 23 84 24 85 25 86 26
REMARK SMILES IDX 87 27 11 28 12 29 13 30 14 32 15 33 16 34 77 35 17 36 76 37
REMARK SMILES IDX 18 38 19 39 20 40 70 41 21 42 75 43 69 44 71 45 22 46 74 47
REMARK SMILES IDX 68 48 67 49 23 51 55 52 35 53 54 54 36 55 39 56 53 57 72 58
REMARK SMILES IDX 37 59 38 60 52 62 73 63 40 64 24 65 25 66 33 67 26 68 28 69
REMARK SMILES IDX 34 70 27 71 29 72 30 73 31 74 32 75 56 76 57 77 65 78 58 79
REMARK SMILES IDX 60 80 66 81 59 82 61 83 62 84 63 85 64 86 41 87 42 88 50 89
REMARK SMILES IDX 43 90 45 91 51 92 44 93 46 94 47 95 48 96 49 97
REMARK H PARENT 7 7 3 14 3 15 81 21 12 31 71 50 39 61
REMARK Flexibility Score: inf
ROOT
ATOM      1  C   UNL A   1      32.288  31.457  26.942  1.00  0.00     0.023 C 
ENDROOT
BRANCH   1   2
ATOM      2  C   UNL A   1      32.854  30.052  26.745  1.00  0.00     0.023 C 
BRANCH   2   3
ATOM      3  C   UNL A   1      32.597  29.433  25.371  1.00  0.00     0.116 C 
BRANCH   3   4
ATOM      4  N   UNL A   1      31.447  30.003  24.711  1.00  0.00    -0.351 N 
ATOM      5  C   UNL A   1      30.499  29.487  23.881  1.00  0.00     0.281 C 
ATOM      6  O   UNL A   1      29.645  30.309  23.525  1.00  0.00    -0.268 OA
ATOM      7  H   UNL A   1      31.321  30.961  24.901  1.00  0.00     0.163 HD
BRANCH   5   8
ATOM      8  C   UNL A   1      30.482  27.982  23.380  1.00  0.00     0.181 C 
ATOM      9  C   UNL A   1      29.092  27.408  23.065  1.00  0.00     0.085 C 
ATOM     10  C   UNL A   1      31.090  27.049  24.447  1.00  0.00     0.144 C 
ATOM     11  C   UNL A   1      28.764  26.312  24.072  1.00  0.00     0.072 C 
ATOM     12  C   UNL A   1      30.001  26.096  24.953  1.00  0.00     0.191 C 
BRANCH   8  13
ATOM     13  N   UNL A   1      31.386  27.858  22.188  1.00  0.00    -0.334 N 
ATOM     14  H   UNL A   1      30.888  27.325  21.476  1.00  0.00     0.347 HD
ATOM     15  H   UNL A   1      31.612  28.816  21.923  1.00  0.00     0.347 HD
BRANCH  13  16
ATOM     16  C   UNL A   1      32.674  27.205  22.411  1.00  0.00     0.257 C 
ATOM     17  C   UNL A   1      33.779  28.231  22.199  1.00  0.00     0.071 C 
ENDBRANCH  13  16
ENDBRANCH   8  13
BRANCH  12  18
ATOM     18  N   UNL A   1      30.344  24.691  25.208  1.00  0.00    -0.332 N 
ATOM     19  C   UNL A   1      31.162  24.450  26.398  1.00  0.00     0.263 C 
ATOM     20  C   UNL A   1      30.792  23.862  24.096  1.00  0.00     0.263 C 
ATOM     21  H   UNL A   1      29.398  24.356  25.394  1.00  0.00     0.348 HD
ATOM     22  C   UNL A   1      32.676  24.594  26.198  1.00  0.00     0.068 C 
ATOM     23  C   UNL A   1      32.259  24.037  23.713  1.00  0.00     0.068 C 
ATOM     24  C   UNL A   1      33.258  23.980  24.894  1.00  0.00    -0.022 C 
ATOM     25  C   UNL A   1      34.500  24.821  24.491  1.00  0.00     0.012 C 
BRANCH  24  26
ATOM     26  C   UNL A   1      33.794  22.535  25.121  1.00  0.00     0.004 C 
ATOM     27  C   UNL A   1      34.989  22.087  24.298  1.00  0.00     0.004 C 
ENDBRANCH  24  26
ENDBRANCH  12  18
ENDBRANCH   5   8
ENDBRANCH   3   4
ENDBRANCH   2   3
ENDBRANCH   1   2
BRANCH   1  28
ATOM     28  C   UNL A   1      33.230  32.446  27.616  1.00  0.00     0.116 C 
BRANCH  28  29
ATOM     29  N   UNL A   1      32.694  33.795  27.756  1.00  0.00    -0.352 N 
ATOM     30  C   UNL A   1      33.136  34.775  28.621  1.00  0.00     0.251 C 
ATOM     31  H   UNL A   1      31.936  34.031  27.172  1.00  0.00     0.163 HD
ATOM     32  O   UNL A   1      32.568  35.853  28.705  1.00  0.00    -0.269 OA
BRANCH  30  33
ATOM     33  C   UNL A   1      34.289  34.452  29.486  1.00  0.00     0.039 A 
ATOM     34  C   UNL A   1      34.054  33.885  30.740  1.00  0.00     0.014 A 
ATOM     35  C   UNL A   1      35.585  34.574  28.983  1.00  0.00     0.014 A 
ATOM     36  C   UNL A   1      35.126  33.358  31.459  1.00  0.00     0.010 A 
ATOM     37  C   UNL A   1      36.636  33.975  29.664  1.00  0.00     0.010 A 
ATOM     38  C   UNL A   1      36.417  33.357  30.905  1.00  0.00    -0.014 A 
BRANCH  38  39
ATOM     39  C   UNL A   1      37.555  32.695  31.589  1.00  0.00     0.031 A 
ATOM     40  C   UNL A   1      38.266  31.551  30.924  1.00  0.00     0.074 A 
ATOM     41  C   UNL A   1      37.874  33.050  32.850  1.00  0.00     0.049 A 
ATOM     42  N   UNL A   1      39.237  30.806  31.381  1.00  0.00    -0.248 NA
ATOM     43  C   UNL A   1      37.798  31.169  29.581  1.00  0.00     0.031 C 
ATOM     44  C   UNL A   1      37.196  34.082  33.637  1.00  0.00     0.029 A 
ATOM     45  N   UNL A   1      38.838  32.566  33.699  1.00  0.00    -0.354 N 
ATOM     46  C   UNL A   1      39.465  29.843  30.407  1.00  0.00     0.074 A 
ATOM     47  C   UNL A   1      38.504  30.072  29.351  1.00  0.00     0.031 C 
ATOM     48  C   UNL A   1      37.779  34.169  34.845  1.00  0.00     0.029 A 
ATOM     49  C   UNL A   1      38.854  33.185  34.926  1.00  0.00     0.049 A 
ATOM     50  H   UNL A   1      39.458  31.842  33.451  1.00  0.00     0.167 HD
ATOM     51  C   UNL A   1      40.416  28.880  30.372  1.00  0.00     0.034 A 
ATOM     52  C   UNL A   1      39.657  32.990  35.992  1.00  0.00     0.034 A 
ATOM     53  C   UNL A   1      41.413  28.702  31.389  1.00  0.00     0.049 A 
ATOM     54  C   UNL A   1      40.747  31.957  35.903  1.00  0.00     0.074 A 
ATOM     55  C   UNL A   1      42.490  27.834  31.399  1.00  0.00     0.029 A 
ATOM     56  N   UNL A   1      41.457  29.408  32.582  1.00  0.00    -0.354 N 
ATOM     57  N   UNL A   1      41.060  31.172  34.901  1.00  0.00    -0.248 NA
ATOM     58  C   UNL A   1      41.616  31.806  37.080  1.00  0.00     0.031 C 
ATOM     59  C   UNL A   1      43.183  28.014  32.601  1.00  0.00     0.029 A 
ATOM     60  C   UNL A   1      42.539  28.996  33.338  1.00  0.00     0.049 A 
ATOM     61  H   UNL A   1      40.812  30.102  32.851  1.00  0.00     0.167 HD
ATOM     62  C   UNL A   1      42.183  30.461  35.309  1.00  0.00     0.074 A 
ATOM     63  C   UNL A   1      42.504  30.920  36.646  1.00  0.00     0.031 C 
ATOM     64  C   UNL A   1      42.877  29.505  34.644  1.00  0.00     0.034 A 
BRANCH  51  65
ATOM     65  C   UNL A   1      40.456  28.000  29.150  1.00  0.00     0.023 A 
ATOM     66  C   UNL A   1      39.571  26.906  29.058  1.00  0.00     0.012 A 
ATOM     67  C   UNL A   1      41.354  28.252  28.097  1.00  0.00     0.148 A 
ATOM     68  C   UNL A   1      39.611  26.049  27.961  1.00  0.00     0.002 A 
ATOM     69  C   UNL A   1      41.358  27.416  26.984  1.00  0.00     0.091 A 
ATOM     70  F   UNL A   1      42.211  29.277  28.209  1.00  0.00    -0.205 F 
ATOM     71  C   UNL A   1      40.497  26.308  26.920  1.00  0.00     0.022 A 
BRANCH  69  72
ATOM     72  S   UNL A   1      42.421  27.725  25.569  1.00  0.00     0.127 S 
ATOM     73  O   UNL A   1      41.860  28.966  25.042  1.00  0.00    -0.237 OA
ATOM     74  O   UNL A   1      43.739  27.868  26.188  1.00  0.00    -0.237 OA
ATOM     75  O   UNL A   1      42.284  26.551  24.717  1.00  0.00    -0.744 OA
ENDBRANCH  69  72
ENDBRANCH  51  65
BRANCH  52  76
ATOM     76  C   UNL A   1      39.532  33.876  37.183  1.00  0.00     0.023 A 
ATOM     77  C   UNL A   1      40.027  35.193  37.102  1.00  0.00     0.012 A 
ATOM     78  C   UNL A   1      38.890  33.455  38.363  1.00  0.00     0.148 A 
ATOM     79  C   UNL A   1      39.905  36.068  38.180  1.00  0.00     0.002 A 
ATOM     80  C   UNL A   1      38.730  34.347  39.418  1.00  0.00     0.091 A 
ATOM     81  F   UNL A   1      38.433  32.196  38.422  1.00  0.00    -0.205 F 
ATOM     82  C   UNL A   1      39.248  35.649  39.334  1.00  0.00     0.022 A 
BRANCH  80  83
ATOM     83  S   UNL A   1      37.794  33.941  40.897  1.00  0.00     0.127 S 
ATOM     84  O   UNL A   1      38.731  33.081  41.617  1.00  0.00    -0.237 OA
ATOM     85  O   UNL A   1      37.587  35.261  41.494  1.00  0.00    -0.237 OA
ATOM     86  O   UNL A   1      36.577  33.295  40.427  1.00  0.00    -0.744 OA
ENDBRANCH  80  83
ENDBRANCH  52  76
BRANCH  64  87
ATOM     87  C   UNL A   1      44.069  28.899  35.335  1.00  0.00     0.023 A 
ATOM     88  C   UNL A   1      45.348  29.444  35.116  1.00  0.00     0.012 A 
ATOM     89  C   UNL A   1      43.910  27.851  36.262  1.00  0.00     0.148 A 
ATOM     90  C   UNL A   1      46.458  28.941  35.795  1.00  0.00     0.002 A 
ATOM     91  C   UNL A   1      45.013  27.383  36.966  1.00  0.00     0.091 A 
ATOM     92  F   UNL A   1      42.687  27.330  36.439  1.00  0.00    -0.205 F 
ATOM     93  C   UNL A   1      46.288  27.921  36.728  1.00  0.00     0.022 A 
BRANCH  91  94
ATOM     94  S   UNL A   1      44.866  26.137  38.253  1.00  0.00     0.127 S 
ATOM     95  O   UNL A   1      46.102  26.338  39.006  1.00  0.00    -0.237 OA
ATOM     96  O   UNL A   1      43.651  26.551  38.955  1.00  0.00    -0.237 OA
ATOM     97  O   UNL A   1      44.751  24.862  37.557  1.00  0.00    -0.744 OA
ENDBRANCH  91  94
ENDBRANCH  64  87
ENDBRANCH  38  39
ENDBRANCH  30  33
ENDBRANCH  28  29
ENDBRANCH   1  28
TORSDOF 18
ENDMDL
MODEL 3
REMARK VINA RESULT:     -11.6      5.177      8.481
REMARK SMILES CC[NH2+][C@@]1(C(=O)NCCCCNC(=O)c2ccc(-c3c4nc(c(-c5cccc(S(=O)(=O)[O-])c5F)c5ccc([nH]5)c(-c5cccc(S(=O)(=O)[O-])c5F)c5nc(c(-c6cccc(S(=O)(=O)[O-])c6F)c6ccc3[nH]6)C=C5)C=C4)cc2)CC[C@@H]([NH+]2CCC(C)(CC)CC2)C1
REMARK SMILES IDX 10 1 9 2 8 3 7 4 5 5 6 6 4 8 78 9 90 10 79 11 80 12 3 13
REMARK SMILES IDX 2 16 1 17 81 18 82 19 89 20 83 22 88 23 84 24 85 25 86 26
REMARK SMILES IDX 87 27 11 28 12 29 13 30 14 32 15 33 16 34 77 35 17 36 76 37
REMARK SMILES IDX 18 38 19 39 20 40 70 41 21 42 75 43 69 44 71 45 22 46 74 47
REMARK SMILES IDX 68 48 67 49 23 51 55 52 35 53 54 54 36 55 39 56 53 57 72 58
REMARK SMILES IDX 37 59 38 60 52 62 73 63 40 64 24 65 25 66 33 67 26 68 28 69
REMARK SMILES IDX 34 70 27 71 29 72 30 73 31 74 32 75 56 76 57 77 65 78 58 79
REMARK SMILES IDX 60 80 66 81 59 82 61 83 62 84 63 85 64 86 41 87 42 88 50 89
REMARK SMILES IDX 43 90 45 91 51 92 44 93 46 94 47 95 48 96 49 97
REMARK H PARENT 7 7 3 14 3 15 81 21 12 31 71 50 39 61
REMARK Flexibility Score: inf
ROOT
ATOM      1  C   UNL A   1      35.957  21.271  24.752  1.00  0.00     0.023 C 
ENDROOT
BRANCH   1   2
ATOM      2  C   UNL A   1      34.930  20.969  25.842  1.00  0.00     0.023 C 
BRANCH   2   3
ATOM      3  C   UNL A   1      33.580  21.667  25.676  1.00  0.00     0.116 C 
BRANCH   3   4
ATOM      4  N   UNL A   1      32.991  21.435  24.378  1.00  0.00    -0.351 N 
ATOM      5  C   UNL A   1      32.681  22.255  23.337  1.00  0.00     0.281 C 
ATOM      6  O   UNL A   1      32.187  21.666  22.367  1.00  0.00    -0.268 OA
ATOM      7  H   UNL A   1      32.768  20.491  24.213  1.00  0.00     0.163 HD
BRANCH   5   8
ATOM      8  C   UNL A   1      32.898  23.827  23.349  1.00  0.00     0.181 C 
ATOM      9  C   UNL A   1      34.362  24.289  23.381  1.00  0.00     0.085 C 
ATOM     10  C   UNL A   1      32.230  24.456  24.589  1.00  0.00     0.144 C 
ATOM     11  C   UNL A   1      34.640  24.973  24.715  1.00  0.00     0.072 C 
ATOM     12  C   UNL A   1      33.316  25.062  25.484  1.00  0.00     0.191 C 
BRANCH   8  13
ATOM     13  N   UNL A   1      32.183  24.423  22.172  1.00  0.00    -0.334 N 
ATOM     14  H   UNL A   1      32.056  23.685  21.480  1.00  0.00     0.347 HD
ATOM     15  H   UNL A   1      31.317  24.806  22.550  1.00  0.00     0.347 HD
BRANCH  13  16
ATOM     16  C   UNL A   1      32.843  25.545  21.507  1.00  0.00     0.257 C 
ATOM     17  C   UNL A   1      32.507  25.492  20.023  1.00  0.00     0.071 C 
ENDBRANCH  13  16
ENDBRANCH   8  13
BRANCH  12  18
ATOM     18  N   UNL A   1      33.063  26.353  26.139  1.00  0.00    -0.332 N 
ATOM     19  C   UNL A   1      31.656  26.662  26.394  1.00  0.00     0.263 C 
ATOM     20  C   UNL A   1      33.775  27.534  25.666  1.00  0.00     0.263 C 
ATOM     21  H   UNL A   1      33.513  26.139  27.030  1.00  0.00     0.348 HD
ATOM     22  C   UNL A   1      30.901  27.312  25.227  1.00  0.00     0.068 C 
ATOM     23  C   UNL A   1      33.191  28.178  24.413  1.00  0.00     0.068 C 
ATOM     24  C   UNL A   1      31.663  28.421  24.450  1.00  0.00    -0.022 C 
ATOM     25  C   UNL A   1      31.156  28.401  22.982  1.00  0.00     0.012 C 
BRANCH  24  26
ATOM     26  C   UNL A   1      31.323  29.844  24.984  1.00  0.00     0.004 C 
ATOM     27  C   UNL A   1      31.766  30.196  26.393  1.00  0.00     0.004 C 
ENDBRANCH  24  26
ENDBRANCH  12  18
ENDBRANCH   5   8
ENDBRANCH   3   4
ENDBRANCH   2   3
ENDBRANCH   1   2
BRANCH   1  28
ATOM     28  C   UNL A   1      37.300  21.786  25.254  1.00  0.00     0.116 C 
BRANCH  28  29
ATOM     29  N   UNL A   1      38.311  20.753  25.450  1.00  0.00    -0.352 N 
ATOM     30  C   UNL A   1      39.510  20.885  26.118  1.00  0.00     0.251 C 
ATOM     31  H   UNL A   1      38.116  19.867  25.065  1.00  0.00     0.163 HD
ATOM     32  O   UNL A   1      40.318  19.970  26.165  1.00  0.00    -0.269 OA
BRANCH  30  33
ATOM     33  C   UNL A   1      39.810  22.197  26.728  1.00  0.00     0.039 A 
ATOM     34  C   UNL A   1      40.788  22.271  27.722  1.00  0.00     0.014 A 
ATOM     35  C   UNL A   1      39.230  23.352  26.203  1.00  0.00     0.014 A 
ATOM     36  C   UNL A   1      41.248  23.522  28.131  1.00  0.00     0.010 A 
ATOM     37  C   UNL A   1      39.749  24.592  26.553  1.00  0.00     0.010 A 
ATOM     38  C   UNL A   1      40.765  24.689  27.515  1.00  0.00    -0.014 A 
BRANCH  38  39
ATOM     39  C   UNL A   1      41.322  26.025  27.840  1.00  0.00     0.031 A 
ATOM     40  C   UNL A   1      42.720  26.377  27.416  1.00  0.00     0.074 A 
ATOM     41  C   UNL A   1      40.613  26.876  28.609  1.00  0.00     0.049 A 
ATOM     42  N   UNL A   1      43.405  27.463  27.656  1.00  0.00    -0.248 NA
ATOM     43  C   UNL A   1      43.458  25.358  26.653  1.00  0.00     0.031 C 
ATOM     44  C   UNL A   1      39.282  26.611  29.161  1.00  0.00     0.029 A 
ATOM     45  N   UNL A   1      40.922  28.128  29.078  1.00  0.00    -0.354 N 
ATOM     46  C   UNL A   1      44.665  27.242  27.116  1.00  0.00     0.074 A 
ATOM     47  C   UNL A   1      44.663  25.902  26.572  1.00  0.00     0.031 C 
ATOM     48  C   UNL A   1      38.881  27.676  29.874  1.00  0.00     0.029 A 
ATOM     49  C   UNL A   1      39.932  28.689  29.849  1.00  0.00     0.049 A 
ATOM     50  H   UNL A   1      41.773  28.582  28.879  1.00  0.00     0.167 HD
ATOM     51  C   UNL A   1      45.718  28.091  27.041  1.00  0.00     0.034 A 
ATOM     52  C   UNL A   1      39.874  29.891  30.457  1.00  0.00     0.034 A 
ATOM     53  C   UNL A   1      45.690  29.444  27.520  1.00  0.00     0.049 A 
ATOM     54  C   UNL A   1      41.031  30.841  30.305  1.00  0.00     0.074 A 
ATOM     55  C   UNL A   1      46.658  30.424  27.392  1.00  0.00     0.029 A 
ATOM     56  N   UNL A   1      44.635  30.011  28.220  1.00  0.00    -0.354 N 
ATOM     57  N   UNL A   1      42.148  30.679  29.639  1.00  0.00    -0.248 NA
ATOM     58  C   UNL A   1      40.905  32.151  30.959  1.00  0.00     0.031 C 
ATOM     59  C   UNL A   1      46.189  31.583  28.019  1.00  0.00     0.029 A 
ATOM     60  C   UNL A   1      44.928  31.327  28.534  1.00  0.00     0.049 A 
ATOM     61  H   UNL A   1      43.801  29.547  28.457  1.00  0.00     0.167 HD
ATOM     62  C   UNL A   1      42.843  31.877  29.762  1.00  0.00     0.074 A 
ATOM     63  C   UNL A   1      42.012  32.761  30.554  1.00  0.00     0.031 C 
ATOM     64  C   UNL A   1      44.063  32.210  29.275  1.00  0.00     0.034 A 
BRANCH  51  65
ATOM     65  C   UNL A   1      46.956  27.588  26.347  1.00  0.00     0.023 A 
ATOM     66  C   UNL A   1      47.928  26.888  27.091  1.00  0.00     0.012 A 
ATOM     67  C   UNL A   1      47.158  27.796  24.971  1.00  0.00     0.148 A 
ATOM     68  C   UNL A   1      49.103  26.446  26.488  1.00  0.00     0.002 A 
ATOM     69  C   UNL A   1      48.315  27.314  24.366  1.00  0.00     0.091 A 
ATOM     70  F   UNL A   1      46.240  28.489  24.281  1.00  0.00    -0.205 F 
ATOM     71  C   UNL A   1      49.293  26.650  25.125  1.00  0.00     0.022 A 
BRANCH  69  72
ATOM     72  S   UNL A   1      48.601  27.474  22.600  1.00  0.00     0.127 S 
ATOM     73  O   UNL A   1      48.613  26.077  22.173  1.00  0.00    -0.237 OA
ATOM     74  O   UNL A   1      47.430  28.234  22.158  1.00  0.00    -0.237 OA
ATOM     75  O   UNL A   1      49.862  28.191  22.475  1.00  0.00    -0.744 OA
ENDBRANCH  69  72
ENDBRANCH  51  65
BRANCH  52  76
ATOM     76  C   UNL A   1      38.627  30.305  31.161  1.00  0.00     0.023 A 
ATOM     77  C   UNL A   1      38.484  29.987  32.526  1.00  0.00     0.012 A 
ATOM     78  C   UNL A   1      37.619  31.047  30.518  1.00  0.00     0.148 A 
ATOM     79  C   UNL A   1      37.349  30.381  33.233  1.00  0.00     0.002 A 
ATOM     80  C   UNL A   1      36.511  31.478  31.241  1.00  0.00     0.091 A 
ATOM     81  F   UNL A   1      37.772  31.333  29.217  1.00  0.00    -0.205 F 
ATOM     82  C   UNL A   1      36.368  31.134  32.595  1.00  0.00     0.022 A 
BRANCH  80  83
ATOM     83  S   UNL A   1      35.254  32.553  30.540  1.00  0.00     0.127 S 
ATOM     84  O   UNL A   1      34.324  32.694  31.658  1.00  0.00    -0.237 OA
ATOM     85  O   UNL A   1      36.028  33.755  30.227  1.00  0.00    -0.237 OA
ATOM     86  O   UNL A   1      34.739  31.848  29.375  1.00  0.00    -0.744 OA
ENDBRANCH  80  83
ENDBRANCH  52  76
BRANCH  64  87
ATOM     87  C   UNL A   1      44.574  33.597  29.561  1.00  0.00     0.023 A 
ATOM     88  C   UNL A   1      45.544  33.786  30.563  1.00  0.00     0.012 A 
ATOM     89  C   UNL A   1      44.158  34.694  28.781  1.00  0.00     0.148 A 
ATOM     90  C   UNL A   1      46.078  35.053  30.801  1.00  0.00     0.002 A 
ATOM     91  C   UNL A   1      44.726  35.945  28.996  1.00  0.00     0.091 A 
ATOM     92  F   UNL A   1      43.216  34.498  27.847  1.00  0.00    -0.205 F 
ATOM     93  C   UNL A   1      45.680  36.127  30.010  1.00  0.00     0.022 A 
BRANCH  91  94
ATOM     94  S   UNL A   1      44.337  37.361  27.960  1.00  0.00     0.127 S 
ATOM     95  O   UNL A   1      42.936  37.601  28.296  1.00  0.00    -0.237 OA
ATOM     96  O   UNL A   1      45.266  38.378  28.455  1.00  0.00    -0.237 OA
ATOM     97  O   UNL A   1      44.594  36.932  26.591  1.00  0.00    -0.744 OA
ENDBRANCH  91  94
ENDBRANCH  64  87
ENDBRANCH  38  39
ENDBRANCH  30  33
ENDBRANCH  28  29
ENDBRANCH   1  28
TORSDOF 18
ENDMDL
