MODEL 1
REMARK VINA RESULT:     -11.3      0.000      0.000
REMARK SMILES O=C(C[C@H]1C[N@@H+](CCSc2ccccc2F)CCO1)NCCCCNC(=O)c1ccc(-c2c3nc(c(-c4cccc(S(=O)(=O)[O-])c4F)c4ccc([nH]4)c(-c4cccc(S(=O)(=O)[O-])c4F)c4nc(c(-c5cccc(S(=O)(=O)[O-])c5F)c5ccc2[nH]5)C=C4)C=C3)cc1
REMARK SMILES IDX 21 1 20 2 1 3 2 4 3 6 4 7 5 8 19 9 6 10 18 11 17 12 7 14
REMARK SMILES IDX 8 15 9 16 10 17 11 18 15 19 12 20 14 21 16 22 13 23 22 24
REMARK SMILES IDX 23 25 24 26 25 27 26 28 27 30 28 31 29 32 90 33 30 34 89 35
REMARK SMILES IDX 31 36 32 37 33 38 83 39 34 40 88 41 82 42 84 43 35 44 87 45
REMARK SMILES IDX 81 46 80 47 36 49 68 50 48 51 67 52 49 53 52 54 66 55 85 56
REMARK SMILES IDX 50 57 51 58 65 60 86 61 53 62 37 63 38 64 46 65 39 66 41 67
REMARK SMILES IDX 47 68 40 69 42 70 43 71 44 72 45 73 69 74 70 75 78 76 71 77
REMARK SMILES IDX 73 78 79 79 72 80 74 81 75 82 76 83 77 84 54 85 55 86 63 87
REMARK SMILES IDX 56 88 58 89 64 90 57 91 59 92 60 93 61 94 62 95
REMARK H PARENT 20 5 6 13 25 29 84 48 52 59
REMARK Flexibility Score: inf
ROOT
ATOM      1  C   UNL A   1      32.676  30.031  27.137  1.00  0.00     0.116 C 
ENDROOT
BRANCH   1   2
ATOM      2  N   UNL A   1      32.909  28.824  26.385  1.00  0.00    -0.356 N 
ATOM      3  O   UNL A   1      31.428  27.470  27.486  1.00  0.00    -0.275 OA
ATOM      4  C   UNL A   1      32.277  27.628  26.613  1.00  0.00     0.222 C 
ATOM      5  H   UNL A   1      33.569  28.860  25.656  1.00  0.00     0.163 HD
BRANCH   4   6
ATOM      6  C   UNL A   1      32.824  26.461  25.809  1.00  0.00     0.138 C 
BRANCH   6   7
ATOM      7  C   UNL A   1      32.766  26.674  24.292  1.00  0.00     0.182 C 
ATOM      8  C   UNL A   1      33.703  25.699  23.532  1.00  0.00     0.295 C 
ATOM      9  O   UNL A   1      31.418  26.671  23.798  1.00  0.00    -0.366 OA
ATOM     10  N   UNL A   1      33.157  24.363  23.289  1.00  0.00    -0.330 N 
ATOM     11  C   UNL A   1      30.901  25.358  23.607  1.00  0.00     0.222 C 
ATOM     12  C   UNL A   1      31.824  24.512  22.728  1.00  0.00     0.291 C 
ATOM     13  H   UNL A   1      33.745  23.910  22.589  1.00  0.00     0.348 HD
BRANCH  10  14
ATOM     14  C   UNL A   1      33.386  23.309  24.285  1.00  0.00     0.273 C 
BRANCH  14  15
ATOM     15  C   UNL A   1      34.601  22.334  24.279  1.00  0.00     0.136 C 
BRANCH  15  16
ATOM     16  S   UNL A   1      34.700  20.975  25.544  1.00  0.00    -0.117 SA
BRANCH  16  17
ATOM     17  C   UNL A   1      34.004  19.539  24.742  1.00  0.00     0.043 A 
ATOM     18  C   UNL A   1      34.848  18.436  24.541  1.00  0.00     0.018 A 
ATOM     19  C   UNL A   1      32.688  19.456  24.272  1.00  0.00     0.136 A 
ATOM     20  C   UNL A   1      34.440  17.359  23.746  1.00  0.00     0.001 A 
ATOM     21  C   UNL A   1      32.264  18.363  23.506  1.00  0.00     0.040 A 
ATOM     22  F   UNL A   1      31.826  20.464  24.468  1.00  0.00    -0.206 F 
ATOM     23  C   UNL A   1      33.156  17.333  23.206  1.00  0.00     0.003 A 
ENDBRANCH  16  17
ENDBRANCH  15  16
ENDBRANCH  14  15
ENDBRANCH  10  14
ENDBRANCH   6   7
ENDBRANCH   4   6
ENDBRANCH   1   2
BRANCH   1  24
ATOM     24  C   UNL A   1      31.486  30.779  26.540  1.00  0.00     0.023 C 
BRANCH  24  25
ATOM     25  C   UNL A   1      31.584  32.312  26.603  1.00  0.00     0.023 C 
BRANCH  25  26
ATOM     26  C   UNL A   1      32.746  32.866  27.423  1.00  0.00     0.116 C 
BRANCH  26  27
ATOM     27  N   UNL A   1      32.508  34.229  27.865  1.00  0.00    -0.352 N 
ATOM     28  C   UNL A   1      33.100  34.927  28.883  1.00  0.00     0.251 C 
ATOM     29  H   UNL A   1      31.822  34.721  27.360  1.00  0.00     0.163 HD
ATOM     30  O   UNL A   1      32.642  36.022  29.219  1.00  0.00    -0.269 OA
BRANCH  28  31
ATOM     31  C   UNL A   1      34.266  34.364  29.591  1.00  0.00     0.039 A 
ATOM     32  C   UNL A   1      34.051  33.631  30.760  1.00  0.00     0.014 A 
ATOM     33  C   UNL A   1      35.564  34.557  29.108  1.00  0.00     0.014 A 
ATOM     34  C   UNL A   1      35.134  33.045  31.416  1.00  0.00     0.010 A 
ATOM     35  C   UNL A   1      36.634  33.913  29.724  1.00  0.00     0.010 A 
ATOM     36  C   UNL A   1      36.431  33.154  30.887  1.00  0.00    -0.014 A 
BRANCH  36  37
ATOM     37  C   UNL A   1      37.580  32.464  31.530  1.00  0.00     0.031 A 
ATOM     38  C   UNL A   1      38.127  32.957  32.842  1.00  0.00     0.074 A 
ATOM     39  C   UNL A   1      38.175  31.434  30.895  1.00  0.00     0.049 A 
ATOM     40  N   UNL A   1      39.150  32.510  33.522  1.00  0.00    -0.248 NA
ATOM     41  C   UNL A   1      37.455  34.111  33.459  1.00  0.00     0.031 C 
ATOM     42  C   UNL A   1      37.779  30.909  29.586  1.00  0.00     0.029 A 
ATOM     43  N   UNL A   1      39.249  30.659  31.252  1.00  0.00    -0.354 N 
ATOM     44  C   UNL A   1      39.263  33.344  34.628  1.00  0.00     0.074 A 
ATOM     45  C   UNL A   1      38.225  34.344  34.513  1.00  0.00     0.031 C 
ATOM     46  C   UNL A   1      38.591  29.894  29.256  1.00  0.00     0.029 A 
ATOM     47  C   UNL A   1      39.588  29.717  30.308  1.00  0.00     0.049 A 
ATOM     48  H   UNL A   1      39.733  30.766  32.103  1.00  0.00     0.167 HD
ATOM     49  C   UNL A   1      40.133  33.264  35.662  1.00  0.00     0.034 A 
ATOM     50  C   UNL A   1      40.593  28.818  30.283  1.00  0.00     0.034 A 
ATOM     51  C   UNL A   1      41.134  32.240  35.796  1.00  0.00     0.049 A 
ATOM     52  C   UNL A   1      41.528  28.733  31.458  1.00  0.00     0.074 A 
ATOM     53  C   UNL A   1      42.006  32.030  36.849  1.00  0.00     0.029 A 
ATOM     54  N   UNL A   1      41.402  31.262  34.852  1.00  0.00    -0.354 N 
ATOM     55  N   UNL A   1      41.530  29.441  32.560  1.00  0.00    -0.248 NA
ATOM     56  C   UNL A   1      42.578  27.704  31.405  1.00  0.00     0.031 C 
ATOM     57  C   UNL A   1      42.824  30.944  36.528  1.00  0.00     0.029 A 
ATOM     58  C   UNL A   1      42.435  30.453  35.292  1.00  0.00     0.049 A 
ATOM     59  H   UNL A   1      40.928  31.159  33.995  1.00  0.00     0.167 HD
ATOM     60  C   UNL A   1      42.556  28.927  33.345  1.00  0.00     0.074 A 
ATOM     61  C   UNL A   1      43.142  27.832  32.600  1.00  0.00     0.031 C 
ATOM     62  C   UNL A   1      42.979  29.334  34.566  1.00  0.00     0.034 A 
BRANCH  49  63
ATOM     63  C   UNL A   1      40.012  34.274  36.774  1.00  0.00     0.023 A 
ATOM     64  C   UNL A   1      40.312  35.627  36.519  1.00  0.00     0.012 A 
ATOM     65  C   UNL A   1      39.497  33.905  38.032  1.00  0.00     0.148 A 
ATOM     66  C   UNL A   1      40.121  36.595  37.503  1.00  0.00     0.002 A 
ATOM     67  C   UNL A   1      39.263  34.881  38.992  1.00  0.00     0.091 A 
ATOM     68  F   UNL A   1      39.235  32.610  38.261  1.00  0.00    -0.205 F 
ATOM     69  C   UNL A   1      39.583  36.224  38.733  1.00  0.00     0.022 A 
BRANCH  67  70
ATOM     70  S   UNL A   1      38.490  34.525  40.575  1.00  0.00     0.127 S 
ATOM     71  O   UNL A   1      38.170  35.870  41.055  1.00  0.00    -0.237 OA
ATOM     72  O   UNL A   1      37.331  33.727  40.176  1.00  0.00    -0.237 OA
ATOM     73  O   UNL A   1      39.486  33.809  41.359  1.00  0.00    -0.744 OA
ENDBRANCH  67  70
ENDBRANCH  49  63
BRANCH  50  74
ATOM     74  C   UNL A   1      40.717  27.885  29.127  1.00  0.00     0.023 A 
ATOM     75  C   UNL A   1      39.876  26.759  29.051  1.00  0.00     0.012 A 
ATOM     76  C   UNL A   1      41.620  28.140  28.076  1.00  0.00     0.148 A 
ATOM     77  C   UNL A   1      39.946  25.891  27.959  1.00  0.00     0.002 A 
ATOM     78  C   UNL A   1      41.642  27.307  26.964  1.00  0.00     0.091 A 
ATOM     79  F   UNL A   1      42.420  29.211  28.173  1.00  0.00    -0.205 F 
ATOM     80  C   UNL A   1      40.817  26.172  26.911  1.00  0.00     0.022 A 
BRANCH  78  81
ATOM     81  S   UNL A   1      42.624  27.670  25.505  1.00  0.00     0.127 S 
ATOM     82  O   UNL A   1      43.976  27.712  26.056  1.00  0.00    -0.237 OA
ATOM     83  O   UNL A   1      42.338  26.515  24.655  1.00  0.00    -0.237 OA
ATOM     84  O   UNL A   1      42.114  28.935  24.990  1.00  0.00    -0.744 OA
ENDBRANCH  78  81
ENDBRANCH  50  74
BRANCH  62  85
ATOM     85  C   UNL A   1      44.118  28.587  35.211  1.00  0.00     0.023 A 
ATOM     86  C   UNL A   1      45.444  28.996  34.977  1.00  0.00     0.012 A 
ATOM     87  C   UNL A   1      43.864  27.564  36.146  1.00  0.00     0.148 A 
ATOM     88  C   UNL A   1      46.503  28.387  35.651  1.00  0.00     0.002 A 
ATOM     89  C   UNL A   1      44.917  26.998  36.853  1.00  0.00     0.091 A 
ATOM     90  F   UNL A   1      42.593  27.180  36.343  1.00  0.00    -0.205 F 
ATOM     91  C   UNL A   1      46.238  27.401  36.599  1.00  0.00     0.022 A 
BRANCH  89  92
ATOM     92  S   UNL A   1      44.667  25.801  38.169  1.00  0.00     0.127 S 
ATOM     93  O   UNL A   1      43.778  26.532  39.070  1.00  0.00    -0.237 OA
ATOM     94  O   UNL A   1      44.035  24.689  37.458  1.00  0.00    -0.237 OA
ATOM     95  O   UNL A   1      45.990  25.506  38.704  1.00  0.00    -0.744 OA
ENDBRANCH  89  92
ENDBRANCH  62  85
ENDBRANCH  36  37
ENDBRANCH  28  31
ENDBRANCH  26  27
ENDBRANCH  25  26
ENDBRANCH  24  25
ENDBRANCH   1  24
TORSDOF 19
ENDMDL
MODEL 2
REMARK VINA RESULT:     -11.2      6.395      9.741
REMARK SMILES O=C(C[C@H]1C[N@@H+](CCSc2ccccc2F)CCO1)NCCCCNC(=O)c1ccc(-c2c3nc(c(-c4cccc(S(=O)(=O)[O-])c4F)c4ccc([nH]4)c(-c4cccc(S(=O)(=O)[O-])c4F)c4nc(c(-c5cccc(S(=O)(=O)[O-])c5F)c5ccc2[nH]5)C=C4)C=C3)cc1
REMARK SMILES IDX 21 1 20 2 1 3 2 4 3 6 4 7 5 8 19 9 6 10 18 11 17 12 7 14
REMARK SMILES IDX 8 15 9 16 10 17 11 18 15 19 12 20 14 21 16 22 13 23 22 24
REMARK SMILES IDX 23 25 24 26 25 27 26 28 27 30 28 31 29 32 90 33 30 34 89 35
REMARK SMILES IDX 31 36 32 37 33 38 83 39 34 40 88 41 82 42 84 43 35 44 87 45
REMARK SMILES IDX 81 46 80 47 36 49 68 50 48 51 67 52 49 53 52 54 66 55 85 56
REMARK SMILES IDX 50 57 51 58 65 60 86 61 53 62 37 63 38 64 46 65 39 66 41 67
REMARK SMILES IDX 47 68 40 69 42 70 43 71 44 72 45 73 69 74 70 75 78 76 71 77
REMARK SMILES IDX 73 78 79 79 72 80 74 81 75 82 76 83 77 84 54 85 55 86 63 87
REMARK SMILES IDX 56 88 58 89 64 90 57 91 59 92 60 93 61 94 62 95
REMARK H PARENT 20 5 6 13 25 29 84 48 52 59
REMARK Flexibility Score: inf
ROOT
ATOM      1  C   UNL A   1      37.378  22.591  25.502  1.00  0.00     0.116 C 
ENDROOT
BRANCH   1   2
ATOM      2  N   UNL A   1      36.255  23.493  25.445  1.00  0.00    -0.356 N 
ATOM      3  O   UNL A   1      34.787  22.255  26.690  1.00  0.00    -0.275 OA
ATOM      4  C   UNL A   1      35.038  23.262  26.034  1.00  0.00     0.222 C 
ATOM      5  H   UNL A   1      36.369  24.334  24.947  1.00  0.00     0.163 HD
BRANCH   4   6
ATOM      6  C   UNL A   1      33.963  24.274  25.680  1.00  0.00     0.138 C 
BRANCH   6   7
ATOM      7  C   UNL A   1      34.289  25.115  24.440  1.00  0.00     0.182 C 
ATOM      8  C   UNL A   1      33.715  24.485  23.143  1.00  0.00     0.295 C 
ATOM      9  O   UNL A   1      33.926  26.494  24.613  1.00  0.00    -0.366 OA
ATOM     10  N   UNL A   1      32.305  24.773  22.874  1.00  0.00    -0.330 N 
ATOM     11  C   UNL A   1      32.542  26.736  24.381  1.00  0.00     0.222 C 
ATOM     12  C   UNL A   1      32.098  26.204  23.017  1.00  0.00     0.291 C 
ATOM     13  H   UNL A   1      32.117  24.522  21.904  1.00  0.00     0.348 HD
BRANCH  10  14
ATOM     14  C   UNL A   1      31.281  23.859  23.397  1.00  0.00     0.273 C 
BRANCH  14  15
ATOM     15  C   UNL A   1      31.517  22.353  23.713  1.00  0.00     0.136 C 
BRANCH  15  16
ATOM     16  S   UNL A   1      31.872  21.164  22.329  1.00  0.00    -0.117 SA
BRANCH  16  17
ATOM     17  C   UNL A   1      32.558  19.717  23.120  1.00  0.00     0.043 A 
ATOM     18  C   UNL A   1      33.092  19.874  24.408  1.00  0.00     0.018 A 
ATOM     19  C   UNL A   1      32.629  18.451  22.527  1.00  0.00     0.136 A 
ATOM     20  C   UNL A   1      33.824  18.843  25.009  1.00  0.00     0.001 A 
ATOM     21  C   UNL A   1      33.329  17.405  23.141  1.00  0.00     0.040 A 
ATOM     22  F   UNL A   1      32.102  18.232  21.313  1.00  0.00    -0.206 F 
ATOM     23  C   UNL A   1      33.965  17.616  24.365  1.00  0.00     0.003 A 
ENDBRANCH  16  17
ENDBRANCH  15  16
ENDBRANCH  14  15
ENDBRANCH  10  14
ENDBRANCH   6   7
ENDBRANCH   4   6
ENDBRANCH   1   2
BRANCH   1  24
ATOM     24  C   UNL A   1      37.154  21.438  24.528  1.00  0.00     0.023 C 
BRANCH  24  25
ATOM     25  C   UNL A   1      37.962  20.165  24.830  1.00  0.00     0.023 C 
BRANCH  25  26
ATOM     26  C   UNL A   1      38.845  20.224  26.074  1.00  0.00     0.116 C 
BRANCH  26  27
ATOM     27  N   UNL A   1      39.924  19.253  26.030  1.00  0.00    -0.352 N 
ATOM     28  C   UNL A   1      41.277  19.456  26.083  1.00  0.00     0.251 C 
ATOM     29  H   UNL A   1      39.642  18.314  25.953  1.00  0.00     0.163 HD
ATOM     30  O   UNL A   1      42.044  18.517  25.858  1.00  0.00    -0.269 OA
BRANCH  28  31
ATOM     31  C   UNL A   1      41.816  20.796  26.384  1.00  0.00     0.039 A 
ATOM     32  C   UNL A   1      42.006  21.695  25.332  1.00  0.00     0.014 A 
ATOM     33  C   UNL A   1      42.133  21.167  27.694  1.00  0.00     0.014 A 
ATOM     34  C   UNL A   1      42.466  22.985  25.601  1.00  0.00     0.010 A 
ATOM     35  C   UNL A   1      42.523  22.476  27.967  1.00  0.00     0.010 A 
ATOM     36  C   UNL A   1      42.697  23.398  26.924  1.00  0.00    -0.014 A 
BRANCH  36  37
ATOM     37  C   UNL A   1      43.105  24.794  27.230  1.00  0.00     0.031 A 
ATOM     38  C   UNL A   1      42.139  25.744  27.882  1.00  0.00     0.074 A 
ATOM     39  C   UNL A   1      44.327  25.224  26.855  1.00  0.00     0.049 A 
ATOM     40  N   UNL A   1      42.305  27.007  28.178  1.00  0.00    -0.248 NA
ATOM     41  C   UNL A   1      40.809  25.219  28.228  1.00  0.00     0.031 C 
ATOM     42  C   UNL A   1      45.327  24.416  26.154  1.00  0.00     0.029 A 
ATOM     43  N   UNL A   1      44.928  26.451  26.991  1.00  0.00    -0.354 N 
ATOM     44  C   UNL A   1      41.097  27.434  28.714  1.00  0.00     0.074 A 
ATOM     45  C   UNL A   1      40.194  26.305  28.674  1.00  0.00     0.031 C 
ATOM     46  C   UNL A   1      46.418  25.164  25.930  1.00  0.00     0.029 A 
ATOM     47  C   UNL A   1      46.186  26.513  26.438  1.00  0.00     0.049 A 
ATOM     48  H   UNL A   1      44.499  27.214  27.442  1.00  0.00     0.167 HD
ATOM     49  C   UNL A   1      40.778  28.647  29.222  1.00  0.00     0.034 A 
ATOM     50  C   UNL A   1      47.053  27.541  26.338  1.00  0.00     0.034 A 
ATOM     51  C   UNL A   1      41.695  29.753  29.303  1.00  0.00     0.049 A 
ATOM     52  C   UNL A   1      46.684  28.870  26.937  1.00  0.00     0.074 A 
ATOM     53  C   UNL A   1      41.487  30.994  29.876  1.00  0.00     0.029 A 
ATOM     54  N   UNL A   1      42.983  29.756  28.793  1.00  0.00    -0.354 N 
ATOM     55  N   UNL A   1      45.587  29.213  27.565  1.00  0.00    -0.248 NA
ATOM     56  C   UNL A   1      47.683  29.946  26.845  1.00  0.00     0.031 C 
ATOM     57  C   UNL A   1      42.639  31.761  29.686  1.00  0.00     0.029 A 
ATOM     58  C   UNL A   1      43.579  30.983  29.028  1.00  0.00     0.049 A 
ATOM     59  H   UNL A   1      43.411  28.999  28.333  1.00  0.00     0.167 HD
ATOM     60  C   UNL A   1      45.773  30.530  27.972  1.00  0.00     0.074 A 
ATOM     61  C   UNL A   1      47.098  30.918  27.534  1.00  0.00     0.031 C 
ATOM     62  C   UNL A   1      44.917  31.344  28.635  1.00  0.00     0.034 A 
BRANCH  49  63
ATOM     63  C   UNL A   1      39.398  28.839  29.795  1.00  0.00     0.023 A 
ATOM     64  C   UNL A   1      39.120  28.389  31.101  1.00  0.00     0.012 A 
ATOM     65  C   UNL A   1      38.416  29.561  29.088  1.00  0.00     0.148 A 
ATOM     66  C   UNL A   1      37.880  28.636  31.688  1.00  0.00     0.002 A 
ATOM     67  C   UNL A   1      37.200  29.845  29.697  1.00  0.00     0.091 A 
ATOM     68  F   UNL A   1      38.694  29.964  27.839  1.00  0.00    -0.205 F 
ATOM     69  C   UNL A   1      36.927  29.375  30.992  1.00  0.00     0.022 A 
BRANCH  67  70
ATOM     70  S   UNL A   1      35.940  30.865  28.924  1.00  0.00     0.127 S 
ATOM     71  O   UNL A   1      35.259  29.894  28.067  1.00  0.00    -0.237 OA
ATOM     72  O   UNL A   1      35.159  31.314  30.077  1.00  0.00    -0.237 OA
ATOM     73  O   UNL A   1      36.651  31.922  28.218  1.00  0.00    -0.744 OA
ENDBRANCH  67  70
ENDBRANCH  49  63
BRANCH  50  74
ATOM     74  C   UNL A   1      48.382  27.323  25.699  1.00  0.00     0.023 A 
ATOM     75  C   UNL A   1      49.454  26.841  26.474  1.00  0.00     0.012 A 
ATOM     76  C   UNL A   1      48.572  27.533  24.319  1.00  0.00     0.148 A 
ATOM     77  C   UNL A   1      50.698  26.592  25.890  1.00  0.00     0.002 A 
ATOM     78  C   UNL A   1      49.794  27.226  23.733  1.00  0.00     0.091 A 
ATOM     79  F   UNL A   1      47.542  28.003  23.601  1.00  0.00    -0.205 F 
ATOM     80  C   UNL A   1      50.863  26.770  24.520  1.00  0.00     0.022 A 
BRANCH  78  81
ATOM     81  S   UNL A   1      50.055  27.284  21.957  1.00  0.00     0.127 S 
ATOM     82  O   UNL A   1      51.426  26.793  21.839  1.00  0.00    -0.237 OA
ATOM     83  O   UNL A   1      49.026  26.365  21.472  1.00  0.00    -0.237 OA
ATOM     84  O   UNL A   1      49.849  28.674  21.572  1.00  0.00    -0.744 OA
ENDBRANCH  78  81
ENDBRANCH  50  74
BRANCH  62  85
ATOM     85  C   UNL A   1      45.376  32.740  28.969  1.00  0.00     0.023 A 
ATOM     86  C   UNL A   1      46.114  32.971  30.145  1.00  0.00     0.012 A 
ATOM     87  C   UNL A   1      45.185  33.794  28.053  1.00  0.00     0.148 A 
ATOM     88  C   UNL A   1      46.641  34.235  30.414  1.00  0.00     0.002 A 
ATOM     89  C   UNL A   1      45.756  35.036  28.301  1.00  0.00     0.091 A 
ATOM     90  F   UNL A   1      44.466  33.555  26.945  1.00  0.00    -0.205 F 
ATOM     91  C   UNL A   1      46.476  35.261  29.486  1.00  0.00     0.022 A 
BRANCH  89  92
ATOM     92  S   UNL A   1      45.691  36.385  27.116  1.00  0.00     0.127 S 
ATOM     93  O   UNL A   1      46.307  35.775  25.938  1.00  0.00    -0.237 OA
ATOM     94  O   UNL A   1      44.252  36.622  26.999  1.00  0.00    -0.237 OA
ATOM     95  O   UNL A   1      46.442  37.482  27.712  1.00  0.00    -0.744 OA
ENDBRANCH  89  92
ENDBRANCH  62  85
ENDBRANCH  36  37
ENDBRANCH  28  31
ENDBRANCH  26  27
ENDBRANCH  25  26
ENDBRANCH  24  25
ENDBRANCH   1  24
TORSDOF 19
ENDMDL
MODEL 3
REMARK VINA RESULT:     -11.2      6.425     10.327
REMARK SMILES O=C(C[C@H]1C[N@@H+](CCSc2ccccc2F)CCO1)NCCCCNC(=O)c1ccc(-c2c3nc(c(-c4cccc(S(=O)(=O)[O-])c4F)c4ccc([nH]4)c(-c4cccc(S(=O)(=O)[O-])c4F)c4nc(c(-c5cccc(S(=O)(=O)[O-])c5F)c5ccc2[nH]5)C=C4)C=C3)cc1
REMARK SMILES IDX 21 1 20 2 1 3 2 4 3 6 4 7 5 8 19 9 6 10 18 11 17 12 7 14
REMARK SMILES IDX 8 15 9 16 10 17 11 18 15 19 12 20 14 21 16 22 13 23 22 24
REMARK SMILES IDX 23 25 24 26 25 27 26 28 27 30 28 31 29 32 90 33 30 34 89 35
REMARK SMILES IDX 31 36 32 37 33 38 83 39 34 40 88 41 82 42 84 43 35 44 87 45
REMARK SMILES IDX 81 46 80 47 36 49 68 50 48 51 67 52 49 53 52 54 66 55 85 56
REMARK SMILES IDX 50 57 51 58 65 60 86 61 53 62 37 63 38 64 46 65 39 66 41 67
REMARK SMILES IDX 47 68 40 69 42 70 43 71 44 72 45 73 69 74 70 75 78 76 71 77
REMARK SMILES IDX 73 78 79 79 72 80 74 81 75 82 76 83 77 84 54 85 55 86 63 87
REMARK SMILES IDX 56 88 58 89 64 90 57 91 59 92 60 93 61 94 62 95
REMARK H PARENT 20 5 6 13 25 29 84 48 52 59
REMARK Flexibility Score: inf
ROOT
ATOM      1  C   UNL A   1      37.111  21.508  24.853  1.00  0.00     0.116 C 
ENDROOT
BRANCH   1   2
ATOM      2  N   UNL A   1      35.806  22.115  24.762  1.00  0.00    -0.356 N 
ATOM      3  O   UNL A   1      36.051  23.095  22.709  1.00  0.00    -0.275 OA
ATOM      4  C   UNL A   1      35.368  22.870  23.704  1.00  0.00     0.222 C 
ATOM      5  H   UNL A   1      35.185  21.978  25.513  1.00  0.00     0.163 HD
BRANCH   4   6
ATOM      6  C   UNL A   1      34.027  23.547  23.924  1.00  0.00     0.138 C 
BRANCH   6   7
ATOM      7  C   UNL A   1      33.311  23.101  25.204  1.00  0.00     0.182 C 
ATOM      8  C   UNL A   1      33.253  24.234  26.262  1.00  0.00     0.295 C 
ATOM      9  O   UNL A   1      32.030  22.513  24.928  1.00  0.00    -0.366 OA
ATOM     10  N   UNL A   1      32.172  25.205  26.086  1.00  0.00    -0.330 N 
ATOM     11  C   UNL A   1      31.007  23.482  24.724  1.00  0.00     0.222 C 
ATOM     12  C   UNL A   1      30.932  24.474  25.887  1.00  0.00     0.291 C 
ATOM     13  H   UNL A   1      32.089  25.737  26.952  1.00  0.00     0.348 HD
BRANCH  10  14
ATOM     14  C   UNL A   1      32.419  26.405  25.275  1.00  0.00     0.273 C 
BRANCH  14  15
ATOM     15  C   UNL A   1      31.304  27.304  24.663  1.00  0.00     0.136 C 
BRANCH  15  16
ATOM     16  S   UNL A   1      31.538  28.043  22.973  1.00  0.00    -0.117 SA
BRANCH  16  17
ATOM     17  C   UNL A   1      29.983  28.832  22.588  1.00  0.00     0.043 A 
ATOM     18  C   UNL A   1      30.023  29.990  21.797  1.00  0.00     0.018 A 
ATOM     19  C   UNL A   1      28.738  28.392  23.050  1.00  0.00     0.136 A 
ATOM     20  C   UNL A   1      28.878  30.776  21.622  1.00  0.00     0.001 A 
ATOM     21  C   UNL A   1      27.582  29.155  22.846  1.00  0.00     0.040 A 
ATOM     22  F   UNL A   1      28.634  27.270  23.778  1.00  0.00    -0.206 F 
ATOM     23  C   UNL A   1      27.661  30.372  22.167  1.00  0.00     0.003 A 
ENDBRANCH  16  17
ENDBRANCH  15  16
ENDBRANCH  14  15
ENDBRANCH  10  14
ENDBRANCH   6   7
ENDBRANCH   4   6
ENDBRANCH   1   2
BRANCH   1  24
ATOM     24  C   UNL A   1      36.981  19.998  24.675  1.00  0.00     0.023 C 
BRANCH  24  25
ATOM     25  C   UNL A   1      38.236  19.190  25.043  1.00  0.00     0.023 C 
BRANCH  25  26
ATOM     26  C   UNL A   1      39.236  19.901  25.951  1.00  0.00     0.116 C 
BRANCH  26  27
ATOM     27  N   UNL A   1      40.458  19.136  26.130  1.00  0.00    -0.352 N 
ATOM     28  C   UNL A   1      41.732  19.579  26.363  1.00  0.00     0.251 C 
ATOM     29  H   UNL A   1      40.355  18.159  26.078  1.00  0.00     0.163 HD
ATOM     30  O   UNL A   1      42.673  18.783  26.315  1.00  0.00    -0.269 OA
BRANCH  28  31
ATOM     31  C   UNL A   1      41.984  21.005  26.645  1.00  0.00     0.039 A 
ATOM     32  C   UNL A   1      42.262  21.391  27.958  1.00  0.00     0.014 A 
ATOM     33  C   UNL A   1      41.948  21.959  25.622  1.00  0.00     0.014 A 
ATOM     34  C   UNL A   1      42.555  22.726  28.238  1.00  0.00     0.010 A 
ATOM     35  C   UNL A   1      42.310  23.276  25.892  1.00  0.00     0.010 A 
ATOM     36  C   UNL A   1      42.613  23.675  27.203  1.00  0.00    -0.014 A 
BRANCH  36  37
ATOM     37  C   UNL A   1      43.007  25.082  27.476  1.00  0.00     0.031 A 
ATOM     38  C   UNL A   1      42.029  26.040  28.099  1.00  0.00     0.074 A 
ATOM     39  C   UNL A   1      44.227  25.514  27.098  1.00  0.00     0.049 A 
ATOM     40  N   UNL A   1      42.181  27.311  28.364  1.00  0.00    -0.248 NA
ATOM     41  C   UNL A   1      40.701  25.511  28.449  1.00  0.00     0.031 C 
ATOM     42  C   UNL A   1      45.239  24.698  26.423  1.00  0.00     0.029 A 
ATOM     43  N   UNL A   1      44.816  26.749  27.207  1.00  0.00    -0.354 N 
ATOM     44  C   UNL A   1      40.966  27.740  28.882  1.00  0.00     0.074 A 
ATOM     45  C   UNL A   1      40.073  26.602  28.865  1.00  0.00     0.031 C 
ATOM     46  C   UNL A   1      46.324  25.450  26.187  1.00  0.00     0.029 A 
ATOM     47  C   UNL A   1      46.077  26.809  26.660  1.00  0.00     0.049 A 
ATOM     48  H   UNL A   1      44.378  27.519  27.636  1.00  0.00     0.167 HD
ATOM     49  C   UNL A   1      40.633  28.962  29.358  1.00  0.00     0.034 A 
ATOM     50  C   UNL A   1      46.935  27.842  26.540  1.00  0.00     0.034 A 
ATOM     51  C   UNL A   1      41.539  30.078  29.417  1.00  0.00     0.049 A 
ATOM     52  C   UNL A   1      46.551  29.182  27.103  1.00  0.00     0.074 A 
ATOM     53  C   UNL A   1      41.317  31.331  29.958  1.00  0.00     0.029 A 
ATOM     54  N   UNL A   1      42.831  30.080  28.915  1.00  0.00    -0.354 N 
ATOM     55  N   UNL A   1      45.447  29.531  27.716  1.00  0.00    -0.248 NA
ATOM     56  C   UNL A   1      47.540  30.265  26.990  1.00  0.00     0.031 C 
ATOM     57  C   UNL A   1      42.463  32.103  29.756  1.00  0.00     0.029 A 
ATOM     58  C   UNL A   1      43.414  31.318  29.123  1.00  0.00     0.049 A 
ATOM     59  H   UNL A   1      43.268  29.316  28.476  1.00  0.00     0.167 HD
ATOM     60  C   UNL A   1      45.618  30.859  28.091  1.00  0.00     0.074 A 
ATOM     61  C   UNL A   1      46.942  31.248  27.652  1.00  0.00     0.031 C 
ATOM     62  C   UNL A   1      44.751  31.682  28.728  1.00  0.00     0.034 A 
BRANCH  49  63
ATOM     63  C   UNL A   1      39.248  29.156  29.918  1.00  0.00     0.023 A 
ATOM     64  C   UNL A   1      38.959  28.713  31.225  1.00  0.00     0.012 A 
ATOM     65  C   UNL A   1      38.271  29.871  29.198  1.00  0.00     0.148 A 
ATOM     66  C   UNL A   1      37.713  28.962  31.799  1.00  0.00     0.002 A 
ATOM     67  C   UNL A   1      37.049  30.158  29.795  1.00  0.00     0.091 A 
ATOM     68  F   UNL A   1      38.559  30.268  27.949  1.00  0.00    -0.205 F 
ATOM     69  C   UNL A   1      36.765  29.695  31.090  1.00  0.00     0.022 A 
BRANCH  67  70
ATOM     70  S   UNL A   1      35.794  31.172  29.005  1.00  0.00     0.127 S 
ATOM     71  O   UNL A   1      35.108  30.189  28.164  1.00  0.00    -0.237 OA
ATOM     72  O   UNL A   1      35.017  31.644  30.150  1.00  0.00    -0.237 OA
ATOM     73  O   UNL A   1      36.512  32.212  28.281  1.00  0.00    -0.744 OA
ENDBRANCH  67  70
ENDBRANCH  49  63
BRANCH  50  74
ATOM     74  C   UNL A   1      48.270  27.621  25.914  1.00  0.00     0.023 A 
ATOM     75  C   UNL A   1      49.362  27.250  26.721  1.00  0.00     0.012 A 
ATOM     76  C   UNL A   1      48.448  27.716  24.520  1.00  0.00     0.148 A 
ATOM     77  C   UNL A   1      50.613  26.999  26.155  1.00  0.00     0.002 A 
ATOM     78  C   UNL A   1      49.680  27.406  23.955  1.00  0.00     0.091 A 
ATOM     79  F   UNL A   1      47.399  28.081  23.770  1.00  0.00    -0.205 F 
ATOM     80  C   UNL A   1      50.768  27.063  24.773  1.00  0.00     0.022 A 
BRANCH  78  81
ATOM     81  S   UNL A   1      49.934  27.319  22.179  1.00  0.00     0.127 S 
ATOM     82  O   UNL A   1      49.733  28.709  21.779  1.00  0.00    -0.237 OA
ATOM     83  O   UNL A   1      51.315  26.845  22.097  1.00  0.00    -0.237 OA
ATOM     84  O   UNL A   1      48.943  26.371  21.685  1.00  0.00    -0.744 OA
ENDBRANCH  78  81
ENDBRANCH  50  74
BRANCH  62  85
ATOM     85  C   UNL A   1      45.195  33.090  29.030  1.00  0.00     0.023 A 
ATOM     86  C   UNL A   1      45.897  33.362  30.220  1.00  0.00     0.012 A 
ATOM     87  C   UNL A   1      45.029  34.112  28.075  1.00  0.00     0.148 A 
ATOM     88  C   UNL A   1      46.411  34.636  30.463  1.00  0.00     0.002 A 
ATOM     89  C   UNL A   1      45.589  35.364  28.299  1.00  0.00     0.091 A 
ATOM     90  F   UNL A   1      44.344  33.835  26.954  1.00  0.00    -0.205 F 
ATOM     91  C   UNL A   1      46.271  35.630  29.497  1.00  0.00     0.022 A 
BRANCH  89  92
ATOM     92  S   UNL A   1      45.556  36.673  27.070  1.00  0.00     0.127 S 
ATOM     93  O   UNL A   1      46.178  36.017  25.921  1.00  0.00    -0.237 OA
ATOM     94  O   UNL A   1      44.121  36.924  26.925  1.00  0.00    -0.237 OA
ATOM     95  O   UNL A   1      46.312  37.781  27.638  1.00  0.00    -0.744 OA
ENDBRANCH  89  92
ENDBRANCH  62  85
ENDBRANCH  36  37
ENDBRANCH  28  31
ENDBRANCH  26  27
ENDBRANCH  25  26
ENDBRANCH  24  25
ENDBRANCH   1  24
TORSDOF 19
ENDMDL
