MODEL 1
REMARK VINA RESULT:     -11.7      0.000      0.000
REMARK SMILES O=C(C[C@H](C(=O)Nc1ccc([N+](=O)[O-])cc1)[C@H]1CCCO1)NCCCCNC(=O)c1ccc(-c2c3nc(c(-c4cccc(S(=O)(=O)[O-])c4F)c4ccc([nH]4)c(-c4cccc(S(=O)(=O)[O-])c4F)c4nc(c(-c5cccc(S(=O)(=O)[O-])c5F)c5ccc2[nH]5)C=C4)C=C3)cc1
REMARK SMILES IDX 24 1 23 2 22 3 1 4 2 5 3 7 4 8 5 9 6 10 7 11 8 13 9 14 16 15
REMARK SMILES IDX 10 16 15 17 11 18 12 19 13 20 14 21 17 22 18 23 21 24 19 25
REMARK SMILES IDX 20 26 25 27 26 28 27 29 28 30 29 32 30 33 31 34 92 35 32 36
REMARK SMILES IDX 91 37 33 38 34 39 35 40 85 41 36 42 90 43 84 44 86 45 37 46
REMARK SMILES IDX 89 47 83 48 82 49 38 51 70 52 50 53 69 54 51 55 54 56 68 57
REMARK SMILES IDX 87 58 52 59 53 60 67 62 88 63 55 64 39 65 40 66 48 67 41 68
REMARK SMILES IDX 43 69 49 70 42 71 44 72 45 73 46 74 47 75 71 76 72 77 80 78
REMARK SMILES IDX 73 79 75 80 81 81 74 82 76 83 77 84 78 85 79 86 56 87 57 88
REMARK SMILES IDX 65 89 58 90 60 91 66 92 59 93 61 94 62 95 63 96 64 97
REMARK H PARENT 22 6 7 12 27 31 86 50 54 61
REMARK Flexibility Score: inf
ROOT
ATOM      1  C   UNL A   1      37.109  21.450  24.411  1.00  0.00     0.023 C 
ENDROOT
BRANCH   1   2
ATOM      2  C   UNL A   1      36.644  22.200  25.661  1.00  0.00     0.116 C 
BRANCH   2   3
ATOM      3  N   UNL A   1      35.257  21.946  26.026  1.00  0.00    -0.356 N 
ATOM      4  O   UNL A   1      34.746  24.145  26.442  1.00  0.00    -0.275 OA
ATOM      5  C   UNL A   1      34.394  22.971  26.361  1.00  0.00     0.220 C 
ATOM      6  H   UNL A   1      34.925  21.019  26.032  1.00  0.00     0.163 HD
BRANCH   5   7
ATOM      7  C   UNL A   1      32.941  22.563  26.580  1.00  0.00     0.116 C 
BRANCH   7   8
ATOM      8  C   UNL A   1      31.963  23.441  25.771  1.00  0.00     0.117 C 
BRANCH   8   9
ATOM      9  C   UNL A   1      30.789  23.807  26.670  1.00  0.00     0.230 C 
ATOM     10  O   UNL A   1      30.457  23.082  27.611  1.00  0.00    -0.274 OA
ATOM     11  N   UNL A   1      30.180  25.027  26.557  1.00  0.00    -0.326 N 
ATOM     12  H   UNL A   1      29.579  25.252  27.303  1.00  0.00     0.169 HD
BRANCH  11  13
ATOM     13  C   UNL A   1      30.263  26.014  25.564  1.00  0.00     0.041 A 
ATOM     14  C   UNL A   1      31.277  26.968  25.696  1.00  0.00     0.033 A 
ATOM     15  C   UNL A   1      29.386  26.094  24.480  1.00  0.00     0.033 A 
ATOM     16  C   UNL A   1      31.470  27.937  24.707  1.00  0.00     0.088 A 
ATOM     17  C   UNL A   1      29.568  27.050  23.481  1.00  0.00     0.088 A 
ATOM     18  C   UNL A   1      30.612  27.965  23.601  1.00  0.00     0.269 A 
BRANCH  18  19
ATOM     19  N   UNL A   1      30.812  28.959  22.552  1.00  0.00     0.062 N 
ATOM     20  O   UNL A   1      31.971  29.334  22.330  1.00  0.00    -0.258 OA
ATOM     21  O   UNL A   1      29.814  29.324  21.916  1.00  0.00    -0.258 OA
ENDBRANCH  18  19
ENDBRANCH  11  13
ENDBRANCH   8   9
BRANCH   8  22
ATOM     22  C   UNL A   1      31.548  22.769  24.439  1.00  0.00     0.131 C 
ATOM     23  C   UNL A   1      31.430  23.606  23.164  1.00  0.00     0.035 C 
ATOM     24  O   UNL A   1      32.594  21.804  24.132  1.00  0.00    -0.377 OA
ATOM     25  C   UNL A   1      32.825  23.592  22.599  1.00  0.00     0.031 C 
ATOM     26  C   UNL A   1      33.255  22.177  22.911  1.00  0.00     0.160 C 
ENDBRANCH   8  22
ENDBRANCH   7   8
ENDBRANCH   5   7
ENDBRANCH   2   3
ENDBRANCH   1   2
BRANCH   1  27
ATOM     27  C   UNL A   1      37.703  20.058  24.651  1.00  0.00     0.023 C 
BRANCH  27  28
ATOM     28  C   UNL A   1      38.394  19.835  25.999  1.00  0.00     0.116 C 
BRANCH  28  29
ATOM     29  N   UNL A   1      39.667  19.129  25.899  1.00  0.00    -0.352 N 
ATOM     30  C   UNL A   1      40.956  19.599  26.072  1.00  0.00     0.251 C 
ATOM     31  H   UNL A   1      39.597  18.173  25.675  1.00  0.00     0.163 HD
ATOM     32  O   UNL A   1      41.906  18.857  25.835  1.00  0.00    -0.269 OA
BRANCH  30  33
ATOM     33  C   UNL A   1      41.203  20.991  26.525  1.00  0.00     0.039 A 
ATOM     34  C   UNL A   1      42.000  21.240  27.643  1.00  0.00     0.014 A 
ATOM     35  C   UNL A   1      40.637  22.065  25.846  1.00  0.00     0.014 A 
ATOM     36  C   UNL A   1      42.294  22.562  28.012  1.00  0.00     0.010 A 
ATOM     37  C   UNL A   1      40.997  23.377  26.155  1.00  0.00     0.010 A 
ATOM     38  C   UNL A   1      41.842  23.650  27.237  1.00  0.00    -0.014 A 
BRANCH  38  39
ATOM     39  C   UNL A   1      42.314  25.047  27.488  1.00  0.00     0.031 A 
ATOM     40  C   UNL A   1      41.431  26.088  28.139  1.00  0.00     0.074 A 
ATOM     41  C   UNL A   1      43.521  25.422  27.013  1.00  0.00     0.049 A 
ATOM     42  N   UNL A   1      41.700  27.342  28.413  1.00  0.00    -0.248 NA
ATOM     43  C   UNL A   1      40.061  25.687  28.498  1.00  0.00     0.031 C 
ATOM     44  C   UNL A   1      44.427  24.568  26.238  1.00  0.00     0.029 A 
ATOM     45  N   UNL A   1      44.189  26.622  27.086  1.00  0.00    -0.354 N 
ATOM     46  C   UNL A   1      40.529  27.887  28.931  1.00  0.00     0.074 A 
ATOM     47  C   UNL A   1      39.535  26.835  28.902  1.00  0.00     0.031 C 
ATOM     48  C   UNL A   1      45.538  25.257  25.937  1.00  0.00     0.029 A 
ATOM     49  C   UNL A   1      45.417  26.611  26.463  1.00  0.00     0.049 A 
ATOM     50  H   UNL A   1      43.823  27.415  27.540  1.00  0.00     0.167 HD
ATOM     51  C   UNL A   1      40.304  29.135  29.415  1.00  0.00     0.034 A 
ATOM     52  C   UNL A   1      46.350  27.576  26.329  1.00  0.00     0.034 A 
ATOM     53  C   UNL A   1      41.307  30.165  29.492  1.00  0.00     0.049 A 
ATOM     54  C   UNL A   1      46.112  28.922  26.954  1.00  0.00     0.074 A 
ATOM     55  C   UNL A   1      41.215  31.412  30.088  1.00  0.00     0.029 A 
ATOM     56  N   UNL A   1      42.578  30.079  28.946  1.00  0.00    -0.354 N 
ATOM     57  N   UNL A   1      45.069  29.348  27.625  1.00  0.00    -0.248 NA
ATOM     58  C   UNL A   1      47.195  29.910  26.840  1.00  0.00     0.031 C 
ATOM     59  C   UNL A   1      42.419  32.092  29.873  1.00  0.00     0.029 A 
ATOM     60  C   UNL A   1      43.275  31.255  29.177  1.00  0.00     0.049 A 
ATOM     61  H   UNL A   1      42.933  29.298  28.464  1.00  0.00     0.167 HD
ATOM     62  C   UNL A   1      45.384  30.635  28.043  1.00  0.00     0.074 A 
ATOM     63  C   UNL A   1      46.725  30.912  27.571  1.00  0.00     0.031 C 
ATOM     64  C   UNL A   1      44.625  31.511  28.747  1.00  0.00     0.034 A 
BRANCH  51  65
ATOM     65  C   UNL A   1      38.933  29.448  29.970  1.00  0.00     0.023 A 
ATOM     66  C   UNL A   1      38.630  29.115  31.307  1.00  0.00     0.012 A 
ATOM     67  C   UNL A   1      37.977  30.149  29.204  1.00  0.00     0.148 A 
ATOM     68  C   UNL A   1      37.390  29.436  31.859  1.00  0.00     0.002 A 
ATOM     69  C   UNL A   1      36.761  30.507  29.778  1.00  0.00     0.091 A 
ATOM     70  F   UNL A   1      38.273  30.453  27.933  1.00  0.00    -0.205 F 
ATOM     71  C   UNL A   1      36.461  30.140  31.099  1.00  0.00     0.022 A 
BRANCH  69  72
ATOM     72  S   UNL A   1      35.529  31.492  28.916  1.00  0.00     0.127 S 
ATOM     73  O   UNL A   1      34.893  30.490  28.063  1.00  0.00    -0.237 OA
ATOM     74  O   UNL A   1      34.695  31.975  30.016  1.00  0.00    -0.237 OA
ATOM     75  O   UNL A   1      36.266  32.533  28.210  1.00  0.00    -0.744 OA
ENDBRANCH  69  72
ENDBRANCH  51  65
BRANCH  52  76
ATOM     76  C   UNL A   1      47.639  27.272  25.644  1.00  0.00     0.023 A 
ATOM     77  C   UNL A   1      48.691  26.693  26.382  1.00  0.00     0.012 A 
ATOM     78  C   UNL A   1      47.817  27.514  24.269  1.00  0.00     0.148 A 
ATOM     79  C   UNL A   1      49.908  26.393  25.770  1.00  0.00     0.002 A 
ATOM     80  C   UNL A   1      49.011  27.159  23.653  1.00  0.00     0.091 A 
ATOM     81  F   UNL A   1      46.807  28.072  23.586  1.00  0.00    -0.205 F 
ATOM     82  C   UNL A   1      50.065  26.616  24.405  1.00  0.00     0.022 A 
BRANCH  80  83
ATOM     83  S   UNL A   1      49.254  27.281  21.878  1.00  0.00     0.127 S 
ATOM     84  O   UNL A   1      48.732  28.616  21.595  1.00  0.00    -0.237 OA
ATOM     85  O   UNL A   1      50.707  27.150  21.762  1.00  0.00    -0.237 OA
ATOM     86  O   UNL A   1      48.504  26.174  21.300  1.00  0.00    -0.744 OA
ENDBRANCH  80  83
ENDBRANCH  52  76
BRANCH  64  87
ATOM     87  C   UNL A   1      45.233  32.847  29.089  1.00  0.00     0.023 A 
ATOM     88  C   UNL A   1      45.995  32.995  30.265  1.00  0.00     0.012 A 
ATOM     89  C   UNL A   1      45.101  33.940  28.210  1.00  0.00     0.148 A 
ATOM     90  C   UNL A   1      46.584  34.220  30.578  1.00  0.00     0.002 A 
ATOM     91  C   UNL A   1      45.735  35.141  28.502  1.00  0.00     0.091 A 
ATOM     92  F   UNL A   1      44.357  33.786  27.104  1.00  0.00    -0.205 F 
ATOM     93  C   UNL A   1      46.465  35.288  29.692  1.00  0.00     0.022 A 
BRANCH  91  94
ATOM     94  S   UNL A   1      45.718  36.541  27.375  1.00  0.00     0.127 S 
ATOM     95  O   UNL A   1      46.549  37.508  28.089  1.00  0.00    -0.237 OA
ATOM     96  O   UNL A   1      46.333  35.978  26.174  1.00  0.00    -0.237 OA
ATOM     97  O   UNL A   1      44.318  36.915  27.219  1.00  0.00    -0.744 OA
ENDBRANCH  91  94
ENDBRANCH  64  87
ENDBRANCH  38  39
ENDBRANCH  30  33
ENDBRANCH  28  29
ENDBRANCH  27  28
ENDBRANCH   1  27
TORSDOF 19
ENDMDL
MODEL 2
REMARK VINA RESULT:     -11.5      5.266      8.073
REMARK SMILES O=C(C[C@H](C(=O)Nc1ccc([N+](=O)[O-])cc1)[C@H]1CCCO1)NCCCCNC(=O)c1ccc(-c2c3nc(c(-c4cccc(S(=O)(=O)[O-])c4F)c4ccc([nH]4)c(-c4cccc(S(=O)(=O)[O-])c4F)c4nc(c(-c5cccc(S(=O)(=O)[O-])c5F)c5ccc2[nH]5)C=C4)C=C3)cc1
REMARK SMILES IDX 24 1 23 2 22 3 1 4 2 5 3 7 4 8 5 9 6 10 7 11 8 13 9 14 16 15
REMARK SMILES IDX 10 16 15 17 11 18 12 19 13 20 14 21 17 22 18 23 21 24 19 25
REMARK SMILES IDX 20 26 25 27 26 28 27 29 28 30 29 32 30 33 31 34 92 35 32 36
REMARK SMILES IDX 91 37 33 38 34 39 35 40 85 41 36 42 90 43 84 44 86 45 37 46
REMARK SMILES IDX 89 47 83 48 82 49 38 51 70 52 50 53 69 54 51 55 54 56 68 57
REMARK SMILES IDX 87 58 52 59 53 60 67 62 88 63 55 64 39 65 40 66 48 67 41 68
REMARK SMILES IDX 43 69 49 70 42 71 44 72 45 73 46 74 47 75 71 76 72 77 80 78
REMARK SMILES IDX 73 79 75 80 81 81 74 82 76 83 77 84 78 85 79 86 56 87 57 88
REMARK SMILES IDX 65 89 58 90 60 91 66 92 59 93 61 94 62 95 63 96 64 97
REMARK H PARENT 22 6 7 12 27 31 86 50 54 61
REMARK Flexibility Score: inf
ROOT
ATOM      1  C   UNL A   1      32.271  26.971  25.786  1.00  0.00     0.023 C 
ENDROOT
BRANCH   1   2
ATOM      2  C   UNL A   1      31.393  25.895  26.428  1.00  0.00     0.116 C 
BRANCH   2   3
ATOM      3  N   UNL A   1      32.059  24.611  26.603  1.00  0.00    -0.356 N 
ATOM      4  O   UNL A   1      30.177  23.497  27.302  1.00  0.00    -0.275 OA
ATOM      5  C   UNL A   1      31.369  23.483  27.004  1.00  0.00     0.220 C 
ATOM      6  H   UNL A   1      33.026  24.544  26.431  1.00  0.00     0.163 HD
BRANCH   5   7
ATOM      7  C   UNL A   1      32.171  22.187  27.005  1.00  0.00     0.116 C 
BRANCH   7   8
ATOM      8  C   UNL A   1      33.106  22.081  25.781  1.00  0.00     0.117 C 
BRANCH   8   9
ATOM      9  C   UNL A   1      32.337  21.421  24.643  1.00  0.00     0.230 C 
ATOM     10  O   UNL A   1      31.978  20.243  24.717  1.00  0.00    -0.274 OA
ATOM     11  N   UNL A   1      31.883  22.163  23.587  1.00  0.00    -0.326 N 
ATOM     12  H   UNL A   1      31.230  21.699  23.016  1.00  0.00     0.169 HD
BRANCH  11  13
ATOM     13  C   UNL A   1      32.185  23.469  23.177  1.00  0.00     0.041 A 
ATOM     14  C   UNL A   1      31.117  24.364  23.058  1.00  0.00     0.033 A 
ATOM     15  C   UNL A   1      33.478  23.903  22.872  1.00  0.00     0.033 A 
ATOM     16  C   UNL A   1      31.349  25.702  22.728  1.00  0.00     0.088 A 
ATOM     17  C   UNL A   1      33.728  25.236  22.548  1.00  0.00     0.088 A 
ATOM     18  C   UNL A   1      32.659  26.129  22.480  1.00  0.00     0.269 A 
BRANCH  18  19
ATOM     19  N   UNL A   1      32.918  27.526  22.152  1.00  0.00     0.062 N 
ATOM     20  O   UNL A   1      34.024  27.807  21.671  1.00  0.00    -0.258 OA
ATOM     21  O   UNL A   1      31.995  28.333  22.328  1.00  0.00    -0.258 OA
ENDBRANCH  18  19
ENDBRANCH  11  13
ENDBRANCH   8   9
BRANCH   8  22
ATOM     22  C   UNL A   1      34.439  21.375  26.130  1.00  0.00     0.131 C 
ATOM     23  C   UNL A   1      35.250  20.687  25.032  1.00  0.00     0.035 C 
ATOM     24  O   UNL A   1      35.327  22.415  26.627  1.00  0.00    -0.377 OA
ATOM     25  C   UNL A   1      36.116  21.790  24.485  1.00  0.00     0.031 C 
ATOM     26  C   UNL A   1      36.456  22.550  25.745  1.00  0.00     0.160 C 
ENDBRANCH   8  22
ENDBRANCH   7   8
ENDBRANCH   5   7
ENDBRANCH   2   3
ENDBRANCH   1   2
BRANCH   1  27
ATOM     27  C   UNL A   1      32.262  28.339  26.477  1.00  0.00     0.023 C 
BRANCH  27  28
ATOM     28  C   UNL A   1      32.931  29.489  25.720  1.00  0.00     0.116 C 
BRANCH  28  29
ATOM     29  N   UNL A   1      32.600  30.810  26.243  1.00  0.00    -0.352 N 
ATOM     30  C   UNL A   1      33.257  31.579  27.185  1.00  0.00     0.251 C 
ATOM     31  H   UNL A   1      31.785  31.215  25.868  1.00  0.00     0.163 HD
ATOM     32  O   UNL A   1      32.749  32.630  27.568  1.00  0.00    -0.269 OA
BRANCH  30  33
ATOM     33  C   UNL A   1      34.560  31.143  27.748  1.00  0.00     0.039 A 
ATOM     34  C   UNL A   1      35.601  32.058  27.914  1.00  0.00     0.014 A 
ATOM     35  C   UNL A   1      34.763  29.815  28.109  1.00  0.00     0.014 A 
ATOM     36  C   UNL A   1      36.798  31.650  28.524  1.00  0.00     0.010 A 
ATOM     37  C   UNL A   1      35.916  29.428  28.794  1.00  0.00     0.010 A 
ATOM     38  C   UNL A   1      36.951  30.342  29.024  1.00  0.00    -0.014 A 
BRANCH  38  39
ATOM     39  C   UNL A   1      38.128  29.949  29.859  1.00  0.00     0.031 A 
ATOM     40  C   UNL A   1      38.340  30.493  31.254  1.00  0.00     0.074 A 
ATOM     41  C   UNL A   1      39.091  29.179  29.307  1.00  0.00     0.049 A 
ATOM     42  N   UNL A   1      39.318  30.250  32.094  1.00  0.00    -0.248 NA
ATOM     43  C   UNL A   1      37.352  31.458  31.762  1.00  0.00     0.031 C 
ATOM     44  C   UNL A   1      39.096  28.696  27.923  1.00  0.00     0.029 A 
ATOM     45  N   UNL A   1      40.264  28.686  29.828  1.00  0.00    -0.354 N 
ATOM     46  C   UNL A   1      39.088  31.059  33.203  1.00  0.00     0.074 A 
ATOM     47  C   UNL A   1      37.895  31.826  32.915  1.00  0.00     0.031 C 
ATOM     48  C   UNL A   1      40.195  27.954  27.716  1.00  0.00     0.029 A 
ATOM     49  C   UNL A   1      40.994  27.932  28.935  1.00  0.00     0.049 A 
ATOM     50  H   UNL A   1      40.556  28.856  30.753  1.00  0.00     0.167 HD
ATOM     51  C   UNL A   1      39.783  31.138  34.366  1.00  0.00     0.034 A 
ATOM     52  C   UNL A   1      42.171  27.290  29.075  1.00  0.00     0.034 A 
ATOM     53  C   UNL A   1      40.939  30.337  34.672  1.00  0.00     0.049 A 
ATOM     54  C   UNL A   1      42.874  27.321  30.403  1.00  0.00     0.074 A 
ATOM     55  C   UNL A   1      41.630  30.245  35.870  1.00  0.00     0.029 A 
ATOM     56  N   UNL A   1      41.587  29.501  33.777  1.00  0.00    -0.354 N 
ATOM     57  N   UNL A   1      42.523  27.931  31.508  1.00  0.00    -0.248 NA
ATOM     58  C   UNL A   1      44.115  26.540  30.517  1.00  0.00     0.031 C 
ATOM     59  C   UNL A   1      42.714  29.380  35.688  1.00  0.00     0.029 A 
ATOM     60  C   UNL A   1      42.677  28.902  34.389  1.00  0.00     0.049 A 
ATOM     61  H   UNL A   1      41.314  29.355  32.843  1.00  0.00     0.167 HD
ATOM     62  C   UNL A   1      43.476  27.580  32.456  1.00  0.00     0.074 A 
ATOM     63  C   UNL A   1      44.407  26.684  31.802  1.00  0.00     0.031 C 
ATOM     64  C   UNL A   1      43.575  27.975  33.750  1.00  0.00     0.034 A 
BRANCH  51  65
ATOM     65  C   UNL A   1      39.278  32.078  35.436  1.00  0.00     0.023 A 
ATOM     66  C   UNL A   1      38.324  31.622  36.370  1.00  0.00     0.012 A 
ATOM     67  C   UNL A   1      39.807  33.379  35.575  1.00  0.00     0.148 A 
ATOM     68  C   UNL A   1      37.876  32.453  37.397  1.00  0.00     0.002 A 
ATOM     69  C   UNL A   1      39.390  34.184  36.631  1.00  0.00     0.091 A 
ATOM     70  F   UNL A   1      40.706  33.804  34.678  1.00  0.00    -0.205 F 
ATOM     71  C   UNL A   1      38.416  33.728  37.534  1.00  0.00     0.022 A 
BRANCH  69  72
ATOM     72  S   UNL A   1      40.086  35.810  36.951  1.00  0.00     0.127 S 
ATOM     73  O   UNL A   1      39.686  36.545  35.753  1.00  0.00    -0.237 OA
ATOM     74  O   UNL A   1      39.388  36.209  38.173  1.00  0.00    -0.237 OA
ATOM     75  O   UNL A   1      41.521  35.610  37.110  1.00  0.00    -0.744 OA
ENDBRANCH  69  72
ENDBRANCH  51  65
BRANCH  52  76
ATOM     76  C   UNL A   1      42.715  26.486  27.943  1.00  0.00     0.023 A 
ATOM     77  C   UNL A   1      43.548  27.109  26.992  1.00  0.00     0.012 A 
ATOM     78  C   UNL A   1      42.448  25.109  27.824  1.00  0.00     0.148 A 
ATOM     79  C   UNL A   1      44.075  26.384  25.924  1.00  0.00     0.002 A 
ATOM     80  C   UNL A   1      43.024  24.380  26.790  1.00  0.00     0.091 A 
ATOM     81  F   UNL A   1      41.648  24.536  28.734  1.00  0.00    -0.205 F 
ATOM     82  C   UNL A   1      43.823  25.018  25.828  1.00  0.00     0.022 A 
BRANCH  80  83
ATOM     83  S   UNL A   1      42.867  22.595  26.665  1.00  0.00     0.127 S 
ATOM     84  O   UNL A   1      41.573  22.452  26.002  1.00  0.00    -0.237 OA
ATOM     85  O   UNL A   1      44.025  22.247  25.840  1.00  0.00    -0.237 OA
ATOM     86  O   UNL A   1      42.936  22.097  28.032  1.00  0.00    -0.744 OA
ENDBRANCH  80  83
ENDBRANCH  52  76
BRANCH  64  87
ATOM     87  C   UNL A   1      44.709  27.414  34.569  1.00  0.00     0.023 A 
ATOM     88  C   UNL A   1      45.930  28.112  34.656  1.00  0.00     0.012 A 
ATOM     89  C   UNL A   1      44.541  26.224  35.305  1.00  0.00     0.148 A 
ATOM     90  C   UNL A   1      46.977  27.616  35.433  1.00  0.00     0.002 A 
ATOM     91  C   UNL A   1      45.569  25.764  36.119  1.00  0.00     0.091 A 
ATOM     92  F   UNL A   1      43.378  25.563  35.196  1.00  0.00    -0.205 F 
ATOM     93  C   UNL A   1      46.793  26.451  36.173  1.00  0.00     0.022 A 
BRANCH  91  94
ATOM     94  S   UNL A   1      45.390  24.327  37.181  1.00  0.00     0.127 S 
ATOM     95  O   UNL A   1      46.757  24.142  37.666  1.00  0.00    -0.237 OA
ATOM     96  O   UNL A   1      44.444  24.803  38.190  1.00  0.00    -0.237 OA
ATOM     97  O   UNL A   1      44.880  23.258  36.331  1.00  0.00    -0.744 OA
ENDBRANCH  91  94
ENDBRANCH  64  87
ENDBRANCH  38  39
ENDBRANCH  30  33
ENDBRANCH  28  29
ENDBRANCH  27  28
ENDBRANCH   1  27
TORSDOF 19
ENDMDL
MODEL 3
REMARK VINA RESULT:     -11.5      5.250      8.315
REMARK SMILES O=C(C[C@H](C(=O)Nc1ccc([N+](=O)[O-])cc1)[C@H]1CCCO1)NCCCCNC(=O)c1ccc(-c2c3nc(c(-c4cccc(S(=O)(=O)[O-])c4F)c4ccc([nH]4)c(-c4cccc(S(=O)(=O)[O-])c4F)c4nc(c(-c5cccc(S(=O)(=O)[O-])c5F)c5ccc2[nH]5)C=C4)C=C3)cc1
REMARK SMILES IDX 24 1 23 2 22 3 1 4 2 5 3 7 4 8 5 9 6 10 7 11 8 13 9 14 16 15
REMARK SMILES IDX 10 16 15 17 11 18 12 19 13 20 14 21 17 22 18 23 21 24 19 25
REMARK SMILES IDX 20 26 25 27 26 28 27 29 28 30 29 32 30 33 31 34 92 35 32 36
REMARK SMILES IDX 91 37 33 38 34 39 35 40 85 41 36 42 90 43 84 44 86 45 37 46
REMARK SMILES IDX 89 47 83 48 82 49 38 51 70 52 50 53 69 54 51 55 54 56 68 57
REMARK SMILES IDX 87 58 52 59 53 60 67 62 88 63 55 64 39 65 40 66 48 67 41 68
REMARK SMILES IDX 43 69 49 70 42 71 44 72 45 73 46 74 47 75 71 76 72 77 80 78
REMARK SMILES IDX 73 79 75 80 81 81 74 82 76 83 77 84 78 85 79 86 56 87 57 88
REMARK SMILES IDX 65 89 58 90 60 91 66 92 59 93 61 94 62 95 63 96 64 97
REMARK H PARENT 22 6 7 12 27 31 86 50 54 61
REMARK Flexibility Score: inf
ROOT
ATOM      1  C   UNL A   1      32.952  27.119  26.136  1.00  0.00     0.023 C 
ENDROOT
BRANCH   1   2
ATOM      2  C   UNL A   1      32.132  25.988  26.760  1.00  0.00     0.116 C 
BRANCH   2   3
ATOM      3  N   UNL A   1      32.485  24.660  26.275  1.00  0.00    -0.356 N 
ATOM      4  O   UNL A   1      30.754  23.586  27.334  1.00  0.00    -0.275 OA
ATOM      5  C   UNL A   1      31.726  23.548  26.584  1.00  0.00     0.220 C 
ATOM      6  H   UNL A   1      33.285  24.553  25.711  1.00  0.00     0.163 HD
BRANCH   5   7
ATOM      7  C   UNL A   1      32.140  22.255  25.889  1.00  0.00     0.116 C 
BRANCH   7   8
ATOM      8  C   UNL A   1      33.075  22.515  24.689  1.00  0.00     0.117 C 
BRANCH   8   9
ATOM      9  C   UNL A   1      32.373  22.047  23.421  1.00  0.00     0.230 C 
ATOM     10  O   UNL A   1      32.397  20.862  23.080  1.00  0.00    -0.274 OA
ATOM     11  N   UNL A   1      31.562  22.898  22.720  1.00  0.00    -0.326 N 
ATOM     12  H   UNL A   1      30.997  22.457  22.046  1.00  0.00     0.169 HD
BRANCH  11  13
ATOM     13  C   UNL A   1      31.394  24.287  22.796  1.00  0.00     0.041 A 
ATOM     14  C   UNL A   1      32.331  25.081  22.126  1.00  0.00     0.033 A 
ATOM     15  C   UNL A   1      30.363  24.904  23.509  1.00  0.00     0.033 A 
ATOM     16  C   UNL A   1      32.186  26.470  22.092  1.00  0.00     0.088 A 
ATOM     17  C   UNL A   1      30.200  26.288  23.480  1.00  0.00     0.088 A 
ATOM     18  C   UNL A   1      31.114  27.063  22.768  1.00  0.00     0.269 A 
BRANCH  18  19
ATOM     19  N   UNL A   1      30.940  28.511  22.727  1.00  0.00     0.062 N 
ATOM     20  O   UNL A   1      30.197  28.975  21.853  1.00  0.00    -0.258 OA
ATOM     21  O   UNL A   1      31.508  29.178  23.603  1.00  0.00    -0.258 OA
ENDBRANCH  18  19
ENDBRANCH  11  13
ENDBRANCH   8   9
BRANCH   8  22
ATOM     22  C   UNL A   1      34.475  21.886  24.899  1.00  0.00     0.131 C 
ATOM     23  C   UNL A   1      35.611  22.206  23.927  1.00  0.00     0.035 C 
ATOM     24  O   UNL A   1      34.953  22.388  26.179  1.00  0.00    -0.377 OA
ATOM     25  C   UNL A   1      36.221  23.460  24.493  1.00  0.00     0.031 C 
ATOM     26  C   UNL A   1      36.131  23.188  25.976  1.00  0.00     0.160 C 
ENDBRANCH   8  22
ENDBRANCH   7   8
ENDBRANCH   5   7
ENDBRANCH   2   3
ENDBRANCH   1   2
BRANCH   1  27
ATOM     27  C   UNL A   1      33.186  28.343  27.028  1.00  0.00     0.023 C 
BRANCH  27  28
ATOM     28  C   UNL A   1      34.310  29.291  26.603  1.00  0.00     0.116 C 
BRANCH  28  29
ATOM     29  N   UNL A   1      34.053  30.690  26.924  1.00  0.00    -0.352 N 
ATOM     30  C   UNL A   1      34.697  31.526  27.818  1.00  0.00     0.251 C 
ATOM     31  H   UNL A   1      33.309  31.103  26.429  1.00  0.00     0.163 HD
ATOM     32  O   UNL A   1      34.253  32.653  28.020  1.00  0.00    -0.269 OA
BRANCH  30  33
ATOM     33  C   UNL A   1      35.908  31.071  28.546  1.00  0.00     0.039 A 
ATOM     34  C   UNL A   1      35.842  29.988  29.424  1.00  0.00     0.014 A 
ATOM     35  C   UNL A   1      37.125  31.723  28.369  1.00  0.00     0.014 A 
ATOM     36  C   UNL A   1      37.011  29.516  30.042  1.00  0.00     0.010 A 
ATOM     37  C   UNL A   1      38.301  31.205  28.912  1.00  0.00     0.010 A 
ATOM     38  C   UNL A   1      38.267  30.084  29.749  1.00  0.00    -0.014 A 
BRANCH  38  39
ATOM     39  C   UNL A   1      39.542  29.467  30.230  1.00  0.00     0.031 A 
ATOM     40  C   UNL A   1      40.312  30.027  31.405  1.00  0.00     0.074 A 
ATOM     41  C   UNL A   1      40.084  28.453  29.521  1.00  0.00     0.049 A 
ATOM     42  N   UNL A   1      41.438  29.605  31.930  1.00  0.00    -0.248 NA
ATOM     43  C   UNL A   1      39.775  31.234  32.054  1.00  0.00     0.031 C 
ATOM     44  C   UNL A   1      39.530  27.899  28.282  1.00  0.00     0.029 A 
ATOM     45  N   UNL A   1      41.230  27.721  29.720  1.00  0.00    -0.354 N 
ATOM     46  C   UNL A   1      41.762  30.512  32.934  1.00  0.00     0.074 A 
ATOM     47  C   UNL A   1      40.733  31.529  32.923  1.00  0.00     0.031 C 
ATOM     48  C   UNL A   1      40.316  26.900  27.852  1.00  0.00     0.029 A 
ATOM     49  C   UNL A   1      41.448  26.758  28.760  1.00  0.00     0.049 A 
ATOM     50  H   UNL A   1      41.840  27.871  30.479  1.00  0.00     0.167 HD
ATOM     51  C   UNL A   1      42.802  30.490  33.807  1.00  0.00     0.034 A 
ATOM     52  C   UNL A   1      42.441  25.857  28.619  1.00  0.00     0.034 A 
ATOM     53  C   UNL A   1      43.798  29.451  33.851  1.00  0.00     0.049 A 
ATOM     54  C   UNL A   1      43.532  25.797  29.651  1.00  0.00     0.074 A 
ATOM     55  C   UNL A   1      44.808  29.267  34.782  1.00  0.00     0.029 A 
ATOM     56  N   UNL A   1      43.922  28.428  32.924  1.00  0.00    -0.354 N 
ATOM     57  N   UNL A   1      43.703  26.541  30.716  1.00  0.00    -0.248 NA
ATOM     58  C   UNL A   1      44.546  24.745  29.486  1.00  0.00     0.031 C 
ATOM     59  C   UNL A   1      45.563  28.153  34.397  1.00  0.00     0.029 A 
ATOM     60  C   UNL A   1      45.000  27.620  33.250  1.00  0.00     0.049 A 
ATOM     61  H   UNL A   1      43.332  28.297  32.148  1.00  0.00     0.167 HD
ATOM     62  C   UNL A   1      44.818  26.027  31.366  1.00  0.00     0.074 A 
ATOM     63  C   UNL A   1      45.269  24.892  30.588  1.00  0.00     0.031 C 
ATOM     64  C   UNL A   1      45.419  26.463  32.500  1.00  0.00     0.034 A 
BRANCH  51  65
ATOM     65  C   UNL A   1      42.889  31.589  34.841  1.00  0.00     0.023 A 
ATOM     66  C   UNL A   1      43.714  32.708  34.600  1.00  0.00     0.012 A 
ATOM     67  C   UNL A   1      42.090  31.564  36.004  1.00  0.00     0.148 A 
ATOM     68  C   UNL A   1      43.776  33.759  35.515  1.00  0.00     0.002 A 
ATOM     69  C   UNL A   1      42.122  32.639  36.886  1.00  0.00     0.091 A 
ATOM     70  F   UNL A   1      41.316  30.493  36.225  1.00  0.00    -0.205 F 
ATOM     71  C   UNL A   1      42.974  33.730  36.651  1.00  0.00     0.022 A 
BRANCH  69  72
ATOM     72  S   UNL A   1      41.062  32.743  38.335  1.00  0.00     0.127 S 
ATOM     73  O   UNL A   1      39.827  32.136  37.842  1.00  0.00    -0.237 OA
ATOM     74  O   UNL A   1      41.793  31.933  39.310  1.00  0.00    -0.237 OA
ATOM     75  O   UNL A   1      40.972  34.159  38.668  1.00  0.00    -0.744 OA
ENDBRANCH  69  72
ENDBRANCH  51  65
BRANCH  52  76
ATOM     76  C   UNL A   1      42.399  24.876  27.496  1.00  0.00     0.023 A 
ATOM     77  C   UNL A   1      43.215  25.087  26.367  1.00  0.00     0.012 A 
ATOM     78  C   UNL A   1      41.592  23.725  27.556  1.00  0.00     0.148 A 
ATOM     79  C   UNL A   1      43.200  24.186  25.301  1.00  0.00     0.002 A 
ATOM     80  C   UNL A   1      41.626  22.802  26.517  1.00  0.00     0.091 A 
ATOM     81  F   UNL A   1      40.817  23.547  28.636  1.00  0.00    -0.205 F 
ATOM     82  C   UNL A   1      42.415  23.039  25.381  1.00  0.00     0.022 A 
BRANCH  80  83
ATOM     83  S   UNL A   1      40.756  21.233  26.593  1.00  0.00     0.127 S 
ATOM     84  O   UNL A   1      41.581  20.390  25.731  1.00  0.00    -0.237 OA
ATOM     85  O   UNL A   1      40.831  20.915  28.020  1.00  0.00    -0.237 OA
ATOM     86  O   UNL A   1      39.409  21.504  26.110  1.00  0.00    -0.744 OA
ENDBRANCH  80  83
ENDBRANCH  52  76
BRANCH  64  87
ATOM     87  C   UNL A   1      46.614  25.694  33.002  1.00  0.00     0.023 A 
ATOM     88  C   UNL A   1      47.916  26.106  32.655  1.00  0.00     0.012 A 
ATOM     89  C   UNL A   1      46.445  24.598  33.872  1.00  0.00     0.148 A 
ATOM     90  C   UNL A   1      49.029  25.417  33.135  1.00  0.00     0.002 A 
ATOM     91  C   UNL A   1      47.561  23.950  34.389  1.00  0.00     0.091 A 
ATOM     92  F   UNL A   1      45.198  24.209  34.177  1.00  0.00    -0.205 F 
ATOM     93  C   UNL A   1      48.853  24.348  34.011  1.00  0.00     0.022 A 
BRANCH  91  94
ATOM     94  S   UNL A   1      47.433  22.626  35.597  1.00  0.00     0.127 S 
ATOM     95  O   UNL A   1      48.832  22.432  35.974  1.00  0.00    -0.237 OA
ATOM     96  O   UNL A   1      46.601  23.234  36.635  1.00  0.00    -0.237 OA
ATOM     97  O   UNL A   1      46.812  21.505  34.904  1.00  0.00    -0.744 OA
ENDBRANCH  91  94
ENDBRANCH  64  87
ENDBRANCH  38  39
ENDBRANCH  30  33
ENDBRANCH  28  29
ENDBRANCH  27  28
ENDBRANCH   1  27
TORSDOF 19
ENDMDL
