MODEL 1
REMARK VINA RESULT:     -13.2      0.000      0.000
REMARK SMILES [NH3+][C@H](Cc1ccc2nsnc2c1)C(=O)NCCCCNC(=O)c1ccc(-c2c3nc(c(-c4cccc(S(=O)(=O)[O-])c4F)c4ccc([nH]4)c(-c4cccc(S(=O)(=O)[O-])c4F)c4nc(c(-c5cccc(S(=O)(=O)[O-])c5F)c5ccc2[nH]5)C=C4)C=C3)cc1
REMARK SMILES IDX 18 1 17 2 16 3 15 4 13 5 14 6 2 8 1 9 3 13 4 14 5 15 12 16
REMARK SMILES IDX 6 17 11 18 7 19 10 20 8 21 9 22 19 23 20 24 21 25 22 27
REMARK SMILES IDX 23 28 24 29 85 30 25 31 84 32 26 33 27 34 28 35 78 36 29 37
REMARK SMILES IDX 83 38 77 39 79 40 30 41 82 42 76 43 75 44 31 46 63 47 43 48
REMARK SMILES IDX 62 49 44 50 47 51 61 52 80 53 45 54 46 55 60 57 81 58 48 59
REMARK SMILES IDX 32 60 33 61 41 62 34 63 36 64 42 65 35 66 37 67 38 68 39 69
REMARK SMILES IDX 40 70 64 71 65 72 73 73 66 74 68 75 74 76 67 77 69 78 70 79
REMARK SMILES IDX 71 80 72 81 49 82 50 83 58 84 51 85 53 86 59 87 52 88 54 89
REMARK SMILES IDX 55 90 56 91 57 92
REMARK H PARENT 15 7 1 10 1 11 1 12 20 26 79 45 47 56
REMARK Flexibility Score: inf
ROOT
ATOM      1  C   UNL A   1      35.832  21.252  24.836  1.00  0.00     0.023 C 
ENDROOT
BRANCH   1   2
ATOM      2  C   UNL A   1      34.330  21.258  25.783  1.00  0.00     0.023 C 
BRANCH   2   3
ATOM      3  C   UNL A   1      32.185  21.341  25.393  1.00  0.00     0.116 C 
BRANCH   3   4
ATOM      4  N   UNL A   1      30.981  21.934  26.226  1.00  0.00    -0.351 N 
ATOM      5  C   UNL A   1      30.709  23.229  26.580  1.00  0.00     0.278 C 
ATOM      6  O   UNL A   1      29.749  23.451  27.320  1.00  0.00    -0.268 OA
ATOM      7  H   UNL A   1      30.324  21.270  26.540  1.00  0.00     0.163 HD
BRANCH   5   8
ATOM      8  C   UNL A   1      31.554  24.375  25.978  1.00  0.00     0.275 C 
BRANCH   8   9
ATOM      9  N   UNL A   1      31.594  25.489  26.967  1.00  0.00    -0.347 N 
ATOM     10  H   UNL A   1      30.672  25.921  27.028  1.00  0.00     0.345 HD
ATOM     11  H   UNL A   1      32.277  26.184  26.669  1.00  0.00     0.345 HD
ATOM     12  H   UNL A   1      31.858  25.122  27.882  1.00  0.00     0.345 HD
ENDBRANCH   8   9
BRANCH   8  13
ATOM     13  C   UNL A   1      31.159  24.805  24.538  1.00  0.00     0.111 C 
BRANCH  13  14
ATOM     14  C   UNL A   1      30.944  26.306  24.423  1.00  0.00    -0.039 A 
ATOM     15  C   UNL A   1      32.308  27.257  23.763  1.00  0.00     0.006 A 
ATOM     16  C   UNL A   1      29.248  26.837  24.215  1.00  0.00     0.035 A 
ATOM     17  C   UNL A   1      31.996  28.630  22.637  1.00  0.00     0.032 A 
ATOM     18  C   UNL A   1      28.844  28.212  23.125  1.00  0.00     0.105 A 
ATOM     19  C   UNL A   1      30.296  29.197  22.322  1.00  0.00     0.104 A 
ATOM     20  N   UNL A   1      27.687  28.738  22.730  1.00  0.00    -0.173 NA
ATOM     21  N   UNL A   1      29.770  30.117  21.516  1.00  0.00    -0.173 NA
ATOM     22  S   UNL A   1      28.087  30.051  21.721  1.00  0.00     0.069 S 
ENDBRANCH  13  14
ENDBRANCH   8  13
ENDBRANCH   5   8
ENDBRANCH   3   4
ENDBRANCH   2   3
ENDBRANCH   1   2
BRANCH   1  23
ATOM     23  C   UNL A   1      37.251  21.815  25.121  1.00  0.00     0.116 C 
BRANCH  23  24
ATOM     24  N   UNL A   1      38.290  20.858  25.457  1.00  0.00    -0.352 N 
ATOM     25  C   UNL A   1      39.404  21.000  26.239  1.00  0.00     0.251 C 
ATOM     26  H   UNL A   1      38.175  19.965  25.060  1.00  0.00     0.163 HD
ATOM     27  O   UNL A   1      40.122  20.042  26.506  1.00  0.00    -0.269 OA
BRANCH  25  28
ATOM     28  C   UNL A   1      39.802  22.338  26.671  1.00  0.00     0.039 A 
ATOM     29  C   UNL A   1      40.796  22.412  27.650  1.00  0.00     0.014 A 
ATOM     30  C   UNL A   1      39.245  23.484  26.102  1.00  0.00     0.014 A 
ATOM     31  C   UNL A   1      41.291  23.651  28.022  1.00  0.00     0.010 A 
ATOM     32  C   UNL A   1      39.776  24.720  26.439  1.00  0.00     0.010 A 
ATOM     33  C   UNL A   1      40.807  24.803  27.389  1.00  0.00    -0.014 A 
BRANCH  33  34
ATOM     34  C   UNL A   1      41.409  26.115  27.686  1.00  0.00     0.031 A 
ATOM     35  C   UNL A   1      42.823  26.385  27.283  1.00  0.00     0.074 A 
ATOM     36  C   UNL A   1      40.684  26.999  28.395  1.00  0.00     0.049 A 
ATOM     37  N   UNL A   1      43.547  27.448  27.497  1.00  0.00    -0.248 NA
ATOM     38  C   UNL A   1      43.530  25.305  26.574  1.00  0.00     0.031 C 
ATOM     39  C   UNL A   1      39.324  26.768  28.893  1.00  0.00     0.029 A 
ATOM     40  N   UNL A   1      40.992  28.254  28.843  1.00  0.00    -0.354 N 
ATOM     41  C   UNL A   1      44.804  27.155  26.989  1.00  0.00     0.074 A 
ATOM     42  C   UNL A   1      44.755  25.801  26.480  1.00  0.00     0.031 C 
ATOM     43  C   UNL A   1      38.915  27.847  29.578  1.00  0.00     0.029 A 
ATOM     44  C   UNL A   1      39.989  28.833  29.586  1.00  0.00     0.049 A 
ATOM     45  H   UNL A   1      41.848  28.701  28.653  1.00  0.00     0.167 HD
ATOM     46  C   UNL A   1      45.892  27.957  26.934  1.00  0.00     0.034 A 
ATOM     47  C   UNL A   1      39.952  30.028  30.203  1.00  0.00     0.034 A 
ATOM     48  C   UNL A   1      45.889  29.311  27.415  1.00  0.00     0.049 A 
ATOM     49  C   UNL A   1      41.149  30.926  30.061  1.00  0.00     0.074 A 
ATOM     50  C   UNL A   1      46.893  30.258  27.335  1.00  0.00     0.029 A 
ATOM     51  N   UNL A   1      44.822  29.909  28.071  1.00  0.00    -0.354 N 
ATOM     52  N   UNL A   1      42.281  30.695  29.438  1.00  0.00    -0.248 NA
ATOM     53  C   UNL A   1      41.055  32.259  30.667  1.00  0.00     0.031 C 
ATOM     54  C   UNL A   1      46.438  31.423  27.963  1.00  0.00     0.029 A 
ATOM     55  C   UNL A   1      45.142  31.210  28.409  1.00  0.00     0.049 A 
ATOM     56  H   UNL A   1      43.963  29.470  28.269  1.00  0.00     0.167 HD
ATOM     57  C   UNL A   1      43.022  31.863  29.546  1.00  0.00     0.074 A 
ATOM     58  C   UNL A   1      42.197  32.807  30.277  1.00  0.00     0.031 C 
ATOM     59  C   UNL A   1      44.273  32.133  29.097  1.00  0.00     0.034 A 
BRANCH  46  60
ATOM     60  C   UNL A   1      47.139  27.404  26.300  1.00  0.00     0.023 A 
ATOM     61  C   UNL A   1      47.384  27.624  24.928  1.00  0.00     0.012 A 
ATOM     62  C   UNL A   1      48.086  26.691  27.062  1.00  0.00     0.148 A 
ATOM     63  C   UNL A   1      48.527  27.110  24.317  1.00  0.00     0.002 A 
ATOM     64  C   UNL A   1      49.247  26.222  26.456  1.00  0.00     0.091 A 
ATOM     65  F   UNL A   1      47.827  26.468  28.359  1.00  0.00    -0.205 F 
ATOM     66  C   UNL A   1      49.462  26.419  25.082  1.00  0.00     0.022 A 
BRANCH  64  67
ATOM     67  S   UNL A   1      50.549  25.387  27.367  1.00  0.00     0.127 S 
ATOM     68  O   UNL A   1      49.827  24.254  27.944  1.00  0.00    -0.237 OA
ATOM     69  O   UNL A   1      51.489  25.033  26.304  1.00  0.00    -0.237 OA
ATOM     70  O   UNL A   1      51.055  26.358  28.328  1.00  0.00    -0.744 OA
ENDBRANCH  64  67
ENDBRANCH  46  60
BRANCH  47  71
ATOM     71  C   UNL A   1      38.720  30.462  30.917  1.00  0.00     0.023 A 
ATOM     72  C   UNL A   1      38.617  30.247  32.305  1.00  0.00     0.012 A 
ATOM     73  C   UNL A   1      37.676  31.132  30.248  1.00  0.00     0.148 A 
ATOM     74  C   UNL A   1      37.485  30.661  33.009  1.00  0.00     0.002 A 
ATOM     75  C   UNL A   1      36.575  31.588  30.964  1.00  0.00     0.091 A 
ATOM     76  F   UNL A   1      37.790  31.325  28.927  1.00  0.00    -0.205 F 
ATOM     77  C   UNL A   1      36.469  31.339  32.341  1.00  0.00     0.022 A 
BRANCH  75  78
ATOM     78  S   UNL A   1      35.285  32.587  30.211  1.00  0.00     0.127 S 
ATOM     79  O   UNL A   1      34.877  31.751  29.086  1.00  0.00    -0.237 OA
ATOM     80  O   UNL A   1      34.305  32.686  31.293  1.00  0.00    -0.237 OA
ATOM     81  O   UNL A   1      35.921  33.851  29.864  1.00  0.00    -0.744 OA
ENDBRANCH  75  78
ENDBRANCH  47  71
BRANCH  59  82
ATOM     82  C   UNL A   1      44.811  33.513  29.357  1.00  0.00     0.023 A 
ATOM     83  C   UNL A   1      45.556  33.763  30.526  1.00  0.00     0.012 A 
ATOM     84  C   UNL A   1      44.645  34.534  28.402  1.00  0.00     0.148 A 
ATOM     85  C   UNL A   1      46.103  35.024  30.755  1.00  0.00     0.002 A 
ATOM     86  C   UNL A   1      45.239  35.771  28.612  1.00  0.00     0.091 A 
ATOM     87  F   UNL A   1      43.914  34.276  27.308  1.00  0.00    -0.205 F 
ATOM     88  C   UNL A   1      45.957  36.022  29.793  1.00  0.00     0.022 A 
BRANCH  86  89
ATOM     89  S   UNL A   1      45.190  37.077  27.383  1.00  0.00     0.127 S 
ATOM     90  O   UNL A   1      46.049  36.530  26.333  1.00  0.00    -0.237 OA
ATOM     91  O   UNL A   1      43.768  37.129  27.042  1.00  0.00    -0.237 OA
ATOM     92  O   UNL A   1      45.695  38.272  28.046  1.00  0.00    -0.744 OA
ENDBRANCH  86  89
ENDBRANCH  59  82
ENDBRANCH  33  34
ENDBRANCH  25  28
ENDBRANCH  23  24
ENDBRANCH   1  23
TORSDOF 17
ENDMDL
MODEL 2
REMARK VINA RESULT:     -13.2      1.924      2.478
REMARK SMILES [NH3+][C@H](Cc1ccc2nsnc2c1)C(=O)NCCCCNC(=O)c1ccc(-c2c3nc(c(-c4cccc(S(=O)(=O)[O-])c4F)c4ccc([nH]4)c(-c4cccc(S(=O)(=O)[O-])c4F)c4nc(c(-c5cccc(S(=O)(=O)[O-])c5F)c5ccc2[nH]5)C=C4)C=C3)cc1
REMARK SMILES IDX 18 1 17 2 16 3 15 4 13 5 14 6 2 8 1 9 3 13 4 14 5 15 12 16
REMARK SMILES IDX 6 17 11 18 7 19 10 20 8 21 9 22 19 23 20 24 21 25 22 27
REMARK SMILES IDX 23 28 24 29 85 30 25 31 84 32 26 33 27 34 28 35 78 36 29 37
REMARK SMILES IDX 83 38 77 39 79 40 30 41 82 42 76 43 75 44 31 46 63 47 43 48
REMARK SMILES IDX 62 49 44 50 47 51 61 52 80 53 45 54 46 55 60 57 81 58 48 59
REMARK SMILES IDX 32 60 33 61 41 62 34 63 36 64 42 65 35 66 37 67 38 68 39 69
REMARK SMILES IDX 40 70 64 71 65 72 73 73 66 74 68 75 74 76 67 77 69 78 70 79
REMARK SMILES IDX 71 80 72 81 49 82 50 83 58 84 51 85 53 86 59 87 52 88 54 89
REMARK SMILES IDX 55 90 56 91 57 92
REMARK H PARENT 15 7 1 10 1 11 1 12 20 26 79 45 47 56
REMARK Flexibility Score: inf
ROOT
ATOM      1  C   UNL A   1      36.996  22.486  24.126  1.00  0.00     0.023 C 
ENDROOT
BRANCH   1   2
ATOM      2  C   UNL A   1      35.542  23.194  23.392  1.00  0.00     0.023 C 
BRANCH   2   3
ATOM      3  C   UNL A   1      33.473  22.603  23.035  1.00  0.00     0.116 C 
BRANCH   3   4
ATOM      4  N   UNL A   1      32.581  21.452  23.646  1.00  0.00    -0.351 N 
ATOM      5  C   UNL A   1      32.473  21.014  24.939  1.00  0.00     0.278 C 
ATOM      6  O   UNL A   1      31.774  20.027  25.173  1.00  0.00    -0.268 OA
ATOM      7  H   UNL A   1      32.015  20.973  22.996  1.00  0.00     0.163 HD
BRANCH   5   8
ATOM      8  C   UNL A   1      33.156  21.815  26.072  1.00  0.00     0.275 C 
BRANCH   8   9
ATOM      9  N   UNL A   1      33.659  20.845  27.085  1.00  0.00    -0.347 N 
ATOM     10  H   UNL A   1      34.677  20.904  27.135  1.00  0.00     0.345 HD
ATOM     11  H   UNL A   1      33.387  19.900  26.815  1.00  0.00     0.345 HD
ATOM     12  H   UNL A   1      33.260  21.068  27.996  1.00  0.00     0.345 HD
ENDBRANCH   8   9
BRANCH   8  13
ATOM     13  C   UNL A   1      32.315  22.982  26.659  1.00  0.00     0.111 C 
BRANCH  13  14
ATOM     14  C   UNL A   1      32.293  24.195  25.742  1.00  0.00    -0.039 A 
ATOM     15  C   UNL A   1      30.700  24.658  25.072  1.00  0.00     0.006 A 
ATOM     16  C   UNL A   1      33.576  25.410  26.026  1.00  0.00     0.035 A 
ATOM     17  C   UNL A   1      30.250  26.397  24.922  1.00  0.00     0.032 A 
ATOM     18  C   UNL A   1      33.222  27.169  25.879  1.00  0.00     0.105 A 
ATOM     19  C   UNL A   1      31.477  27.700  25.250  1.00  0.00     0.104 A 
ATOM     20  N   UNL A   1      33.951  28.257  26.119  1.00  0.00    -0.173 NA
ATOM     21  N   UNL A   1      31.418  29.030  25.279  1.00  0.00    -0.173 NA
ATOM     22  S   UNL A   1      32.961  29.584  25.716  1.00  0.00     0.069 S 
ENDBRANCH  13  14
ENDBRANCH   8  13
ENDBRANCH   5   8
ENDBRANCH   3   4
ENDBRANCH   2   3
ENDBRANCH   1   2
BRANCH   1  23
ATOM     23  C   UNL A   1      37.311  22.004  25.569  1.00  0.00     0.116 C 
BRANCH  23  24
ATOM     24  N   UNL A   1      38.462  21.136  25.743  1.00  0.00    -0.352 N 
ATOM     25  C   UNL A   1      39.648  21.359  26.390  1.00  0.00     0.251 C 
ATOM     26  H   UNL A   1      38.376  20.246  25.332  1.00  0.00     0.163 HD
ATOM     27  O   UNL A   1      40.473  20.462  26.534  1.00  0.00    -0.269 OA
BRANCH  25  28
ATOM     28  C   UNL A   1      39.979  22.716  26.817  1.00  0.00     0.039 A 
ATOM     29  C   UNL A   1      40.904  22.838  27.856  1.00  0.00     0.014 A 
ATOM     30  C   UNL A   1      39.429  23.834  26.189  1.00  0.00     0.014 A 
ATOM     31  C   UNL A   1      41.339  24.098  28.233  1.00  0.00     0.010 A 
ATOM     32  C   UNL A   1      39.902  25.091  26.532  1.00  0.00     0.010 A 
ATOM     33  C   UNL A   1      40.865  25.223  27.546  1.00  0.00    -0.014 A 
BRANCH  33  34
ATOM     34  C   UNL A   1      41.410  26.557  27.853  1.00  0.00     0.031 A 
ATOM     35  C   UNL A   1      42.830  26.872  27.504  1.00  0.00     0.074 A 
ATOM     36  C   UNL A   1      40.628  27.422  28.523  1.00  0.00     0.049 A 
ATOM     37  N   UNL A   1      43.507  27.961  27.735  1.00  0.00    -0.248 NA
ATOM     38  C   UNL A   1      43.601  25.811  26.835  1.00  0.00     0.031 C 
ATOM     39  C   UNL A   1      39.258  27.149  28.969  1.00  0.00     0.029 A 
ATOM     40  N   UNL A   1      40.874  28.692  28.970  1.00  0.00    -0.354 N 
ATOM     41  C   UNL A   1      44.794  27.707  27.281  1.00  0.00     0.074 A 
ATOM     42  C   UNL A   1      44.811  26.348  26.785  1.00  0.00     0.031 C 
ATOM     43  C   UNL A   1      38.785  28.220  29.625  1.00  0.00     0.029 A 
ATOM     44  C   UNL A   1      39.824  29.241  29.666  1.00  0.00     0.049 A 
ATOM     45  H   UNL A   1      41.722  29.165  28.809  1.00  0.00     0.167 HD
ATOM     46  C   UNL A   1      45.855  28.546  27.261  1.00  0.00     0.034 A 
ATOM     47  C   UNL A   1      39.721  30.441  30.268  1.00  0.00     0.034 A 
ATOM     48  C   UNL A   1      45.787  29.903  27.727  1.00  0.00     0.049 A 
ATOM     49  C   UNL A   1      40.892  31.377  30.165  1.00  0.00     0.074 A 
ATOM     50  C   UNL A   1      46.760  30.883  27.677  1.00  0.00     0.029 A 
ATOM     51  N   UNL A   1      44.674  30.470  28.334  1.00  0.00    -0.354 N 
ATOM     52  N   UNL A   1      42.055  31.180  29.590  1.00  0.00    -0.248 NA
ATOM     53  C   UNL A   1      40.728  32.712  30.753  1.00  0.00     0.031 C 
ATOM     54  C   UNL A   1      46.240  32.037  28.274  1.00  0.00     0.029 A 
ATOM     55  C   UNL A   1      44.935  31.784  28.671  1.00  0.00     0.049 A 
ATOM     56  H   UNL A   1      43.823  30.003  28.502  1.00  0.00     0.167 HD
ATOM     57  C   UNL A   1      42.750  32.374  29.715  1.00  0.00     0.074 A 
ATOM     58  C   UNL A   1      41.866  33.296  30.403  1.00  0.00     0.031 C 
ATOM     59  C   UNL A   1      44.009  32.683  29.314  1.00  0.00     0.034 A 
BRANCH  46  60
ATOM     60  C   UNL A   1      47.145  28.030  26.683  1.00  0.00     0.023 A 
ATOM     61  C   UNL A   1      48.171  27.588  27.545  1.00  0.00     0.012 A 
ATOM     62  C   UNL A   1      47.337  27.952  25.290  1.00  0.00     0.148 A 
ATOM     63  C   UNL A   1      49.379  27.118  27.033  1.00  0.00     0.002 A 
ATOM     64  C   UNL A   1      48.526  27.438  24.786  1.00  0.00     0.091 A 
ATOM     65  F   UNL A   1      46.362  28.400  24.484  1.00  0.00    -0.205 F 
ATOM     66  C   UNL A   1      49.553  27.034  25.655  1.00  0.00     0.022 A 
BRANCH  64  67
ATOM     67  S   UNL A   1      48.821  27.216  23.028  1.00  0.00     0.127 S 
ATOM     68  O   UNL A   1      48.225  25.901  22.793  1.00  0.00    -0.237 OA
ATOM     69  O   UNL A   1      48.077  28.334  22.449  1.00  0.00    -0.237 OA
ATOM     70  O   UNL A   1      50.264  27.287  22.849  1.00  0.00    -0.744 OA
ENDBRANCH  64  67
ENDBRANCH  46  60
BRANCH  47  71
ATOM     71  C   UNL A   1      38.447  30.838  30.928  1.00  0.00     0.023 A 
ATOM     72  C   UNL A   1      38.283  30.601  32.307  1.00  0.00     0.012 A 
ATOM     73  C   UNL A   1      37.422  31.495  30.219  1.00  0.00     0.148 A 
ATOM     74  C   UNL A   1      37.109  30.982  32.960  1.00  0.00     0.002 A 
ATOM     75  C   UNL A   1      36.278  31.918  30.886  1.00  0.00     0.091 A 
ATOM     76  F   UNL A   1      37.595  31.709  28.907  1.00  0.00    -0.205 F 
ATOM     77  C   UNL A   1      36.112  31.648  32.254  1.00  0.00     0.022 A 
BRANCH  75  78
ATOM     78  S   UNL A   1      35.005  32.900  30.086  1.00  0.00     0.127 S 
ATOM     79  O   UNL A   1      34.475  31.960  29.103  1.00  0.00    -0.237 OA
ATOM     80  O   UNL A   1      34.104  33.199  31.199  1.00  0.00    -0.237 OA
ATOM     81  O   UNL A   1      35.691  34.065  29.544  1.00  0.00    -0.744 OA
ENDBRANCH  75  78
ENDBRANCH  47  71
BRANCH  59  82
ATOM     82  C   UNL A   1      44.489  34.082  29.581  1.00  0.00     0.023 A 
ATOM     83  C   UNL A   1      45.078  34.394  30.821  1.00  0.00     0.012 A 
ATOM     84  C   UNL A   1      44.428  35.061  28.571  1.00  0.00     0.148 A 
ATOM     85  C   UNL A   1      45.573  35.674  31.064  1.00  0.00     0.002 A 
ATOM     86  C   UNL A   1      44.971  36.318  28.801  1.00  0.00     0.091 A 
ATOM     87  F   UNL A   1      43.843  34.745  27.406  1.00  0.00    -0.205 F 
ATOM     88  C   UNL A   1      45.533  36.630  30.050  1.00  0.00     0.022 A 
BRANCH  86  89
ATOM     89  S   UNL A   1      45.056  37.573  27.521  1.00  0.00     0.127 S 
ATOM     90  O   UNL A   1      45.669  38.690  28.239  1.00  0.00    -0.237 OA
ATOM     91  O   UNL A   1      45.921  36.941  26.524  1.00  0.00    -0.237 OA
ATOM     92  O   UNL A   1      43.685  37.789  27.079  1.00  0.00    -0.744 OA
ENDBRANCH  86  89
ENDBRANCH  59  82
ENDBRANCH  33  34
ENDBRANCH  25  28
ENDBRANCH  23  24
ENDBRANCH   1  23
TORSDOF 17
ENDMDL
MODEL 3
REMARK VINA RESULT:     -13.0      0.632      7.988
REMARK SMILES [NH3+][C@H](Cc1ccc2nsnc2c1)C(=O)NCCCCNC(=O)c1ccc(-c2c3nc(c(-c4cccc(S(=O)(=O)[O-])c4F)c4ccc([nH]4)c(-c4cccc(S(=O)(=O)[O-])c4F)c4nc(c(-c5cccc(S(=O)(=O)[O-])c5F)c5ccc2[nH]5)C=C4)C=C3)cc1
REMARK SMILES IDX 18 1 17 2 16 3 15 4 13 5 14 6 2 8 1 9 3 13 4 14 5 15 12 16
REMARK SMILES IDX 6 17 11 18 7 19 10 20 8 21 9 22 19 23 20 24 21 25 22 27
REMARK SMILES IDX 23 28 24 29 85 30 25 31 84 32 26 33 27 34 28 35 78 36 29 37
REMARK SMILES IDX 83 38 77 39 79 40 30 41 82 42 76 43 75 44 31 46 63 47 43 48
REMARK SMILES IDX 62 49 44 50 47 51 61 52 80 53 45 54 46 55 60 57 81 58 48 59
REMARK SMILES IDX 32 60 33 61 41 62 34 63 36 64 42 65 35 66 37 67 38 68 39 69
REMARK SMILES IDX 40 70 64 71 65 72 73 73 66 74 68 75 74 76 67 77 69 78 70 79
REMARK SMILES IDX 71 80 72 81 49 82 50 83 58 84 51 85 53 86 59 87 52 88 54 89
REMARK SMILES IDX 55 90 56 91 57 92
REMARK H PARENT 15 7 1 10 1 11 1 12 20 26 79 45 47 56
REMARK Flexibility Score: inf
ROOT
ATOM      1  C   UNL A   1      35.826  22.034  24.446  1.00  0.00     0.023 C 
ENDROOT
BRANCH   1   2
ATOM      2  C   UNL A   1      34.084  22.271  24.196  1.00  0.00     0.023 C 
BRANCH   2   3
ATOM      3  C   UNL A   1      32.226  21.330  24.846  1.00  0.00     0.116 C 
BRANCH   3   4
ATOM      4  N   UNL A   1      31.166  21.730  25.947  1.00  0.00    -0.351 N 
ATOM      5  C   UNL A   1      30.870  22.957  26.479  1.00  0.00     0.278 C 
ATOM      6  O   UNL A   1      30.060  23.021  27.405  1.00  0.00    -0.268 OA
ATOM      7  H   UNL A   1      30.638  20.982  26.309  1.00  0.00     0.163 HD
BRANCH   5   8
ATOM      8  C   UNL A   1      31.489  24.227  25.850  1.00  0.00     0.275 C 
BRANCH   8   9
ATOM      9  N   UNL A   1      31.531  25.287  26.896  1.00  0.00    -0.347 N 
ATOM     10  H   UNL A   1      30.751  25.931  26.759  1.00  0.00     0.345 HD
ATOM     11  H   UNL A   1      32.409  25.799  26.827  1.00  0.00     0.345 HD
ATOM     12  H   UNL A   1      31.458  24.858  27.818  1.00  0.00     0.345 HD
ENDBRANCH   8   9
BRANCH   8  13
ATOM     13  C   UNL A   1      30.858  24.675  24.503  1.00  0.00     0.111 C 
BRANCH  13  14
ATOM     14  C   UNL A   1      30.708  26.186  24.410  1.00  0.00    -0.039 A 
ATOM     15  C   UNL A   1      32.115  27.088  23.773  1.00  0.00     0.006 A 
ATOM     16  C   UNL A   1      29.036  26.791  24.201  1.00  0.00     0.035 A 
ATOM     17  C   UNL A   1      31.868  28.490  22.667  1.00  0.00     0.032 A 
ATOM     18  C   UNL A   1      28.698  28.199  23.131  1.00  0.00     0.105 A 
ATOM     19  C   UNL A   1      30.195  29.134  22.351  1.00  0.00     0.104 A 
ATOM     20  N   UNL A   1      27.566  28.779  22.738  1.00  0.00    -0.173 NA
ATOM     21  N   UNL A   1      29.713  30.088  21.558  1.00  0.00    -0.173 NA
ATOM     22  S   UNL A   1      28.028  30.090  21.752  1.00  0.00     0.069 S 
ENDBRANCH  13  14
ENDBRANCH   8  13
ENDBRANCH   5   8
ENDBRANCH   3   4
ENDBRANCH   2   3
ENDBRANCH   1   2
BRANCH   1  23
ATOM     23  C   UNL A   1      36.686  21.867  25.729  1.00  0.00     0.116 C 
BRANCH  23  24
ATOM     24  N   UNL A   1      37.793  20.930  25.669  1.00  0.00    -0.352 N 
ATOM     25  C   UNL A   1      39.075  21.044  26.135  1.00  0.00     0.251 C 
ATOM     26  H   UNL A   1      37.588  20.076  25.225  1.00  0.00     0.163 HD
ATOM     27  O   UNL A   1      39.853  20.097  26.095  1.00  0.00    -0.269 OA
BRANCH  25  28
ATOM     28  C   UNL A   1      39.553  22.349  26.585  1.00  0.00     0.039 A 
ATOM     29  C   UNL A   1      40.601  22.349  27.507  1.00  0.00     0.014 A 
ATOM     30  C   UNL A   1      39.015  23.535  26.084  1.00  0.00     0.014 A 
ATOM     31  C   UNL A   1      41.169  23.554  27.889  1.00  0.00     0.010 A 
ATOM     32  C   UNL A   1      39.616  24.736  26.428  1.00  0.00     0.010 A 
ATOM     33  C   UNL A   1      40.700  24.745  27.321  1.00  0.00    -0.014 A 
BRANCH  33  34
ATOM     34  C   UNL A   1      41.374  26.021  27.624  1.00  0.00     0.031 A 
ATOM     35  C   UNL A   1      40.650  27.069  28.407  1.00  0.00     0.074 A 
ATOM     36  C   UNL A   1      42.596  26.231  27.104  1.00  0.00     0.049 A 
ATOM     37  N   UNL A   1      41.045  28.268  28.732  1.00  0.00    -0.248 NA
ATOM     38  C   UNL A   1      39.287  26.738  28.858  1.00  0.00     0.031 C 
ATOM     39  C   UNL A   1      43.328  25.282  26.259  1.00  0.00     0.029 A 
ATOM     40  N   UNL A   1      43.429  27.314  27.183  1.00  0.00    -0.354 N 
ATOM     41  C   UNL A   1      39.971  28.853  29.388  1.00  0.00     0.074 A 
ATOM     42  C   UNL A   1      38.894  27.886  29.390  1.00  0.00     0.031 C 
ATOM     43  C   UNL A   1      44.502  25.825  25.899  1.00  0.00     0.029 A 
ATOM     44  C   UNL A   1      44.593  27.164  26.466  1.00  0.00     0.049 A 
ATOM     45  H   UNL A   1      43.215  28.122  27.702  1.00  0.00     0.167 HD
ATOM     46  C   UNL A   1      39.905  30.079  29.954  1.00  0.00     0.034 A 
ATOM     47  C   UNL A   1      45.615  28.022  26.292  1.00  0.00     0.034 A 
ATOM     48  C   UNL A   1      41.011  30.996  29.965  1.00  0.00     0.049 A 
ATOM     49  C   UNL A   1      45.543  29.348  26.995  1.00  0.00     0.074 A 
ATOM     50  C   UNL A   1      41.105  32.228  30.584  1.00  0.00     0.029 A 
ATOM     51  N   UNL A   1      42.220  30.775  29.319  1.00  0.00    -0.354 N 
ATOM     52  N   UNL A   1      44.582  29.829  27.747  1.00  0.00    -0.248 NA
ATOM     53  C   UNL A   1      46.706  30.233  26.863  1.00  0.00     0.031 C 
ATOM     54  C   UNL A   1      42.367  32.761  30.293  1.00  0.00     0.029 A 
ATOM     55  C   UNL A   1      43.067  31.849  29.516  1.00  0.00     0.049 A 
ATOM     56  H   UNL A   1      42.442  29.972  28.794  1.00  0.00     0.167 HD
ATOM     57  C   UNL A   1      45.035  31.057  28.208  1.00  0.00     0.074 A 
ATOM     58  C   UNL A   1      46.368  31.234  27.665  1.00  0.00     0.031 C 
ATOM     59  C   UNL A   1      44.407  31.965  28.995  1.00  0.00     0.034 A 
BRANCH  46  60
ATOM     60  C   UNL A   1      38.621  30.467  30.636  1.00  0.00     0.023 A 
ATOM     61  C   UNL A   1      38.413  30.119  31.987  1.00  0.00     0.012 A 
ATOM     62  C   UNL A   1      37.630  31.201  29.954  1.00  0.00     0.148 A 
ATOM     63  C   UNL A   1      37.226  30.458  32.636  1.00  0.00     0.002 A 
ATOM     64  C   UNL A   1      36.469  31.576  30.621  1.00  0.00     0.091 A 
ATOM     65  F   UNL A   1      37.832  31.502  28.663  1.00  0.00    -0.205 F 
ATOM     66  C   UNL A   1      36.259  31.194  31.957  1.00  0.00     0.022 A 
BRANCH  64  67
ATOM     67  S   UNL A   1      35.196  32.590  29.861  1.00  0.00     0.127 S 
ATOM     68  O   UNL A   1      34.678  31.690  28.831  1.00  0.00    -0.237 OA
ATOM     69  O   UNL A   1      34.284  32.826  30.979  1.00  0.00    -0.237 OA
ATOM     70  O   UNL A   1      35.873  33.781  29.366  1.00  0.00    -0.744 OA
ENDBRANCH  64  67
ENDBRANCH  46  60
BRANCH  47  71
ATOM     71  C   UNL A   1      46.808  27.610  25.500  1.00  0.00     0.023 A 
ATOM     72  C   UNL A   1      46.824  27.840  24.110  1.00  0.00     0.012 A 
ATOM     73  C   UNL A   1      47.943  27.047  26.115  1.00  0.00     0.148 A 
ATOM     74  C   UNL A   1      47.935  27.487  23.343  1.00  0.00     0.002 A 
ATOM     75  C   UNL A   1      49.066  26.746  25.352  1.00  0.00     0.091 A 
ATOM     76  F   UNL A   1      47.908  26.833  27.437  1.00  0.00    -0.205 F 
ATOM     77  C   UNL A   1      49.058  26.949  23.964  1.00  0.00     0.022 A 
BRANCH  75  78
ATOM     78  S   UNL A   1      50.604  26.178  26.088  1.00  0.00     0.127 S 
ATOM     79  O   UNL A   1      50.945  27.292  26.967  1.00  0.00    -0.237 OA
ATOM     80  O   UNL A   1      50.181  24.958  26.776  1.00  0.00    -0.237 OA
ATOM     81  O   UNL A   1      51.511  25.949  24.971  1.00  0.00    -0.744 OA
ENDBRANCH  75  78
ENDBRANCH  47  71
BRANCH  59  82
ATOM     82  C   UNL A   1      45.168  33.215  29.340  1.00  0.00     0.023 A 
ATOM     83  C   UNL A   1      46.016  33.229  30.464  1.00  0.00     0.012 A 
ATOM     84  C   UNL A   1      45.101  34.343  28.501  1.00  0.00     0.148 A 
ATOM     85  C   UNL A   1      46.766  34.364  30.766  1.00  0.00     0.002 A 
ATOM     86  C   UNL A   1      45.891  35.450  28.779  1.00  0.00     0.091 A 
ATOM     87  F   UNL A   1      44.270  34.312  27.449  1.00  0.00    -0.205 F 
ATOM     88  C   UNL A   1      46.714  35.467  29.917  1.00  0.00     0.022 A 
BRANCH  86  89
ATOM     89  S   UNL A   1      45.967  36.871  27.684  1.00  0.00     0.127 S 
ATOM     90  O   UNL A   1      46.560  36.289  26.481  1.00  0.00    -0.237 OA
ATOM     91  O   UNL A   1      44.556  37.237  27.553  1.00  0.00    -0.237 OA
ATOM     92  O   UNL A   1      46.786  37.862  28.370  1.00  0.00    -0.744 OA
ENDBRANCH  86  89
ENDBRANCH  59  82
ENDBRANCH  33  34
ENDBRANCH  25  28
ENDBRANCH  23  24
ENDBRANCH   1  23
TORSDOF 17
ENDMDL
