MODEL 1
REMARK VINA RESULT:     -12.0      0.000      0.000
REMARK SMILES Cc1cc(C)cc(-c2ccc([C@@H](C)C(=O)NCCCCNC(=O)c3ccc(-c4c5nc(c(-c6cccc(S(=O)(=O)[O-])c6F)c6ccc([nH]6)c(-c6cccc(S(=O)(=O)[O-])c6F)c6nc(c(-c7cccc(S(=O)(=O)[O-])c7F)c7ccc4[nH]7)C=C6)C=C5)cc3)cc2F)c1
REMARK SMILES IDX 19 1 18 2 17 3 16 4 14 5 15 6 12 8 13 9 11 10 8 11 9 12
REMARK SMILES IDX 88 13 10 14 87 15 89 16 7 17 1 18 2 19 3 20 90 21 4 22 5 23
REMARK SMILES IDX 6 24 20 25 21 26 22 27 23 29 24 30 25 31 86 32 26 33 85 34
REMARK SMILES IDX 27 35 28 36 29 37 79 38 30 39 84 40 78 41 80 42 31 43 83 44
REMARK SMILES IDX 77 45 76 46 32 48 64 49 44 50 63 51 45 52 48 53 62 54 81 55
REMARK SMILES IDX 46 56 47 57 61 59 82 60 49 61 33 62 34 63 42 64 35 65 37 66
REMARK SMILES IDX 43 67 36 68 38 69 39 70 40 71 41 72 65 73 66 74 74 75 67 76
REMARK SMILES IDX 69 77 75 78 68 79 70 80 71 81 72 82 73 83 50 84 51 85 59 86
REMARK SMILES IDX 52 87 54 88 60 89 53 90 55 91 56 92 57 93 58 94
REMARK H PARENT 16 7 21 28 80 47 48 58
REMARK Flexibility Score: inf
ROOT
ATOM      1  C   UNL A   1      33.509  28.414  25.799  1.00  0.00     0.023 C 
ENDROOT
BRANCH   1   2
ATOM      2  C   UNL A   1      32.874  29.566  25.021  1.00  0.00     0.023 C 
BRANCH   2   3
ATOM      3  C   UNL A   1      31.351  29.515  24.914  1.00  0.00     0.116 C 
BRANCH   3   4
ATOM      4  N   UNL A   1      30.883  29.767  23.567  1.00  0.00    -0.356 N 
ATOM      5  C   UNL A   1      30.298  28.953  22.645  1.00  0.00     0.227 C 
ATOM      6  O   UNL A   1      30.041  29.452  21.543  1.00  0.00    -0.274 OA
ATOM      7  H   UNL A   1      31.010  30.695  23.263  1.00  0.00     0.163 HD
BRANCH   5   8
ATOM      8  C   UNL A   1      29.938  27.483  22.911  1.00  0.00     0.105 C 
ATOM      9  C   UNL A   1      28.624  27.293  23.669  1.00  0.00     0.023 C 
BRANCH   8  10
ATOM     10  C   UNL A   1      31.116  26.647  23.386  1.00  0.00    -0.033 A 
ATOM     11  C   UNL A   1      33.212  24.898  24.261  1.00  0.00     0.017 A 
ATOM     12  C   UNL A   1      33.326  25.668  23.090  1.00  0.00     0.012 A 
ATOM     13  C   UNL A   1      32.031  25.063  25.000  1.00  0.00     0.131 A 
ATOM     14  C   UNL A   1      32.316  26.549  22.679  1.00  0.00     0.005 A 
ATOM     15  C   UNL A   1      30.996  25.900  24.567  1.00  0.00     0.044 A 
ATOM     16  F   UNL A   1      31.855  24.415  26.163  1.00  0.00    -0.206 F 
BRANCH  11  17
ATOM     17  C   UNL A   1      34.282  23.945  24.647  1.00  0.00    -0.015 A 
ATOM     18  C   UNL A   1      37.779  23.972  26.209  1.00  0.00     0.044 C 
ATOM     19  C   UNL A   1      36.487  23.481  25.625  1.00  0.00    -0.050 A 
ATOM     20  C   UNL A   1      36.260  22.107  25.496  1.00  0.00     0.006 A 
ATOM     21  C   UNL A   1      35.497  24.383  25.207  1.00  0.00     0.012 A 
ATOM     22  C   UNL A   1      35.063  21.634  24.952  1.00  0.00    -0.050 A 
ATOM     23  C   UNL A   1      34.816  20.158  24.847  1.00  0.00     0.044 C 
ATOM     24  C   UNL A   1      34.100  22.555  24.516  1.00  0.00     0.012 A 
ENDBRANCH  11  17
ENDBRANCH   8  10
ENDBRANCH   5   8
ENDBRANCH   3   4
ENDBRANCH   2   3
ENDBRANCH   1   2
BRANCH   1  25
ATOM     25  C   UNL A   1      33.663  28.640  27.301  1.00  0.00     0.116 C 
BRANCH  25  26
ATOM     26  N   UNL A   1      33.673  30.043  27.694  1.00  0.00    -0.352 N 
ATOM     27  C   UNL A   1      34.711  30.762  28.249  1.00  0.00     0.251 C 
ATOM     28  H   UNL A   1      32.835  30.540  27.547  1.00  0.00     0.163 HD
ATOM     29  O   UNL A   1      34.551  31.926  28.591  1.00  0.00    -0.269 OA
BRANCH  27  30
ATOM     30  C   UNL A   1      36.007  30.084  28.468  1.00  0.00     0.039 A 
ATOM     31  C   UNL A   1      36.995  30.181  27.485  1.00  0.00     0.014 A 
ATOM     32  C   UNL A   1      36.269  29.437  29.678  1.00  0.00     0.014 A 
ATOM     33  C   UNL A   1      38.281  29.711  27.756  1.00  0.00     0.010 A 
ATOM     34  C   UNL A   1      37.566  29.029  29.970  1.00  0.00     0.010 A 
ATOM     35  C   UNL A   1      38.589  29.179  29.019  1.00  0.00    -0.014 A 
BRANCH  35  36
ATOM     36  C   UNL A   1      39.980  28.824  29.395  1.00  0.00     0.031 A 
ATOM     37  C   UNL A   1      40.662  27.649  28.755  1.00  0.00     0.074 A 
ATOM     38  C   UNL A   1      40.585  29.492  30.399  1.00  0.00     0.049 A 
ATOM     39  N   UNL A   1      41.827  27.125  29.028  1.00  0.00    -0.248 NA
ATOM     40  C   UNL A   1      39.926  26.954  27.686  1.00  0.00     0.031 C 
ATOM     41  C   UNL A   1      39.995  30.602  31.152  1.00  0.00     0.029 A 
ATOM     42  N   UNL A   1      41.818  29.320  30.975  1.00  0.00    -0.354 N 
ATOM     43  C   UNL A   1      41.952  26.022  28.194  1.00  0.00     0.074 A 
ATOM     44  C   UNL A   1      40.730  25.933  27.424  1.00  0.00     0.031 C 
ATOM     45  C   UNL A   1      40.869  31.017  32.083  1.00  0.00     0.029 A 
ATOM     46  C   UNL A   1      42.069  30.189  32.014  1.00  0.00     0.049 A 
ATOM     47  H   UNL A   1      42.463  28.639  30.676  1.00  0.00     0.167 HD
ATOM     48  C   UNL A   1      43.002  25.179  28.057  1.00  0.00     0.034 A 
ATOM     49  C   UNL A   1      43.144  30.306  32.819  1.00  0.00     0.034 A 
ATOM     50  C   UNL A   1      44.236  25.303  28.784  1.00  0.00     0.049 A 
ATOM     51  C   UNL A   1      44.319  29.393  32.607  1.00  0.00     0.074 A 
ATOM     52  C   UNL A   1      45.383  24.538  28.665  1.00  0.00     0.029 A 
ATOM     53  N   UNL A   1      44.489  26.258  29.755  1.00  0.00    -0.354 N 
ATOM     54  N   UNL A   1      44.469  28.437  31.723  1.00  0.00    -0.248 NA
ATOM     55  C   UNL A   1      45.487  29.592  33.478  1.00  0.00     0.031 C 
ATOM     56  C   UNL A   1      46.331  25.031  29.566  1.00  0.00     0.029 A 
ATOM     57  C   UNL A   1      45.777  26.109  30.240  1.00  0.00     0.049 A 
ATOM     58  H   UNL A   1      43.848  26.941  30.058  1.00  0.00     0.167 HD
ATOM     59  C   UNL A   1      45.755  27.943  31.907  1.00  0.00     0.074 A 
ATOM     60  C   UNL A   1      46.350  28.717  32.977  1.00  0.00     0.031 C 
ATOM     61  C   UNL A   1      46.379  26.928  31.260  1.00  0.00     0.034 A 
BRANCH  48  62
ATOM     62  C   UNL A   1      42.895  24.090  27.023  1.00  0.00     0.023 A 
ATOM     63  C   UNL A   1      43.517  24.273  25.771  1.00  0.00     0.012 A 
ATOM     64  C   UNL A   1      42.249  22.872  27.304  1.00  0.00     0.148 A 
ATOM     65  C   UNL A   1      43.478  23.269  24.806  1.00  0.00     0.002 A 
ATOM     66  C   UNL A   1      42.248  21.859  26.350  1.00  0.00     0.091 A 
ATOM     67  F   UNL A   1      41.643  22.727  28.491  1.00  0.00    -0.205 F 
ATOM     68  C   UNL A   1      42.854  22.059  25.100  1.00  0.00     0.022 A 
BRANCH  66  69
ATOM     69  S   UNL A   1      41.536  20.239  26.660  1.00  0.00     0.127 S 
ATOM     70  O   UNL A   1      41.866  19.531  25.423  1.00  0.00    -0.237 OA
ATOM     71  O   UNL A   1      42.284  19.792  27.836  1.00  0.00    -0.237 OA
ATOM     72  O   UNL A   1      40.117  20.465  26.894  1.00  0.00    -0.744 OA
ENDBRANCH  66  69
ENDBRANCH  48  62
BRANCH  49  73
ATOM     73  C   UNL A   1      43.189  31.400  33.829  1.00  0.00     0.023 A 
ATOM     74  C   UNL A   1      43.745  32.642  33.462  1.00  0.00     0.012 A 
ATOM     75  C   UNL A   1      42.632  31.251  35.114  1.00  0.00     0.148 A 
ATOM     76  C   UNL A   1      43.761  33.709  34.360  1.00  0.00     0.002 A 
ATOM     77  C   UNL A   1      42.605  32.333  35.986  1.00  0.00     0.091 A 
ATOM     78  F   UNL A   1      42.120  30.058  35.448  1.00  0.00    -0.205 F 
ATOM     79  C   UNL A   1      43.181  33.559  35.617  1.00  0.00     0.022 A 
BRANCH  77  80
ATOM     80  S   UNL A   1      41.757  32.273  37.570  1.00  0.00     0.127 S 
ATOM     81  O   UNL A   1      40.418  31.843  37.175  1.00  0.00    -0.237 OA
ATOM     82  O   UNL A   1      42.538  31.269  38.294  1.00  0.00    -0.237 OA
ATOM     83  O   UNL A   1      41.856  33.618  38.118  1.00  0.00    -0.744 OA
ENDBRANCH  77  80
ENDBRANCH  49  73
BRANCH  61  84
ATOM     84  C   UNL A   1      47.790  26.596  31.663  1.00  0.00     0.023 A 
ATOM     85  C   UNL A   1      48.016  25.679  32.708  1.00  0.00     0.012 A 
ATOM     86  C   UNL A   1      48.885  27.099  30.932  1.00  0.00     0.148 A 
ATOM     87  C   UNL A   1      49.312  25.280  33.030  1.00  0.00     0.002 A 
ATOM     88  C   UNL A   1      50.171  26.664  31.233  1.00  0.00     0.091 A 
ATOM     89  F   UNL A   1      48.650  27.988  29.956  1.00  0.00    -0.205 F 
ATOM     90  C   UNL A   1      50.386  25.760  32.285  1.00  0.00     0.022 A 
BRANCH  88  91
ATOM     91  S   UNL A   1      51.599  27.158  30.260  1.00  0.00     0.127 S 
ATOM     92  O   UNL A   1      51.216  26.715  28.921  1.00  0.00    -0.237 OA
ATOM     93  O   UNL A   1      51.617  28.610  30.441  1.00  0.00    -0.237 OA
ATOM     94  O   UNL A   1      52.738  26.467  30.850  1.00  0.00    -0.744 OA
ENDBRANCH  88  91
ENDBRANCH  61  84
ENDBRANCH  35  36
ENDBRANCH  27  30
ENDBRANCH  25  26
ENDBRANCH   1  25
TORSDOF 16
ENDMDL
MODEL 2
REMARK VINA RESULT:     -11.9      4.619     10.352
REMARK SMILES Cc1cc(C)cc(-c2ccc([C@@H](C)C(=O)NCCCCNC(=O)c3ccc(-c4c5nc(c(-c6cccc(S(=O)(=O)[O-])c6F)c6ccc([nH]6)c(-c6cccc(S(=O)(=O)[O-])c6F)c6nc(c(-c7cccc(S(=O)(=O)[O-])c7F)c7ccc4[nH]7)C=C6)C=C5)cc3)cc2F)c1
REMARK SMILES IDX 19 1 18 2 17 3 16 4 14 5 15 6 12 8 13 9 11 10 8 11 9 12
REMARK SMILES IDX 88 13 10 14 87 15 89 16 7 17 1 18 2 19 3 20 90 21 4 22 5 23
REMARK SMILES IDX 6 24 20 25 21 26 22 27 23 29 24 30 25 31 86 32 26 33 85 34
REMARK SMILES IDX 27 35 28 36 29 37 79 38 30 39 84 40 78 41 80 42 31 43 83 44
REMARK SMILES IDX 77 45 76 46 32 48 64 49 44 50 63 51 45 52 48 53 62 54 81 55
REMARK SMILES IDX 46 56 47 57 61 59 82 60 49 61 33 62 34 63 42 64 35 65 37 66
REMARK SMILES IDX 43 67 36 68 38 69 39 70 40 71 41 72 65 73 66 74 74 75 67 76
REMARK SMILES IDX 69 77 75 78 68 79 70 80 71 81 72 82 73 83 50 84 51 85 59 86
REMARK SMILES IDX 52 87 54 88 60 89 53 90 55 91 56 92 57 93 58 94
REMARK H PARENT 16 7 21 28 80 47 48 58
REMARK Flexibility Score: inf
ROOT
ATOM      1  C   UNL A   1      40.956  20.551  27.238  1.00  0.00     0.023 C 
ENDROOT
BRANCH   1   2
ATOM      2  C   UNL A   1      42.250  19.748  27.102  1.00  0.00     0.023 C 
BRANCH   2   3
ATOM      3  C   UNL A   1      42.844  19.712  25.694  1.00  0.00     0.116 C 
BRANCH   3   4
ATOM      4  N   UNL A   1      44.227  20.141  25.667  1.00  0.00    -0.356 N 
ATOM      5  C   UNL A   1      44.791  21.379  25.723  1.00  0.00     0.227 C 
ATOM      6  O   UNL A   1      46.024  21.435  25.636  1.00  0.00    -0.274 OA
ATOM      7  H   UNL A   1      44.877  19.404  25.596  1.00  0.00     0.163 HD
BRANCH   5   8
ATOM      8  C   UNL A   1      43.987  22.676  25.901  1.00  0.00     0.105 C 
ATOM      9  C   UNL A   1      44.134  23.661  24.742  1.00  0.00     0.023 C 
BRANCH   8  10
ATOM     10  C   UNL A   1      44.086  23.262  27.300  1.00  0.00    -0.033 A 
ATOM     11  C   UNL A   1      44.319  24.557  29.847  1.00  0.00     0.017 A 
ATOM     12  C   UNL A   1      43.109  23.990  29.409  1.00  0.00     0.012 A 
ATOM     13  C   UNL A   1      45.417  24.420  28.985  1.00  0.00     0.131 A 
ATOM     14  C   UNL A   1      43.002  23.327  28.179  1.00  0.00     0.005 A 
ATOM     15  C   UNL A   1      45.304  23.806  27.732  1.00  0.00     0.044 A 
ATOM     16  F   UNL A   1      46.628  24.877  29.341  1.00  0.00    -0.206 F 
BRANCH  11  17
ATOM     17  C   UNL A   1      44.389  25.287  31.137  1.00  0.00    -0.015 A 
ATOM     18  C   UNL A   1      45.650  24.760  34.716  1.00  0.00     0.044 C 
ATOM     19  C   UNL A   1      45.063  25.409  33.496  1.00  0.00    -0.050 A 
ATOM     20  C   UNL A   1      44.631  26.737  33.555  1.00  0.00     0.006 A 
ATOM     21  C   UNL A   1      44.945  24.701  32.290  1.00  0.00     0.012 A 
ATOM     22  C   UNL A   1      44.080  27.355  32.430  1.00  0.00    -0.050 A 
ATOM     23  C   UNL A   1      43.648  28.790  32.495  1.00  0.00     0.044 C 
ATOM     24  C   UNL A   1      43.947  26.620  31.243  1.00  0.00     0.012 A 
ENDBRANCH  11  17
ENDBRANCH   8  10
ENDBRANCH   5   8
ENDBRANCH   3   4
ENDBRANCH   2   3
ENDBRANCH   1   2
BRANCH   1  25
ATOM     25  C   UNL A   1      40.685  21.557  26.123  1.00  0.00     0.116 C 
BRANCH  25  26
ATOM     26  N   UNL A   1      39.273  21.844  25.908  1.00  0.00    -0.352 N 
ATOM     27  C   UNL A   1      38.594  23.013  26.175  1.00  0.00     0.251 C 
ATOM     28  H   UNL A   1      38.736  21.111  25.526  1.00  0.00     0.163 HD
ATOM     29  O   UNL A   1      37.384  23.087  26.003  1.00  0.00    -0.269 OA
BRANCH  27  30
ATOM     30  C   UNL A   1      39.347  24.163  26.722  1.00  0.00     0.039 A 
ATOM     31  C   UNL A   1      40.040  24.997  25.841  1.00  0.00     0.014 A 
ATOM     32  C   UNL A   1      39.290  24.461  28.086  1.00  0.00     0.014 A 
ATOM     33  C   UNL A   1      40.595  26.187  26.316  1.00  0.00     0.010 A 
ATOM     34  C   UNL A   1      39.786  25.676  28.543  1.00  0.00     0.010 A 
ATOM     35  C   UNL A   1      40.427  26.560  27.660  1.00  0.00    -0.014 A 
BRANCH  35  36
ATOM     36  C   UNL A   1      40.859  27.890  28.158  1.00  0.00     0.031 A 
ATOM     37  C   UNL A   1      42.319  28.238  28.218  1.00  0.00     0.074 A 
ATOM     38  C   UNL A   1      39.940  28.737  28.664  1.00  0.00     0.049 A 
ATOM     39  N   UNL A   1      42.891  29.302  28.717  1.00  0.00    -0.248 NA
ATOM     40  C   UNL A   1      43.262  27.250  27.670  1.00  0.00     0.031 C 
ATOM     41  C   UNL A   1      38.500  28.478  28.734  1.00  0.00     0.029 A 
ATOM     42  N   UNL A   1      40.082  29.975  29.239  1.00  0.00    -0.354 N 
ATOM     43  C   UNL A   1      44.257  29.099  28.577  1.00  0.00     0.074 A 
ATOM     44  C   UNL A   1      44.432  27.796  27.972  1.00  0.00     0.031 C 
ATOM     45  C   UNL A   1      37.891  29.529  29.308  1.00  0.00     0.029 A 
ATOM     46  C   UNL A   1      38.896  30.523  29.673  1.00  0.00     0.049 A 
ATOM     47  H   UNL A   1      40.951  30.429  29.333  1.00  0.00     0.167 HD
ATOM     48  C   UNL A   1      45.273  29.936  28.892  1.00  0.00     0.034 A 
ATOM     49  C   UNL A   1      38.645  31.693  30.293  1.00  0.00     0.034 A 
ATOM     50  C   UNL A   1      45.093  31.252  29.441  1.00  0.00     0.049 A 
ATOM     51  C   UNL A   1      39.787  32.628  30.580  1.00  0.00     0.074 A 
ATOM     52  C   UNL A   1      46.059  32.200  29.731  1.00  0.00     0.029 A 
ATOM     53  N   UNL A   1      43.870  31.811  29.773  1.00  0.00    -0.354 N 
ATOM     54  N   UNL A   1      41.063  32.472  30.321  1.00  0.00    -0.248 NA
ATOM     55  C   UNL A   1      39.456  33.912  31.214  1.00  0.00     0.031 C 
ATOM     56  C   UNL A   1      45.418  33.334  30.239  1.00  0.00     0.029 A 
ATOM     57  C   UNL A   1      44.052  33.094  30.257  1.00  0.00     0.049 A 
ATOM     58  H   UNL A   1      42.999  31.361  29.680  1.00  0.00     0.167 HD
ATOM     59  C   UNL A   1      41.682  33.648  30.728  1.00  0.00     0.074 A 
ATOM     60  C   UNL A   1      40.639  34.515  31.236  1.00  0.00     0.031 C 
ATOM     61  C   UNL A   1      42.999  33.971  30.699  1.00  0.00     0.034 A 
BRANCH  48  62
ATOM     62  C   UNL A   1      46.674  29.485  28.575  1.00  0.00     0.023 A 
ATOM     63  C   UNL A   1      47.258  29.876  27.353  1.00  0.00     0.012 A 
ATOM     64  C   UNL A   1      47.433  28.743  29.500  1.00  0.00     0.148 A 
ATOM     65  C   UNL A   1      48.569  29.516  27.045  1.00  0.00     0.002 A 
ATOM     66  C   UNL A   1      48.754  28.422  29.203  1.00  0.00     0.091 A 
ATOM     67  F   UNL A   1      46.852  28.361  30.646  1.00  0.00    -0.205 F 
ATOM     68  C   UNL A   1      49.319  28.800  27.974  1.00  0.00     0.022 A 
BRANCH  66  69
ATOM     69  S   UNL A   1      49.826  27.567  30.364  1.00  0.00     0.127 S 
ATOM     70  O   UNL A   1      49.206  26.242  30.415  1.00  0.00    -0.237 OA
ATOM     71  O   UNL A   1      51.118  27.608  29.680  1.00  0.00    -0.237 OA
ATOM     72  O   UNL A   1      49.768  28.333  31.600  1.00  0.00    -0.744 OA
ENDBRANCH  66  69
ENDBRANCH  48  62
BRANCH  49  73
ATOM     73  C   UNL A   1      37.237  32.081  30.587  1.00  0.00     0.023 A 
ATOM     74  C   UNL A   1      36.737  31.892  31.890  1.00  0.00     0.012 A 
ATOM     75  C   UNL A   1      36.417  32.694  29.619  1.00  0.00     0.148 A 
ATOM     76  C   UNL A   1      35.441  32.289  32.221  1.00  0.00     0.002 A 
ATOM     77  C   UNL A   1      35.145  33.134  29.969  1.00  0.00     0.091 A 
ATOM     78  F   UNL A   1      36.907  32.853  28.382  1.00  0.00    -0.205 F 
ATOM     79  C   UNL A   1      34.650  32.920  31.265  1.00  0.00     0.022 A 
BRANCH  77  80
ATOM     80  S   UNL A   1      34.110  34.079  28.844  1.00  0.00     0.127 S 
ATOM     81  O   UNL A   1      33.676  33.050  27.902  1.00  0.00    -0.237 OA
ATOM     82  O   UNL A   1      33.064  34.575  29.739  1.00  0.00    -0.237 OA
ATOM     83  O   UNL A   1      34.972  35.117  28.298  1.00  0.00    -0.744 OA
ENDBRANCH  77  80
ENDBRANCH  49  73
BRANCH  61  84
ATOM     84  C   UNL A   1      43.403  35.328  31.208  1.00  0.00     0.023 A 
ATOM     85  C   UNL A   1      43.659  36.365  30.289  1.00  0.00     0.012 A 
ATOM     86  C   UNL A   1      43.413  35.606  32.589  1.00  0.00     0.148 A 
ATOM     87  C   UNL A   1      43.935  37.655  30.739  1.00  0.00     0.002 A 
ATOM     88  C   UNL A   1      43.649  36.903  33.028  1.00  0.00     0.091 A 
ATOM     89  F   UNL A   1      43.189  34.600  33.447  1.00  0.00    -0.205 F 
ATOM     90  C   UNL A   1      43.916  37.927  32.105  1.00  0.00     0.022 A 
BRANCH  88  91
ATOM     91  S   UNL A   1      43.546  37.360  34.764  1.00  0.00     0.127 S 
ATOM     92  O   UNL A   1      44.628  36.568  35.345  1.00  0.00    -0.237 OA
ATOM     93  O   UNL A   1      43.796  38.801  34.725  1.00  0.00    -0.237 OA
ATOM     94  O   UNL A   1      42.201  36.996  35.189  1.00  0.00    -0.744 OA
ENDBRANCH  88  91
ENDBRANCH  61  84
ENDBRANCH  35  36
ENDBRANCH  27  30
ENDBRANCH  25  26
ENDBRANCH   1  25
TORSDOF 16
ENDMDL
MODEL 3
REMARK VINA RESULT:     -11.8      1.565      7.658
REMARK SMILES Cc1cc(C)cc(-c2ccc([C@@H](C)C(=O)NCCCCNC(=O)c3ccc(-c4c5nc(c(-c6cccc(S(=O)(=O)[O-])c6F)c6ccc([nH]6)c(-c6cccc(S(=O)(=O)[O-])c6F)c6nc(c(-c7cccc(S(=O)(=O)[O-])c7F)c7ccc4[nH]7)C=C6)C=C5)cc3)cc2F)c1
REMARK SMILES IDX 19 1 18 2 17 3 16 4 14 5 15 6 12 8 13 9 11 10 8 11 9 12
REMARK SMILES IDX 88 13 10 14 87 15 89 16 7 17 1 18 2 19 3 20 90 21 4 22 5 23
REMARK SMILES IDX 6 24 20 25 21 26 22 27 23 29 24 30 25 31 86 32 26 33 85 34
REMARK SMILES IDX 27 35 28 36 29 37 79 38 30 39 84 40 78 41 80 42 31 43 83 44
REMARK SMILES IDX 77 45 76 46 32 48 64 49 44 50 63 51 45 52 48 53 62 54 81 55
REMARK SMILES IDX 46 56 47 57 61 59 82 60 49 61 33 62 34 63 42 64 35 65 37 66
REMARK SMILES IDX 43 67 36 68 38 69 39 70 40 71 41 72 65 73 66 74 74 75 67 76
REMARK SMILES IDX 69 77 75 78 68 79 70 80 71 81 72 82 73 83 50 84 51 85 59 86
REMARK SMILES IDX 52 87 54 88 60 89 53 90 55 91 56 92 57 93 58 94
REMARK H PARENT 16 7 21 28 80 47 48 58
REMARK Flexibility Score: inf
ROOT
ATOM      1  C   UNL A   1      33.326  28.169  26.257  1.00  0.00     0.023 C 
ENDROOT
BRANCH   1   2
ATOM      2  C   UNL A   1      32.905  29.055  25.084  1.00  0.00     0.023 C 
BRANCH   2   3
ATOM      3  C   UNL A   1      31.406  29.342  24.995  1.00  0.00     0.116 C 
BRANCH   3   4
ATOM      4  N   UNL A   1      31.009  29.796  23.678  1.00  0.00    -0.356 N 
ATOM      5  C   UNL A   1      30.298  29.189  22.689  1.00  0.00     0.227 C 
ATOM      6  O   UNL A   1      30.149  29.824  21.638  1.00  0.00    -0.274 OA
ATOM      7  H   UNL A   1      31.306  30.710  23.460  1.00  0.00     0.163 HD
BRANCH   5   8
ATOM      8  C   UNL A   1      29.674  27.790  22.821  1.00  0.00     0.105 C 
ATOM      9  C   UNL A   1      28.346  27.773  23.578  1.00  0.00     0.023 C 
BRANCH   8  10
ATOM     10  C   UNL A   1      30.679  26.713  23.197  1.00  0.00    -0.033 A 
ATOM     11  C   UNL A   1      32.717  24.839  23.943  1.00  0.00     0.017 A 
ATOM     12  C   UNL A   1      31.520  24.966  24.671  1.00  0.00     0.012 A 
ATOM     13  C   UNL A   1      32.841  25.653  22.807  1.00  0.00     0.131 A 
ATOM     14  C   UNL A   1      30.508  25.857  24.287  1.00  0.00     0.005 A 
ATOM     15  C   UNL A   1      31.860  26.584  22.450  1.00  0.00     0.044 A 
ATOM     16  F   UNL A   1      33.922  25.562  22.016  1.00  0.00    -0.206 F 
BRANCH  11  17
ATOM     17  C   UNL A   1      33.784  23.914  24.398  1.00  0.00    -0.015 A 
ATOM     18  C   UNL A   1      37.257  24.042  26.006  1.00  0.00     0.044 C 
ATOM     19  C   UNL A   1      35.976  23.514  25.432  1.00  0.00    -0.050 A 
ATOM     20  C   UNL A   1      35.754  22.134  25.377  1.00  0.00     0.006 A 
ATOM     21  C   UNL A   1      34.989  24.387  24.949  1.00  0.00     0.012 A 
ATOM     22  C   UNL A   1      34.567  21.627  24.843  1.00  0.00    -0.050 A 
ATOM     23  C   UNL A   1      34.326  20.146  24.818  1.00  0.00     0.044 C 
ATOM     24  C   UNL A   1      33.607  22.517  24.342  1.00  0.00     0.012 A 
ENDBRANCH  11  17
ENDBRANCH   8  10
ENDBRANCH   5   8
ENDBRANCH   3   4
ENDBRANCH   2   3
ENDBRANCH   1   2
BRANCH   1  25
ATOM     25  C   UNL A   1      33.201  28.804  27.640  1.00  0.00     0.116 C 
BRANCH  25  26
ATOM     26  N   UNL A   1      33.412  30.246  27.655  1.00  0.00    -0.352 N 
ATOM     27  C   UNL A   1      34.572  30.931  27.950  1.00  0.00     0.251 C 
ATOM     28  H   UNL A   1      32.630  30.800  27.428  1.00  0.00     0.163 HD
ATOM     29  O   UNL A   1      34.582  32.154  27.987  1.00  0.00    -0.269 OA
BRANCH  27  30
ATOM     30  C   UNL A   1      35.791  30.157  28.271  1.00  0.00     0.039 A 
ATOM     31  C   UNL A   1      36.788  30.035  27.300  1.00  0.00     0.014 A 
ATOM     32  C   UNL A   1      35.980  29.637  29.553  1.00  0.00     0.014 A 
ATOM     33  C   UNL A   1      38.019  29.475  27.646  1.00  0.00     0.010 A 
ATOM     34  C   UNL A   1      37.228  29.140  29.914  1.00  0.00     0.010 A 
ATOM     35  C   UNL A   1      38.265  29.070  28.970  1.00  0.00    -0.014 A 
BRANCH  35  36
ATOM     36  C   UNL A   1      39.611  28.626  29.409  1.00  0.00     0.031 A 
ATOM     37  C   UNL A   1      40.342  29.375  30.486  1.00  0.00     0.074 A 
ATOM     38  C   UNL A   1      40.221  27.617  28.753  1.00  0.00     0.049 A 
ATOM     39  N   UNL A   1      41.560  29.202  30.926  1.00  0.00    -0.248 NA
ATOM     40  C   UNL A   1      39.619  30.480  31.136  1.00  0.00     0.031 C 
ATOM     41  C   UNL A   1      39.644  26.863  27.637  1.00  0.00     0.029 A 
ATOM     42  N   UNL A   1      41.469  27.069  28.913  1.00  0.00    -0.354 N 
ATOM     43  C   UNL A   1      41.765  30.194  31.876  1.00  0.00     0.074 A 
ATOM     44  C   UNL A   1      40.554  30.985  31.929  1.00  0.00     0.031 C 
ATOM     45  C   UNL A   1      40.532  25.946  27.220  1.00  0.00     0.029 A 
ATOM     46  C   UNL A   1      41.749  26.062  28.017  1.00  0.00     0.049 A 
ATOM     47  H   UNL A   1      42.105  27.368  29.602  1.00  0.00     0.167 HD
ATOM     48  C   UNL A   1      42.849  30.407  32.658  1.00  0.00     0.034 A 
ATOM     49  C   UNL A   1      42.860  25.315  27.856  1.00  0.00     0.034 A 
ATOM     50  C   UNL A   1      44.028  29.585  32.642  1.00  0.00     0.049 A 
ATOM     51  C   UNL A   1      44.028  25.535  28.776  1.00  0.00     0.074 A 
ATOM     52  C   UNL A   1      45.151  29.680  33.444  1.00  0.00     0.029 A 
ATOM     53  N   UNL A   1      44.233  28.511  31.790  1.00  0.00    -0.354 N 
ATOM     54  N   UNL A   1      44.152  26.396  29.757  1.00  0.00    -0.248 NA
ATOM     55  C   UNL A   1      45.197  24.663  28.592  1.00  0.00     0.031 C 
ATOM     56  C   UNL A   1      46.037  28.663  33.077  1.00  0.00     0.029 A 
ATOM     57  C   UNL A   1      45.461  27.929  32.052  1.00  0.00     0.049 A 
ATOM     58  H   UNL A   1      43.600  28.208  31.100  1.00  0.00     0.167 HD
ATOM     59  C   UNL A   1      45.395  26.149  30.328  1.00  0.00     0.074 A 
ATOM     60  C   UNL A   1      45.980  25.045  29.594  1.00  0.00     0.031 C 
ATOM     61  C   UNL A   1      46.003  26.790  31.356  1.00  0.00     0.034 A 
BRANCH  48  62
ATOM     62  C   UNL A   1      42.780  31.530  33.658  1.00  0.00     0.023 A 
ATOM     63  C   UNL A   1      43.238  32.809  33.283  1.00  0.00     0.012 A 
ATOM     64  C   UNL A   1      42.205  31.345  34.930  1.00  0.00     0.148 A 
ATOM     65  C   UNL A   1      43.147  33.883  34.167  1.00  0.00     0.002 A 
ATOM     66  C   UNL A   1      42.082  32.430  35.791  1.00  0.00     0.091 A 
ATOM     67  F   UNL A   1      41.798  30.116  35.276  1.00  0.00    -0.205 F 
ATOM     68  C   UNL A   1      42.560  33.695  35.415  1.00  0.00     0.022 A 
BRANCH  66  69
ATOM     69  S   UNL A   1      41.273  32.308  37.391  1.00  0.00     0.127 S 
ATOM     70  O   UNL A   1      39.984  31.720  37.025  1.00  0.00    -0.237 OA
ATOM     71  O   UNL A   1      42.166  31.408  38.121  1.00  0.00    -0.237 OA
ATOM     72  O   UNL A   1      41.217  33.665  37.915  1.00  0.00    -0.744 OA
ENDBRANCH  66  69
ENDBRANCH  48  62
BRANCH  49  73
ATOM     73  C   UNL A   1      42.869  24.221  26.844  1.00  0.00     0.023 A 
ATOM     74  C   UNL A   1      43.607  24.400  25.657  1.00  0.00     0.012 A 
ATOM     75  C   UNL A   1      42.220  22.992  27.070  1.00  0.00     0.148 A 
ATOM     76  C   UNL A   1      43.685  23.382  24.706  1.00  0.00     0.002 A 
ATOM     77  C   UNL A   1      42.343  21.964  26.143  1.00  0.00     0.091 A 
ATOM     78  F   UNL A   1      41.512  22.848  28.200  1.00  0.00    -0.205 F 
ATOM     79  C   UNL A   1      43.064  22.160  24.954  1.00  0.00     0.022 A 
BRANCH  77  80
ATOM     80  S   UNL A   1      41.694  20.315  26.442  1.00  0.00     0.127 S 
ATOM     81  O   UNL A   1      42.350  19.541  25.391  1.00  0.00    -0.237 OA
ATOM     82  O   UNL A   1      42.172  20.042  27.798  1.00  0.00    -0.237 OA
ATOM     83  O   UNL A   1      40.247  20.438  26.331  1.00  0.00    -0.744 OA
ENDBRANCH  77  80
ENDBRANCH  49  73
BRANCH  61  84
ATOM     84  C   UNL A   1      47.366  26.313  31.779  1.00  0.00     0.023 A 
ATOM     85  C   UNL A   1      48.512  26.864  31.174  1.00  0.00     0.012 A 
ATOM     86  C   UNL A   1      47.512  25.410  32.851  1.00  0.00     0.148 A 
ATOM     87  C   UNL A   1      49.785  26.512  31.620  1.00  0.00     0.002 A 
ATOM     88  C   UNL A   1      48.784  25.096  33.316  1.00  0.00     0.091 A 
ATOM     89  F   UNL A   1      46.409  24.880  33.397  1.00  0.00    -0.205 F 
ATOM     90  C   UNL A   1      49.921  25.640  32.698  1.00  0.00     0.022 A 
BRANCH  88  91
ATOM     91  S   UNL A   1      49.044  24.059  34.761  1.00  0.00     0.127 S 
ATOM     92  O   UNL A   1      48.245  22.881  34.431  1.00  0.00    -0.237 OA
ATOM     93  O   UNL A   1      50.491  23.842  34.736  1.00  0.00    -0.237 OA
ATOM     94  O   UNL A   1      48.575  24.840  35.898  1.00  0.00    -0.744 OA
ENDBRANCH  88  91
ENDBRANCH  61  84
ENDBRANCH  35  36
ENDBRANCH  27  30
ENDBRANCH  25  26
ENDBRANCH   1  25
TORSDOF 16
ENDMDL
