MODEL 1
REMARK VINA RESULT:     -11.5      0.000      0.000
REMARK SMILES O=C(COc1ccc2c(c1)CCC2)N[C@@H](CO)C(=O)NCCCCNC(=O)c1ccc(-c2c3nc(c(-c4cccc(S(=O)(=O)[O-])c4F)c4ccc([nH]4)c(-c4cccc(S(=O)(=O)[O-])c4F)c4nc(c(-c5cccc(S(=O)(=O)[O-])c5F)c5ccc2[nH]5)C=C4)C=C3)cc1
REMARK SMILES IDX 22 1 21 2 20 3 18 4 19 5 15 7 14 8 1 9 2 10 3 12 4 13 5 14
REMARK SMILES IDX 6 15 10 16 7 17 9 18 8 19 11 20 13 21 12 22 16 23 17 24
REMARK SMILES IDX 23 26 24 27 25 28 26 29 27 31 28 32 29 33 90 34 30 35 89 36
REMARK SMILES IDX 31 37 32 38 33 39 83 40 34 41 88 42 82 43 84 44 35 45 87 46
REMARK SMILES IDX 81 47 80 48 36 50 68 51 48 52 67 53 49 54 52 55 66 56 85 57
REMARK SMILES IDX 50 58 51 59 65 61 86 62 53 63 37 64 38 65 46 66 39 67 41 68
REMARK SMILES IDX 47 69 40 70 42 71 43 72 44 73 45 74 69 75 70 76 78 77 71 78
REMARK SMILES IDX 73 79 79 80 72 81 74 82 75 83 76 84 77 85 54 86 55 87 63 88
REMARK SMILES IDX 56 89 58 90 64 91 57 92 59 93 60 94 61 95 62 96
REMARK H PARENT 20 6 14 11 17 25 25 30 84 49 52 60
REMARK Flexibility Score: inf
ROOT
ATOM      1  C   UNL A   1      31.540  27.502  27.153  1.00  0.00     0.023 C 
ENDROOT
BRANCH   1   2
ATOM      2  C   UNL A   1      31.549  27.089  25.685  1.00  0.00     0.116 C 
BRANCH   2   3
ATOM      3  N   UNL A   1      30.219  27.053  25.103  1.00  0.00    -0.354 N 
ATOM      4  C   UNL A   1      29.795  27.407  23.855  1.00  0.00     0.244 C 
ATOM      5  O   UNL A   1      28.685  27.007  23.490  1.00  0.00    -0.273 OA
ATOM      6  H   UNL A   1      29.513  26.720  25.702  1.00  0.00     0.163 HD
BRANCH   4   7
ATOM      7  C   UNL A   1      30.678  28.217  22.891  1.00  0.00     0.197 C 
BRANCH   7   8
ATOM      8  N   UNL A   1      31.462  27.335  22.028  1.00  0.00    -0.339 N 
ATOM      9  O   UNL A   1      33.501  27.803  22.955  1.00  0.00    -0.271 OA
ATOM     10  C   UNL A   1      32.791  27.077  22.266  1.00  0.00     0.258 C 
ATOM     11  H   UNL A   1      31.025  26.914  21.253  1.00  0.00     0.164 HD
BRANCH  10  12
ATOM     12  C   UNL A   1      33.305  25.793  21.604  1.00  0.00     0.329 C 
BRANCH  12  13
ATOM     13  O   UNL A   1      32.518  24.629  21.858  1.00  0.00    -0.484 OA
BRANCH  13  14
ATOM     14  C   UNL A   1      33.144  23.672  22.618  1.00  0.00     0.120 A 
ATOM     15  C   UNL A   1      34.385  23.881  23.243  1.00  0.00     0.047 A 
ATOM     16  C   UNL A   1      32.429  22.493  22.847  1.00  0.00     0.050 A 
ATOM     17  C   UNL A   1      34.926  22.918  24.099  1.00  0.00     0.008 A 
ATOM     18  C   UNL A   1      32.979  21.540  23.690  1.00  0.00    -0.041 A 
ATOM     19  C   UNL A   1      34.210  21.756  24.318  1.00  0.00    -0.045 A 
ATOM     20  C   UNL A   1      32.435  20.194  24.055  1.00  0.00     0.036 C 
ATOM     21  C   UNL A   1      34.588  20.595  25.183  1.00  0.00     0.036 C 
ATOM     22  C   UNL A   1      33.239  19.877  25.324  1.00  0.00     0.010 C 
ENDBRANCH  13  14
ENDBRANCH  12  13
ENDBRANCH  10  12
ENDBRANCH   7   8
BRANCH   7  23
ATOM     23  C   UNL A   1      29.897  29.323  22.173  1.00  0.00     0.191 C 
BRANCH  23  24
ATOM     24  O   UNL A   1      30.696  30.092  21.274  1.00  0.00    -0.394 OA
ATOM     25  H   UNL A   1      31.478  29.579  21.016  1.00  0.00     0.210 HD
ENDBRANCH  23  24
ENDBRANCH   7  23
ENDBRANCH   4   7
ENDBRANCH   2   3
ENDBRANCH   1   2
BRANCH   1  26
ATOM     26  C   UNL A   1      31.869  28.969  27.418  1.00  0.00     0.023 C 
BRANCH  26  27
ATOM     27  C   UNL A   1      33.301  29.388  27.105  1.00  0.00     0.116 C 
BRANCH  27  28
ATOM     28  N   UNL A   1      33.554  30.806  27.334  1.00  0.00    -0.352 N 
ATOM     29  C   UNL A   1      34.667  31.394  27.892  1.00  0.00     0.251 C 
ATOM     30  H   UNL A   1      32.839  31.420  27.055  1.00  0.00     0.163 HD
ATOM     31  O   UNL A   1      34.695  32.601  28.110  1.00  0.00    -0.269 OA
BRANCH  29  32
ATOM     32  C   UNL A   1      35.813  30.540  28.260  1.00  0.00     0.039 A 
ATOM     33  C   UNL A   1      36.901  30.445  27.388  1.00  0.00     0.014 A 
ATOM     34  C   UNL A   1      35.844  29.913  29.508  1.00  0.00     0.014 A 
ATOM     35  C   UNL A   1      38.063  29.796  27.808  1.00  0.00     0.010 A 
ATOM     36  C   UNL A   1      37.025  29.330  29.950  1.00  0.00     0.010 A 
ATOM     37  C   UNL A   1      38.150  29.277  29.110  1.00  0.00    -0.014 A 
BRANCH  37  38
ATOM     38  C   UNL A   1      39.411  28.706  29.649  1.00  0.00     0.031 A 
ATOM     39  C   UNL A   1      40.133  29.408  30.763  1.00  0.00     0.074 A 
ATOM     40  C   UNL A   1      39.980  27.650  29.034  1.00  0.00     0.049 A 
ATOM     41  N   UNL A   1      41.320  29.172  31.256  1.00  0.00    -0.248 NA
ATOM     42  C   UNL A   1      39.443  30.554  31.377  1.00  0.00     0.031 C 
ATOM     43  C   UNL A   1      39.421  26.938  27.883  1.00  0.00     0.029 A 
ATOM     44  N   UNL A   1      41.179  27.021  29.263  1.00  0.00    -0.354 N 
ATOM     45  C   UNL A   1      41.542  30.167  32.199  1.00  0.00     0.074 A 
ATOM     46  C   UNL A   1      40.377  31.026  32.190  1.00  0.00     0.031 C 
ATOM     47  C   UNL A   1      40.283  25.985  27.495  1.00  0.00     0.029 A 
ATOM     48  C   UNL A   1      41.466  26.036  28.347  1.00  0.00     0.049 A 
ATOM     49  H   UNL A   1      41.777  27.254  30.010  1.00  0.00     0.167 HD
ATOM     50  C   UNL A   1      42.604  30.334  33.022  1.00  0.00     0.034 A 
ATOM     51  C   UNL A   1      42.565  25.269  28.199  1.00  0.00     0.034 A 
ATOM     52  C   UNL A   1      43.733  29.446  33.069  1.00  0.00     0.049 A 
ATOM     53  C   UNL A   1      43.701  25.423  29.173  1.00  0.00     0.074 A 
ATOM     54  C   UNL A   1      44.814  29.471  33.931  1.00  0.00     0.029 A 
ATOM     55  N   UNL A   1      43.925  28.369  32.218  1.00  0.00    -0.354 N 
ATOM     56  N   UNL A   1      43.823  26.269  30.167  1.00  0.00    -0.248 NA
ATOM     57  C   UNL A   1      44.831  24.493  29.033  1.00  0.00     0.031 C 
ATOM     58  C   UNL A   1      45.663  28.409  33.598  1.00  0.00     0.029 A 
ATOM     59  C   UNL A   1      45.106  27.718  32.534  1.00  0.00     0.049 A 
ATOM     60  H   UNL A   1      43.312  28.105  31.493  1.00  0.00     0.167 HD
ATOM     61  C   UNL A   1      45.026  25.957  30.789  1.00  0.00     0.074 A 
ATOM     62  C   UNL A   1      45.587  24.831  30.071  1.00  0.00     0.031 C 
ATOM     63  C   UNL A   1      45.620  26.560  31.849  1.00  0.00     0.034 A 
BRANCH  50  64
ATOM     64  C   UNL A   1      42.556  31.493  33.983  1.00  0.00     0.023 A 
ATOM     65  C   UNL A   1      43.173  32.710  33.627  1.00  0.00     0.012 A 
ATOM     66  C   UNL A   1      41.890  31.393  35.218  1.00  0.00     0.148 A 
ATOM     67  C   UNL A   1      43.168  33.795  34.504  1.00  0.00     0.002 A 
ATOM     68  C   UNL A   1      41.851  32.493  36.070  1.00  0.00     0.091 A 
ATOM     69  F   UNL A   1      41.331  30.222  35.556  1.00  0.00    -0.205 F 
ATOM     70  C   UNL A   1      42.500  33.688  35.720  1.00  0.00     0.022 A 
BRANCH  68  71
ATOM     71  S   UNL A   1      40.947  32.467  37.622  1.00  0.00     0.127 S 
ATOM     72  O   UNL A   1      41.865  31.727  38.487  1.00  0.00    -0.237 OA
ATOM     73  O   UNL A   1      40.826  33.891  37.940  1.00  0.00    -0.237 OA
ATOM     74  O   UNL A   1      39.682  31.808  37.326  1.00  0.00    -0.744 OA
ENDBRANCH  68  71
ENDBRANCH  50  64
BRANCH  51  75
ATOM     75  C   UNL A   1      42.600  24.239  27.123  1.00  0.00     0.023 A 
ATOM     76  C   UNL A   1      43.317  24.505  25.941  1.00  0.00     0.012 A 
ATOM     77  C   UNL A   1      41.994  22.978  27.291  1.00  0.00     0.148 A 
ATOM     78  C   UNL A   1      43.413  23.543  24.935  1.00  0.00     0.002 A 
ATOM     79  C   UNL A   1      42.137  22.006  26.307  1.00  0.00     0.091 A 
ATOM     80  F   UNL A   1      41.310  22.748  28.420  1.00  0.00    -0.205 F 
ATOM     81  C   UNL A   1      42.834  22.291  25.123  1.00  0.00     0.022 A 
BRANCH  79  82
ATOM     82  S   UNL A   1      41.544  20.323  26.519  1.00  0.00     0.127 S 
ATOM     83  O   UNL A   1      42.118  19.964  27.813  1.00  0.00    -0.237 OA
ATOM     84  O   UNL A   1      40.093  20.512  26.520  1.00  0.00    -0.237 OA
ATOM     85  O   UNL A   1      42.050  19.579  25.374  1.00  0.00    -0.744 OA
ENDBRANCH  79  82
ENDBRANCH  51  75
BRANCH  63  86
ATOM     86  C   UNL A   1      46.935  26.003  32.326  1.00  0.00     0.023 A 
ATOM     87  C   UNL A   1      48.140  26.535  31.827  1.00  0.00     0.012 A 
ATOM     88  C   UNL A   1      46.976  25.018  33.333  1.00  0.00     0.148 A 
ATOM     89  C   UNL A   1      49.367  26.082  32.309  1.00  0.00     0.002 A 
ATOM     90  C   UNL A   1      48.203  24.602  33.838  1.00  0.00     0.091 A 
ATOM     91  F   UNL A   1      45.819  24.508  33.779  1.00  0.00    -0.205 F 
ATOM     92  C   UNL A   1      49.399  25.128  33.322  1.00  0.00     0.022 A 
BRANCH  90  93
ATOM     93  S   UNL A   1      48.333  23.443  35.206  1.00  0.00     0.127 S 
ATOM     94  O   UNL A   1      49.767  23.166  35.226  1.00  0.00    -0.237 OA
ATOM     95  O   UNL A   1      47.848  24.236  36.337  1.00  0.00    -0.237 OA
ATOM     96  O   UNL A   1      47.479  22.316  34.853  1.00  0.00    -0.744 OA
ENDBRANCH  90  93
ENDBRANCH  63  86
ENDBRANCH  37  38
ENDBRANCH  29  32
ENDBRANCH  27  28
ENDBRANCH  26  27
ENDBRANCH   1  26
TORSDOF 20
ENDMDL
MODEL 2
REMARK VINA RESULT:     -11.4      5.097      7.423
REMARK SMILES O=C(COc1ccc2c(c1)CCC2)N[C@@H](CO)C(=O)NCCCCNC(=O)c1ccc(-c2c3nc(c(-c4cccc(S(=O)(=O)[O-])c4F)c4ccc([nH]4)c(-c4cccc(S(=O)(=O)[O-])c4F)c4nc(c(-c5cccc(S(=O)(=O)[O-])c5F)c5ccc2[nH]5)C=C4)C=C3)cc1
REMARK SMILES IDX 22 1 21 2 20 3 18 4 19 5 15 7 14 8 1 9 2 10 3 12 4 13 5 14
REMARK SMILES IDX 6 15 10 16 7 17 9 18 8 19 11 20 13 21 12 22 16 23 17 24
REMARK SMILES IDX 23 26 24 27 25 28 26 29 27 31 28 32 29 33 90 34 30 35 89 36
REMARK SMILES IDX 31 37 32 38 33 39 83 40 34 41 88 42 82 43 84 44 35 45 87 46
REMARK SMILES IDX 81 47 80 48 36 50 68 51 48 52 67 53 49 54 52 55 66 56 85 57
REMARK SMILES IDX 50 58 51 59 65 61 86 62 53 63 37 64 38 65 46 66 39 67 41 68
REMARK SMILES IDX 47 69 40 70 42 71 43 72 44 73 45 74 69 75 70 76 78 77 71 78
REMARK SMILES IDX 73 79 79 80 72 81 74 82 75 83 76 84 77 85 54 86 55 87 63 88
REMARK SMILES IDX 56 89 58 90 64 91 57 92 59 93 60 94 61 95 62 96
REMARK H PARENT 20 6 14 11 17 25 25 30 84 49 52 60
REMARK Flexibility Score: inf
ROOT
ATOM      1  C   UNL A   1      35.202  23.590  26.023  1.00  0.00     0.023 C 
ENDROOT
BRANCH   1   2
ATOM      2  C   UNL A   1      34.876  24.835  25.205  1.00  0.00     0.116 C 
BRANCH   2   3
ATOM      3  N   UNL A   1      34.314  25.906  26.008  1.00  0.00    -0.354 N 
ATOM      4  C   UNL A   1      33.621  27.019  25.630  1.00  0.00     0.244 C 
ATOM      5  O   UNL A   1      32.985  27.623  26.500  1.00  0.00    -0.273 OA
ATOM      6  H   UNL A   1      34.456  25.815  26.978  1.00  0.00     0.163 HD
BRANCH   4   7
ATOM      7  C   UNL A   1      33.560  27.486  24.167  1.00  0.00     0.197 C 
BRANCH   7   8
ATOM      8  N   UNL A   1      32.536  26.754  23.423  1.00  0.00    -0.339 N 
ATOM      9  O   UNL A   1      33.824  26.292  21.588  1.00  0.00    -0.271 OA
ATOM     10  C   UNL A   1      32.827  26.067  22.268  1.00  0.00     0.258 C 
ATOM     11  H   UNL A   1      31.610  26.754  23.758  1.00  0.00     0.164 HD
BRANCH  10  12
ATOM     12  C   UNL A   1      31.803  24.983  21.913  1.00  0.00     0.329 C 
BRANCH  12  13
ATOM     13  O   UNL A   1      30.958  24.577  22.989  1.00  0.00    -0.484 OA
BRANCH  13  14
ATOM     14  C   UNL A   1      31.416  23.493  23.697  1.00  0.00     0.120 A 
ATOM     15  C   UNL A   1      31.370  23.419  25.100  1.00  0.00     0.047 A 
ATOM     16  C   UNL A   1      31.836  22.391  22.948  1.00  0.00     0.050 A 
ATOM     17  C   UNL A   1      31.743  22.250  25.768  1.00  0.00     0.008 A 
ATOM     18  C   UNL A   1      32.212  21.239  23.620  1.00  0.00    -0.041 A 
ATOM     19  C   UNL A   1      32.156  21.166  25.015  1.00  0.00    -0.045 A 
ATOM     20  C   UNL A   1      32.734  19.956  23.050  1.00  0.00     0.036 C 
ATOM     21  C   UNL A   1      32.601  19.825  25.507  1.00  0.00     0.036 C 
ATOM     22  C   UNL A   1      32.505  18.990  24.222  1.00  0.00     0.010 C 
ENDBRANCH  13  14
ENDBRANCH  12  13
ENDBRANCH  10  12
ENDBRANCH   7   8
BRANCH   7  23
ATOM     23  C   UNL A   1      33.505  29.013  24.042  1.00  0.00     0.191 C 
BRANCH  23  24
ATOM     24  O   UNL A   1      32.262  29.574  24.462  1.00  0.00    -0.394 OA
ATOM     25  H   UNL A   1      31.549  28.937  24.303  1.00  0.00     0.210 HD
ENDBRANCH  23  24
ENDBRANCH   7  23
ENDBRANCH   4   7
ENDBRANCH   2   3
ENDBRANCH   1   2
BRANCH   1  26
ATOM     26  C   UNL A   1      35.576  22.355  25.206  1.00  0.00     0.023 C 
BRANCH  26  27
ATOM     27  C   UNL A   1      36.991  22.348  24.640  1.00  0.00     0.116 C 
BRANCH  27  28
ATOM     28  N   UNL A   1      37.740  21.138  24.962  1.00  0.00    -0.352 N 
ATOM     29  C   UNL A   1      38.867  21.015  25.742  1.00  0.00     0.251 C 
ATOM     30  H   UNL A   1      37.395  20.303  24.573  1.00  0.00     0.163 HD
ATOM     31  O   UNL A   1      39.445  19.938  25.844  1.00  0.00    -0.269 OA
BRANCH  29  32
ATOM     32  C   UNL A   1      39.394  22.214  26.424  1.00  0.00     0.039 A 
ATOM     33  C   UNL A   1      40.415  22.068  27.367  1.00  0.00     0.014 A 
ATOM     34  C   UNL A   1      38.939  23.482  26.057  1.00  0.00     0.014 A 
ATOM     35  C   UNL A   1      41.046  23.205  27.876  1.00  0.00     0.010 A 
ATOM     36  C   UNL A   1      39.615  24.607  26.510  1.00  0.00     0.010 A 
ATOM     37  C   UNL A   1      40.684  24.480  27.413  1.00  0.00    -0.014 A 
BRANCH  37  38
ATOM     38  C   UNL A   1      41.422  25.704  27.817  1.00  0.00     0.031 A 
ATOM     39  C   UNL A   1      40.707  26.797  28.560  1.00  0.00     0.074 A 
ATOM     40  C   UNL A   1      42.684  25.895  27.383  1.00  0.00     0.049 A 
ATOM     41  N   UNL A   1      41.119  28.002  28.853  1.00  0.00    -0.248 NA
ATOM     42  C   UNL A   1      39.331  26.507  28.995  1.00  0.00     0.031 C 
ATOM     43  C   UNL A   1      43.454  24.947  26.576  1.00  0.00     0.029 A 
ATOM     44  N   UNL A   1      43.523  26.973  27.519  1.00  0.00    -0.354 N 
ATOM     45  C   UNL A   1      40.039  28.632  29.459  1.00  0.00     0.074 A 
ATOM     46  C   UNL A   1      38.946  27.684  29.467  1.00  0.00     0.031 C 
ATOM     47  C   UNL A   1      44.643  25.491  26.273  1.00  0.00     0.029 A 
ATOM     48  C   UNL A   1      44.710  26.836  26.838  1.00  0.00     0.049 A 
ATOM     49  H   UNL A   1      43.297  27.769  28.054  1.00  0.00     0.167 HD
ATOM     50  C   UNL A   1      39.972  29.876  29.990  1.00  0.00     0.034 A 
ATOM     51  C   UNL A   1      45.731  27.700  26.670  1.00  0.00     0.034 A 
ATOM     52  C   UNL A   1      41.077  30.793  30.032  1.00  0.00     0.049 A 
ATOM     53  C   UNL A   1      45.664  29.047  27.333  1.00  0.00     0.074 A 
ATOM     54  C   UNL A   1      41.143  32.038  30.631  1.00  0.00     0.029 A 
ATOM     55  N   UNL A   1      42.316  30.564  29.452  1.00  0.00    -0.354 N 
ATOM     56  N   UNL A   1      44.692  29.568  28.044  1.00  0.00    -0.248 NA
ATOM     57  C   UNL A   1      46.846  29.913  27.208  1.00  0.00     0.031 C 
ATOM     58  C   UNL A   1      42.421  32.564  30.411  1.00  0.00     0.029 A 
ATOM     59  C   UNL A   1      43.154  31.642  29.681  1.00  0.00     0.049 A 
ATOM     60  H   UNL A   1      42.563  29.753  28.950  1.00  0.00     0.167 HD
ATOM     61  C   UNL A   1      45.154  30.806  28.475  1.00  0.00     0.074 A 
ATOM     62  C   UNL A   1      46.501  30.950  27.961  1.00  0.00     0.031 C 
ATOM     63  C   UNL A   1      44.514  31.744  29.215  1.00  0.00     0.034 A 
BRANCH  50  64
ATOM     64  C   UNL A   1      38.669  30.284  30.626  1.00  0.00     0.023 A 
ATOM     65  C   UNL A   1      38.412  29.921  31.964  1.00  0.00     0.012 A 
ATOM     66  C   UNL A   1      37.714  31.038  29.920  1.00  0.00     0.148 A 
ATOM     67  C   UNL A   1      37.206  30.261  32.575  1.00  0.00     0.002 A 
ATOM     68  C   UNL A   1      36.530  31.412  30.550  1.00  0.00     0.091 A 
ATOM     69  F   UNL A   1      37.959  31.353  28.640  1.00  0.00    -0.205 F 
ATOM     70  C   UNL A   1      36.270  31.013  31.871  1.00  0.00     0.022 A 
BRANCH  68  71
ATOM     71  S   UNL A   1      35.305  32.446  29.741  1.00  0.00     0.127 S 
ATOM     72  O   UNL A   1      34.824  31.562  28.681  1.00  0.00    -0.237 OA
ATOM     73  O   UNL A   1      34.339  32.689  30.815  1.00  0.00    -0.237 OA
ATOM     74  O   UNL A   1      36.025  33.633  29.302  1.00  0.00    -0.744 OA
ENDBRANCH  68  71
ENDBRANCH  50  64
BRANCH  51  75
ATOM     75  C   UNL A   1      46.931  27.275  25.896  1.00  0.00     0.023 A 
ATOM     76  C   UNL A   1      47.831  26.358  26.473  1.00  0.00     0.012 A 
ATOM     77  C   UNL A   1      47.148  27.713  24.575  1.00  0.00     0.148 A 
ATOM     78  C   UNL A   1      48.937  25.901  25.757  1.00  0.00     0.002 A 
ATOM     79  C   UNL A   1      48.224  27.213  23.848  1.00  0.00     0.091 A 
ATOM     80  F   UNL A   1      46.284  28.592  24.048  1.00  0.00    -0.205 F 
ATOM     81  C   UNL A   1      49.127  26.318  24.442  1.00  0.00     0.022 A 
BRANCH  79  82
ATOM     82  S   UNL A   1      48.471  27.587  22.108  1.00  0.00     0.127 S 
ATOM     83  O   UNL A   1      48.704  26.259  21.546  1.00  0.00    -0.237 OA
ATOM     84  O   UNL A   1      47.189  28.192  21.745  1.00  0.00    -0.237 OA
ATOM     85  O   UNL A   1      49.601  28.504  22.058  1.00  0.00    -0.744 OA
ENDBRANCH  79  82
ENDBRANCH  51  75
BRANCH  63  86
ATOM     86  C   UNL A   1      45.264  33.007  29.548  1.00  0.00     0.023 A 
ATOM     87  C   UNL A   1      46.077  33.052  30.697  1.00  0.00     0.012 A 
ATOM     88  C   UNL A   1      45.235  34.112  28.675  1.00  0.00     0.148 A 
ATOM     89  C   UNL A   1      46.835  34.186  30.984  1.00  0.00     0.002 A 
ATOM     90  C   UNL A   1      46.025  35.223  28.946  1.00  0.00     0.091 A 
ATOM     91  F   UNL A   1      44.437  34.058  27.599  1.00  0.00    -0.205 F 
ATOM     92  C   UNL A   1      46.820  35.265  30.103  1.00  0.00     0.022 A 
BRANCH  90  93
ATOM     93  S   UNL A   1      46.135  36.619  27.818  1.00  0.00     0.127 S 
ATOM     94  O   UNL A   1      46.502  35.962  26.566  1.00  0.00    -0.237 OA
ATOM     95  O   UNL A   1      44.774  37.156  27.851  1.00  0.00    -0.237 OA
ATOM     96  O   UNL A   1      47.144  37.506  28.382  1.00  0.00    -0.744 OA
ENDBRANCH  90  93
ENDBRANCH  63  86
ENDBRANCH  37  38
ENDBRANCH  29  32
ENDBRANCH  27  28
ENDBRANCH  26  27
ENDBRANCH   1  26
TORSDOF 20
ENDMDL
MODEL 3
REMARK VINA RESULT:     -11.2      4.635      9.383
REMARK SMILES O=C(COc1ccc2c(c1)CCC2)N[C@@H](CO)C(=O)NCCCCNC(=O)c1ccc(-c2c3nc(c(-c4cccc(S(=O)(=O)[O-])c4F)c4ccc([nH]4)c(-c4cccc(S(=O)(=O)[O-])c4F)c4nc(c(-c5cccc(S(=O)(=O)[O-])c5F)c5ccc2[nH]5)C=C4)C=C3)cc1
REMARK SMILES IDX 22 1 21 2 20 3 18 4 19 5 15 7 14 8 1 9 2 10 3 12 4 13 5 14
REMARK SMILES IDX 6 15 10 16 7 17 9 18 8 19 11 20 13 21 12 22 16 23 17 24
REMARK SMILES IDX 23 26 24 27 25 28 26 29 27 31 28 32 29 33 90 34 30 35 89 36
REMARK SMILES IDX 31 37 32 38 33 39 83 40 34 41 88 42 82 43 84 44 35 45 87 46
REMARK SMILES IDX 81 47 80 48 36 50 68 51 48 52 67 53 49 54 52 55 66 56 85 57
REMARK SMILES IDX 50 58 51 59 65 61 86 62 53 63 37 64 38 65 46 66 39 67 41 68
REMARK SMILES IDX 47 69 40 70 42 71 43 72 44 73 45 74 69 75 70 76 78 77 71 78
REMARK SMILES IDX 73 79 79 80 72 81 74 82 75 83 76 84 77 85 54 86 55 87 63 88
REMARK SMILES IDX 56 89 58 90 64 91 57 92 59 93 60 94 61 95 62 96
REMARK H PARENT 20 6 14 11 17 25 25 30 84 49 52 60
REMARK Flexibility Score: inf
ROOT
ATOM      1  C   UNL A   1      35.761  22.600  23.539  1.00  0.00     0.023 C 
ENDROOT
BRANCH   1   2
ATOM      2  C   UNL A   1      35.067  23.758  24.249  1.00  0.00     0.116 C 
BRANCH   2   3
ATOM      3  N   UNL A   1      34.363  24.638  23.335  1.00  0.00    -0.354 N 
ATOM      4  C   UNL A   1      33.534  25.692  23.590  1.00  0.00     0.244 C 
ATOM      5  O   UNL A   1      33.297  26.474  22.665  1.00  0.00    -0.273 OA
ATOM      6  H   UNL A   1      34.505  24.445  22.380  1.00  0.00     0.163 HD
BRANCH   4   7
ATOM      7  C   UNL A   1      32.960  25.959  24.991  1.00  0.00     0.197 C 
BRANCH   7   8
ATOM      8  N   UNL A   1      32.804  24.715  25.742  1.00  0.00    -0.339 N 
ATOM      9  O   UNL A   1      30.706  25.152  26.545  1.00  0.00    -0.271 OA
ATOM     10  C   UNL A   1      31.605  24.351  26.307  1.00  0.00     0.258 C 
ATOM     11  H   UNL A   1      33.581  24.119  25.847  1.00  0.00     0.164 HD
BRANCH  10  12
ATOM     12  C   UNL A   1      31.483  22.851  26.601  1.00  0.00     0.329 C 
BRANCH  12  13
ATOM     13  O   UNL A   1      32.663  22.089  26.344  1.00  0.00    -0.484 OA
BRANCH  13  14
ATOM     14  C   UNL A   1      32.535  21.159  25.342  1.00  0.00     0.120 A 
ATOM     15  C   UNL A   1      32.176  21.496  24.025  1.00  0.00     0.047 A 
ATOM     16  C   UNL A   1      32.895  19.847  25.661  1.00  0.00     0.050 A 
ATOM     17  C   UNL A   1      32.170  20.530  23.016  1.00  0.00     0.008 A 
ATOM     18  C   UNL A   1      32.876  18.894  24.654  1.00  0.00    -0.041 A 
ATOM     19  C   UNL A   1      32.528  19.235  23.343  1.00  0.00    -0.045 A 
ATOM     20  C   UNL A   1      33.174  17.430  24.752  1.00  0.00     0.036 C 
ATOM     21  C   UNL A   1      32.591  18.045  22.439  1.00  0.00     0.036 C 
ATOM     22  C   UNL A   1      33.431  17.075  23.280  1.00  0.00     0.010 C 
ENDBRANCH  13  14
ENDBRANCH  12  13
ENDBRANCH  10  12
ENDBRANCH   7   8
BRANCH   7  23
ATOM     23  C   UNL A   1      33.699  27.085  25.722  1.00  0.00     0.191 C 
BRANCH  23  24
ATOM     24  O   UNL A   1      32.975  28.314  25.755  1.00  0.00    -0.394 OA
ATOM     25  H   UNL A   1      33.520  29.021  25.375  1.00  0.00     0.210 HD
ENDBRANCH  23  24
ENDBRANCH   7  23
ENDBRANCH   4   7
ENDBRANCH   2   3
ENDBRANCH   1   2
BRANCH   1  26
ATOM     26  C   UNL A   1      36.026  21.371  24.406  1.00  0.00     0.023 C 
BRANCH  26  27
ATOM     27  C   UNL A   1      36.943  21.598  25.602  1.00  0.00     0.116 C 
BRANCH  27  28
ATOM     28  N   UNL A   1      38.039  20.639  25.683  1.00  0.00    -0.352 N 
ATOM     29  C   UNL A   1      39.330  20.853  26.113  1.00  0.00     0.251 C 
ATOM     30  H   UNL A   1      37.830  19.722  25.393  1.00  0.00     0.163 HD
ATOM     31  O   UNL A   1      40.173  19.966  26.031  1.00  0.00    -0.269 OA
BRANCH  29  32
ATOM     32  C   UNL A   1      39.692  22.184  26.638  1.00  0.00     0.039 A 
ATOM     33  C   UNL A   1      40.748  22.294  27.547  1.00  0.00     0.014 A 
ATOM     34  C   UNL A   1      39.046  23.324  26.155  1.00  0.00     0.014 A 
ATOM     35  C   UNL A   1      41.218  23.559  27.903  1.00  0.00     0.010 A 
ATOM     36  C   UNL A   1      39.562  24.579  26.455  1.00  0.00     0.010 A 
ATOM     37  C   UNL A   1      40.661  24.708  27.321  1.00  0.00    -0.014 A 
BRANCH  37  38
ATOM     38  C   UNL A   1      41.221  26.063  27.558  1.00  0.00     0.031 A 
ATOM     39  C   UNL A   1      42.632  26.371  27.146  1.00  0.00     0.074 A 
ATOM     40  C   UNL A   1      40.517  26.958  28.279  1.00  0.00     0.049 A 
ATOM     41  N   UNL A   1      43.359  27.424  27.410  1.00  0.00    -0.248 NA
ATOM     42  C   UNL A   1      43.331  25.338  26.364  1.00  0.00     0.031 C 
ATOM     43  C   UNL A   1      39.172  26.743  28.816  1.00  0.00     0.029 A 
ATOM     44  N   UNL A   1      40.856  28.212  28.726  1.00  0.00    -0.354 N 
ATOM     45  C   UNL A   1      44.614  27.161  26.875  1.00  0.00     0.074 A 
ATOM     46  C   UNL A   1      44.556  25.837  26.294  1.00  0.00     0.031 C 
ATOM     47  C   UNL A   1      38.808  27.817  29.534  1.00  0.00     0.029 A 
ATOM     48  C   UNL A   1      39.902  28.784  29.534  1.00  0.00     0.049 A 
ATOM     49  H   UNL A   1      41.702  28.659  28.491  1.00  0.00     0.167 HD
ATOM     50  C   UNL A   1      45.706  27.960  26.841  1.00  0.00     0.034 A 
ATOM     51  C   UNL A   1      39.910  29.948  30.214  1.00  0.00     0.034 A 
ATOM     52  C   UNL A   1      45.742  29.297  27.368  1.00  0.00     0.049 A 
ATOM     53  C   UNL A   1      41.106  30.853  30.099  1.00  0.00     0.074 A 
ATOM     54  C   UNL A   1      46.766  30.224  27.300  1.00  0.00     0.029 A 
ATOM     55  N   UNL A   1      44.703  29.900  28.060  1.00  0.00    -0.354 N 
ATOM     56  N   UNL A   1      42.229  30.655  29.451  1.00  0.00    -0.248 NA
ATOM     57  C   UNL A   1      41.025  32.157  30.774  1.00  0.00     0.031 C 
ATOM     58  C   UNL A   1      46.347  31.388  27.954  1.00  0.00     0.029 A 
ATOM     59  C   UNL A   1      45.058  31.188  28.423  1.00  0.00     0.049 A 
ATOM     60  H   UNL A   1      43.838  29.474  28.265  1.00  0.00     0.167 HD
ATOM     61  C   UNL A   1      42.975  31.816  29.612  1.00  0.00     0.074 A 
ATOM     62  C   UNL A   1      42.168  32.722  30.405  1.00  0.00     0.031 C 
ATOM     63  C   UNL A   1      44.220  32.100  29.159  1.00  0.00     0.034 A 
BRANCH  50  64
ATOM     64  C   UNL A   1      46.933  27.422  26.152  1.00  0.00     0.023 A 
ATOM     65  C   UNL A   1      47.074  27.599  24.760  1.00  0.00     0.012 A 
ATOM     66  C   UNL A   1      47.949  26.767  26.870  1.00  0.00     0.148 A 
ATOM     67  C   UNL A   1      48.184  27.091  24.086  1.00  0.00     0.002 A 
ATOM     68  C   UNL A   1      49.076  26.301  26.199  1.00  0.00     0.091 A 
ATOM     69  F   UNL A   1      47.790  26.582  28.188  1.00  0.00    -0.205 F 
ATOM     70  C   UNL A   1      49.188  26.451  24.806  1.00  0.00     0.022 A 
BRANCH  68  71
ATOM     71  S   UNL A   1      50.452  25.534  27.061  1.00  0.00     0.127 S 
ATOM     72  O   UNL A   1      49.822  24.339  27.620  1.00  0.00    -0.237 OA
ATOM     73  O   UNL A   1      51.397  25.271  25.975  1.00  0.00    -0.237 OA
ATOM     74  O   UNL A   1      50.908  26.524  28.027  1.00  0.00    -0.744 OA
ENDBRANCH  68  71
ENDBRANCH  50  64
BRANCH  51  75
ATOM     75  C   UNL A   1      38.710  30.346  31.002  1.00  0.00     0.023 A 
ATOM     76  C   UNL A   1      38.664  30.053  32.378  1.00  0.00     0.012 A 
ATOM     77  C   UNL A   1      37.653  31.072  30.417  1.00  0.00     0.148 A 
ATOM     78  C   UNL A   1      37.577  30.456  33.155  1.00  0.00     0.002 A 
ATOM     79  C   UNL A   1      36.598  31.516  31.208  1.00  0.00     0.091 A 
ATOM     80  F   UNL A   1      37.713  31.333  29.104  1.00  0.00    -0.205 F 
ATOM     81  C   UNL A   1      36.552  31.197  32.574  1.00  0.00     0.022 A 
BRANCH  79  82
ATOM     82  S   UNL A   1      35.304  32.590  30.577  1.00  0.00     0.127 S 
ATOM     83  O   UNL A   1      36.053  33.800  30.247  1.00  0.00    -0.237 OA
ATOM     84  O   UNL A   1      34.819  31.832  29.423  1.00  0.00    -0.237 OA
ATOM     85  O   UNL A   1      34.336  32.719  31.658  1.00  0.00    -0.744 OA
ENDBRANCH  79  82
ENDBRANCH  51  75
BRANCH  63  86
ATOM     86  C   UNL A   1      44.791  33.456  29.479  1.00  0.00     0.023 A 
ATOM     87  C   UNL A   1      45.670  33.603  30.569  1.00  0.00     0.012 A 
ATOM     88  C   UNL A   1      44.528  34.562  28.646  1.00  0.00     0.148 A 
ATOM     89  C   UNL A   1      46.265  34.835  30.838  1.00  0.00     0.002 A 
ATOM     90  C   UNL A   1      45.157  35.776  28.896  1.00  0.00     0.091 A 
ATOM     91  F   UNL A   1      43.670  34.407  27.628  1.00  0.00    -0.205 F 
ATOM     92  C   UNL A   1      46.019  35.917  29.996  1.00  0.00     0.022 A 
BRANCH  90  93
ATOM     93  S   UNL A   1      44.968  37.195  27.809  1.00  0.00     0.127 S 
ATOM     94  O   UNL A   1      43.563  37.089  27.423  1.00  0.00    -0.237 OA
ATOM     95  O   UNL A   1      45.273  38.316  28.700  1.00  0.00    -0.237 OA
ATOM     96  O   UNL A   1      45.933  37.003  26.735  1.00  0.00    -0.744 OA
ENDBRANCH  90  93
ENDBRANCH  63  86
ENDBRANCH  37  38
ENDBRANCH  29  32
ENDBRANCH  27  28
ENDBRANCH  26  27
ENDBRANCH   1  26
TORSDOF 20
ENDMDL
