MODEL 1
REMARK VINA RESULT:     -11.9      0.000      0.000
REMARK SMILES O=C(NCCCCNC(=O)c1cccc(N[C@H]2CCCC[C@@H]2O)c1)c1ccc(-c2c3nc(c(-c4cccc(S(=O)(=O)[O-])c4F)c4ccc([nH]4)c(-c4cccc(S(=O)(=O)[O-])c4F)c4nc(c(-c5cccc(S(=O)(=O)[O-])c5F)c5ccc2[nH]5)C=C4)C=C3)cc1
REMARK SMILES IDX 5 1 4 2 3 3 1 4 2 5 25 7 26 8 87 9 27 10 86 11 28 12 29 13
REMARK SMILES IDX 30 14 80 15 31 16 85 17 79 18 81 19 32 20 84 21 78 22 77 23
REMARK SMILES IDX 33 25 65 26 45 27 64 28 46 29 49 30 63 31 82 32 47 33 48 34
REMARK SMILES IDX 62 36 83 37 50 38 34 39 35 40 43 41 36 42 38 43 44 44 37 45
REMARK SMILES IDX 39 46 40 47 41 48 42 49 66 50 67 51 75 52 68 53 70 54 76 55
REMARK SMILES IDX 69 56 71 57 72 58 73 59 74 60 51 61 52 62 60 63 53 64 55 65
REMARK SMILES IDX 61 66 54 67 56 68 57 69 58 70 59 71 6 72 7 73 8 74 9 75
REMARK SMILES IDX 10 77 11 78 12 79 24 80 13 81 15 82 14 83 16 84 17 86 18 87
REMARK SMILES IDX 22 88 19 89 21 90 20 91 23 92
REMARK H PARENT 3 6 81 24 49 35 8 76 16 85 23 93
REMARK Flexibility Score: inf
ROOT
ATOM      1  C   UNL A   1      38.102  19.488  25.018  1.00  0.00     0.023 C 
ENDROOT
BRANCH   1   2
ATOM      2  C   UNL A   1      39.139  20.042  25.984  1.00  0.00     0.116 C 
BRANCH   2   3
ATOM      3  N   UNL A   1      40.329  19.212  26.065  1.00  0.00    -0.352 N 
ATOM      4  O   UNL A   1      42.538  18.780  26.132  1.00  0.00    -0.269 OA
ATOM      5  C   UNL A   1      41.634  19.601  26.253  1.00  0.00     0.251 C 
ATOM      6  H   UNL A   1      40.181  18.243  25.973  1.00  0.00     0.163 HD
BRANCH   5   7
ATOM      7  C   UNL A   1      41.935  21.013  26.576  1.00  0.00     0.039 A 
ATOM      8  C   UNL A   1      42.123  21.413  27.902  1.00  0.00     0.014 A 
ATOM      9  C   UNL A   1      42.034  21.945  25.540  1.00  0.00     0.014 A 
ATOM     10  C   UNL A   1      42.291  22.761  28.202  1.00  0.00     0.010 A 
ATOM     11  C   UNL A   1      42.284  23.289  25.837  1.00  0.00     0.010 A 
ATOM     12  C   UNL A   1      42.400  23.708  27.172  1.00  0.00    -0.014 A 
BRANCH  12  13
ATOM     13  C   UNL A   1      42.773  25.105  27.506  1.00  0.00     0.031 A 
ATOM     14  C   UNL A   1      41.794  26.060  28.126  1.00  0.00     0.074 A 
ATOM     15  C   UNL A   1      44.023  25.511  27.204  1.00  0.00     0.049 A 
ATOM     16  N   UNL A   1      41.979  27.308  28.472  1.00  0.00    -0.248 NA
ATOM     17  C   UNL A   1      40.433  25.563  28.387  1.00  0.00     0.031 C 
ATOM     18  C   UNL A   1      45.037  24.683  26.544  1.00  0.00     0.029 A 
ATOM     19  N   UNL A   1      44.650  26.716  27.389  1.00  0.00    -0.354 N 
ATOM     20  C   UNL A   1      40.755  27.760  28.950  1.00  0.00     0.074 A 
ATOM     21  C   UNL A   1      39.831  26.649  28.857  1.00  0.00     0.031 C 
ATOM     22  C   UNL A   1      46.157  25.401  26.382  1.00  0.00     0.029 A 
ATOM     23  C   UNL A   1      45.926  26.751  26.879  1.00  0.00     0.049 A 
ATOM     24  H   UNL A   1      44.228  27.480  27.843  1.00  0.00     0.167 HD
ATOM     25  C   UNL A   1      40.440  28.988  29.430  1.00  0.00     0.034 A 
ATOM     26  C   UNL A   1      46.807  27.765  26.789  1.00  0.00     0.034 A 
ATOM     27  C   UNL A   1      41.379  30.071  29.559  1.00  0.00     0.049 A 
ATOM     28  C   UNL A   1      46.429  29.104  27.350  1.00  0.00     0.074 A 
ATOM     29  C   UNL A   1      41.184  31.310  30.146  1.00  0.00     0.029 A 
ATOM     30  N   UNL A   1      42.679  30.058  29.078  1.00  0.00    -0.354 N 
ATOM     31  N   UNL A   1      45.328  29.455  27.967  1.00  0.00    -0.248 NA
ATOM     32  C   UNL A   1      47.420  30.181  27.223  1.00  0.00     0.031 C 
ATOM     33  C   UNL A   1      42.357  32.057  29.991  1.00  0.00     0.029 A 
ATOM     34  C   UNL A   1      43.287  31.277  29.324  1.00  0.00     0.049 A 
ATOM     35  H   UNL A   1      43.106  29.294  28.628  1.00  0.00     0.167 HD
ATOM     36  C   UNL A   1      45.495  30.791  28.311  1.00  0.00     0.074 A 
ATOM     37  C   UNL A   1      46.821  31.172  27.869  1.00  0.00     0.031 C 
ATOM     38  C   UNL A   1      44.621  31.632  28.911  1.00  0.00     0.034 A 
BRANCH  25  39
ATOM     39  C   UNL A   1      39.031  29.237  29.899  1.00  0.00     0.023 A 
ATOM     40  C   UNL A   1      38.645  28.820  31.189  1.00  0.00     0.012 A 
ATOM     41  C   UNL A   1      38.136  29.996  29.118  1.00  0.00     0.148 A 
ATOM     42  C   UNL A   1      37.386  29.149  31.691  1.00  0.00     0.002 A 
ATOM     43  C   UNL A   1      36.896  30.348  29.640  1.00  0.00     0.091 A 
ATOM     44  F   UNL A   1      38.520  30.368  27.889  1.00  0.00    -0.205 F 
ATOM     45  C   UNL A   1      36.518  29.922  30.924  1.00  0.00     0.022 A 
BRANCH  43  46
ATOM     46  S   UNL A   1      35.734  31.401  28.762  1.00  0.00     0.127 S 
ATOM     47  O   UNL A   1      35.179  30.471  27.781  1.00  0.00    -0.237 OA
ATOM     48  O   UNL A   1      34.808  31.789  29.826  1.00  0.00    -0.237 OA
ATOM     49  O   UNL A   1      36.519  32.494  28.207  1.00  0.00    -0.744 OA
ENDBRANCH  43  46
ENDBRANCH  25  39
BRANCH  26  50
ATOM     50  C   UNL A   1      48.134  27.538  26.152  1.00  0.00     0.023 A 
ATOM     51  C   UNL A   1      49.236  27.176  26.950  1.00  0.00     0.012 A 
ATOM     52  C   UNL A   1      48.299  27.641  24.757  1.00  0.00     0.148 A 
ATOM     53  C   UNL A   1      50.485  26.945  26.371  1.00  0.00     0.002 A 
ATOM     54  C   UNL A   1      49.530  27.349  24.182  1.00  0.00     0.091 A 
ATOM     55  F   UNL A   1      47.246  28.011  24.015  1.00  0.00    -0.205 F 
ATOM     56  C   UNL A   1      50.629  27.019  24.987  1.00  0.00     0.022 A 
BRANCH  54  57
ATOM     57  S   UNL A   1      49.738  27.275  22.400  1.00  0.00     0.127 S 
ATOM     58  O   UNL A   1      48.805  26.215  22.030  1.00  0.00    -0.237 OA
ATOM     59  O   UNL A   1      49.337  28.621  21.983  1.00  0.00    -0.237 OA
ATOM     60  O   UNL A   1      51.152  26.991  22.195  1.00  0.00    -0.744 OA
ENDBRANCH  54  57
ENDBRANCH  26  50
BRANCH  38  61
ATOM     61  C   UNL A   1      45.065  33.053  29.120  1.00  0.00     0.023 A 
ATOM     62  C   UNL A   1      45.758  33.393  30.299  1.00  0.00     0.012 A 
ATOM     63  C   UNL A   1      44.852  34.036  28.134  1.00  0.00     0.148 A 
ATOM     64  C   UNL A   1      46.207  34.695  30.507  1.00  0.00     0.002 A 
ATOM     65  C   UNL A   1      45.343  35.321  28.328  1.00  0.00     0.091 A 
ATOM     66  F   UNL A   1      44.174  33.696  27.028  1.00  0.00    -0.205 F 
ATOM     67  C   UNL A   1      46.011  35.656  29.518  1.00  0.00     0.022 A 
BRANCH  65  68
ATOM     68  S   UNL A   1      45.213  36.601  27.074  1.00  0.00     0.127 S 
ATOM     69  O   UNL A   1      45.763  37.760  27.775  1.00  0.00    -0.237 OA
ATOM     70  O   UNL A   1      46.062  36.076  26.004  1.00  0.00    -0.237 OA
ATOM     71  O   UNL A   1      43.799  36.689  26.735  1.00  0.00    -0.744 OA
ENDBRANCH  65  68
ENDBRANCH  38  61
ENDBRANCH  12  13
ENDBRANCH   5   7
ENDBRANCH   2   3
ENDBRANCH   1   2
BRANCH   1  72
ATOM     72  C   UNL A   1      36.954  20.437  24.684  1.00  0.00     0.023 C 
BRANCH  72  73
ATOM     73  C   UNL A   1      37.375  21.816  24.184  1.00  0.00     0.116 C 
BRANCH  73  74
ATOM     74  N   UNL A   1      36.952  22.887  25.071  1.00  0.00    -0.352 N 
ATOM     75  C   UNL A   1      35.751  23.548  25.132  1.00  0.00     0.251 C 
ATOM     76  H   UNL A   1      37.626  23.183  25.725  1.00  0.00     0.163 HD
ATOM     77  O   UNL A   1      35.627  24.540  25.845  1.00  0.00    -0.269 OA
BRANCH  75  78
ATOM     78  C   UNL A   1      34.608  23.084  24.322  1.00  0.00     0.041 A 
ATOM     79  C   UNL A   1      34.349  23.722  23.112  1.00  0.00     0.014 A 
ATOM     80  C   UNL A   1      33.779  22.044  24.769  1.00  0.00     0.039 A 
ATOM     81  C   UNL A   1      33.292  23.279  22.330  1.00  0.00     0.003 A 
ATOM     82  C   UNL A   1      32.724  21.560  23.984  1.00  0.00     0.035 A 
ATOM     83  C   UNL A   1      32.502  22.203  22.760  1.00  0.00     0.026 A 
BRANCH  82  84
ATOM     84  N   UNL A   1      31.998  20.482  24.457  1.00  0.00    -0.380 N 
ATOM     85  H   UNL A   1      31.200  20.707  24.990  1.00  0.00     0.160 HD
BRANCH  84  86
ATOM     86  C   UNL A   1      32.258  19.049  24.271  1.00  0.00     0.107 C 
ATOM     87  C   UNL A   1      32.583  18.724  22.810  1.00  0.00     0.027 C 
ATOM     88  C   UNL A   1      33.258  18.500  25.319  1.00  0.00     0.136 C 
ATOM     89  C   UNL A   1      32.997  17.270  22.622  1.00  0.00     0.002 C 
ATOM     90  C   UNL A   1      33.710  17.074  25.015  1.00  0.00     0.034 C 
ATOM     91  C   UNL A   1      34.135  16.899  23.564  1.00  0.00     0.003 C 
BRANCH  88  92
ATOM     92  O   UNL A   1      32.638  18.487  26.614  1.00  0.00    -0.391 OA
ATOM     93  H   UNL A   1      32.954  17.718  27.116  1.00  0.00     0.211 HD
ENDBRANCH  88  92
ENDBRANCH  84  86
ENDBRANCH  82  84
ENDBRANCH  75  78
ENDBRANCH  73  74
ENDBRANCH  72  73
ENDBRANCH   1  72
TORSDOF 17
ENDMDL
MODEL 2
REMARK VINA RESULT:     -11.9      6.966     11.983
REMARK SMILES O=C(NCCCCNC(=O)c1cccc(N[C@H]2CCCC[C@@H]2O)c1)c1ccc(-c2c3nc(c(-c4cccc(S(=O)(=O)[O-])c4F)c4ccc([nH]4)c(-c4cccc(S(=O)(=O)[O-])c4F)c4nc(c(-c5cccc(S(=O)(=O)[O-])c5F)c5ccc2[nH]5)C=C4)C=C3)cc1
REMARK SMILES IDX 5 1 4 2 3 3 1 4 2 5 25 7 26 8 87 9 27 10 86 11 28 12 29 13
REMARK SMILES IDX 30 14 80 15 31 16 85 17 79 18 81 19 32 20 84 21 78 22 77 23
REMARK SMILES IDX 33 25 65 26 45 27 64 28 46 29 49 30 63 31 82 32 47 33 48 34
REMARK SMILES IDX 62 36 83 37 50 38 34 39 35 40 43 41 36 42 38 43 44 44 37 45
REMARK SMILES IDX 39 46 40 47 41 48 42 49 66 50 67 51 75 52 68 53 70 54 76 55
REMARK SMILES IDX 69 56 71 57 72 58 73 59 74 60 51 61 52 62 60 63 53 64 55 65
REMARK SMILES IDX 61 66 54 67 56 68 57 69 58 70 59 71 6 72 7 73 8 74 9 75
REMARK SMILES IDX 10 77 11 78 12 79 24 80 13 81 15 82 14 83 16 84 17 86 18 87
REMARK SMILES IDX 22 88 19 89 21 90 20 91 23 92
REMARK H PARENT 3 6 81 24 49 35 8 76 16 85 23 93
REMARK Flexibility Score: inf
ROOT
ATOM      1  C   UNL A   1      31.543  32.099  26.646  1.00  0.00     0.023 C 
ENDROOT
BRANCH   1   2
ATOM      2  C   UNL A   1      32.781  32.775  27.220  1.00  0.00     0.116 C 
BRANCH   2   3
ATOM      3  N   UNL A   1      32.511  34.117  27.707  1.00  0.00    -0.352 N 
ATOM      4  O   UNL A   1      32.640  35.856  29.132  1.00  0.00    -0.269 OA
ATOM      5  C   UNL A   1      33.104  34.785  28.752  1.00  0.00     0.251 C 
ATOM      6  H   UNL A   1      31.811  34.614  27.225  1.00  0.00     0.163 HD
BRANCH   5   7
ATOM      7  C   UNL A   1      34.282  34.192  29.422  1.00  0.00     0.039 A 
ATOM      8  C   UNL A   1      34.122  33.360  30.533  1.00  0.00     0.014 A 
ATOM      9  C   UNL A   1      35.560  34.470  28.929  1.00  0.00     0.014 A 
ATOM     10  C   UNL A   1      35.240  32.902  31.222  1.00  0.00     0.010 A 
ATOM     11  C   UNL A   1      36.682  33.942  29.576  1.00  0.00     0.010 A 
ATOM     12  C   UNL A   1      36.530  33.166  30.736  1.00  0.00    -0.014 A 
BRANCH  12  13
ATOM     13  C   UNL A   1      37.696  32.507  31.375  1.00  0.00     0.031 A 
ATOM     14  C   UNL A   1      38.403  31.349  30.731  1.00  0.00     0.074 A 
ATOM     15  C   UNL A   1      38.089  32.958  32.583  1.00  0.00     0.049 A 
ATOM     16  N   UNL A   1      39.434  30.675  31.171  1.00  0.00    -0.248 NA
ATOM     17  C   UNL A   1      37.892  30.879  29.432  1.00  0.00     0.031 C 
ATOM     18  C   UNL A   1      37.434  34.038  33.329  1.00  0.00     0.029 A 
ATOM     19  N   UNL A   1      39.112  32.562  33.405  1.00  0.00    -0.354 N 
ATOM     20  C   UNL A   1      39.670  29.677  30.233  1.00  0.00     0.074 A 
ATOM     21  C   UNL A   1      38.678  29.837  29.191  1.00  0.00     0.031 C 
ATOM     22  C   UNL A   1      38.071  34.220  34.494  1.00  0.00     0.029 A 
ATOM     23  C   UNL A   1      39.145  33.240  34.602  1.00  0.00     0.049 A 
ATOM     24  H   UNL A   1      39.759  31.862  33.163  1.00  0.00     0.167 HD
ATOM     25  C   UNL A   1      40.635  28.725  30.242  1.00  0.00     0.034 A 
ATOM     26  C   UNL A   1      39.929  33.074  35.683  1.00  0.00     0.034 A 
ATOM     27  C   UNL A   1      41.644  28.605  31.261  1.00  0.00     0.049 A 
ATOM     28  C   UNL A   1      40.999  32.022  35.646  1.00  0.00     0.074 A 
ATOM     29  C   UNL A   1      42.734  27.751  31.294  1.00  0.00     0.029 A 
ATOM     30  N   UNL A   1      41.678  29.340  32.436  1.00  0.00    -0.354 N 
ATOM     31  N   UNL A   1      41.322  31.213  34.668  1.00  0.00    -0.248 NA
ATOM     32  C   UNL A   1      41.825  31.874  36.851  1.00  0.00     0.031 C 
ATOM     33  C   UNL A   1      43.408  27.949  32.503  1.00  0.00     0.029 A 
ATOM     34  C   UNL A   1      42.750  28.937  33.215  1.00  0.00     0.049 A 
ATOM     35  H   UNL A   1      41.035  30.045  32.680  1.00  0.00     0.167 HD
ATOM     36  C   UNL A   1      42.395  30.464  35.134  1.00  0.00     0.074 A 
ATOM     37  C   UNL A   1      42.693  30.947  36.467  1.00  0.00     0.031 C 
ATOM     38  C   UNL A   1      43.056  29.451  34.525  1.00  0.00     0.034 A 
BRANCH  25  39
ATOM     39  C   UNL A   1      40.691  27.749  29.097  1.00  0.00     0.023 A 
ATOM     40  C   UNL A   1      39.734  26.718  29.016  1.00  0.00     0.012 A 
ATOM     41  C   UNL A   1      41.605  27.932  28.039  1.00  0.00     0.148 A 
ATOM     42  C   UNL A   1      39.690  25.879  27.902  1.00  0.00     0.002 A 
ATOM     43  C   UNL A   1      41.533  27.113  26.918  1.00  0.00     0.091 A 
ATOM     44  F   UNL A   1      42.516  28.910  28.145  1.00  0.00    -0.205 F 
ATOM     45  C   UNL A   1      40.579  26.084  26.849  1.00  0.00     0.022 A 
BRANCH  43  46
ATOM     46  S   UNL A   1      42.583  27.340  25.478  1.00  0.00     0.127 S 
ATOM     47  O   UNL A   1      43.906  27.439  26.092  1.00  0.00    -0.237 OA
ATOM     48  O   UNL A   1      42.350  26.103  24.730  1.00  0.00    -0.237 OA
ATOM     49  O   UNL A   1      42.111  28.549  24.819  1.00  0.00    -0.744 OA
ENDBRANCH  43  46
ENDBRANCH  25  39
BRANCH  26  50
ATOM     50  C   UNL A   1      39.733  33.938  36.880  1.00  0.00     0.023 A 
ATOM     51  C   UNL A   1      40.112  35.292  36.831  1.00  0.00     0.012 A 
ATOM     52  C   UNL A   1      39.135  33.433  38.051  1.00  0.00     0.148 A 
ATOM     53  C   UNL A   1      39.924  36.122  37.937  1.00  0.00     0.002 A 
ATOM     54  C   UNL A   1      38.894  34.280  39.126  1.00  0.00     0.091 A 
ATOM     55  F   UNL A   1      38.802  32.135  38.090  1.00  0.00    -0.205 F 
ATOM     56  C   UNL A   1      39.303  35.620  39.079  1.00  0.00     0.022 A 
BRANCH  54  57
ATOM     57  S   UNL A   1      37.962  33.733  40.560  1.00  0.00     0.127 S 
ATOM     58  O   UNL A   1      38.884  32.784  41.177  1.00  0.00    -0.237 OA
ATOM     59  O   UNL A   1      37.773  34.980  41.304  1.00  0.00    -0.237 OA
ATOM     60  O   UNL A   1      36.728  33.175  40.020  1.00  0.00    -0.744 OA
ENDBRANCH  54  57
ENDBRANCH  26  50
BRANCH  38  61
ATOM     61  C   UNL A   1      44.163  28.788  35.297  1.00  0.00     0.023 A 
ATOM     62  C   UNL A   1      45.482  29.263  35.157  1.00  0.00     0.012 A 
ATOM     63  C   UNL A   1      43.895  27.742  36.201  1.00  0.00     0.148 A 
ATOM     64  C   UNL A   1      46.524  28.687  35.882  1.00  0.00     0.002 A 
ATOM     65  C   UNL A   1      44.931  27.203  36.955  1.00  0.00     0.091 A 
ATOM     66  F   UNL A   1      42.636  27.293  36.305  1.00  0.00    -0.205 F 
ATOM     67  C   UNL A   1      46.247  27.666  36.789  1.00  0.00     0.022 A 
BRANCH  65  68
ATOM     68  S   UNL A   1      44.658  25.946  38.208  1.00  0.00     0.127 S 
ATOM     69  O   UNL A   1      45.988  25.826  38.804  1.00  0.00    -0.237 OA
ATOM     70  O   UNL A   1      43.657  26.577  39.070  1.00  0.00    -0.237 OA
ATOM     71  O   UNL A   1      44.184  24.766  37.496  1.00  0.00    -0.744 OA
ENDBRANCH  65  68
ENDBRANCH  38  61
ENDBRANCH  12  13
ENDBRANCH   5   7
ENDBRANCH   2   3
ENDBRANCH   1   2
BRANCH   1  72
ATOM     72  C   UNL A   1      31.750  30.662  26.174  1.00  0.00     0.023 C 
BRANCH  72  73
ATOM     73  C   UNL A   1      32.084  29.658  27.273  1.00  0.00     0.116 C 
BRANCH  73  74
ATOM     74  N   UNL A   1      33.209  28.804  26.930  1.00  0.00    -0.352 N 
ATOM     75  C   UNL A   1      33.222  27.589  26.293  1.00  0.00     0.251 C 
ATOM     76  H   UNL A   1      34.093  29.148  27.193  1.00  0.00     0.163 HD
ATOM     77  O   UNL A   1      34.259  26.935  26.230  1.00  0.00    -0.269 OA
BRANCH  75  78
ATOM     78  C   UNL A   1      31.983  27.050  25.701  1.00  0.00     0.041 A 
ATOM     79  C   UNL A   1      31.285  26.070  26.401  1.00  0.00     0.014 A 
ATOM     80  C   UNL A   1      31.529  27.488  24.448  1.00  0.00     0.039 A 
ATOM     81  C   UNL A   1      30.105  25.572  25.866  1.00  0.00     0.003 A 
ATOM     82  C   UNL A   1      30.326  27.023  23.901  1.00  0.00     0.035 A 
ATOM     83  C   UNL A   1      29.630  26.056  24.638  1.00  0.00     0.026 A 
BRANCH  82  84
ATOM     84  N   UNL A   1      29.905  27.556  22.697  1.00  0.00    -0.380 N 
ATOM     85  H   UNL A   1      30.193  27.070  21.890  1.00  0.00     0.160 HD
BRANCH  84  86
ATOM     86  C   UNL A   1      29.086  28.753  22.462  1.00  0.00     0.107 C 
ATOM     87  C   UNL A   1      27.846  28.768  23.362  1.00  0.00     0.027 C 
ATOM     88  C   UNL A   1      29.934  30.048  22.467  1.00  0.00     0.136 C 
ATOM     89  C   UNL A   1      27.060  30.067  23.237  1.00  0.00     0.002 C 
ATOM     90  C   UNL A   1      29.082  31.314  22.443  1.00  0.00     0.034 C 
ATOM     91  C   UNL A   1      27.959  31.275  23.470  1.00  0.00     0.003 C 
BRANCH  88  92
ATOM     92  O   UNL A   1      30.777  30.075  21.304  1.00  0.00    -0.391 OA
ATOM     93  H   UNL A   1      30.820  29.187  20.916  1.00  0.00     0.211 HD
ENDBRANCH  88  92
ENDBRANCH  84  86
ENDBRANCH  82  84
ENDBRANCH  75  78
ENDBRANCH  73  74
ENDBRANCH  72  73
ENDBRANCH   1  72
TORSDOF 17
ENDMDL
MODEL 3
REMARK VINA RESULT:     -11.8      1.352      2.848
REMARK SMILES O=C(NCCCCNC(=O)c1cccc(N[C@H]2CCCC[C@@H]2O)c1)c1ccc(-c2c3nc(c(-c4cccc(S(=O)(=O)[O-])c4F)c4ccc([nH]4)c(-c4cccc(S(=O)(=O)[O-])c4F)c4nc(c(-c5cccc(S(=O)(=O)[O-])c5F)c5ccc2[nH]5)C=C4)C=C3)cc1
REMARK SMILES IDX 5 1 4 2 3 3 1 4 2 5 25 7 26 8 87 9 27 10 86 11 28 12 29 13
REMARK SMILES IDX 30 14 80 15 31 16 85 17 79 18 81 19 32 20 84 21 78 22 77 23
REMARK SMILES IDX 33 25 65 26 45 27 64 28 46 29 49 30 63 31 82 32 47 33 48 34
REMARK SMILES IDX 62 36 83 37 50 38 34 39 35 40 43 41 36 42 38 43 44 44 37 45
REMARK SMILES IDX 39 46 40 47 41 48 42 49 66 50 67 51 75 52 68 53 70 54 76 55
REMARK SMILES IDX 69 56 71 57 72 58 73 59 74 60 51 61 52 62 60 63 53 64 55 65
REMARK SMILES IDX 61 66 54 67 56 68 57 69 58 70 59 71 6 72 7 73 8 74 9 75
REMARK SMILES IDX 10 77 11 78 12 79 24 80 13 81 15 82 14 83 16 84 17 86 18 87
REMARK SMILES IDX 22 88 19 89 21 90 20 91 23 92
REMARK H PARENT 3 6 81 24 49 35 8 76 16 85 23 93
REMARK Flexibility Score: inf
ROOT
ATOM      1  C   UNL A   1      38.158  19.325  24.998  1.00  0.00     0.023 C 
ENDROOT
BRANCH   1   2
ATOM      2  C   UNL A   1      39.212  19.941  25.907  1.00  0.00     0.116 C 
BRANCH   2   3
ATOM      3  N   UNL A   1      40.397  19.109  26.035  1.00  0.00    -0.352 N 
ATOM      4  O   UNL A   1      42.601  18.671  26.171  1.00  0.00    -0.269 OA
ATOM      5  C   UNL A   1      41.697  19.497  26.252  1.00  0.00     0.251 C 
ATOM      6  H   UNL A   1      40.248  18.139  25.956  1.00  0.00     0.163 HD
BRANCH   5   7
ATOM      7  C   UNL A   1      41.994  20.914  26.559  1.00  0.00     0.039 A 
ATOM      8  C   UNL A   1      42.141  21.337  27.883  1.00  0.00     0.014 A 
ATOM      9  C   UNL A   1      42.131  21.826  25.510  1.00  0.00     0.014 A 
ATOM     10  C   UNL A   1      42.306  22.689  28.164  1.00  0.00     0.010 A 
ATOM     11  C   UNL A   1      42.377  23.174  25.791  1.00  0.00     0.010 A 
ATOM     12  C   UNL A   1      42.452  23.618  27.121  1.00  0.00    -0.014 A 
BRANCH  12  13
ATOM     13  C   UNL A   1      42.820  25.019  27.441  1.00  0.00     0.031 A 
ATOM     14  C   UNL A   1      41.845  25.970  28.073  1.00  0.00     0.074 A 
ATOM     15  C   UNL A   1      44.062  25.432  27.115  1.00  0.00     0.049 A 
ATOM     16  N   UNL A   1      42.027  27.222  28.409  1.00  0.00    -0.248 NA
ATOM     17  C   UNL A   1      40.492  25.465  28.359  1.00  0.00     0.031 C 
ATOM     18  C   UNL A   1      45.071  24.607  26.443  1.00  0.00     0.029 A 
ATOM     19  N   UNL A   1      44.683  26.642  27.284  1.00  0.00    -0.354 N 
ATOM     20  C   UNL A   1      40.808  27.667  28.905  1.00  0.00     0.074 A 
ATOM     21  C   UNL A   1      39.891  26.549  28.834  1.00  0.00     0.031 C 
ATOM     22  C   UNL A   1      46.183  25.332  26.259  1.00  0.00     0.029 A 
ATOM     23  C   UNL A   1      45.951  26.684  26.752  1.00  0.00     0.049 A 
ATOM     24  H   UNL A   1      44.264  27.405  27.741  1.00  0.00     0.167 HD
ATOM     25  C   UNL A   1      40.492  28.895  29.384  1.00  0.00     0.034 A 
ATOM     26  C   UNL A   1      46.823  27.703  26.642  1.00  0.00     0.034 A 
ATOM     27  C   UNL A   1      41.426  29.986  29.492  1.00  0.00     0.049 A 
ATOM     28  C   UNL A   1      46.444  29.043  27.202  1.00  0.00     0.074 A 
ATOM     29  C   UNL A   1      41.232  31.226  30.075  1.00  0.00     0.029 A 
ATOM     30  N   UNL A   1      42.717  29.979  28.988  1.00  0.00    -0.354 N 
ATOM     31  N   UNL A   1      45.351  29.389  27.836  1.00  0.00    -0.248 NA
ATOM     32  C   UNL A   1      47.425  30.126  27.053  1.00  0.00     0.031 C 
ATOM     33  C   UNL A   1      42.397  31.981  29.896  1.00  0.00     0.029 A 
ATOM     34  C   UNL A   1      43.321  31.204  29.218  1.00  0.00     0.049 A 
ATOM     35  H   UNL A   1      43.143  29.215  28.535  1.00  0.00     0.167 HD
ATOM     36  C   UNL A   1      45.515  30.728  28.170  1.00  0.00     0.074 A 
ATOM     37  C   UNL A   1      46.830  31.116  27.704  1.00  0.00     0.031 C 
ATOM     38  C   UNL A   1      44.644  31.566  28.781  1.00  0.00     0.034 A 
BRANCH  25  39
ATOM     39  C   UNL A   1      39.090  29.136  29.876  1.00  0.00     0.023 A 
ATOM     40  C   UNL A   1      38.760  28.829  31.211  1.00  0.00     0.012 A 
ATOM     41  C   UNL A   1      38.143  29.786  29.059  1.00  0.00     0.148 A 
ATOM     42  C   UNL A   1      37.505  29.158  31.723  1.00  0.00     0.002 A 
ATOM     43  C   UNL A   1      36.907  30.141  29.587  1.00  0.00     0.091 A 
ATOM     44  F   UNL A   1      38.474  30.055  27.788  1.00  0.00    -0.205 F 
ATOM     45  C   UNL A   1      36.585  29.825  30.917  1.00  0.00     0.022 A 
BRANCH  43  46
ATOM     46  S   UNL A   1      35.679  31.065  28.656  1.00  0.00     0.127 S 
ATOM     47  O   UNL A   1      34.817  31.567  29.725  1.00  0.00    -0.237 OA
ATOM     48  O   UNL A   1      36.495  32.088  28.001  1.00  0.00    -0.237 OA
ATOM     49  O   UNL A   1      35.055  30.110  27.751  1.00  0.00    -0.744 OA
ENDBRANCH  43  46
ENDBRANCH  25  39
BRANCH  26  50
ATOM     50  C   UNL A   1      48.141  27.483  25.984  1.00  0.00     0.023 A 
ATOM     51  C   UNL A   1      49.256  27.126  26.763  1.00  0.00     0.012 A 
ATOM     52  C   UNL A   1      48.283  27.586  24.586  1.00  0.00     0.148 A 
ATOM     53  C   UNL A   1      50.497  26.901  26.165  1.00  0.00     0.002 A 
ATOM     54  C   UNL A   1      49.505  27.300  23.991  1.00  0.00     0.091 A 
ATOM     55  F   UNL A   1      47.216  27.951  23.861  1.00  0.00    -0.205 F 
ATOM     56  C   UNL A   1      50.618  26.975  24.779  1.00  0.00     0.022 A 
BRANCH  54  57
ATOM     57  S   UNL A   1      49.685  27.227  22.206  1.00  0.00     0.127 S 
ATOM     58  O   UNL A   1      49.494  28.624  21.826  1.00  0.00    -0.237 OA
ATOM     59  O   UNL A   1      51.053  26.728  22.050  1.00  0.00    -0.237 OA
ATOM     60  O   UNL A   1      48.661  26.291  21.760  1.00  0.00    -0.744 OA
ENDBRANCH  54  57
ENDBRANCH  26  50
BRANCH  38  61
ATOM     61  C   UNL A   1      45.082  32.992  28.975  1.00  0.00     0.023 A 
ATOM     62  C   UNL A   1      45.745  33.353  30.164  1.00  0.00     0.012 A 
ATOM     63  C   UNL A   1      44.893  33.955  27.966  1.00  0.00     0.148 A 
ATOM     64  C   UNL A   1      46.188  34.660  30.360  1.00  0.00     0.002 A 
ATOM     65  C   UNL A   1      45.378  35.245  28.148  1.00  0.00     0.091 A 
ATOM     66  F   UNL A   1      44.243  33.595  26.850  1.00  0.00    -0.205 F 
ATOM     67  C   UNL A   1      46.015  35.602  29.348  1.00  0.00     0.022 A 
BRANCH  65  68
ATOM     68  S   UNL A   1      45.278  36.501  26.869  1.00  0.00     0.127 S 
ATOM     69  O   UNL A   1      45.947  35.839  25.750  1.00  0.00    -0.237 OA
ATOM     70  O   UNL A   1      43.834  36.667  26.705  1.00  0.00    -0.237 OA
ATOM     71  O   UNL A   1      45.964  37.672  27.401  1.00  0.00    -0.744 OA
ENDBRANCH  65  68
ENDBRANCH  38  61
ENDBRANCH  12  13
ENDBRANCH   5   7
ENDBRANCH   2   3
ENDBRANCH   1   2
BRANCH   1  72
ATOM     72  C   UNL A   1      36.832  20.079  24.941  1.00  0.00     0.023 C 
BRANCH  72  73
ATOM     73  C   UNL A   1      36.940  21.596  25.054  1.00  0.00     0.116 C 
BRANCH  73  74
ATOM     74  N   UNL A   1      36.149  22.135  26.148  1.00  0.00    -0.352 N 
ATOM     75  C   UNL A   1      34.828  22.507  26.170  1.00  0.00     0.251 C 
ATOM     76  H   UNL A   1      36.631  22.251  26.998  1.00  0.00     0.163 HD
ATOM     77  O   UNL A   1      34.368  23.094  27.146  1.00  0.00    -0.269 OA
BRANCH  75  78
ATOM     78  C   UNL A   1      33.960  22.224  25.012  1.00  0.00     0.041 A 
ATOM     79  C   UNL A   1      33.360  20.971  24.923  1.00  0.00     0.014 A 
ATOM     80  C   UNL A   1      33.761  23.180  24.005  1.00  0.00     0.039 A 
ATOM     81  C   UNL A   1      32.521  20.700  23.851  1.00  0.00     0.003 A 
ATOM     82  C   UNL A   1      32.897  22.942  22.928  1.00  0.00     0.035 A 
ATOM     83  C   UNL A   1      32.286  21.682  22.876  1.00  0.00     0.026 A 
BRANCH  82  84
ATOM     84  N   UNL A   1      32.693  23.959  22.014  1.00  0.00    -0.380 N 
ATOM     85  H   UNL A   1      33.106  23.827  21.130  1.00  0.00     0.160 HD
BRANCH  84  86
ATOM     86  C   UNL A   1      31.944  25.211  22.188  1.00  0.00     0.107 C 
ATOM     87  C   UNL A   1      30.802  25.044  23.194  1.00  0.00     0.027 C 
ATOM     88  C   UNL A   1      32.882  26.419  22.431  1.00  0.00     0.136 C 
ATOM     89  C   UNL A   1      30.104  26.364  23.497  1.00  0.00     0.002 C 
ATOM     90  C   UNL A   1      32.125  27.684  22.830  1.00  0.00     0.034 C 
ATOM     91  C   UNL A   1      31.106  27.426  23.931  1.00  0.00     0.003 C 
BRANCH  88  92
ATOM     92  O   UNL A   1      33.608  26.714  21.228  1.00  0.00    -0.391 OA
ATOM     93  H   UNL A   1      33.284  27.548  20.851  1.00  0.00     0.211 HD
ENDBRANCH  88  92
ENDBRANCH  84  86
ENDBRANCH  82  84
ENDBRANCH  75  78
ENDBRANCH  73  74
ENDBRANCH  72  73
ENDBRANCH   1  72
TORSDOF 17
ENDMDL
