MODEL 1
REMARK VINA RESULT:     -11.9      0.000      0.000
REMARK SMILES CS(=O)(=O)c1ccc(/C=C(/C(=O)NCCCCNC(=O)c2ccc(-c3c4nc(c(-c5cccc(S(=O)(=O)[O-])c5F)c5ccc([nH]5)c(-c5cccc(S(=O)(=O)[O-])c5F)c5nc(c(-c6cccc(S(=O)(=O)[O-])c6F)c6ccc3[nH]6)C=C5)C=C4)cc2)c2cccc(-c3ccc(S(C)(=O)=O)cc3)c2)cc1
REMARK SMILES IDX 15 1 14 2 13 3 11 4 12 5 10 7 9 8 8 9 5 10 6 11 101 12 7 13
REMARK SMILES IDX 100 14 2 15 1 16 3 17 4 18 84 19 85 20 99 21 86 22 88 23
REMARK SMILES IDX 87 24 89 25 90 26 98 27 91 28 97 29 92 30 93 31 94 32 95 33
REMARK SMILES IDX 96 34 16 35 17 36 18 37 19 38 20 40 21 41 22 42 83 43 23 44
REMARK SMILES IDX 82 45 24 46 25 47 26 48 76 49 27 50 81 51 75 52 77 53 28 54
REMARK SMILES IDX 80 55 74 56 73 57 29 59 61 60 41 61 60 62 42 63 45 64 59 65
REMARK SMILES IDX 78 66 43 67 44 68 58 70 79 71 46 72 30 73 31 74 39 75 32 76
REMARK SMILES IDX 34 77 40 78 33 79 35 80 36 81 37 82 38 83 62 84 63 85 71 86
REMARK SMILES IDX 64 87 66 88 72 89 65 90 67 91 68 92 69 93 70 94 47 95 48 96
REMARK SMILES IDX 56 97 49 98 51 99 57 100 50 101 52 102 53 103 54 104 55 105
REMARK H PARENT 13 6 18 39 77 58 45 69
REMARK Flexibility Score: inf
ROOT
ATOM      1  C   UNL A   1      34.170  26.073  25.519  1.00  0.00     0.023 C 
ENDROOT
BRANCH   1   2
ATOM      2  C   UNL A   1      33.123  25.278  26.304  1.00  0.00     0.116 C 
BRANCH   2   3
ATOM      3  N   UNL A   1      31.946  25.059  25.490  1.00  0.00    -0.352 N 
ATOM      4  C   UNL A   1      31.519  24.046  24.693  1.00  0.00     0.251 C 
ATOM      5  O   UNL A   1      30.445  24.238  24.116  1.00  0.00    -0.269 OA
ATOM      6  H   UNL A   1      31.315  25.815  25.520  1.00  0.00     0.163 HD
BRANCH   4   7
ATOM      7  C   UNL A   1      32.227  22.711  24.557  1.00  0.00     0.047 C 
ATOM      8  C   UNL A   1      31.743  21.569  25.102  1.00  0.00     0.022 C 
BRANCH   8   9
ATOM      9  C   UNL A   1      32.220  20.168  24.980  1.00  0.00    -0.025 A 
ATOM     10  C   UNL A   1      33.248  17.582  24.550  1.00  0.00     0.067 A 
ATOM     11  C   UNL A   1      33.223  18.122  25.837  1.00  0.00     0.021 A 
ATOM     12  C   UNL A   1      32.719  18.299  23.479  1.00  0.00     0.021 A 
ATOM     13  C   UNL A   1      32.675  19.392  26.051  1.00  0.00     0.009 A 
ATOM     14  C   UNL A   1      32.216  19.589  23.698  1.00  0.00     0.009 A 
BRANCH  10  15
ATOM     15  S   UNL A   1      33.967  15.972  24.318  1.00  0.00     0.175 S 
ATOM     16  C   UNL A   1      35.399  15.906  25.361  1.00  0.00     0.163 C 
ATOM     17  O   UNL A   1      34.411  15.914  22.939  1.00  0.00    -0.224 OA
ATOM     18  O   UNL A   1      33.017  15.005  24.837  1.00  0.00    -0.224 OA
ENDBRANCH  10  15
ENDBRANCH   8   9
BRANCH   7  19
ATOM     19  C   UNL A   1      33.584  22.739  23.945  1.00  0.00    -0.012 A 
ATOM     20  C   UNL A   1      33.768  23.445  22.745  1.00  0.00     0.009 A 
ATOM     21  C   UNL A   1      34.708  22.212  24.596  1.00  0.00     0.017 A 
ATOM     22  C   UNL A   1      35.040  23.649  22.220  1.00  0.00     0.001 A 
ATOM     23  C   UNL A   1      36.006  22.486  24.126  1.00  0.00    -0.018 A 
ATOM     24  C   UNL A   1      36.153  23.188  22.917  1.00  0.00     0.009 A 
BRANCH  23  25
ATOM     25  C   UNL A   1      37.176  22.175  24.958  1.00  0.00    -0.018 A 
ATOM     26  C   UNL A   1      37.711  20.872  24.949  1.00  0.00     0.010 A 
ATOM     27  C   UNL A   1      37.829  23.160  25.713  1.00  0.00     0.010 A 
ATOM     28  C   UNL A   1      38.865  20.559  25.667  1.00  0.00     0.021 A 
ATOM     29  C   UNL A   1      38.981  22.855  26.445  1.00  0.00     0.021 A 
ATOM     30  C   UNL A   1      39.488  21.554  26.419  1.00  0.00     0.067 A 
BRANCH  30  31
ATOM     31  S   UNL A   1      40.953  21.147  27.334  1.00  0.00     0.175 S 
ATOM     32  C   UNL A   1      42.210  21.045  26.087  1.00  0.00     0.163 C 
ATOM     33  O   UNL A   1      41.253  22.274  28.194  1.00  0.00    -0.224 OA
ATOM     34  O   UNL A   1      40.779  19.816  27.886  1.00  0.00    -0.224 OA
ENDBRANCH  30  31
ENDBRANCH  23  25
ENDBRANCH   7  19
ENDBRANCH   4   7
ENDBRANCH   2   3
ENDBRANCH   1   2
BRANCH   1  35
ATOM     35  C   UNL A   1      33.673  27.429  25.002  1.00  0.00     0.023 C 
BRANCH  35  36
ATOM     36  C   UNL A   1      34.356  28.650  25.613  1.00  0.00     0.116 C 
BRANCH  36  37
ATOM     37  N   UNL A   1      33.439  29.755  25.851  1.00  0.00    -0.352 N 
ATOM     38  C   UNL A   1      33.491  30.719  26.829  1.00  0.00     0.251 C 
ATOM     39  H   UNL A   1      32.678  29.820  25.229  1.00  0.00     0.163 HD
ATOM     40  O   UNL A   1      32.566  31.515  26.957  1.00  0.00    -0.269 OA
BRANCH  38  41
ATOM     41  C   UNL A   1      34.651  30.764  27.741  1.00  0.00     0.039 A 
ATOM     42  C   UNL A   1      35.009  29.605  28.433  1.00  0.00     0.014 A 
ATOM     43  C   UNL A   1      35.401  31.934  27.885  1.00  0.00     0.014 A 
ATOM     44  C   UNL A   1      36.165  29.598  29.216  1.00  0.00     0.010 A 
ATOM     45  C   UNL A   1      36.588  31.906  28.612  1.00  0.00     0.010 A 
ATOM     46  C   UNL A   1      36.984  30.738  29.280  1.00  0.00    -0.014 A 
BRANCH  46  47
ATOM     47  C   UNL A   1      38.278  30.713  30.008  1.00  0.00     0.031 A 
ATOM     48  C   UNL A   1      39.498  30.103  29.372  1.00  0.00     0.074 A 
ATOM     49  C   UNL A   1      38.328  31.153  31.281  1.00  0.00     0.049 A 
ATOM     50  N   UNL A   1      40.695  29.948  29.874  1.00  0.00    -0.248 NA
ATOM     51  C   UNL A   1      39.348  29.577  28.007  1.00  0.00     0.031 C 
ATOM     52  C   UNL A   1      37.191  31.684  32.037  1.00  0.00     0.029 A 
ATOM     53  N   UNL A   1      39.370  31.198  32.175  1.00  0.00    -0.354 N 
ATOM     54  C   UNL A   1      41.431  29.279  28.905  1.00  0.00     0.074 A 
ATOM     55  C   UNL A   1      40.536  29.028  27.796  1.00  0.00     0.031 C 
ATOM     56  C   UNL A   1      37.597  32.002  33.276  1.00  0.00     0.029 A 
ATOM     57  C   UNL A   1      39.011  31.672  33.415  1.00  0.00     0.049 A 
ATOM     58  H   UNL A   1      40.285  30.916  31.949  1.00  0.00     0.167 HD
ATOM     59  C   UNL A   1      42.738  28.928  28.922  1.00  0.00     0.034 A 
ATOM     60  C   UNL A   1      39.738  31.820  34.540  1.00  0.00     0.034 A 
ATOM     61  C   UNL A   1      43.634  29.215  30.010  1.00  0.00     0.049 A 
ATOM     62  C   UNL A   1      41.200  31.464  34.518  1.00  0.00     0.074 A 
ATOM     63  C   UNL A   1      44.997  28.988  30.084  1.00  0.00     0.029 A 
ATOM     64  N   UNL A   1      43.257  29.781  31.218  1.00  0.00    -0.354 N 
ATOM     65  N   UNL A   1      41.918  30.989  33.529  1.00  0.00    -0.248 NA
ATOM     66  C   UNL A   1      41.960  31.697  35.754  1.00  0.00     0.031 C 
ATOM     67  C   UNL A   1      45.440  29.394  31.348  1.00  0.00     0.029 A 
ATOM     68  C   UNL A   1      44.358  29.900  32.050  1.00  0.00     0.049 A 
ATOM     69  H   UNL A   1      42.341  30.057  31.451  1.00  0.00     0.167 HD
ATOM     70  C   UNL A   1      43.218  30.899  34.010  1.00  0.00     0.074 A 
ATOM     71  C   UNL A   1      43.193  31.391  35.372  1.00  0.00     0.031 C 
ATOM     72  C   UNL A   1      44.330  30.438  33.386  1.00  0.00     0.034 A 
BRANCH  59  73
ATOM     73  C   UNL A   1      43.297  28.243  27.702  1.00  0.00     0.023 A 
ATOM     74  C   UNL A   1      44.103  28.973  26.803  1.00  0.00     0.012 A 
ATOM     75  C   UNL A   1      43.080  26.870  27.476  1.00  0.00     0.148 A 
ATOM     76  C   UNL A   1      44.654  28.357  25.681  1.00  0.00     0.002 A 
ATOM     77  C   UNL A   1      43.671  26.252  26.379  1.00  0.00     0.091 A 
ATOM     78  F   UNL A   1      42.295  26.197  28.329  1.00  0.00    -0.205 F 
ATOM     79  C   UNL A   1      44.447  26.996  25.475  1.00  0.00     0.022 A 
BRANCH  77  80
ATOM     80  S   UNL A   1      43.532  24.488  26.068  1.00  0.00     0.127 S 
ATOM     81  O   UNL A   1      42.091  24.338  25.863  1.00  0.00    -0.237 OA
ATOM     82  O   UNL A   1      44.340  24.324  24.860  1.00  0.00    -0.237 OA
ATOM     83  O   UNL A   1      44.067  23.829  27.251  1.00  0.00    -0.744 OA
ENDBRANCH  77  80
ENDBRANCH  59  73
BRANCH  60  84
ATOM     84  C   UNL A   1      39.108  32.392  35.764  1.00  0.00     0.023 A 
ATOM     85  C   UNL A   1      39.122  33.786  35.961  1.00  0.00     0.012 A 
ATOM     86  C   UNL A   1      38.469  31.571  36.712  1.00  0.00     0.148 A 
ATOM     87  C   UNL A   1      38.543  34.350  37.099  1.00  0.00     0.002 A 
ATOM     88  C   UNL A   1      37.845  32.143  37.814  1.00  0.00     0.091 A 
ATOM     89  F   UNL A   1      38.476  30.245  36.512  1.00  0.00    -0.205 F 
ATOM     90  C   UNL A   1      37.895  33.530  38.019  1.00  0.00     0.022 A 
BRANCH  88  91
ATOM     91  S   UNL A   1      36.873  31.179  38.978  1.00  0.00     0.127 S 
ATOM     92  O   UNL A   1      35.629  31.940  39.032  1.00  0.00    -0.237 OA
ATOM     93  O   UNL A   1      36.779  29.888  38.296  1.00  0.00    -0.237 OA
ATOM     94  O   UNL A   1      37.654  31.149  40.208  1.00  0.00    -0.744 OA
ENDBRANCH  88  91
ENDBRANCH  60  84
BRANCH  72  95
ATOM     95  C   UNL A   1      45.626  30.469  34.154  1.00  0.00     0.023 A 
ATOM     96  C   UNL A   1      46.454  31.606  34.082  1.00  0.00     0.012 A 
ATOM     97  C   UNL A   1      45.985  29.404  35.002  1.00  0.00     0.148 A 
ATOM     98  C   UNL A   1      47.638  31.667  34.818  1.00  0.00     0.002 A 
ATOM     99  C   UNL A   1      47.139  29.493  35.771  1.00  0.00     0.091 A 
ATOM    100  F   UNL A   1      45.191  28.322  35.042  1.00  0.00    -0.205 F 
ATOM    101  C   UNL A   1      47.973  30.618  35.670  1.00  0.00     0.022 A 
BRANCH  99 102
ATOM    102  S   UNL A   1      47.599  28.234  36.966  1.00  0.00     0.127 S 
ATOM    103  O   UNL A   1      47.662  27.037  36.130  1.00  0.00    -0.237 OA
ATOM    104  O   UNL A   1      48.897  28.716  37.440  1.00  0.00    -0.237 OA
ATOM    105  O   UNL A   1      46.549  28.237  37.977  1.00  0.00    -0.744 OA
ENDBRANCH  99 102
ENDBRANCH  72  95
ENDBRANCH  46  47
ENDBRANCH  38  41
ENDBRANCH  36  37
ENDBRANCH  35  36
ENDBRANCH   1  35
TORSDOF 19
ENDMDL
MODEL 2
REMARK VINA RESULT:     -11.8      0.762      7.088
REMARK SMILES CS(=O)(=O)c1ccc(/C=C(/C(=O)NCCCCNC(=O)c2ccc(-c3c4nc(c(-c5cccc(S(=O)(=O)[O-])c5F)c5ccc([nH]5)c(-c5cccc(S(=O)(=O)[O-])c5F)c5nc(c(-c6cccc(S(=O)(=O)[O-])c6F)c6ccc3[nH]6)C=C5)C=C4)cc2)c2cccc(-c3ccc(S(C)(=O)=O)cc3)c2)cc1
REMARK SMILES IDX 15 1 14 2 13 3 11 4 12 5 10 7 9 8 8 9 5 10 6 11 101 12 7 13
REMARK SMILES IDX 100 14 2 15 1 16 3 17 4 18 84 19 85 20 99 21 86 22 88 23
REMARK SMILES IDX 87 24 89 25 90 26 98 27 91 28 97 29 92 30 93 31 94 32 95 33
REMARK SMILES IDX 96 34 16 35 17 36 18 37 19 38 20 40 21 41 22 42 83 43 23 44
REMARK SMILES IDX 82 45 24 46 25 47 26 48 76 49 27 50 81 51 75 52 77 53 28 54
REMARK SMILES IDX 80 55 74 56 73 57 29 59 61 60 41 61 60 62 42 63 45 64 59 65
REMARK SMILES IDX 78 66 43 67 44 68 58 70 79 71 46 72 30 73 31 74 39 75 32 76
REMARK SMILES IDX 34 77 40 78 33 79 35 80 36 81 37 82 38 83 62 84 63 85 71 86
REMARK SMILES IDX 64 87 66 88 72 89 65 90 67 91 68 92 69 93 70 94 47 95 48 96
REMARK SMILES IDX 56 97 49 98 51 99 57 100 50 101 52 102 53 103 54 104 55 105
REMARK H PARENT 13 6 18 39 77 58 45 69
REMARK Flexibility Score: inf
ROOT
ATOM      1  C   UNL A   1      34.135  26.120  25.506  1.00  0.00     0.023 C 
ENDROOT
BRANCH   1   2
ATOM      2  C   UNL A   1      33.174  25.253  26.323  1.00  0.00     0.116 C 
BRANCH   2   3
ATOM      3  N   UNL A   1      31.956  25.014  25.576  1.00  0.00    -0.352 N 
ATOM      4  C   UNL A   1      31.498  23.990  24.812  1.00  0.00     0.251 C 
ATOM      5  O   UNL A   1      30.392  24.166  24.293  1.00  0.00    -0.269 OA
ATOM      6  H   UNL A   1      31.319  25.763  25.635  1.00  0.00     0.163 HD
BRANCH   4   7
ATOM      7  C   UNL A   1      32.213  22.662  24.647  1.00  0.00     0.047 C 
ATOM      8  C   UNL A   1      31.753  21.512  25.196  1.00  0.00     0.022 C 
BRANCH   8   9
ATOM      9  C   UNL A   1      32.237  20.116  25.050  1.00  0.00    -0.025 A 
ATOM     10  C   UNL A   1      33.276  17.542  24.575  1.00  0.00     0.067 A 
ATOM     11  C   UNL A   1      33.267  18.068  25.868  1.00  0.00     0.021 A 
ATOM     12  C   UNL A   1      32.726  18.268  23.521  1.00  0.00     0.021 A 
ATOM     13  C   UNL A   1      32.714  19.331  26.105  1.00  0.00     0.009 A 
ATOM     14  C   UNL A   1      32.217  19.551  23.762  1.00  0.00     0.009 A 
BRANCH  10  15
ATOM     15  S   UNL A   1      34.003  15.940  24.313  1.00  0.00     0.175 S 
ATOM     16  C   UNL A   1      35.468  15.884  25.311  1.00  0.00     0.163 C 
ATOM     17  O   UNL A   1      34.404  15.891  22.921  1.00  0.00    -0.224 OA
ATOM     18  O   UNL A   1      33.080  14.962  24.859  1.00  0.00    -0.224 OA
ENDBRANCH  10  15
ENDBRANCH   8   9
BRANCH   7  19
ATOM     19  C   UNL A   1      33.553  22.706  24.002  1.00  0.00    -0.012 A 
ATOM     20  C   UNL A   1      33.700  23.419  22.800  1.00  0.00     0.009 A 
ATOM     21  C   UNL A   1      34.699  22.187  24.621  1.00  0.00     0.017 A 
ATOM     22  C   UNL A   1      34.956  23.637  22.244  1.00  0.00     0.001 A 
ATOM     23  C   UNL A   1      35.982  22.475  24.120  1.00  0.00    -0.018 A 
ATOM     24  C   UNL A   1      36.091  23.184  22.911  1.00  0.00     0.009 A 
BRANCH  23  25
ATOM     25  C   UNL A   1      37.176  22.172  24.921  1.00  0.00    -0.018 A 
ATOM     26  C   UNL A   1      37.715  20.871  24.903  1.00  0.00     0.010 A 
ATOM     27  C   UNL A   1      37.846  23.163  25.652  1.00  0.00     0.010 A 
ATOM     28  C   UNL A   1      38.889  20.565  25.590  1.00  0.00     0.021 A 
ATOM     29  C   UNL A   1      39.019  22.865  26.353  1.00  0.00     0.021 A 
ATOM     30  C   UNL A   1      39.529  21.566  26.320  1.00  0.00     0.067 A 
BRANCH  30  31
ATOM     31  S   UNL A   1      41.021  21.168  27.196  1.00  0.00     0.175 S 
ATOM     32  C   UNL A   1      41.287  22.583  28.232  1.00  0.00     0.163 C 
ATOM     33  O   UNL A   1      40.733  20.028  28.044  1.00  0.00    -0.224 OA
ATOM     34  O   UNL A   1      42.106  21.123  26.233  1.00  0.00    -0.224 OA
ENDBRANCH  30  31
ENDBRANCH  23  25
ENDBRANCH   7  19
ENDBRANCH   4   7
ENDBRANCH   2   3
ENDBRANCH   1   2
BRANCH   1  35
ATOM     35  C   UNL A   1      33.619  27.537  25.225  1.00  0.00     0.023 C 
BRANCH  35  36
ATOM     36  C   UNL A   1      34.437  28.665  25.850  1.00  0.00     0.116 C 
BRANCH  36  37
ATOM     37  N   UNL A   1      33.650  29.864  26.101  1.00  0.00    -0.352 N 
ATOM     38  C   UNL A   1      33.843  30.833  27.056  1.00  0.00     0.251 C 
ATOM     39  H   UNL A   1      32.877  30.000  25.506  1.00  0.00     0.163 HD
ATOM     40  O   UNL A   1      33.012  31.724  27.204  1.00  0.00    -0.269 OA
BRANCH  38  41
ATOM     41  C   UNL A   1      35.035  30.769  27.924  1.00  0.00     0.039 A 
ATOM     42  C   UNL A   1      35.258  29.615  28.679  1.00  0.00     0.014 A 
ATOM     43  C   UNL A   1      35.947  31.827  27.963  1.00  0.00     0.014 A 
ATOM     44  C   UNL A   1      36.434  29.493  29.421  1.00  0.00     0.010 A 
ATOM     45  C   UNL A   1      37.148  31.676  28.649  1.00  0.00     0.010 A 
ATOM     46  C   UNL A   1      37.406  30.507  29.381  1.00  0.00    -0.014 A 
BRANCH  46  47
ATOM     47  C   UNL A   1      38.715  30.343  30.063  1.00  0.00     0.031 A 
ATOM     48  C   UNL A   1      38.926  30.889  31.449  1.00  0.00     0.074 A 
ATOM     49  C   UNL A   1      39.743  29.787  29.392  1.00  0.00     0.049 A 
ATOM     50  N   UNL A   1      40.012  30.884  32.177  1.00  0.00    -0.248 NA
ATOM     51  C   UNL A   1      37.778  31.548  32.089  1.00  0.00     0.031 C 
ATOM     52  C   UNL A   1      39.687  29.299  28.011  1.00  0.00     0.029 A 
ATOM     53  N   UNL A   1      41.044  29.562  29.770  1.00  0.00    -0.354 N 
ATOM     54  C   UNL A   1      39.691  31.565  33.344  1.00  0.00     0.074 A 
ATOM     55  C   UNL A   1      38.316  31.999  33.214  1.00  0.00     0.031 C 
ATOM     56  C   UNL A   1      40.896  28.833  27.660  1.00  0.00     0.029 A 
ATOM     57  C   UNL A   1      41.820  29.013  28.775  1.00  0.00     0.049 A 
ATOM     58  H   UNL A   1      41.389  29.775  30.666  1.00  0.00     0.167 HD
ATOM     59  C   UNL A   1      40.458  31.787  34.437  1.00  0.00     0.034 A 
ATOM     60  C   UNL A   1      43.129  28.695  28.759  1.00  0.00     0.034 A 
ATOM     61  C   UNL A   1      41.811  31.319  34.579  1.00  0.00     0.049 A 
ATOM     62  C   UNL A   1      43.948  28.912  30.003  1.00  0.00     0.074 A 
ATOM     63  C   UNL A   1      42.641  31.408  35.683  1.00  0.00     0.029 A 
ATOM     64  N   UNL A   1      42.538  30.684  33.583  1.00  0.00    -0.354 N 
ATOM     65  N   UNL A   1      43.576  29.404  31.160  1.00  0.00    -0.248 NA
ATOM     66  C   UNL A   1      45.357  28.497  29.952  1.00  0.00     0.031 C 
ATOM     67  C   UNL A   1      43.878  30.849  35.346  1.00  0.00     0.029 A 
ATOM     68  C   UNL A   1      43.810  30.386  34.042  1.00  0.00     0.049 A 
ATOM     69  H   UNL A   1      42.200  30.476  32.682  1.00  0.00     0.167 HD
ATOM     70  C   UNL A   1      44.693  29.327  31.984  1.00  0.00     0.074 A 
ATOM     71  C   UNL A   1      45.748  28.718  31.200  1.00  0.00     0.031 C 
ATOM     72  C   UNL A   1      44.836  29.735  33.268  1.00  0.00     0.034 A 
BRANCH  59  73
ATOM     73  C   UNL A   1      39.836  32.523  35.594  1.00  0.00     0.023 A 
ATOM     74  C   UNL A   1      40.031  33.915  35.718  1.00  0.00     0.012 A 
ATOM     75  C   UNL A   1      39.010  31.857  36.521  1.00  0.00     0.148 A 
ATOM     76  C   UNL A   1      39.443  34.626  36.764  1.00  0.00     0.002 A 
ATOM     77  C   UNL A   1      38.392  32.580  37.534  1.00  0.00     0.091 A 
ATOM     78  F   UNL A   1      38.853  30.532  36.400  1.00  0.00    -0.205 F 
ATOM     79  C   UNL A   1      38.617  33.961  37.665  1.00  0.00     0.022 A 
BRANCH  77  80
ATOM     80  S   UNL A   1      37.245  31.833  38.699  1.00  0.00     0.127 S 
ATOM     81  O   UNL A   1      37.061  30.503  38.118  1.00  0.00    -0.237 OA
ATOM     82  O   UNL A   1      38.014  31.853  39.944  1.00  0.00    -0.237 OA
ATOM     83  O   UNL A   1      36.064  32.683  38.701  1.00  0.00    -0.744 OA
ENDBRANCH  77  80
ENDBRANCH  59  73
BRANCH  60  84
ATOM     84  C   UNL A   1      43.731  28.078  27.544  1.00  0.00     0.023 A 
ATOM     85  C   UNL A   1      44.592  28.844  26.734  1.00  0.00     0.012 A 
ATOM     86  C   UNL A   1      43.484  26.734  27.204  1.00  0.00     0.148 A 
ATOM     87  C   UNL A   1      45.167  28.294  25.587  1.00  0.00     0.002 A 
ATOM     88  C   UNL A   1      44.105  26.176  26.093  1.00  0.00     0.091 A 
ATOM     89  F   UNL A   1      42.653  26.025  27.981  1.00  0.00    -0.205 F 
ATOM     90  C   UNL A   1      44.933  26.959  25.274  1.00  0.00     0.022 A 
BRANCH  88  91
ATOM     91  S   UNL A   1      43.968  24.431  25.689  1.00  0.00     0.127 S 
ATOM     92  O   UNL A   1      44.900  24.307  24.573  1.00  0.00    -0.237 OA
ATOM     93  O   UNL A   1      44.408  23.798  26.933  1.00  0.00    -0.237 OA
ATOM     94  O   UNL A   1      42.563  24.212  25.371  1.00  0.00    -0.744 OA
ENDBRANCH  88  91
ENDBRANCH  60  84
BRANCH  72  95
ATOM     95  C   UNL A   1      46.172  29.511  33.928  1.00  0.00     0.023 A 
ATOM     96  C   UNL A   1      47.135  30.539  33.925  1.00  0.00     0.012 A 
ATOM     97  C   UNL A   1      46.443  28.310  34.614  1.00  0.00     0.148 A 
ATOM     98  C   UNL A   1      48.362  30.361  34.566  1.00  0.00     0.002 A 
ATOM     99  C   UNL A   1      47.646  28.160  35.293  1.00  0.00     0.091 A 
ATOM    100  F   UNL A   1      45.519  27.337  34.589  1.00  0.00    -0.205 F 
ATOM    101  C   UNL A   1      48.611  29.179  35.259  1.00  0.00     0.022 A 
BRANCH  99 102
ATOM    102  S   UNL A   1      48.014  26.713  36.291  1.00  0.00     0.127 S 
ATOM    103  O   UNL A   1      49.405  26.956  36.666  1.00  0.00    -0.237 OA
ATOM    104  O   UNL A   1      47.055  26.841  37.388  1.00  0.00    -0.237 OA
ATOM    105  O   UNL A   1      47.792  25.562  35.425  1.00  0.00    -0.744 OA
ENDBRANCH  99 102
ENDBRANCH  72  95
ENDBRANCH  46  47
ENDBRANCH  38  41
ENDBRANCH  36  37
ENDBRANCH  35  36
ENDBRANCH   1  35
TORSDOF 19
ENDMDL
MODEL 3
REMARK VINA RESULT:     -11.8      2.004      7.297
REMARK SMILES CS(=O)(=O)c1ccc(/C=C(/C(=O)NCCCCNC(=O)c2ccc(-c3c4nc(c(-c5cccc(S(=O)(=O)[O-])c5F)c5ccc([nH]5)c(-c5cccc(S(=O)(=O)[O-])c5F)c5nc(c(-c6cccc(S(=O)(=O)[O-])c6F)c6ccc3[nH]6)C=C5)C=C4)cc2)c2cccc(-c3ccc(S(C)(=O)=O)cc3)c2)cc1
REMARK SMILES IDX 15 1 14 2 13 3 11 4 12 5 10 7 9 8 8 9 5 10 6 11 101 12 7 13
REMARK SMILES IDX 100 14 2 15 1 16 3 17 4 18 84 19 85 20 99 21 86 22 88 23
REMARK SMILES IDX 87 24 89 25 90 26 98 27 91 28 97 29 92 30 93 31 94 32 95 33
REMARK SMILES IDX 96 34 16 35 17 36 18 37 19 38 20 40 21 41 22 42 83 43 23 44
REMARK SMILES IDX 82 45 24 46 25 47 26 48 76 49 27 50 81 51 75 52 77 53 28 54
REMARK SMILES IDX 80 55 74 56 73 57 29 59 61 60 41 61 60 62 42 63 45 64 59 65
REMARK SMILES IDX 78 66 43 67 44 68 58 70 79 71 46 72 30 73 31 74 39 75 32 76
REMARK SMILES IDX 34 77 40 78 33 79 35 80 36 81 37 82 38 83 62 84 63 85 71 86
REMARK SMILES IDX 64 87 66 88 72 89 65 90 67 91 68 92 69 93 70 94 47 95 48 96
REMARK SMILES IDX 56 97 49 98 51 99 57 100 50 101 52 102 53 103 54 104 55 105
REMARK H PARENT 13 6 18 39 77 58 45 69
REMARK Flexibility Score: inf
ROOT
ATOM      1  C   UNL A   1      34.115  26.195  25.434  1.00  0.00     0.023 C 
ENDROOT
BRANCH   1   2
ATOM      2  C   UNL A   1      33.138  25.320  26.224  1.00  0.00     0.116 C 
BRANCH   2   3
ATOM      3  N   UNL A   1      31.933  25.093  25.454  1.00  0.00    -0.352 N 
ATOM      4  C   UNL A   1      31.479  24.072  24.682  1.00  0.00     0.251 C 
ATOM      5  O   UNL A   1      30.385  24.259  24.142  1.00  0.00    -0.269 OA
ATOM      6  H   UNL A   1      31.303  25.849  25.499  1.00  0.00     0.163 HD
BRANCH   4   7
ATOM      7  C   UNL A   1      32.183  22.737  24.533  1.00  0.00     0.047 C 
ATOM      8  C   UNL A   1      31.698  21.591  25.069  1.00  0.00     0.022 C 
BRANCH   8   9
ATOM      9  C   UNL A   1      32.170  20.190  24.934  1.00  0.00    -0.025 A 
ATOM     10  C   UNL A   1      33.197  17.607  24.485  1.00  0.00     0.067 A 
ATOM     11  C   UNL A   1      33.131  18.120  25.782  1.00  0.00     0.021 A 
ATOM     12  C   UNL A   1      32.710  18.350  23.412  1.00  0.00     0.021 A 
ATOM     13  C   UNL A   1      32.583  19.388  26.004  1.00  0.00     0.009 A 
ATOM     14  C   UNL A   1      32.207  19.638  23.641  1.00  0.00     0.009 A 
BRANCH  10  15
ATOM     15  S   UNL A   1      33.915  15.998  24.244  1.00  0.00     0.175 S 
ATOM     16  C   UNL A   1      35.336  15.917  25.302  1.00  0.00     0.163 C 
ATOM     17  O   UNL A   1      34.374  15.952  22.869  1.00  0.00    -0.224 OA
ATOM     18  O   UNL A   1      32.957  15.027  24.744  1.00  0.00    -0.224 OA
ENDBRANCH  10  15
ENDBRANCH   8   9
BRANCH   7  19
ATOM     19  C   UNL A   1      33.540  22.767  23.921  1.00  0.00    -0.012 A 
ATOM     20  C   UNL A   1      33.719  23.462  22.713  1.00  0.00     0.009 A 
ATOM     21  C   UNL A   1      34.668  22.252  24.575  1.00  0.00     0.017 A 
ATOM     22  C   UNL A   1      34.989  23.667  22.185  1.00  0.00     0.001 A 
ATOM     23  C   UNL A   1      35.964  22.528  24.102  1.00  0.00    -0.018 A 
ATOM     24  C   UNL A   1      36.105  23.220  22.886  1.00  0.00     0.009 A 
BRANCH  23  25
ATOM     25  C   UNL A   1      37.136  22.232  24.936  1.00  0.00    -0.018 A 
ATOM     26  C   UNL A   1      37.655  20.923  24.969  1.00  0.00     0.010 A 
ATOM     27  C   UNL A   1      37.807  23.234  25.651  1.00  0.00     0.010 A 
ATOM     28  C   UNL A   1      38.810  20.621  25.689  1.00  0.00     0.021 A 
ATOM     29  C   UNL A   1      38.960  22.940  26.384  1.00  0.00     0.021 A 
ATOM     30  C   UNL A   1      39.451  21.633  26.401  1.00  0.00     0.067 A 
BRANCH  30  31
ATOM     31  S   UNL A   1      40.918  21.240  27.320  1.00  0.00     0.175 S 
ATOM     32  C   UNL A   1      42.218  21.418  26.126  1.00  0.00     0.163 C 
ATOM     33  O   UNL A   1      41.083  22.265  28.331  1.00  0.00    -0.224 OA
ATOM     34  O   UNL A   1      40.852  19.837  27.686  1.00  0.00    -0.224 OA
ENDBRANCH  30  31
ENDBRANCH  23  25
ENDBRANCH   7  19
ENDBRANCH   4   7
ENDBRANCH   2   3
ENDBRANCH   1   2
BRANCH   1  35
ATOM     35  C   UNL A   1      33.681  27.660  25.302  1.00  0.00     0.023 C 
BRANCH  35  36
ATOM     36  C   UNL A   1      34.545  28.668  26.058  1.00  0.00     0.116 C 
BRANCH  36  37
ATOM     37  N   UNL A   1      33.916  29.975  26.183  1.00  0.00    -0.352 N 
ATOM     38  C   UNL A   1      34.159  30.960  27.109  1.00  0.00     0.251 C 
ATOM     39  H   UNL A   1      33.224  30.181  25.513  1.00  0.00     0.163 HD
ATOM     40  O   UNL A   1      33.452  31.962  27.140  1.00  0.00    -0.269 OA
BRANCH  38  41
ATOM     41  C   UNL A   1      35.251  30.783  28.087  1.00  0.00     0.039 A 
ATOM     42  C   UNL A   1      35.157  29.750  29.022  1.00  0.00     0.014 A 
ATOM     43  C   UNL A   1      36.378  31.609  28.055  1.00  0.00     0.014 A 
ATOM     44  C   UNL A   1      36.228  29.499  29.882  1.00  0.00     0.010 A 
ATOM     45  C   UNL A   1      37.469  31.316  28.867  1.00  0.00     0.010 A 
ATOM     46  C   UNL A   1      37.407  30.257  29.785  1.00  0.00    -0.014 A 
BRANCH  46  47
ATOM     47  C   UNL A   1      38.601  29.927  30.606  1.00  0.00     0.031 A 
ATOM     48  C   UNL A   1      38.788  30.549  31.963  1.00  0.00     0.074 A 
ATOM     49  C   UNL A   1      39.564  29.142  30.084  1.00  0.00     0.049 A 
ATOM     50  N   UNL A   1      39.788  30.419  32.795  1.00  0.00    -0.248 NA
ATOM     51  C   UNL A   1      37.729  31.454  32.435  1.00  0.00     0.031 C 
ATOM     52  C   UNL A   1      39.539  28.551  28.743  1.00  0.00     0.029 A 
ATOM     53  N   UNL A   1      40.764  28.728  30.605  1.00  0.00    -0.354 N 
ATOM     54  C   UNL A   1      39.497  31.247  33.871  1.00  0.00     0.074 A 
ATOM     55  C   UNL A   1      38.242  31.902  33.572  1.00  0.00     0.031 C 
ATOM     56  C   UNL A   1      40.668  27.851  28.550  1.00  0.00     0.029 A 
ATOM     57  C   UNL A   1      41.510  27.965  29.736  1.00  0.00     0.049 A 
ATOM     58  H   UNL A   1      41.064  28.956  31.514  1.00  0.00     0.167 HD
ATOM     59  C   UNL A   1      40.196  31.427  35.017  1.00  0.00     0.034 A 
ATOM     60  C   UNL A   1      42.735  27.423  29.875  1.00  0.00     0.034 A 
ATOM     61  C   UNL A   1      41.423  30.745  35.328  1.00  0.00     0.049 A 
ATOM     62  C   UNL A   1      43.470  27.603  31.175  1.00  0.00     0.074 A 
ATOM     63  C   UNL A   1      42.156  30.785  36.501  1.00  0.00     0.029 A 
ATOM     64  N   UNL A   1      42.104  29.906  34.459  1.00  0.00    -0.354 N 
ATOM     65  N   UNL A   1      43.096  28.253  32.251  1.00  0.00    -0.248 NA
ATOM     66  C   UNL A   1      44.778  26.944  31.297  1.00  0.00     0.031 C 
ATOM     67  C   UNL A   1      43.295  29.990  36.331  1.00  0.00     0.029 A 
ATOM     68  C   UNL A   1      43.256  29.432  35.064  1.00  0.00     0.049 A 
ATOM     69  H   UNL A   1      41.813  29.681  33.546  1.00  0.00     0.167 HD
ATOM     70  C   UNL A   1      44.104  28.055  33.187  1.00  0.00     0.074 A 
ATOM     71  C   UNL A   1      45.094  27.204  32.559  1.00  0.00     0.031 C 
ATOM     72  C   UNL A   1      44.209  28.545  34.446  1.00  0.00     0.034 A 
BRANCH  59  73
ATOM     73  C   UNL A   1      39.621  32.362  36.050  1.00  0.00     0.023 A 
ATOM     74  C   UNL A   1      38.620  31.896  36.928  1.00  0.00     0.012 A 
ATOM     75  C   UNL A   1      40.109  33.675  36.195  1.00  0.00     0.148 A 
ATOM     76  C   UNL A   1      38.090  32.732  37.910  1.00  0.00     0.002 A 
ATOM     77  C   UNL A   1      39.608  34.487  37.205  1.00  0.00     0.091 A 
ATOM     78  F   UNL A   1      41.045  34.107  35.338  1.00  0.00    -0.205 F 
ATOM     79  C   UNL A   1      38.591  34.022  38.054  1.00  0.00     0.022 A 
BRANCH  77  80
ATOM     80  S   UNL A   1      40.241  36.138  37.527  1.00  0.00     0.127 S 
ATOM     81  O   UNL A   1      41.681  35.891  37.605  1.00  0.00    -0.237 OA
ATOM     82  O   UNL A   1      39.812  36.870  36.334  1.00  0.00    -0.237 OA
ATOM     83  O   UNL A   1      39.613  36.574  38.766  1.00  0.00    -0.744 OA
ENDBRANCH  77  80
ENDBRANCH  59  73
BRANCH  60  84
ATOM     84  C   UNL A   1      43.316  26.604  28.774  1.00  0.00     0.023 A 
ATOM     85  C   UNL A   1      42.925  25.258  28.633  1.00  0.00     0.012 A 
ATOM     86  C   UNL A   1      44.225  27.154  27.850  1.00  0.00     0.148 A 
ATOM     87  C   UNL A   1      43.454  24.465  27.614  1.00  0.00     0.002 A 
ATOM     88  C   UNL A   1      44.705  26.376  26.804  1.00  0.00     0.091 A 
ATOM     89  F   UNL A   1      44.594  28.434  28.008  1.00  0.00    -0.205 F 
ATOM     90  C   UNL A   1      44.335  25.027  26.694  1.00  0.00     0.022 A 
BRANCH  88  91
ATOM     91  S   UNL A   1      45.736  27.051  25.497  1.00  0.00     0.127 S 
ATOM     92  O   UNL A   1      45.951  25.881  24.651  1.00  0.00    -0.237 OA
ATOM     93  O   UNL A   1      44.863  28.076  24.923  1.00  0.00    -0.237 OA
ATOM     94  O   UNL A   1      46.919  27.578  26.164  1.00  0.00    -0.744 OA
ENDBRANCH  88  91
ENDBRANCH  60  84
BRANCH  72  95
ATOM     95  C   UNL A   1      45.419  28.150  35.252  1.00  0.00     0.023 A 
ATOM     96  C   UNL A   1      46.567  28.967  35.237  1.00  0.00     0.012 A 
ATOM     97  C   UNL A   1      45.392  27.010  36.079  1.00  0.00     0.148 A 
ATOM     98  C   UNL A   1      47.681  28.636  36.008  1.00  0.00     0.002 A 
ATOM     99  C   UNL A   1      46.486  26.715  36.883  1.00  0.00     0.091 A 
ATOM    100  F   UNL A   1      44.297  26.236  36.065  1.00  0.00    -0.205 F 
ATOM    101  C   UNL A   1      47.636  27.520  36.839  1.00  0.00     0.022 A 
BRANCH  99 102
ATOM    102  S   UNL A   1      46.481  25.354  38.055  1.00  0.00     0.127 S 
ATOM    103  O   UNL A   1      45.144  25.463  38.633  1.00  0.00    -0.237 OA
ATOM    104  O   UNL A   1      46.677  24.195  37.184  1.00  0.00    -0.237 OA
ATOM    105  O   UNL A   1      47.583  25.611  38.974  1.00  0.00    -0.744 OA
ENDBRANCH  99 102
ENDBRANCH  72  95
ENDBRANCH  46  47
ENDBRANCH  38  41
ENDBRANCH  36  37
ENDBRANCH  35  36
ENDBRANCH   1  35
TORSDOF 19
ENDMDL
