MODEL 1
REMARK VINA RESULT:     -12.1      0.000      0.000
REMARK SMILES COC(=O)c1ccc(N2C[C@@H](C(=O)NCCCCNC(=O)c3ccc(-c4c5nc(c(-c6cccc(S(=O)(=O)[O-])c6F)c6ccc([nH]6)c(-c6cccc(S(=O)(=O)[O-])c6F)c6nc(c(-c7cccc(S(=O)(=O)[O-])c7F)c7ccc4[nH]7)C=C6)C=C5)cc3)CC2=O)cc1
REMARK SMILES IDX 16 1 15 2 14 3 12 4 13 5 11 7 9 8 10 9 86 10 85 11 87 12
REMARK SMILES IDX 8 13 5 14 6 15 89 16 7 17 88 18 3 19 4 20 2 21 1 22 17 23
REMARK SMILES IDX 18 24 19 25 20 26 21 28 22 29 23 30 84 31 24 32 83 33 25 34
REMARK SMILES IDX 26 35 27 36 77 37 28 38 82 39 76 40 78 41 29 42 81 43 75 44
REMARK SMILES IDX 74 45 30 47 62 48 42 49 61 50 43 51 46 52 60 53 79 54 44 55
REMARK SMILES IDX 45 56 59 58 80 59 47 60 31 61 32 62 40 63 33 64 35 65 41 66
REMARK SMILES IDX 34 67 36 68 37 69 38 70 39 71 63 72 64 73 72 74 65 75 67 76
REMARK SMILES IDX 73 77 66 78 68 79 69 80 70 81 71 82 48 83 49 84 57 85 50 86
REMARK SMILES IDX 52 87 58 88 51 89 53 90 54 91 55 92 56 93
REMARK H PARENT 14 6 19 27 78 46 46 57
REMARK Flexibility Score: inf
ROOT
ATOM      1  C   UNL A   1      31.798  30.370  26.843  1.00  0.00     0.023 C 
ENDROOT
BRANCH   1   2
ATOM      2  C   UNL A   1      33.259  29.924  26.818  1.00  0.00     0.116 C 
BRANCH   2   3
ATOM      3  N   UNL A   1      33.605  29.264  25.572  1.00  0.00    -0.356 N 
ATOM      4  C   UNL A   1      33.647  27.953  25.225  1.00  0.00     0.225 C 
ATOM      5  O   UNL A   1      33.960  27.677  24.064  1.00  0.00    -0.275 OA
ATOM      6  H   UNL A   1      33.854  29.880  24.846  1.00  0.00     0.163 HD
BRANCH   4   7
ATOM      7  C   UNL A   1      33.287  26.836  26.183  1.00  0.00     0.107 C 
ATOM      8  N   UNL A   1      32.638  24.585  25.897  1.00  0.00    -0.312 N 
ATOM      9  C   UNL A   1      33.752  25.478  25.691  1.00  0.00     0.139 C 
ATOM     10  C   UNL A   1      31.481  25.252  26.297  1.00  0.00     0.227 C 
ATOM     11  C   UNL A   1      31.809  26.707  26.510  1.00  0.00     0.116 C 
ATOM     12  O   UNL A   1      30.372  24.781  26.505  1.00  0.00    -0.274 OA
BRANCH   8  13
ATOM     13  C   UNL A   1      32.727  23.197  25.641  1.00  0.00     0.044 A 
ATOM     14  C   UNL A   1      32.945  20.443  25.088  1.00  0.00     0.060 A 
ATOM     15  C   UNL A   1      32.320  21.298  24.176  1.00  0.00     0.018 A 
ATOM     16  C   UNL A   1      33.458  20.961  26.280  1.00  0.00     0.018 A 
ATOM     17  C   UNL A   1      32.185  22.658  24.467  1.00  0.00     0.027 A 
ATOM     18  C   UNL A   1      33.368  22.334  26.541  1.00  0.00     0.027 A 
BRANCH  14  19
ATOM     19  C   UNL A   1      33.072  19.013  24.730  1.00  0.00     0.337 C 
ATOM     20  O   UNL A   1      33.793  18.607  23.829  1.00  0.00    -0.246 OA
BRANCH  19  21
ATOM     21  O   UNL A   1      32.235  18.266  25.489  1.00  0.00    -0.465 OA
ATOM     22  C   UNL A   1      32.753  16.976  25.821  1.00  0.00     0.282 C 
ENDBRANCH  19  21
ENDBRANCH  14  19
ENDBRANCH   8  13
ENDBRANCH   4   7
ENDBRANCH   2   3
ENDBRANCH   1   2
BRANCH   1  23
ATOM     23  C   UNL A   1      31.589  31.883  26.930  1.00  0.00     0.023 C 
BRANCH  23  24
ATOM     24  C   UNL A   1      32.830  32.693  27.289  1.00  0.00     0.116 C 
BRANCH  24  25
ATOM     25  N   UNL A   1      32.526  34.072  27.638  1.00  0.00    -0.352 N 
ATOM     26  C   UNL A   1      33.088  34.861  28.613  1.00  0.00     0.251 C 
ATOM     27  H   UNL A   1      31.820  34.501  27.102  1.00  0.00     0.163 HD
ATOM     28  O   UNL A   1      32.611  35.966  28.856  1.00  0.00    -0.269 OA
BRANCH  26  29
ATOM     29  C   UNL A   1      34.248  34.364  29.385  1.00  0.00     0.039 A 
ATOM     30  C   UNL A   1      34.022  33.724  30.606  1.00  0.00     0.014 A 
ATOM     31  C   UNL A   1      35.551  34.513  28.901  1.00  0.00     0.014 A 
ATOM     32  C   UNL A   1      35.099  33.183  31.313  1.00  0.00     0.010 A 
ATOM     33  C   UNL A   1      36.611  33.901  29.565  1.00  0.00     0.010 A 
ATOM     34  C   UNL A   1      36.398  33.238  30.783  1.00  0.00    -0.014 A 
BRANCH  34  35
ATOM     35  C   UNL A   1      37.545  32.605  31.487  1.00  0.00     0.031 A 
ATOM     36  C   UNL A   1      38.272  31.444  30.861  1.00  0.00     0.074 A 
ATOM     37  C   UNL A   1      37.880  33.021  32.725  1.00  0.00     0.049 A 
ATOM     38  N   UNL A   1      39.260  30.735  31.343  1.00  0.00    -0.248 NA
ATOM     39  C   UNL A   1      37.813  31.002  29.533  1.00  0.00     0.031 C 
ATOM     40  C   UNL A   1      37.201  34.079  33.477  1.00  0.00     0.029 A 
ATOM     41  N   UNL A   1      38.861  32.586  33.582  1.00  0.00    -0.354 N 
ATOM     42  C   UNL A   1      39.511  29.743  30.403  1.00  0.00     0.074 A 
ATOM     43  C   UNL A   1      38.553  29.921  29.334  1.00  0.00     0.031 C 
ATOM     44  C   UNL A   1      37.783  34.210  34.678  1.00  0.00     0.029 A 
ATOM     45  C   UNL A   1      38.856  33.229  34.800  1.00  0.00     0.049 A 
ATOM     46  H   UNL A   1      39.506  31.880  33.349  1.00  0.00     0.167 HD
ATOM     47  C   UNL A   1      40.468  28.785  30.414  1.00  0.00     0.034 A 
ATOM     48  C   UNL A   1      39.619  33.040  35.894  1.00  0.00     0.034 A 
ATOM     49  C   UNL A   1      41.448  28.639  31.456  1.00  0.00     0.049 A 
ATOM     50  C   UNL A   1      40.710  32.005  35.856  1.00  0.00     0.074 A 
ATOM     51  C   UNL A   1      42.520  27.764  31.510  1.00  0.00     0.029 A 
ATOM     52  N   UNL A   1      41.473  29.375  32.630  1.00  0.00    -0.354 N 
ATOM     53  N   UNL A   1      41.036  31.184  34.887  1.00  0.00    -0.248 NA
ATOM     54  C   UNL A   1      41.567  31.896  37.047  1.00  0.00     0.031 C 
ATOM     55  C   UNL A   1      43.171  27.946  32.733  1.00  0.00     0.029 A 
ATOM     56  C   UNL A   1      42.533  28.967  33.421  1.00  0.00     0.049 A 
ATOM     57  H   UNL A   1      40.830  30.083  32.867  1.00  0.00     0.167 HD
ATOM     58  C   UNL A   1      42.159  30.497  35.331  1.00  0.00     0.074 A 
ATOM     59  C   UNL A   1      42.467  31.008  36.650  1.00  0.00     0.031 C 
ATOM     60  C   UNL A   1      42.865  29.522  34.706  1.00  0.00     0.034 A 
BRANCH  47  61
ATOM     61  C   UNL A   1      40.536  27.839  29.243  1.00  0.00     0.023 A 
ATOM     62  C   UNL A   1      39.649  26.747  29.171  1.00  0.00     0.012 A 
ATOM     63  C   UNL A   1      41.425  28.079  28.176  1.00  0.00     0.148 A 
ATOM     64  C   UNL A   1      39.664  25.890  28.070  1.00  0.00     0.002 A 
ATOM     65  C   UNL A   1      41.400  27.251  27.060  1.00  0.00     0.091 A 
ATOM     66  F   UNL A   1      42.275  29.111  28.272  1.00  0.00    -0.205 F 
ATOM     67  C   UNL A   1      40.529  26.150  27.011  1.00  0.00     0.022 A 
BRANCH  65  68
ATOM     68  S   UNL A   1      42.413  27.549  25.608  1.00  0.00     0.127 S 
ATOM     69  O   UNL A   1      43.759  27.524  26.178  1.00  0.00    -0.237 OA
ATOM     70  O   UNL A   1      42.086  26.399  24.766  1.00  0.00    -0.237 OA
ATOM     71  O   UNL A   1      41.988  28.836  25.076  1.00  0.00    -0.744 OA
ENDBRANCH  65  68
ENDBRANCH  47  61
BRANCH  48  72
ATOM     72  C   UNL A   1      39.413  33.886  37.105  1.00  0.00     0.023 A 
ATOM     73  C   UNL A   1      39.854  35.223  37.106  1.00  0.00     0.012 A 
ATOM     74  C   UNL A   1      38.775  33.373  38.251  1.00  0.00     0.148 A 
ATOM     75  C   UNL A   1      39.703  36.022  38.240  1.00  0.00     0.002 A 
ATOM     76  C   UNL A   1      38.573  34.192  39.356  1.00  0.00     0.091 A 
ATOM     77  F   UNL A   1      38.370  32.095  38.234  1.00  0.00    -0.205 F 
ATOM     78  C   UNL A   1      39.054  35.509  39.361  1.00  0.00     0.022 A 
BRANCH  76  79
ATOM     79  S   UNL A   1      37.630  33.656  40.788  1.00  0.00     0.127 S 
ATOM     80  O   UNL A   1      38.523  32.664  41.379  1.00  0.00    -0.237 OA
ATOM     81  O   UNL A   1      37.501  34.901  41.545  1.00  0.00    -0.237 OA
ATOM     82  O   UNL A   1      36.372  33.144  40.261  1.00  0.00    -0.744 OA
ENDBRANCH  76  79
ENDBRANCH  48  72
BRANCH  60  83
ATOM     83  C   UNL A   1      44.084  28.981  35.406  1.00  0.00     0.023 A 
ATOM     84  C   UNL A   1      45.342  29.586  35.211  1.00  0.00     0.012 A 
ATOM     85  C   UNL A   1      43.964  27.913  36.317  1.00  0.00     0.148 A 
ATOM     86  C   UNL A   1      46.467  29.111  35.885  1.00  0.00     0.002 A 
ATOM     87  C   UNL A   1      45.078  27.481  37.024  1.00  0.00     0.091 A 
ATOM     88  F   UNL A   1      42.763  27.338  36.475  1.00  0.00    -0.205 F 
ATOM     89  C   UNL A   1      46.334  28.068  36.798  1.00  0.00     0.022 A 
BRANCH  87  90
ATOM     90  S   UNL A   1      44.979  26.215  38.295  1.00  0.00     0.127 S 
ATOM     91  O   UNL A   1      46.373  26.109  38.720  1.00  0.00    -0.237 OA
ATOM     92  O   UNL A   1      44.087  26.833  39.278  1.00  0.00    -0.237 OA
ATOM     93  O   UNL A   1      44.432  25.033  37.643  1.00  0.00    -0.744 OA
ENDBRANCH  87  90
ENDBRANCH  60  83
ENDBRANCH  34  35
ENDBRANCH  26  29
ENDBRANCH  24  25
ENDBRANCH  23  24
ENDBRANCH   1  23
TORSDOF 17
ENDMDL
MODEL 2
REMARK VINA RESULT:     -11.9      2.440      8.084
REMARK SMILES COC(=O)c1ccc(N2C[C@@H](C(=O)NCCCCNC(=O)c3ccc(-c4c5nc(c(-c6cccc(S(=O)(=O)[O-])c6F)c6ccc([nH]6)c(-c6cccc(S(=O)(=O)[O-])c6F)c6nc(c(-c7cccc(S(=O)(=O)[O-])c7F)c7ccc4[nH]7)C=C6)C=C5)cc3)CC2=O)cc1
REMARK SMILES IDX 16 1 15 2 14 3 12 4 13 5 11 7 9 8 10 9 86 10 85 11 87 12
REMARK SMILES IDX 8 13 5 14 6 15 89 16 7 17 88 18 3 19 4 20 2 21 1 22 17 23
REMARK SMILES IDX 18 24 19 25 20 26 21 28 22 29 23 30 84 31 24 32 83 33 25 34
REMARK SMILES IDX 26 35 27 36 77 37 28 38 82 39 76 40 78 41 29 42 81 43 75 44
REMARK SMILES IDX 74 45 30 47 62 48 42 49 61 50 43 51 46 52 60 53 79 54 44 55
REMARK SMILES IDX 45 56 59 58 80 59 47 60 31 61 32 62 40 63 33 64 35 65 41 66
REMARK SMILES IDX 34 67 36 68 37 69 38 70 39 71 63 72 64 73 72 74 65 75 67 76
REMARK SMILES IDX 73 77 66 78 68 79 69 80 70 81 71 82 48 83 49 84 57 85 50 86
REMARK SMILES IDX 52 87 58 88 51 89 53 90 54 91 55 92 56 93
REMARK H PARENT 14 6 19 27 78 46 46 57
REMARK Flexibility Score: inf
ROOT
ATOM      1  C   UNL A   1      31.524  27.761  25.012  1.00  0.00     0.023 C 
ENDROOT
BRANCH   1   2
ATOM      2  C   UNL A   1      30.371  26.784  25.231  1.00  0.00     0.116 C 
BRANCH   2   3
ATOM      3  N   UNL A   1      30.671  25.811  26.266  1.00  0.00    -0.356 N 
ATOM      4  C   UNL A   1      31.094  24.523  26.199  1.00  0.00     0.225 C 
ATOM      5  O   UNL A   1      31.295  23.931  27.263  1.00  0.00    -0.275 OA
ATOM      6  H   UNL A   1      30.546  26.147  27.182  1.00  0.00     0.163 HD
BRANCH   4   7
ATOM      7  C   UNL A   1      31.366  23.812  24.890  1.00  0.00     0.107 C 
ATOM      8  N   UNL A   1      32.633  21.911  24.296  1.00  0.00    -0.312 N 
ATOM      9  C   UNL A   1      31.474  22.308  25.059  1.00  0.00     0.139 C 
ATOM     10  C   UNL A   1      33.357  23.000  23.813  1.00  0.00     0.227 C 
ATOM     11  C   UNL A   1      32.610  24.265  24.146  1.00  0.00     0.116 C 
ATOM     12  O   UNL A   1      34.401  22.990  23.177  1.00  0.00    -0.274 OA
BRANCH   8  13
ATOM     13  C   UNL A   1      33.004  20.556  24.137  1.00  0.00     0.044 A 
ATOM     14  C   UNL A   1      33.728  17.846  23.879  1.00  0.00     0.060 A 
ATOM     15  C   UNL A   1      34.528  18.722  24.617  1.00  0.00     0.018 A 
ATOM     16  C   UNL A   1      32.567  18.322  23.264  1.00  0.00     0.018 A 
ATOM     17  C   UNL A   1      34.184  20.073  24.717  1.00  0.00     0.027 A 
ATOM     18  C   UNL A   1      32.198  19.665  23.414  1.00  0.00     0.027 A 
BRANCH  14  19
ATOM     19  C   UNL A   1      34.130  16.424  23.810  1.00  0.00     0.337 C 
ATOM     20  O   UNL A   1      34.381  15.846  22.761  1.00  0.00    -0.246 OA
BRANCH  19  21
ATOM     21  O   UNL A   1      34.106  15.871  25.046  1.00  0.00    -0.465 OA
ATOM     22  C   UNL A   1      32.862  15.252  25.379  1.00  0.00     0.282 C 
ENDBRANCH  19  21
ENDBRANCH  14  19
ENDBRANCH   8  13
ENDBRANCH   4   7
ENDBRANCH   2   3
ENDBRANCH   1   2
BRANCH   1  23
ATOM     23  C   UNL A   1      31.318  29.147  25.626  1.00  0.00     0.023 C 
BRANCH  23  24
ATOM     24  C   UNL A   1      32.595  29.900  25.982  1.00  0.00     0.116 C 
BRANCH  24  25
ATOM     25  N   UNL A   1      32.354  31.289  26.343  1.00  0.00    -0.352 N 
ATOM     26  C   UNL A   1      33.055  32.090  27.212  1.00  0.00     0.251 C 
ATOM     27  H   UNL A   1      31.581  31.714  25.904  1.00  0.00     0.163 HD
ATOM     28  O   UNL A   1      32.625  33.203  27.498  1.00  0.00    -0.269 OA
BRANCH  26  29
ATOM     29  C   UNL A   1      34.309  31.596  27.820  1.00  0.00     0.039 A 
ATOM     30  C   UNL A   1      35.189  32.516  28.396  1.00  0.00     0.014 A 
ATOM     31  C   UNL A   1      34.612  30.231  27.836  1.00  0.00     0.014 A 
ATOM     32  C   UNL A   1      36.343  32.061  29.039  1.00  0.00     0.010 A 
ATOM     33  C   UNL A   1      35.718  29.775  28.549  1.00  0.00     0.010 A 
ATOM     34  C   UNL A   1      36.601  30.685  29.149  1.00  0.00    -0.014 A 
BRANCH  34  35
ATOM     35  C   UNL A   1      37.786  30.180  29.892  1.00  0.00     0.031 A 
ATOM     36  C   UNL A   1      38.066  30.661  31.291  1.00  0.00     0.074 A 
ATOM     37  C   UNL A   1      38.655  29.352  29.278  1.00  0.00     0.049 A 
ATOM     38  N   UNL A   1      39.073  30.372  32.075  1.00  0.00    -0.248 NA
ATOM     39  C   UNL A   1      37.108  31.614  31.878  1.00  0.00     0.031 C 
ATOM     40  C   UNL A   1      38.543  28.879  27.896  1.00  0.00     0.029 A 
ATOM     41  N   UNL A   1      39.820  28.781  29.728  1.00  0.00    -0.354 N 
ATOM     42  C   UNL A   1      38.893  31.134  33.223  1.00  0.00     0.074 A 
ATOM     43  C   UNL A   1      37.697  31.923  33.024  1.00  0.00     0.031 C 
ATOM     44  C   UNL A   1      39.592  28.093  27.612  1.00  0.00     0.029 A 
ATOM     45  C   UNL A   1      40.470  28.028  28.776  1.00  0.00     0.049 A 
ATOM     46  H   UNL A   1      40.160  28.900  30.644  1.00  0.00     0.167 HD
ATOM     47  C   UNL A   1      39.641  31.159  34.352  1.00  0.00     0.034 A 
ATOM     48  C   UNL A   1      41.645  27.370  28.830  1.00  0.00     0.034 A 
ATOM     49  C   UNL A   1      40.803  30.339  34.565  1.00  0.00     0.049 A 
ATOM     50  C   UNL A   1      42.426  27.371  30.116  1.00  0.00     0.074 A 
ATOM     51  C   UNL A   1      41.569  30.218  35.712  1.00  0.00     0.029 A 
ATOM     52  N   UNL A   1      41.375  29.513  33.612  1.00  0.00    -0.354 N 
ATOM     53  N   UNL A   1      42.150  27.971  31.249  1.00  0.00    -0.248 NA
ATOM     54  C   UNL A   1      43.660  26.572  30.147  1.00  0.00     0.031 C 
ATOM     55  C   UNL A   1      42.626  29.345  35.440  1.00  0.00     0.029 A 
ATOM     56  C   UNL A   1      42.491  28.886  34.139  1.00  0.00     0.049 A 
ATOM     57  H   UNL A   1      41.038  29.389  32.695  1.00  0.00     0.167 HD
ATOM     58  C   UNL A   1      43.147  27.586  32.137  1.00  0.00     0.074 A 
ATOM     59  C   UNL A   1      44.025  26.688  31.416  1.00  0.00     0.031 C 
ATOM     60  C   UNL A   1      43.325  27.951  33.430  1.00  0.00     0.034 A 
BRANCH  47  61
ATOM     61  C   UNL A   1      39.204  32.069  35.470  1.00  0.00     0.023 A 
ATOM     62  C   UNL A   1      38.337  31.587  36.471  1.00  0.00     0.012 A 
ATOM     63  C   UNL A   1      39.719  33.377  35.573  1.00  0.00     0.148 A 
ATOM     64  C   UNL A   1      37.964  32.400  37.540  1.00  0.00     0.002 A 
ATOM     65  C   UNL A   1      39.381  34.165  36.668  1.00  0.00     0.091 A 
ATOM     66  F   UNL A   1      40.526  33.826  34.602  1.00  0.00    -0.205 F 
ATOM     67  C   UNL A   1      38.495  33.683  37.645  1.00  0.00     0.022 A 
BRANCH  65  68
ATOM     68  S   UNL A   1      40.078  35.798  36.940  1.00  0.00     0.127 S 
ATOM     69  O   UNL A   1      39.665  36.500  35.726  1.00  0.00    -0.237 OA
ATOM     70  O   UNL A   1      39.388  36.226  38.156  1.00  0.00    -0.237 OA
ATOM     71  O   UNL A   1      41.514  35.605  37.087  1.00  0.00    -0.744 OA
ENDBRANCH  65  68
ENDBRANCH  47  61
BRANCH  48  72
ATOM     72  C   UNL A   1      42.133  26.612  27.643  1.00  0.00     0.023 A 
ATOM     73  C   UNL A   1      42.876  27.275  26.647  1.00  0.00     0.012 A 
ATOM     74  C   UNL A   1      41.869  25.236  27.500  1.00  0.00     0.148 A 
ATOM     75  C   UNL A   1      43.312  26.593  25.511  1.00  0.00     0.002 A 
ATOM     76  C   UNL A   1      42.359  24.548  26.395  1.00  0.00     0.091 A 
ATOM     77  F   UNL A   1      41.153  24.624  28.453  1.00  0.00    -0.205 F 
ATOM     78  C   UNL A   1      43.062  25.229  25.389  1.00  0.00     0.022 A 
BRANCH  76  79
ATOM     79  S   UNL A   1      42.199  22.767  26.225  1.00  0.00     0.127 S 
ATOM     80  O   UNL A   1      42.851  22.531  24.940  1.00  0.00    -0.237 OA
ATOM     81  O   UNL A   1      42.939  22.286  27.391  1.00  0.00    -0.237 OA
ATOM     82  O   UNL A   1      40.769  22.496  26.270  1.00  0.00    -0.744 OA
ENDBRANCH  76  79
ENDBRANCH  48  72
BRANCH  60  83
ATOM     83  C   UNL A   1      44.475  27.334  34.182  1.00  0.00     0.023 A 
ATOM     84  C   UNL A   1      45.748  27.939  34.154  1.00  0.00     0.012 A 
ATOM     85  C   UNL A   1      44.270  26.191  34.979  1.00  0.00     0.148 A 
ATOM     86  C   UNL A   1      46.806  27.391  34.878  1.00  0.00     0.002 A 
ATOM     87  C   UNL A   1      45.315  25.683  35.740  1.00  0.00     0.091 A 
ATOM     88  F   UNL A   1      43.057  25.619  34.979  1.00  0.00    -0.205 F 
ATOM     89  C   UNL A   1      46.588  26.273  35.679  1.00  0.00     0.022 A 
BRANCH  87  90
ATOM     90  S   UNL A   1      45.098  24.310  36.878  1.00  0.00     0.127 S 
ATOM     91  O   UNL A   1      43.935  24.743  37.649  1.00  0.00    -0.237 OA
ATOM     92  O   UNL A   1      44.847  23.192  35.968  1.00  0.00    -0.237 OA
ATOM     93  O   UNL A   1      46.343  24.210  37.628  1.00  0.00    -0.744 OA
ENDBRANCH  87  90
ENDBRANCH  60  83
ENDBRANCH  34  35
ENDBRANCH  26  29
ENDBRANCH  24  25
ENDBRANCH  23  24
ENDBRANCH   1  23
TORSDOF 17
ENDMDL
MODEL 3
REMARK VINA RESULT:     -11.7      3.440      8.735
REMARK SMILES COC(=O)c1ccc(N2C[C@@H](C(=O)NCCCCNC(=O)c3ccc(-c4c5nc(c(-c6cccc(S(=O)(=O)[O-])c6F)c6ccc([nH]6)c(-c6cccc(S(=O)(=O)[O-])c6F)c6nc(c(-c7cccc(S(=O)(=O)[O-])c7F)c7ccc4[nH]7)C=C6)C=C5)cc3)CC2=O)cc1
REMARK SMILES IDX 16 1 15 2 14 3 12 4 13 5 11 7 9 8 10 9 86 10 85 11 87 12
REMARK SMILES IDX 8 13 5 14 6 15 89 16 7 17 88 18 3 19 4 20 2 21 1 22 17 23
REMARK SMILES IDX 18 24 19 25 20 26 21 28 22 29 23 30 84 31 24 32 83 33 25 34
REMARK SMILES IDX 26 35 27 36 77 37 28 38 82 39 76 40 78 41 29 42 81 43 75 44
REMARK SMILES IDX 74 45 30 47 62 48 42 49 61 50 43 51 46 52 60 53 79 54 44 55
REMARK SMILES IDX 45 56 59 58 80 59 47 60 31 61 32 62 40 63 33 64 35 65 41 66
REMARK SMILES IDX 34 67 36 68 37 69 38 70 39 71 63 72 64 73 72 74 65 75 67 76
REMARK SMILES IDX 73 77 66 78 68 79 69 80 70 81 71 82 48 83 49 84 57 85 50 86
REMARK SMILES IDX 52 87 58 88 51 89 53 90 54 91 55 92 56 93
REMARK H PARENT 14 6 19 27 78 46 46 57
REMARK Flexibility Score: inf
ROOT
ATOM      1  C   UNL A   1      31.745  27.859  26.392  1.00  0.00     0.023 C 
ENDROOT
BRANCH   1   2
ATOM      2  C   UNL A   1      31.172  26.901  25.349  1.00  0.00     0.116 C 
BRANCH   2   3
ATOM      3  N   UNL A   1      30.548  27.609  24.246  1.00  0.00    -0.356 N 
ATOM      4  C   UNL A   1      30.601  27.417  22.904  1.00  0.00     0.225 C 
ATOM      5  O   UNL A   1      29.937  28.172  22.190  1.00  0.00    -0.275 OA
ATOM      6  H   UNL A   1      29.982  28.366  24.522  1.00  0.00     0.163 HD
BRANCH   4   7
ATOM      7  C   UNL A   1      31.398  26.300  22.262  1.00  0.00     0.107 C 
ATOM      8  N   UNL A   1      32.276  24.257  23.054  1.00  0.00    -0.312 N 
ATOM      9  C   UNL A   1      31.026  24.935  22.809  1.00  0.00     0.139 C 
ATOM     10  C   UNL A   1      33.381  25.091  22.889  1.00  0.00     0.227 C 
ATOM     11  C   UNL A   1      32.908  26.426  22.375  1.00  0.00     0.116 C 
ATOM     12  O   UNL A   1      34.561  24.825  23.066  1.00  0.00    -0.274 OA
BRANCH   8  13
ATOM     13  C   UNL A   1      32.333  22.910  23.483  1.00  0.00     0.044 A 
ATOM     14  C   UNL A   1      32.502  20.223  24.309  1.00  0.00     0.060 A 
ATOM     15  C   UNL A   1      32.314  20.535  22.961  1.00  0.00     0.018 A 
ATOM     16  C   UNL A   1      32.601  21.253  25.249  1.00  0.00     0.018 A 
ATOM     17  C   UNL A   1      32.199  21.868  22.557  1.00  0.00     0.027 A 
ATOM     18  C   UNL A   1      32.540  22.588  24.831  1.00  0.00     0.027 A 
BRANCH  14  19
ATOM     19  C   UNL A   1      32.627  18.797  24.685  1.00  0.00     0.337 C 
ATOM     20  O   UNL A   1      32.279  18.356  25.772  1.00  0.00    -0.246 OA
BRANCH  19  21
ATOM     21  O   UNL A   1      33.232  18.103  23.693  1.00  0.00    -0.465 OA
ATOM     22  C   UNL A   1      33.275  16.693  23.916  1.00  0.00     0.282 C 
ENDBRANCH  19  21
ENDBRANCH  14  19
ENDBRANCH   8  13
ENDBRANCH   4   7
ENDBRANCH   2   3
ENDBRANCH   1   2
BRANCH   1  23
ATOM     23  C   UNL A   1      33.270  27.833  26.518  1.00  0.00     0.023 C 
BRANCH  23  24
ATOM     24  C   UNL A   1      33.997  29.011  25.880  1.00  0.00     0.116 C 
BRANCH  24  25
ATOM     25  N   UNL A   1      33.764  30.268  26.575  1.00  0.00    -0.352 N 
ATOM     26  C   UNL A   1      34.477  30.830  27.607  1.00  0.00     0.251 C 
ATOM     27  H   UNL A   1      32.988  30.788  26.264  1.00  0.00     0.163 HD
ATOM     28  O   UNL A   1      34.054  31.838  28.164  1.00  0.00    -0.269 OA
BRANCH  26  29
ATOM     29  C   UNL A   1      35.737  30.202  28.059  1.00  0.00     0.039 A 
ATOM     30  C   UNL A   1      36.876  30.321  27.258  1.00  0.00     0.014 A 
ATOM     31  C   UNL A   1      35.802  29.511  29.272  1.00  0.00     0.014 A 
ATOM     32  C   UNL A   1      38.092  29.797  27.703  1.00  0.00     0.010 A 
ATOM     33  C   UNL A   1      37.030  29.063  29.750  1.00  0.00     0.010 A 
ATOM     34  C   UNL A   1      38.188  29.192  28.967  1.00  0.00    -0.014 A 
BRANCH  34  35
ATOM     35  C   UNL A   1      39.488  28.694  29.487  1.00  0.00     0.031 A 
ATOM     36  C   UNL A   1      40.180  29.412  30.616  1.00  0.00     0.074 A 
ATOM     37  C   UNL A   1      40.087  27.643  28.890  1.00  0.00     0.049 A 
ATOM     38  N   UNL A   1      41.337  29.155  31.169  1.00  0.00    -0.248 NA
ATOM     39  C   UNL A   1      39.498  30.589  31.181  1.00  0.00     0.031 C 
ATOM     40  C   UNL A   1      39.562  26.914  27.734  1.00  0.00     0.029 A 
ATOM     41  N   UNL A   1      41.283  27.023  29.156  1.00  0.00    -0.354 N 
ATOM     42  C   UNL A   1      41.541  30.157  32.110  1.00  0.00     0.074 A 
ATOM     43  C   UNL A   1      40.401  31.045  32.036  1.00  0.00     0.031 C 
ATOM     44  C   UNL A   1      40.428  25.948  27.391  1.00  0.00     0.029 A 
ATOM     45  C   UNL A   1      41.585  26.006  28.279  1.00  0.00     0.049 A 
ATOM     46  H   UNL A   1      41.870  27.282  29.903  1.00  0.00     0.167 HD
ATOM     47  C   UNL A   1      42.570  30.312  32.977  1.00  0.00     0.034 A 
ATOM     48  C   UNL A   1      42.674  25.217  28.191  1.00  0.00     0.034 A 
ATOM     49  C   UNL A   1      43.678  29.402  33.080  1.00  0.00     0.049 A 
ATOM     50  C   UNL A   1      43.777  25.377  29.203  1.00  0.00     0.074 A 
ATOM     51  C   UNL A   1      44.719  29.416  33.993  1.00  0.00     0.029 A 
ATOM     52  N   UNL A   1      43.900  28.324  32.238  1.00  0.00    -0.354 N 
ATOM     53  N   UNL A   1      43.871  26.232  30.192  1.00  0.00    -0.248 NA
ATOM     54  C   UNL A   1      44.905  24.439  29.113  1.00  0.00     0.031 C 
ATOM     55  C   UNL A   1      45.589  28.368  33.681  1.00  0.00     0.029 A 
ATOM     56  C   UNL A   1      45.065  27.672  32.602  1.00  0.00     0.049 A 
ATOM     57  H   UNL A   1      43.315  28.060  31.491  1.00  0.00     0.167 HD
ATOM     58  C   UNL A   1      45.040  25.906  30.868  1.00  0.00     0.074 A 
ATOM     59  C   UNL A   1      45.614  24.765  30.184  1.00  0.00     0.031 C 
ATOM     60  C   UNL A   1      45.596  26.503  31.951  1.00  0.00     0.034 A 
BRANCH  47  61
ATOM     61  C   UNL A   1      42.531  31.487  33.919  1.00  0.00     0.023 A 
ATOM     62  C   UNL A   1      43.175  32.690  33.568  1.00  0.00     0.012 A 
ATOM     63  C   UNL A   1      41.787  31.424  35.115  1.00  0.00     0.148 A 
ATOM     64  C   UNL A   1      43.107  33.803  34.405  1.00  0.00     0.002 A 
ATOM     65  C   UNL A   1      41.683  32.553  35.919  1.00  0.00     0.091 A 
ATOM     66  F   UNL A   1      41.198  30.266  35.442  1.00  0.00    -0.205 F 
ATOM     67  C   UNL A   1      42.351  33.739  35.572  1.00  0.00     0.022 A 
BRANCH  65  68
ATOM     68  S   UNL A   1      40.665  32.599  37.398  1.00  0.00     0.127 S 
ATOM     69  O   UNL A   1      39.535  31.758  37.004  1.00  0.00    -0.237 OA
ATOM     70  O   UNL A   1      41.550  32.002  38.397  1.00  0.00    -0.237 OA
ATOM     71  O   UNL A   1      40.345  34.001  37.625  1.00  0.00    -0.744 OA
ENDBRANCH  65  68
ENDBRANCH  47  61
BRANCH  48  72
ATOM     72  C   UNL A   1      42.756  24.169  27.135  1.00  0.00     0.023 A 
ATOM     73  C   UNL A   1      43.487  24.418  25.958  1.00  0.00     0.012 A 
ATOM     74  C   UNL A   1      42.117  22.924  27.295  1.00  0.00     0.148 A 
ATOM     75  C   UNL A   1      43.547  23.464  24.941  1.00  0.00     0.002 A 
ATOM     76  C   UNL A   1      42.231  21.955  26.305  1.00  0.00     0.091 A 
ATOM     77  F   UNL A   1      41.418  22.709  28.418  1.00  0.00    -0.205 F 
ATOM     78  C   UNL A   1      42.927  22.230  25.119  1.00  0.00     0.022 A 
BRANCH  76  79
ATOM     79  S   UNL A   1      41.579  20.293  26.508  1.00  0.00     0.127 S 
ATOM     80  O   UNL A   1      40.139  20.527  26.435  1.00  0.00    -0.237 OA
ATOM     81  O   UNL A   1      42.152  19.602  25.353  1.00  0.00    -0.237 OA
ATOM     82  O   UNL A   1      42.082  19.828  27.793  1.00  0.00    -0.744 OA
ENDBRANCH  76  79
ENDBRANCH  48  72
BRANCH  60  83
ATOM     83  C   UNL A   1      46.857  25.903  32.515  1.00  0.00     0.023 A 
ATOM     84  C   UNL A   1      48.117  26.371  32.092  1.00  0.00     0.012 A 
ATOM     85  C   UNL A   1      46.787  24.922  33.524  1.00  0.00     0.148 A 
ATOM     86  C   UNL A   1      49.287  25.843  32.638  1.00  0.00     0.002 A 
ATOM     87  C   UNL A   1      47.954  24.441  34.101  1.00  0.00     0.091 A 
ATOM     88  F   UNL A   1      45.579  24.477  33.900  1.00  0.00    -0.205 F 
ATOM     89  C   UNL A   1      49.206  24.888  33.649  1.00  0.00     0.022 A 
BRANCH  87  90
ATOM     90  S   UNL A   1      47.941  23.289  35.480  1.00  0.00     0.127 S 
ATOM     91  O   UNL A   1      49.369  23.101  35.725  1.00  0.00    -0.237 OA
ATOM     92  O   UNL A   1      47.240  24.051  36.513  1.00  0.00    -0.237 OA
ATOM     93  O   UNL A   1      47.227  22.109  35.011  1.00  0.00    -0.744 OA
ENDBRANCH  87  90
ENDBRANCH  60  83
ENDBRANCH  34  35
ENDBRANCH  26  29
ENDBRANCH  24  25
ENDBRANCH  23  24
ENDBRANCH   1  23
TORSDOF 17
ENDMDL
