MODEL 1
REMARK VINA RESULT:     -11.7      0.000      0.000
REMARK SMILES Cc1nsc(N(C)C(=O)[C@H]2CCOC2)c1C(=O)NCCCCNC(=O)c1ccc(-c2c3nc(c(-c4cccc(S(=O)(=O)[O-])c4F)c4ccc([nH]4)c(-c4cccc(S(=O)(=O)[O-])c4F)c4nc(c(-c5cccc(S(=O)(=O)[O-])c5F)c5ccc2[nH]5)C=C4)C=C3)cc1
REMARK SMILES IDX 20 1 19 2 18 3 16 4 17 5 15 7 1 8 2 9 3 10 4 11 5 12 6 13
REMARK SMILES IDX 7 14 8 15 9 16 10 17 11 18 14 19 12 20 13 21 21 22 22 23
REMARK SMILES IDX 23 24 24 25 25 27 26 28 27 29 88 30 28 31 87 32 29 33 30 34
REMARK SMILES IDX 31 35 81 36 32 37 86 38 80 39 82 40 33 41 85 42 79 43 78 44
REMARK SMILES IDX 34 46 66 47 46 48 65 49 47 50 50 51 64 52 83 53 48 54 49 55
REMARK SMILES IDX 63 57 84 58 51 59 35 60 36 61 44 62 37 63 39 64 45 65 38 66
REMARK SMILES IDX 40 67 41 68 42 69 43 70 67 71 68 72 76 73 69 74 71 75 77 76
REMARK SMILES IDX 70 77 72 78 73 79 74 80 75 81 52 82 53 83 61 84 54 85 56 86
REMARK SMILES IDX 62 87 55 88 57 89 58 90 59 91 60 92
REMARK H PARENT 18 6 23 26 82 45 50 56
REMARK Flexibility Score: inf
ROOT
ATOM      1  C   UNL A   1      36.864  20.649  24.763  1.00  0.00     0.023 C 
ENDROOT
BRANCH   1   2
ATOM      2  C   UNL A   1      36.976  21.932  25.585  1.00  0.00     0.116 C 
BRANCH   2   3
ATOM      3  N   UNL A   1      35.876  22.145  26.491  1.00  0.00    -0.352 N 
ATOM      4  C   UNL A   1      34.580  21.693  26.506  1.00  0.00     0.256 C 
ATOM      5  O   UNL A   1      34.177  21.400  27.638  1.00  0.00    -0.269 OA
ATOM      6  H   UNL A   1      36.098  22.732  27.250  1.00  0.00     0.163 HD
BRANCH   4   7
ATOM      7  C   UNL A   1      33.660  21.625  25.353  1.00  0.00     0.097 A 
ATOM      8  C   UNL A   1      33.588  19.096  24.446  1.00  0.00     0.069 C 
ATOM      9  C   UNL A   1      33.198  20.529  24.496  1.00  0.00     0.066 A 
ATOM     10  N   UNL A   1      32.227  20.822  23.624  1.00  0.00    -0.195 NA
ATOM     11  S   UNL A   1      31.799  22.385  23.783  1.00  0.00    -0.017 S 
ATOM     12  C   UNL A   1      32.962  22.788  24.961  1.00  0.00     0.131 A 
BRANCH  12  13
ATOM     13  N   UNL A   1      33.044  24.149  25.338  1.00  0.00    -0.305 N 
ATOM     14  C   UNL A   1      32.162  24.755  26.334  1.00  0.00     0.154 C 
BRANCH  13  15
ATOM     15  C   UNL A   1      33.908  24.961  24.576  1.00  0.00     0.232 C 
ATOM     16  O   UNL A   1      35.123  24.746  24.499  1.00  0.00    -0.274 OA
BRANCH  15  17
ATOM     17  C   UNL A   1      33.258  26.079  23.756  1.00  0.00     0.107 C 
ATOM     18  C   UNL A   1      33.825  27.458  24.033  1.00  0.00     0.044 C 
ATOM     19  C   UNL A   1      33.538  25.888  22.275  1.00  0.00     0.173 C 
ATOM     20  C   UNL A   1      33.705  28.163  22.702  1.00  0.00     0.161 C 
ATOM     21  O   UNL A   1      33.833  27.160  21.688  1.00  0.00    -0.381 OA
ENDBRANCH  15  17
ENDBRANCH  13  15
ENDBRANCH  12  13
ENDBRANCH   4   7
ENDBRANCH   2   3
ENDBRANCH   1   2
BRANCH   1  22
ATOM     22  C   UNL A   1      37.985  19.623  24.984  1.00  0.00     0.023 C 
BRANCH  22  23
ATOM     23  C   UNL A   1      39.203  20.140  25.750  1.00  0.00     0.116 C 
BRANCH  23  24
ATOM     24  N   UNL A   1      40.265  19.139  25.884  1.00  0.00    -0.352 N 
ATOM     25  C   UNL A   1      41.618  19.364  26.008  1.00  0.00     0.251 C 
ATOM     26  H   UNL A   1      39.978  18.197  25.885  1.00  0.00     0.163 HD
ATOM     27  O   UNL A   1      42.437  18.488  25.709  1.00  0.00    -0.269 OA
BRANCH  25  28
ATOM     28  C   UNL A   1      42.079  20.657  26.530  1.00  0.00     0.039 A 
ATOM     29  C   UNL A   1      42.641  21.628  25.695  1.00  0.00     0.014 A 
ATOM     30  C   UNL A   1      41.901  20.894  27.891  1.00  0.00     0.014 A 
ATOM     31  C   UNL A   1      42.944  22.878  26.227  1.00  0.00     0.010 A 
ATOM     32  C   UNL A   1      42.089  22.159  28.389  1.00  0.00     0.010 A 
ATOM     33  C   UNL A   1      42.646  23.143  27.573  1.00  0.00    -0.014 A 
BRANCH  33  34
ATOM     34  C   UNL A   1      42.717  24.505  28.102  1.00  0.00     0.031 A 
ATOM     35  C   UNL A   1      41.446  25.268  27.924  1.00  0.00     0.074 A 
ATOM     36  C   UNL A   1      43.728  24.892  28.916  1.00  0.00     0.049 A 
ATOM     37  N   UNL A   1      41.245  26.338  27.225  1.00  0.00    -0.248 NA
ATOM     38  C   UNL A   1      40.201  24.664  28.435  1.00  0.00     0.031 C 
ATOM     39  C   UNL A   1      44.840  24.050  29.385  1.00  0.00     0.029 A 
ATOM     40  N   UNL A   1      43.897  26.036  29.643  1.00  0.00    -0.354 N 
ATOM     41  C   UNL A   1      39.912  26.687  27.462  1.00  0.00     0.074 A 
ATOM     42  C   UNL A   1      39.277  25.502  27.962  1.00  0.00     0.031 C 
ATOM     43  C   UNL A   1      45.377  24.589  30.500  1.00  0.00     0.029 A 
ATOM     44  C   UNL A   1      44.773  25.887  30.723  1.00  0.00     0.049 A 
ATOM     45  H   UNL A   1      43.445  26.882  29.428  1.00  0.00     0.167 HD
ATOM     46  C   UNL A   1      39.552  27.998  27.584  1.00  0.00     0.034 A 
ATOM     47  C   UNL A   1      44.959  26.746  31.756  1.00  0.00     0.034 A 
ATOM     48  C   UNL A   1      40.611  28.844  27.095  1.00  0.00     0.049 A 
ATOM     49  C   UNL A   1      44.449  28.061  31.324  1.00  0.00     0.074 A 
ATOM     50  C   UNL A   1      41.180  29.155  25.881  1.00  0.00     0.029 A 
ATOM     51  N   UNL A   1      41.496  29.208  28.075  1.00  0.00    -0.354 N 
ATOM     52  N   UNL A   1      44.996  28.758  30.369  1.00  0.00    -0.248 NA
ATOM     53  C   UNL A   1      43.106  28.467  31.711  1.00  0.00     0.031 C 
ATOM     54  C   UNL A   1      42.527  29.526  26.170  1.00  0.00     0.029 A 
ATOM     55  C   UNL A   1      42.723  29.488  27.551  1.00  0.00     0.049 A 
ATOM     56  H   UNL A   1      41.275  29.260  29.033  1.00  0.00     0.167 HD
ATOM     57  C   UNL A   1      43.916  29.340  29.731  1.00  0.00     0.074 A 
ATOM     58  C   UNL A   1      42.829  29.297  30.702  1.00  0.00     0.031 C 
ATOM     59  C   UNL A   1      43.911  29.483  28.376  1.00  0.00     0.034 A 
BRANCH  46  60
ATOM     60  C   UNL A   1      38.565  28.564  28.612  1.00  0.00     0.023 A 
ATOM     61  C   UNL A   1      37.633  29.517  28.127  1.00  0.00     0.012 A 
ATOM     62  C   UNL A   1      38.699  28.485  30.018  1.00  0.00     0.148 A 
ATOM     63  C   UNL A   1      36.960  30.402  28.979  1.00  0.00     0.002 A 
ATOM     64  C   UNL A   1      37.991  29.334  30.866  1.00  0.00     0.091 A 
ATOM     65  F   UNL A   1      39.587  27.660  30.568  1.00  0.00    -0.205 F 
ATOM     66  C   UNL A   1      37.147  30.318  30.350  1.00  0.00     0.022 A 
BRANCH  64  67
ATOM     67  S   UNL A   1      38.185  29.263  32.654  1.00  0.00     0.127 S 
ATOM     68  O   UNL A   1      37.338  30.374  33.081  1.00  0.00    -0.237 OA
ATOM     69  O   UNL A   1      37.664  27.931  32.955  1.00  0.00    -0.237 OA
ATOM     70  O   UNL A   1      39.612  29.420  32.907  1.00  0.00    -0.744 OA
ENDBRANCH  64  67
ENDBRANCH  46  60
BRANCH  47  71
ATOM     71  C   UNL A   1      45.372  26.510  33.159  1.00  0.00     0.023 A 
ATOM     72  C   UNL A   1      46.290  27.387  33.775  1.00  0.00     0.012 A 
ATOM     73  C   UNL A   1      44.650  25.619  33.982  1.00  0.00     0.148 A 
ATOM     74  C   UNL A   1      46.446  27.412  35.167  1.00  0.00     0.002 A 
ATOM     75  C   UNL A   1      44.808  25.647  35.366  1.00  0.00     0.091 A 
ATOM     76  F   UNL A   1      43.745  24.813  33.412  1.00  0.00    -0.205 F 
ATOM     77  C   UNL A   1      45.694  26.553  35.962  1.00  0.00     0.022 A 
BRANCH  75  78
ATOM     78  S   UNL A   1      43.849  24.596  36.465  1.00  0.00     0.127 S 
ATOM     79  O   UNL A   1      44.221  23.258  36.003  1.00  0.00    -0.237 OA
ATOM     80  O   UNL A   1      44.384  24.961  37.774  1.00  0.00    -0.237 OA
ATOM     81  O   UNL A   1      42.455  24.946  36.228  1.00  0.00    -0.744 OA
ENDBRANCH  75  78
ENDBRANCH  47  71
BRANCH  59  82
ATOM     82  C   UNL A   1      45.233  29.465  27.670  1.00  0.00     0.023 A 
ATOM     83  C   UNL A   1      46.159  30.524  27.727  1.00  0.00     0.012 A 
ATOM     84  C   UNL A   1      45.593  28.272  27.025  1.00  0.00     0.148 A 
ATOM     85  C   UNL A   1      47.418  30.396  27.134  1.00  0.00     0.002 A 
ATOM     86  C   UNL A   1      46.859  28.130  26.482  1.00  0.00     0.091 A 
ATOM     87  F   UNL A   1      44.688  27.282  26.978  1.00  0.00    -0.205 F 
ATOM     88  C   UNL A   1      47.774  29.193  26.524  1.00  0.00     0.022 A 
BRANCH  86  89
ATOM     89  S   UNL A   1      47.404  26.565  25.802  1.00  0.00     0.127 S 
ATOM     90  O   UNL A   1      46.556  26.435  24.619  1.00  0.00    -0.237 OA
ATOM     91  O   UNL A   1      48.817  26.821  25.520  1.00  0.00    -0.237 OA
ATOM     92  O   UNL A   1      47.179  25.573  26.847  1.00  0.00    -0.744 OA
ENDBRANCH  86  89
ENDBRANCH  59  82
ENDBRANCH  33  34
ENDBRANCH  25  28
ENDBRANCH  23  24
ENDBRANCH  22  23
ENDBRANCH   1  22
TORSDOF 17
ENDMDL
MODEL 2
REMARK VINA RESULT:     -11.3      1.735      2.029
REMARK SMILES Cc1nsc(N(C)C(=O)[C@H]2CCOC2)c1C(=O)NCCCCNC(=O)c1ccc(-c2c3nc(c(-c4cccc(S(=O)(=O)[O-])c4F)c4ccc([nH]4)c(-c4cccc(S(=O)(=O)[O-])c4F)c4nc(c(-c5cccc(S(=O)(=O)[O-])c5F)c5ccc2[nH]5)C=C4)C=C3)cc1
REMARK SMILES IDX 20 1 19 2 18 3 16 4 17 5 15 7 1 8 2 9 3 10 4 11 5 12 6 13
REMARK SMILES IDX 7 14 8 15 9 16 10 17 11 18 14 19 12 20 13 21 21 22 22 23
REMARK SMILES IDX 23 24 24 25 25 27 26 28 27 29 88 30 28 31 87 32 29 33 30 34
REMARK SMILES IDX 31 35 81 36 32 37 86 38 80 39 82 40 33 41 85 42 79 43 78 44
REMARK SMILES IDX 34 46 66 47 46 48 65 49 47 50 50 51 64 52 83 53 48 54 49 55
REMARK SMILES IDX 63 57 84 58 51 59 35 60 36 61 44 62 37 63 39 64 45 65 38 66
REMARK SMILES IDX 40 67 41 68 42 69 43 70 67 71 68 72 76 73 69 74 71 75 77 76
REMARK SMILES IDX 70 77 72 78 73 79 74 80 75 81 52 82 53 83 61 84 54 85 56 86
REMARK SMILES IDX 62 87 55 88 57 89 58 90 59 91 60 92
REMARK H PARENT 18 6 23 26 82 45 50 56
REMARK Flexibility Score: inf
ROOT
ATOM      1  C   UNL A   1      36.600  20.733  24.868  1.00  0.00     0.023 C 
ENDROOT
BRANCH   1   2
ATOM      2  C   UNL A   1      36.710  21.891  25.858  1.00  0.00     0.116 C 
BRANCH   2   3
ATOM      3  N   UNL A   1      35.526  22.098  26.653  1.00  0.00    -0.352 N 
ATOM      4  C   UNL A   1      34.232  21.658  26.528  1.00  0.00     0.256 C 
ATOM      5  O   UNL A   1      33.714  21.348  27.607  1.00  0.00    -0.269 OA
ATOM      6  H   UNL A   1      35.675  22.668  27.441  1.00  0.00     0.163 HD
BRANCH   4   7
ATOM      7  C   UNL A   1      33.433  21.620  25.287  1.00  0.00     0.097 A 
ATOM      8  C   UNL A   1      33.357  19.092  24.377  1.00  0.00     0.069 C 
ATOM      9  C   UNL A   1      33.019  20.540  24.387  1.00  0.00     0.066 A 
ATOM     10  N   UNL A   1      32.155  20.866  23.420  1.00  0.00    -0.195 NA
ATOM     11  S   UNL A   1      31.772  22.444  23.535  1.00  0.00    -0.017 S 
ATOM     12  C   UNL A   1      32.823  22.807  24.826  1.00  0.00     0.131 A 
BRANCH  12  13
ATOM     13  N   UNL A   1      32.918  24.166  25.209  1.00  0.00    -0.305 N 
ATOM     14  C   UNL A   1      32.019  24.784  26.183  1.00  0.00     0.154 C 
BRANCH  13  15
ATOM     15  C   UNL A   1      33.815  24.966  24.474  1.00  0.00     0.232 C 
ATOM     16  O   UNL A   1      35.027  24.725  24.421  1.00  0.00    -0.274 OA
BRANCH  15  17
ATOM     17  C   UNL A   1      33.207  26.103  23.648  1.00  0.00     0.107 C 
ATOM     18  C   UNL A   1      33.737  27.478  24.008  1.00  0.00     0.044 C 
ATOM     19  C   UNL A   1      33.588  25.965  22.184  1.00  0.00     0.173 C 
ATOM     20  C   UNL A   1      33.697  28.226  22.695  1.00  0.00     0.161 C 
ATOM     21  O   UNL A   1      33.905  27.259  21.660  1.00  0.00    -0.381 OA
ENDBRANCH  15  17
ENDBRANCH  13  15
ENDBRANCH  12  13
ENDBRANCH   4   7
ENDBRANCH   2   3
ENDBRANCH   1   2
BRANCH   1  22
ATOM     22  C   UNL A   1      37.778  19.748  24.871  1.00  0.00     0.023 C 
BRANCH  22  23
ATOM     23  C   UNL A   1      39.051  20.252  25.551  1.00  0.00     0.116 C 
BRANCH  23  24
ATOM     24  N   UNL A   1      40.050  19.199  25.754  1.00  0.00    -0.352 N 
ATOM     25  C   UNL A   1      41.398  19.357  25.991  1.00  0.00     0.251 C 
ATOM     26  H   UNL A   1      39.720  18.272  25.718  1.00  0.00     0.163 HD
ATOM     27  O   UNL A   1      42.196  18.446  25.745  1.00  0.00    -0.269 OA
BRANCH  25  28
ATOM     28  C   UNL A   1      41.875  20.620  26.570  1.00  0.00     0.039 A 
ATOM     29  C   UNL A   1      42.383  21.648  25.770  1.00  0.00     0.014 A 
ATOM     30  C   UNL A   1      41.768  20.768  27.951  1.00  0.00     0.014 A 
ATOM     31  C   UNL A   1      42.703  22.866  26.364  1.00  0.00     0.010 A 
ATOM     32  C   UNL A   1      41.972  22.001  28.517  1.00  0.00     0.010 A 
ATOM     33  C   UNL A   1      42.476  23.042  27.738  1.00  0.00    -0.014 A 
BRANCH  33  34
ATOM     34  C   UNL A   1      42.564  24.368  28.349  1.00  0.00     0.031 A 
ATOM     35  C   UNL A   1      41.392  25.236  28.030  1.00  0.00     0.074 A 
ATOM     36  C   UNL A   1      43.465  24.636  29.323  1.00  0.00     0.049 A 
ATOM     37  N   UNL A   1      41.374  26.350  27.372  1.00  0.00    -0.248 NA
ATOM     38  C   UNL A   1      40.043  24.709  28.318  1.00  0.00     0.031 C 
ATOM     39  C   UNL A   1      44.431  23.688  29.901  1.00  0.00     0.029 A 
ATOM     40  N   UNL A   1      43.605  25.728  30.130  1.00  0.00    -0.354 N 
ATOM     41  C   UNL A   1      40.049  26.791  27.431  1.00  0.00     0.074 A 
ATOM     42  C   UNL A   1      39.263  25.639  27.764  1.00  0.00     0.031 C 
ATOM     43  C   UNL A   1      44.832  24.131  31.111  1.00  0.00     0.029 A 
ATOM     44  C   UNL A   1      44.296  25.462  31.316  1.00  0.00     0.049 A 
ATOM     45  H   UNL A   1      43.252  26.617  29.901  1.00  0.00     0.167 HD
ATOM     46  C   UNL A   1      39.769  28.120  27.573  1.00  0.00     0.034 A 
ATOM     47  C   UNL A   1      44.385  26.255  32.413  1.00  0.00     0.034 A 
ATOM     48  C   UNL A   1      40.947  28.902  27.294  1.00  0.00     0.049 A 
ATOM     49  C   UNL A   1      44.041  27.624  31.987  1.00  0.00     0.074 A 
ATOM     50  C   UNL A   1      41.713  29.222  26.196  1.00  0.00     0.029 A 
ATOM     51  N   UNL A   1      41.699  29.149  28.412  1.00  0.00    -0.354 N 
ATOM     52  N   UNL A   1      44.774  28.319  31.163  1.00  0.00    -0.248 NA
ATOM     53  C   UNL A   1      42.687  28.117  32.196  1.00  0.00     0.031 C 
ATOM     54  C   UNL A   1      43.024  29.472  26.700  1.00  0.00     0.029 A 
ATOM     55  C   UNL A   1      43.007  29.355  28.090  1.00  0.00     0.049 A 
ATOM     56  H   UNL A   1      41.341  29.175  29.329  1.00  0.00     0.167 HD
ATOM     57  C   UNL A   1      43.846  29.014  30.409  1.00  0.00     0.074 A 
ATOM     58  C   UNL A   1      42.625  29.011  31.206  1.00  0.00     0.031 C 
ATOM     59  C   UNL A   1      44.054  29.218  29.078  1.00  0.00     0.034 A 
BRANCH  46  60
ATOM     60  C   UNL A   1      38.682  28.715  28.477  1.00  0.00     0.023 A 
ATOM     61  C   UNL A   1      37.811  29.656  27.872  1.00  0.00     0.012 A 
ATOM     62  C   UNL A   1      38.667  28.671  29.890  1.00  0.00     0.148 A 
ATOM     63  C   UNL A   1      37.057  30.565  28.625  1.00  0.00     0.002 A 
ATOM     64  C   UNL A   1      37.877  29.543  30.637  1.00  0.00     0.091 A 
ATOM     65  F   UNL A   1      39.487  27.859  30.552  1.00  0.00    -0.205 F 
ATOM     66  C   UNL A   1      37.097  30.516  30.010  1.00  0.00     0.022 A 
BRANCH  64  67
ATOM     67  S   UNL A   1      37.881  29.519  32.437  1.00  0.00     0.127 S 
ATOM     68  O   UNL A   1      39.266  29.880  32.728  1.00  0.00    -0.237 OA
ATOM     69  O   UNL A   1      36.890  30.548  32.748  1.00  0.00    -0.237 OA
ATOM     70  O   UNL A   1      37.484  28.169  32.819  1.00  0.00    -0.744 OA
ENDBRANCH  64  67
ENDBRANCH  46  60
BRANCH  47  71
ATOM     71  C   UNL A   1      44.565  25.923  33.846  1.00  0.00     0.023 A 
ATOM     72  C   UNL A   1      43.555  25.217  34.534  1.00  0.00     0.012 A 
ATOM     73  C   UNL A   1      45.835  26.027  34.453  1.00  0.00     0.148 A 
ATOM     74  C   UNL A   1      43.815  24.593  35.760  1.00  0.00     0.002 A 
ATOM     75  C   UNL A   1      46.089  25.405  35.674  1.00  0.00     0.091 A 
ATOM     76  F   UNL A   1      46.812  26.658  33.790  1.00  0.00    -0.205 F 
ATOM     77  C   UNL A   1      45.085  24.674  36.323  1.00  0.00     0.022 A 
BRANCH  75  78
ATOM     78  S   UNL A   1      47.711  25.433  36.449  1.00  0.00     0.127 S 
ATOM     79  O   UNL A   1      48.426  24.405  35.690  1.00  0.00    -0.237 OA
ATOM     80  O   UNL A   1      48.148  26.801  36.184  1.00  0.00    -0.237 OA
ATOM     81  O   UNL A   1      47.485  25.097  37.848  1.00  0.00    -0.744 OA
ENDBRANCH  75  78
ENDBRANCH  47  71
BRANCH  59  82
ATOM     82  C   UNL A   1      45.463  29.128  28.573  1.00  0.00     0.023 A 
ATOM     83  C   UNL A   1      46.104  27.911  28.269  1.00  0.00     0.012 A 
ATOM     84  C   UNL A   1      46.114  30.337  28.287  1.00  0.00     0.148 A 
ATOM     85  C   UNL A   1      47.381  27.907  27.701  1.00  0.00     0.002 A 
ATOM     86  C   UNL A   1      47.357  30.330  27.678  1.00  0.00     0.091 A 
ATOM     87  F   UNL A   1      45.483  31.482  28.596  1.00  0.00    -0.205 F 
ATOM     88  C   UNL A   1      48.002  29.117  27.392  1.00  0.00     0.022 A 
BRANCH  86  89
ATOM     89  S   UNL A   1      48.138  31.854  27.148  1.00  0.00     0.127 S 
ATOM     90  O   UNL A   1      47.165  32.378  26.193  1.00  0.00    -0.237 OA
ATOM     91  O   UNL A   1      48.238  32.605  28.400  1.00  0.00    -0.237 OA
ATOM     92  O   UNL A   1      49.426  31.468  26.583  1.00  0.00    -0.744 OA
ENDBRANCH  86  89
ENDBRANCH  59  82
ENDBRANCH  33  34
ENDBRANCH  25  28
ENDBRANCH  23  24
ENDBRANCH  22  23
ENDBRANCH   1  22
TORSDOF 17
ENDMDL
MODEL 3
REMARK VINA RESULT:     -10.7      2.968      7.820
REMARK SMILES Cc1nsc(N(C)C(=O)[C@H]2CCOC2)c1C(=O)NCCCCNC(=O)c1ccc(-c2c3nc(c(-c4cccc(S(=O)(=O)[O-])c4F)c4ccc([nH]4)c(-c4cccc(S(=O)(=O)[O-])c4F)c4nc(c(-c5cccc(S(=O)(=O)[O-])c5F)c5ccc2[nH]5)C=C4)C=C3)cc1
REMARK SMILES IDX 20 1 19 2 18 3 16 4 17 5 15 7 1 8 2 9 3 10 4 11 5 12 6 13
REMARK SMILES IDX 7 14 8 15 9 16 10 17 11 18 14 19 12 20 13 21 21 22 22 23
REMARK SMILES IDX 23 24 24 25 25 27 26 28 27 29 88 30 28 31 87 32 29 33 30 34
REMARK SMILES IDX 31 35 81 36 32 37 86 38 80 39 82 40 33 41 85 42 79 43 78 44
REMARK SMILES IDX 34 46 66 47 46 48 65 49 47 50 50 51 64 52 83 53 48 54 49 55
REMARK SMILES IDX 63 57 84 58 51 59 35 60 36 61 44 62 37 63 39 64 45 65 38 66
REMARK SMILES IDX 40 67 41 68 42 69 43 70 67 71 68 72 76 73 69 74 71 75 77 76
REMARK SMILES IDX 70 77 72 78 73 79 74 80 75 81 52 82 53 83 61 84 54 85 56 86
REMARK SMILES IDX 62 87 55 88 57 89 58 90 59 91 60 92
REMARK H PARENT 18 6 23 26 82 45 50 56
REMARK Flexibility Score: inf
ROOT
ATOM      1  C   UNL A   1      33.580  29.569  26.330  1.00  0.00     0.023 C 
ENDROOT
BRANCH   1   2
ATOM      2  C   UNL A   1      33.324  28.157  26.854  1.00  0.00     0.116 C 
BRANCH   2   3
ATOM      3  N   UNL A   1      31.937  27.766  26.831  1.00  0.00    -0.352 N 
ATOM      4  C   UNL A   1      31.227  26.893  26.044  1.00  0.00     0.256 C 
ATOM      5  O   UNL A   1      30.388  26.239  26.673  1.00  0.00    -0.269 OA
ATOM      6  H   UNL A   1      31.390  28.214  27.516  1.00  0.00     0.163 HD
BRANCH   4   7
ATOM      7  C   UNL A   1      31.325  26.757  24.577  1.00  0.00     0.097 A 
ATOM      8  C   UNL A   1      30.012  28.798  23.423  1.00  0.00     0.069 C 
ATOM      9  C   UNL A   1      30.853  27.573  23.455  1.00  0.00     0.066 A 
ATOM     10  N   UNL A   1      31.264  27.208  22.236  1.00  0.00    -0.195 NA
ATOM     11  S   UNL A   1      32.237  25.908  22.351  1.00  0.00    -0.017 S 
ATOM     12  C   UNL A   1      32.082  25.696  24.034  1.00  0.00     0.131 A 
BRANCH  12  13
ATOM     13  N   UNL A   1      32.697  24.550  24.593  1.00  0.00    -0.305 N 
ATOM     14  C   UNL A   1      34.095  24.527  25.024  1.00  0.00     0.154 C 
BRANCH  13  15
ATOM     15  C   UNL A   1      31.952  23.355  24.557  1.00  0.00     0.232 C 
ATOM     16  O   UNL A   1      30.749  23.315  24.840  1.00  0.00    -0.274 OA
BRANCH  15  17
ATOM     17  C   UNL A   1      32.677  22.105  24.049  1.00  0.00     0.107 C 
ATOM     18  C   UNL A   1      32.360  20.846  24.833  1.00  0.00     0.044 C 
ATOM     19  C   UNL A   1      32.219  21.754  22.644  1.00  0.00     0.173 C 
ATOM     20  C   UNL A   1      32.449  19.753  23.794  1.00  0.00     0.161 C 
ATOM     21  O   UNL A   1      32.064  20.335  22.544  1.00  0.00    -0.381 OA
ENDBRANCH  15  17
ENDBRANCH  13  15
ENDBRANCH  12  13
ENDBRANCH   4   7
ENDBRANCH   2   3
ENDBRANCH   1   2
BRANCH   1  22
ATOM     22  C   UNL A   1      33.667  30.665  27.401  1.00  0.00     0.023 C 
BRANCH  22  23
ATOM     23  C   UNL A   1      35.054  30.880  28.006  1.00  0.00     0.116 C 
BRANCH  23  24
ATOM     24  N   UNL A   1      35.019  31.597  29.284  1.00  0.00    -0.352 N 
ATOM     25  C   UNL A   1      35.826  31.395  30.381  1.00  0.00     0.251 C 
ATOM     26  H   UNL A   1      34.339  32.305  29.368  1.00  0.00     0.163 HD
ATOM     27  O   UNL A   1      35.464  31.747  31.510  1.00  0.00    -0.269 OA
BRANCH  25  28
ATOM     28  C   UNL A   1      37.145  30.777  30.190  1.00  0.00     0.039 A 
ATOM     29  C   UNL A   1      38.279  31.542  29.898  1.00  0.00     0.014 A 
ATOM     30  C   UNL A   1      37.230  29.395  30.347  1.00  0.00     0.014 A 
ATOM     31  C   UNL A   1      39.520  30.913  29.851  1.00  0.00     0.010 A 
ATOM     32  C   UNL A   1      38.462  28.796  30.416  1.00  0.00     0.010 A 
ATOM     33  C   UNL A   1      39.607  29.541  30.131  1.00  0.00    -0.014 A 
BRANCH  33  34
ATOM     34  C   UNL A   1      40.904  28.897  30.334  1.00  0.00     0.031 A 
ATOM     35  C   UNL A   1      41.308  28.838  31.770  1.00  0.00     0.074 A 
ATOM     36  C   UNL A   1      41.500  28.186  29.348  1.00  0.00     0.049 A 
ATOM     37  N   UNL A   1      42.324  29.400  32.341  1.00  0.00    -0.248 NA
ATOM     38  C   UNL A   1      40.364  28.232  32.729  1.00  0.00     0.031 C 
ATOM     39  C   UNL A   1      40.960  27.946  28.000  1.00  0.00     0.029 A 
ATOM     40  N   UNL A   1      42.603  27.381  29.371  1.00  0.00    -0.354 N 
ATOM     41  C   UNL A   1      42.289  28.962  33.669  1.00  0.00     0.074 A 
ATOM     42  C   UNL A   1      40.951  28.500  33.896  1.00  0.00     0.031 C 
ATOM     43  C   UNL A   1      41.557  26.863  27.459  1.00  0.00     0.029 A 
ATOM     44  C   UNL A   1      42.632  26.442  28.336  1.00  0.00     0.049 A 
ATOM     45  H   UNL A   1      43.309  27.455  30.052  1.00  0.00     0.167 HD
ATOM     46  C   UNL A   1      43.446  28.670  34.331  1.00  0.00     0.034 A 
ATOM     47  C   UNL A   1      43.447  25.364  28.226  1.00  0.00     0.034 A 
ATOM     48  C   UNL A   1      44.572  29.208  33.610  1.00  0.00     0.049 A 
ATOM     49  C   UNL A   1      44.601  25.600  29.114  1.00  0.00     0.074 A 
ATOM     50  C   UNL A   1      45.094  30.449  33.326  1.00  0.00     0.029 A 
ATOM     51  N   UNL A   1      45.103  28.319  32.712  1.00  0.00    -0.354 N 
ATOM     52  N   UNL A   1      45.473  26.546  28.913  1.00  0.00    -0.248 NA
ATOM     53  C   UNL A   1      44.608  25.007  30.444  1.00  0.00     0.031 C 
ATOM     54  C   UNL A   1      45.795  30.301  32.092  1.00  0.00     0.029 A 
ATOM     55  C   UNL A   1      45.730  28.967  31.690  1.00  0.00     0.049 A 
ATOM     56  H   UNL A   1      45.038  27.340  32.794  1.00  0.00     0.167 HD
ATOM     57  C   UNL A   1      45.781  26.982  30.189  1.00  0.00     0.074 A 
ATOM     58  C   UNL A   1      45.391  25.888  31.072  1.00  0.00     0.031 C 
ATOM     59  C   UNL A   1      45.995  28.305  30.432  1.00  0.00     0.034 A 
BRANCH  46  60
ATOM     60  C   UNL A   1      43.667  27.475  35.266  1.00  0.00     0.023 A 
ATOM     61  C   UNL A   1      44.187  27.773  36.551  1.00  0.00     0.012 A 
ATOM     62  C   UNL A   1      43.716  26.117  34.874  1.00  0.00     0.148 A 
ATOM     63  C   UNL A   1      44.810  26.803  37.347  1.00  0.00     0.002 A 
ATOM     64  C   UNL A   1      44.292  25.145  35.689  1.00  0.00     0.091 A 
ATOM     65  F   UNL A   1      43.302  25.745  33.665  1.00  0.00    -0.205 F 
ATOM     66  C   UNL A   1      44.872  25.488  36.911  1.00  0.00     0.022 A 
BRANCH  64  67
ATOM     67  S   UNL A   1      44.392  23.421  35.181  1.00  0.00     0.127 S 
ATOM     68  O   UNL A   1      45.038  22.814  36.341  1.00  0.00    -0.237 OA
ATOM     69  O   UNL A   1      42.980  23.082  35.006  1.00  0.00    -0.237 OA
ATOM     70  O   UNL A   1      45.168  23.413  33.946  1.00  0.00    -0.744 OA
ENDBRANCH  64  67
ENDBRANCH  46  60
BRANCH  47  71
ATOM     71  C   UNL A   1      43.249  24.054  27.562  1.00  0.00     0.023 A 
ATOM     72  C   UNL A   1      41.976  23.445  27.578  1.00  0.00     0.012 A 
ATOM     73  C   UNL A   1      44.216  23.550  26.665  1.00  0.00     0.148 A 
ATOM     74  C   UNL A   1      41.660  22.405  26.696  1.00  0.00     0.002 A 
ATOM     75  C   UNL A   1      43.896  22.515  25.788  1.00  0.00     0.091 A 
ATOM     76  F   UNL A   1      45.413  24.148  26.611  1.00  0.00    -0.205 F 
ATOM     77  C   UNL A   1      42.614  21.950  25.791  1.00  0.00     0.022 A 
BRANCH  75  78
ATOM     78  S   UNL A   1      45.061  21.895  24.566  1.00  0.00     0.127 S 
ATOM     79  O   UNL A   1      45.151  23.022  23.637  1.00  0.00    -0.237 OA
ATOM     80  O   UNL A   1      46.257  21.674  25.375  1.00  0.00    -0.237 OA
ATOM     81  O   UNL A   1      44.444  20.701  24.005  1.00  0.00    -0.744 OA
ENDBRANCH  75  78
ENDBRANCH  47  71
BRANCH  59  82
ATOM     82  C   UNL A   1      46.373  29.173  29.269  1.00  0.00     0.023 A 
ATOM     83  C   UNL A   1      47.646  29.154  28.666  1.00  0.00     0.012 A 
ATOM     84  C   UNL A   1      45.353  29.948  28.697  1.00  0.00     0.148 A 
ATOM     85  C   UNL A   1      47.896  29.911  27.518  1.00  0.00     0.002 A 
ATOM     86  C   UNL A   1      45.590  30.656  27.531  1.00  0.00     0.091 A 
ATOM     87  F   UNL A   1      44.153  29.954  29.298  1.00  0.00    -0.205 F 
ATOM     88  C   UNL A   1      46.863  30.650  26.942  1.00  0.00     0.022 A 
BRANCH  86  89
ATOM     89  S   UNL A   1      44.266  31.518  26.687  1.00  0.00     0.127 S 
ATOM     90  O   UNL A   1      43.333  30.433  26.394  1.00  0.00    -0.237 OA
ATOM     91  O   UNL A   1      43.808  32.464  27.706  1.00  0.00    -0.237 OA
ATOM     92  O   UNL A   1      44.877  32.151  25.523  1.00  0.00    -0.744 OA
ENDBRANCH  86  89
ENDBRANCH  59  82
ENDBRANCH  33  34
ENDBRANCH  25  28
ENDBRANCH  23  24
ENDBRANCH  22  23
ENDBRANCH   1  22
TORSDOF 17
ENDMDL
