MODEL 1
REMARK VINA RESULT:     -12.5      0.000      0.000
REMARK SMILES Cc1ccc(C[C@@H](Cc2cc(F)cc(Br)c2)C(=O)NCCCCNC(=O)c2ccc(-c3c4nc(c(-c5cccc(S(=O)(=O)[O-])c5F)c5ccc([nH]5)c(-c5cccc(S(=O)(=O)[O-])c5F)c5nc(c(-c6cccc(S(=O)(=O)[O-])c6F)c6ccc3[nH]6)C=C5)C=C4)cc2)cc1
REMARK SMILES IDX 22 1 21 2 20 3 19 4 17 5 18 6 7 8 6 9 5 10 1 11 2 12 3 13
REMARK SMILES IDX 91 14 4 15 90 16 8 17 9 18 10 19 16 20 11 21 14 22 12 23
REMARK SMILES IDX 13 24 15 25 23 26 24 27 25 28 26 30 27 31 28 32 89 33 29 34
REMARK SMILES IDX 88 35 30 36 31 37 32 38 82 39 33 40 87 41 81 42 83 43 34 44
REMARK SMILES IDX 86 45 80 46 79 47 35 49 67 50 47 51 66 52 48 53 51 54 65 55
REMARK SMILES IDX 84 56 49 57 50 58 64 60 85 61 52 62 36 63 37 64 45 65 38 66
REMARK SMILES IDX 40 67 46 68 39 69 41 70 42 71 43 72 44 73 68 74 69 75 77 76
REMARK SMILES IDX 70 77 72 78 78 79 71 80 73 81 74 82 75 83 76 84 53 85 54 86
REMARK SMILES IDX 62 87 55 88 57 89 63 90 56 91 58 92 59 93 60 94 61 95
REMARK H PARENT 19 7 24 29 83 48 51 59
REMARK Flexibility Score: inf
ROOT
ATOM      1  C   UNL A   1      36.778  21.738  25.683  1.00  0.00     0.023 C 
ENDROOT
BRANCH   1   2
ATOM      2  C   UNL A   1      35.596  22.491  26.297  1.00  0.00     0.023 C 
BRANCH   2   3
ATOM      3  C   UNL A   1      34.287  22.341  25.513  1.00  0.00     0.116 C 
BRANCH   3   4
ATOM      4  N   UNL A   1      34.514  22.510  24.086  1.00  0.00    -0.356 N 
ATOM      5  C   UNL A   1      34.041  23.436  23.210  1.00  0.00     0.223 C 
ATOM      6  O   UNL A   1      34.362  23.328  22.023  1.00  0.00    -0.275 OA
ATOM      7  H   UNL A   1      35.112  21.839  23.685  1.00  0.00     0.163 HD
BRANCH   5   8
ATOM      8  C   UNL A   1      33.141  24.570  23.661  1.00  0.00     0.087 C 
BRANCH   8   9
ATOM      9  C   UNL A   1      34.024  25.491  24.544  1.00  0.00     0.049 C 
BRANCH   9  10
ATOM     10  C   UNL A   1      33.498  26.826  25.010  1.00  0.00    -0.047 A 
ATOM     11  C   UNL A   1      31.676  30.604  26.048  1.00  0.00     0.044 C 
ATOM     12  C   UNL A   1      32.310  29.299  25.674  1.00  0.00    -0.051 A 
ATOM     13  C   UNL A   1      32.008  28.148  26.406  1.00  0.00     0.004 A 
ATOM     14  C   UNL A   1      33.207  29.207  24.606  1.00  0.00     0.004 A 
ATOM     15  C   UNL A   1      32.581  26.923  26.063  1.00  0.00     0.004 A 
ATOM     16  C   UNL A   1      33.799  27.984  24.281  1.00  0.00     0.004 A 
ENDBRANCH   9  10
ENDBRANCH   8   9
BRANCH   8  17
ATOM     17  C   UNL A   1      32.326  25.261  22.542  1.00  0.00     0.049 C 
BRANCH  17  18
ATOM     18  C   UNL A   1      31.125  26.165  22.761  1.00  0.00    -0.043 A 
ATOM     19  C   UNL A   1      30.163  25.712  23.680  1.00  0.00     0.043 A 
ATOM     20  C   UNL A   1      30.908  27.418  22.176  1.00  0.00     0.019 A 
ATOM     21  C   UNL A   1      29.096  26.517  24.061  1.00  0.00     0.124 A 
ATOM     22  C   UNL A   1      29.879  28.253  22.634  1.00  0.00     0.021 A 
ATOM     23  F   UNL A   1      28.187  26.013  24.902  1.00  0.00    -0.207 F 
ATOM     24  C   UNL A   1      28.969  27.811  23.585  1.00  0.00     0.055 A 
ATOM     25  Br  UNL A   1      29.764  30.027  21.984  1.00  0.00    -0.051 Br
ENDBRANCH  17  18
ENDBRANCH   8  17
ENDBRANCH   5   8
ENDBRANCH   3   4
ENDBRANCH   2   3
ENDBRANCH   1   2
BRANCH   1  26
ATOM     26  C   UNL A   1      37.928  22.652  25.302  1.00  0.00     0.116 C 
BRANCH  26  27
ATOM     27  N   UNL A   1      39.169  22.323  25.965  1.00  0.00    -0.352 N 
ATOM     28  C   UNL A   1      40.178  23.181  26.358  1.00  0.00     0.251 C 
ATOM     29  H   UNL A   1      39.313  21.369  26.161  1.00  0.00     0.163 HD
ATOM     30  O   UNL A   1      41.324  22.742  26.431  1.00  0.00    -0.269 OA
BRANCH  28  31
ATOM     31  C   UNL A   1      39.843  24.546  26.837  1.00  0.00     0.039 A 
ATOM     32  C   UNL A   1      40.509  25.617  26.224  1.00  0.00     0.014 A 
ATOM     33  C   UNL A   1      39.112  24.764  28.002  1.00  0.00     0.014 A 
ATOM     34  C   UNL A   1      40.646  26.825  26.901  1.00  0.00     0.010 A 
ATOM     35  C   UNL A   1      39.324  25.916  28.719  1.00  0.00     0.010 A 
ATOM     36  C   UNL A   1      40.137  26.918  28.189  1.00  0.00    -0.014 A 
BRANCH  36  37
ATOM     37  C   UNL A   1      40.344  28.043  29.074  1.00  0.00     0.031 A 
ATOM     38  C   UNL A   1      39.432  29.192  28.993  1.00  0.00     0.074 A 
ATOM     39  C   UNL A   1      41.228  27.909  30.085  1.00  0.00     0.049 A 
ATOM     40  N   UNL A   1      39.713  30.367  29.433  1.00  0.00    -0.248 NA
ATOM     41  C   UNL A   1      38.107  29.087  28.391  1.00  0.00     0.031 C 
ATOM     42  C   UNL A   1      41.315  28.723  31.285  1.00  0.00     0.029 A 
ATOM     43  N   UNL A   1      42.361  27.090  30.138  1.00  0.00    -0.354 N 
ATOM     44  C   UNL A   1      38.534  31.078  29.447  1.00  0.00     0.074 A 
ATOM     45  C   UNL A   1      37.587  30.278  28.706  1.00  0.00     0.031 C 
ATOM     46  C   UNL A   1      42.541  28.580  31.811  1.00  0.00     0.029 A 
ATOM     47  C   UNL A   1      43.326  27.808  30.862  1.00  0.00     0.049 A 
ATOM     48  H   UNL A   1      42.461  26.191  29.747  1.00  0.00     0.167 HD
ATOM     49  C   UNL A   1      38.425  32.175  30.246  1.00  0.00     0.034 A 
ATOM     50  C   UNL A   1      44.531  28.192  30.343  1.00  0.00     0.034 A 
ATOM     51  C   UNL A   1      39.663  32.390  31.003  1.00  0.00     0.049 A 
ATOM     52  C   UNL A   1      44.698  29.701  30.370  1.00  0.00     0.074 A 
ATOM     53  C   UNL A   1      40.050  32.008  32.279  1.00  0.00     0.029 A 
ATOM     54  N   UNL A   1      40.823  32.770  30.340  1.00  0.00    -0.354 N 
ATOM     55  N   UNL A   1      43.717  30.528  30.609  1.00  0.00    -0.248 NA
ATOM     56  C   UNL A   1      45.956  30.407  30.142  1.00  0.00     0.031 C 
ATOM     57  C   UNL A   1      41.466  32.084  32.352  1.00  0.00     0.029 A 
ATOM     58  C   UNL A   1      41.938  32.541  31.133  1.00  0.00     0.049 A 
ATOM     59  H   UNL A   1      40.850  33.150  29.433  1.00  0.00     0.167 HD
ATOM     60  C   UNL A   1      44.145  31.820  30.527  1.00  0.00     0.074 A 
ATOM     61  C   UNL A   1      45.570  31.692  30.269  1.00  0.00     0.031 C 
ATOM     62  C   UNL A   1      43.275  32.871  30.647  1.00  0.00     0.034 A 
BRANCH  49  63
ATOM     63  C   UNL A   1      37.092  32.795  30.612  1.00  0.00     0.023 A 
ATOM     64  C   UNL A   1      36.624  32.609  31.931  1.00  0.00     0.012 A 
ATOM     65  C   UNL A   1      36.239  33.509  29.737  1.00  0.00     0.148 A 
ATOM     66  C   UNL A   1      35.349  33.009  32.339  1.00  0.00     0.002 A 
ATOM     67  C   UNL A   1      34.939  33.853  30.125  1.00  0.00     0.091 A 
ATOM     68  F   UNL A   1      36.704  33.907  28.545  1.00  0.00    -0.205 F 
ATOM     69  C   UNL A   1      34.491  33.600  31.425  1.00  0.00     0.022 A 
BRANCH  67  70
ATOM     70  S   UNL A   1      33.729  34.528  28.973  1.00  0.00     0.127 S 
ATOM     71  O   UNL A   1      34.459  35.648  28.373  1.00  0.00    -0.237 OA
ATOM     72  O   UNL A   1      33.493  33.406  28.067  1.00  0.00    -0.237 OA
ATOM     73  O   UNL A   1      32.592  34.937  29.789  1.00  0.00    -0.744 OA
ENDBRANCH  67  70
ENDBRANCH  49  63
BRANCH  50  74
ATOM     74  C   UNL A   1      45.052  27.254  29.307  1.00  0.00     0.023 A 
ATOM     75  C   UNL A   1      45.290  25.922  29.732  1.00  0.00     0.012 A 
ATOM     76  C   UNL A   1      44.880  27.505  27.935  1.00  0.00     0.148 A 
ATOM     77  C   UNL A   1      45.182  24.852  28.841  1.00  0.00     0.002 A 
ATOM     78  C   UNL A   1      44.779  26.431  27.051  1.00  0.00     0.091 A 
ATOM     79  F   UNL A   1      44.730  28.772  27.529  1.00  0.00    -0.205 F 
ATOM     80  C   UNL A   1      44.882  25.106  27.509  1.00  0.00     0.022 A 
BRANCH  78  81
ATOM     81  S   UNL A   1      44.377  26.680  25.316  1.00  0.00     0.127 S 
ATOM     82  O   UNL A   1      45.701  26.880  24.736  1.00  0.00    -0.237 OA
ATOM     83  O   UNL A   1      43.736  25.417  24.956  1.00  0.00    -0.237 OA
ATOM     84  O   UNL A   1      43.484  27.829  25.305  1.00  0.00    -0.744 OA
ENDBRANCH  78  81
ENDBRANCH  50  74
BRANCH  62  85
ATOM     85  C   UNL A   1      43.579  34.319  30.324  1.00  0.00     0.023 A 
ATOM     86  C   UNL A   1      44.146  35.196  31.264  1.00  0.00     0.012 A 
ATOM     87  C   UNL A   1      43.473  34.794  28.989  1.00  0.00     0.148 A 
ATOM     88  C   UNL A   1      44.557  36.486  30.912  1.00  0.00     0.002 A 
ATOM     89  C   UNL A   1      44.000  36.025  28.619  1.00  0.00     0.091 A 
ATOM     90  F   UNL A   1      42.842  34.058  28.061  1.00  0.00    -0.205 F 
ATOM     91  C   UNL A   1      44.515  36.890  29.584  1.00  0.00     0.022 A 
BRANCH  89  92
ATOM     92  S   UNL A   1      44.205  36.454  26.884  1.00  0.00     0.127 S 
ATOM     93  O   UNL A   1      42.831  36.737  26.477  1.00  0.00    -0.237 OA
ATOM     94  O   UNL A   1      45.074  37.631  26.954  1.00  0.00    -0.237 OA
ATOM     95  O   UNL A   1      44.831  35.287  26.278  1.00  0.00    -0.744 OA
ENDBRANCH  89  92
ENDBRANCH  62  85
ENDBRANCH  36  37
ENDBRANCH  28  31
ENDBRANCH  26  27
ENDBRANCH   1  26
TORSDOF 18
ENDMDL
MODEL 2
REMARK VINA RESULT:     -12.4      1.235      2.102
REMARK SMILES Cc1ccc(C[C@@H](Cc2cc(F)cc(Br)c2)C(=O)NCCCCNC(=O)c2ccc(-c3c4nc(c(-c5cccc(S(=O)(=O)[O-])c5F)c5ccc([nH]5)c(-c5cccc(S(=O)(=O)[O-])c5F)c5nc(c(-c6cccc(S(=O)(=O)[O-])c6F)c6ccc3[nH]6)C=C5)C=C4)cc2)cc1
REMARK SMILES IDX 22 1 21 2 20 3 19 4 17 5 18 6 7 8 6 9 5 10 1 11 2 12 3 13
REMARK SMILES IDX 91 14 4 15 90 16 8 17 9 18 10 19 16 20 11 21 14 22 12 23
REMARK SMILES IDX 13 24 15 25 23 26 24 27 25 28 26 30 27 31 28 32 89 33 29 34
REMARK SMILES IDX 88 35 30 36 31 37 32 38 82 39 33 40 87 41 81 42 83 43 34 44
REMARK SMILES IDX 86 45 80 46 79 47 35 49 67 50 47 51 66 52 48 53 51 54 65 55
REMARK SMILES IDX 84 56 49 57 50 58 64 60 85 61 52 62 36 63 37 64 45 65 38 66
REMARK SMILES IDX 40 67 46 68 39 69 41 70 42 71 43 72 44 73 68 74 69 75 77 76
REMARK SMILES IDX 70 77 72 78 78 79 71 80 73 81 74 82 75 83 76 84 53 85 54 86
REMARK SMILES IDX 62 87 55 88 57 89 63 90 56 91 58 92 59 93 60 94 61 95
REMARK H PARENT 19 7 24 29 83 48 51 59
REMARK Flexibility Score: inf
ROOT
ATOM      1  C   UNL A   1      37.330  21.208  24.903  1.00  0.00     0.023 C 
ENDROOT
BRANCH   1   2
ATOM      2  C   UNL A   1      35.906  21.062  25.441  1.00  0.00     0.023 C 
BRANCH   2   3
ATOM      3  C   UNL A   1      34.843  21.761  24.587  1.00  0.00     0.116 C 
BRANCH   3   4
ATOM      4  N   UNL A   1      33.505  21.478  25.087  1.00  0.00    -0.356 N 
ATOM      5  C   UNL A   1      32.416  22.279  25.226  1.00  0.00     0.223 C 
ATOM      6  O   UNL A   1      31.397  21.790  25.722  1.00  0.00    -0.275 OA
ATOM      7  H   UNL A   1      33.366  20.547  25.373  1.00  0.00     0.163 HD
BRANCH   5   8
ATOM      8  C   UNL A   1      32.438  23.732  24.794  1.00  0.00     0.087 C 
BRANCH   8   9
ATOM      9  C   UNL A   1      30.975  24.090  24.422  1.00  0.00     0.049 C 
BRANCH   9  10
ATOM     10  C   UNL A   1      30.662  25.407  23.758  1.00  0.00    -0.047 A 
ATOM     11  C   UNL A   1      30.096  29.349  22.080  1.00  0.00     0.044 C 
ATOM     12  C   UNL A   1      30.290  27.988  22.676  1.00  0.00    -0.051 A 
ATOM     13  C   UNL A   1      31.037  27.031  21.986  1.00  0.00     0.004 A 
ATOM     14  C   UNL A   1      29.732  27.650  23.911  1.00  0.00     0.004 A 
ATOM     15  C   UNL A   1      31.236  25.763  22.531  1.00  0.00     0.004 A 
ATOM     16  C   UNL A   1      29.912  26.371  24.444  1.00  0.00     0.004 A 
ENDBRANCH   9  10
ENDBRANCH   8   9
BRANCH   8  17
ATOM     17  C   UNL A   1      33.163  24.704  25.757  1.00  0.00     0.049 C 
BRANCH  17  18
ATOM     18  C   UNL A   1      33.300  26.203  25.552  1.00  0.00    -0.043 A 
ATOM     19  C   UNL A   1      33.900  26.616  24.351  1.00  0.00     0.043 A 
ATOM     20  C   UNL A   1      32.848  27.206  26.417  1.00  0.00     0.019 A 
ATOM     21  C   UNL A   1      33.952  27.959  23.997  1.00  0.00     0.124 A 
ATOM     22  C   UNL A   1      32.827  28.548  26.009  1.00  0.00     0.021 A 
ATOM     23  F   UNL A   1      34.579  28.294  22.864  1.00  0.00    -0.207 F 
ATOM     24  C   UNL A   1      33.373  28.933  24.792  1.00  0.00     0.055 A 
ATOM     25  Br  UNL A   1      31.992  29.840  27.111  1.00  0.00    -0.051 Br
ENDBRANCH  17  18
ENDBRANCH   8  17
ENDBRANCH   5   8
ENDBRANCH   3   4
ENDBRANCH   2   3
ENDBRANCH   1   2
BRANCH   1  26
ATOM     26  C   UNL A   1      38.027  22.460  25.405  1.00  0.00     0.116 C 
BRANCH  26  27
ATOM     27  N   UNL A   1      39.331  22.205  25.973  1.00  0.00    -0.352 N 
ATOM     28  C   UNL A   1      40.322  23.119  26.274  1.00  0.00     0.251 C 
ATOM     29  H   UNL A   1      39.539  21.263  26.170  1.00  0.00     0.163 HD
ATOM     30  O   UNL A   1      41.492  22.739  26.263  1.00  0.00    -0.269 OA
BRANCH  28  31
ATOM     31  C   UNL A   1      39.956  24.474  26.759  1.00  0.00     0.039 A 
ATOM     32  C   UNL A   1      40.606  25.563  26.160  1.00  0.00     0.014 A 
ATOM     33  C   UNL A   1      39.211  24.669  27.919  1.00  0.00     0.014 A 
ATOM     34  C   UNL A   1      40.713  26.768  26.845  1.00  0.00     0.010 A 
ATOM     35  C   UNL A   1      39.394  25.821  28.646  1.00  0.00     0.010 A 
ATOM     36  C   UNL A   1      40.191  26.842  28.130  1.00  0.00    -0.014 A 
BRANCH  36  37
ATOM     37  C   UNL A   1      40.368  27.964  29.024  1.00  0.00     0.031 A 
ATOM     38  C   UNL A   1      39.435  29.096  28.942  1.00  0.00     0.074 A 
ATOM     39  C   UNL A   1      41.245  27.841  30.042  1.00  0.00     0.049 A 
ATOM     40  N   UNL A   1      39.689  30.273  29.392  1.00  0.00    -0.248 NA
ATOM     41  C   UNL A   1      38.118  28.970  28.327  1.00  0.00     0.031 C 
ATOM     42  C   UNL A   1      41.305  28.648  31.249  1.00  0.00     0.029 A 
ATOM     43  N   UNL A   1      42.393  27.043  30.101  1.00  0.00    -0.354 N 
ATOM     44  C   UNL A   1      38.496  30.962  29.400  1.00  0.00     0.074 A 
ATOM     45  C   UNL A   1      37.572  30.148  28.644  1.00  0.00     0.031 C 
ATOM     46  C   UNL A   1      42.529  28.525  31.785  1.00  0.00     0.029 A 
ATOM     47  C   UNL A   1      43.338  27.775  30.838  1.00  0.00     0.049 A 
ATOM     48  H   UNL A   1      42.514  26.150  29.705  1.00  0.00     0.167 HD
ATOM     49  C   UNL A   1      38.359  32.051  30.205  1.00  0.00     0.034 A 
ATOM     50  C   UNL A   1      44.539  28.186  30.334  1.00  0.00     0.034 A 
ATOM     51  C   UNL A   1      39.585  32.284  30.975  1.00  0.00     0.049 A 
ATOM     52  C   UNL A   1      44.677  29.698  30.372  1.00  0.00     0.074 A 
ATOM     53  C   UNL A   1      39.968  31.901  32.252  1.00  0.00     0.029 A 
ATOM     54  N   UNL A   1      40.744  32.692  30.326  1.00  0.00    -0.354 N 
ATOM     55  N   UNL A   1      43.678  30.503  30.607  1.00  0.00    -0.248 NA
ATOM     56  C   UNL A   1      45.923  30.428  30.161  1.00  0.00     0.031 C 
ATOM     57  C   UNL A   1      41.381  32.004  32.339  1.00  0.00     0.029 A 
ATOM     58  C   UNL A   1      41.856  32.479  31.127  1.00  0.00     0.049 A 
ATOM     59  H   UNL A   1      40.772  33.078  29.421  1.00  0.00     0.167 HD
ATOM     60  C   UNL A   1      44.082  31.804  30.538  1.00  0.00     0.074 A 
ATOM     61  C   UNL A   1      45.512  31.705  30.292  1.00  0.00     0.031 C 
ATOM     62  C   UNL A   1      43.191  32.837  30.657  1.00  0.00     0.034 A 
BRANCH  49  63
ATOM     63  C   UNL A   1      37.011  32.643  30.563  1.00  0.00     0.023 A 
ATOM     64  C   UNL A   1      36.495  32.367  31.847  1.00  0.00     0.012 A 
ATOM     65  C   UNL A   1      36.189  33.413  29.707  1.00  0.00     0.148 A 
ATOM     66  C   UNL A   1      35.204  32.736  32.234  1.00  0.00     0.002 A 
ATOM     67  C   UNL A   1      34.874  33.728  30.069  1.00  0.00     0.091 A 
ATOM     68  F   UNL A   1      36.695  33.892  28.563  1.00  0.00    -0.205 F 
ATOM     69  C   UNL A   1      34.379  33.387  31.331  1.00  0.00     0.022 A 
BRANCH  67  70
ATOM     70  S   UNL A   1      33.704  34.478  28.921  1.00  0.00     0.127 S 
ATOM     71  O   UNL A   1      34.480  35.592  28.367  1.00  0.00    -0.237 OA
ATOM     72  O   UNL A   1      33.446  33.393  27.977  1.00  0.00    -0.237 OA
ATOM     73  O   UNL A   1      32.569  34.900  29.733  1.00  0.00    -0.744 OA
ENDBRANCH  67  70
ENDBRANCH  49  63
BRANCH  50  74
ATOM     74  C   UNL A   1      45.089  27.265  29.296  1.00  0.00     0.023 A 
ATOM     75  C   UNL A   1      45.383  25.945  29.724  1.00  0.00     0.012 A 
ATOM     76  C   UNL A   1      44.894  27.503  27.925  1.00  0.00     0.148 A 
ATOM     77  C   UNL A   1      45.310  24.868  28.838  1.00  0.00     0.002 A 
ATOM     78  C   UNL A   1      44.828  26.422  27.046  1.00  0.00     0.091 A 
ATOM     79  F   UNL A   1      44.690  28.761  27.515  1.00  0.00    -0.205 F 
ATOM     80  C   UNL A   1      44.988  25.104  27.508  1.00  0.00     0.022 A 
BRANCH  78  81
ATOM     81  S   UNL A   1      44.400  26.647  25.314  1.00  0.00     0.127 S 
ATOM     82  O   UNL A   1      43.571  27.847  25.372  1.00  0.00    -0.237 OA
ATOM     83  O   UNL A   1      45.708  26.837  24.688  1.00  0.00    -0.237 OA
ATOM     84  O   UNL A   1      43.729  25.413  24.936  1.00  0.00    -0.744 OA
ENDBRANCH  78  81
ENDBRANCH  50  74
BRANCH  62  85
ATOM     85  C   UNL A   1      43.470  34.293  30.345  1.00  0.00     0.023 A 
ATOM     86  C   UNL A   1      43.882  35.206  31.331  1.00  0.00     0.012 A 
ATOM     87  C   UNL A   1      43.506  34.745  28.999  1.00  0.00     0.148 A 
ATOM     88  C   UNL A   1      44.276  36.509  31.007  1.00  0.00     0.002 A 
ATOM     89  C   UNL A   1      44.021  35.994  28.673  1.00  0.00     0.091 A 
ATOM     90  F   UNL A   1      43.023  33.970  28.015  1.00  0.00    -0.205 F 
ATOM     91  C   UNL A   1      44.378  36.893  29.677  1.00  0.00     0.022 A 
BRANCH  89  92
ATOM     92  S   UNL A   1      44.414  36.409  26.967  1.00  0.00     0.127 S 
ATOM     93  O   UNL A   1      43.123  36.237  26.307  1.00  0.00    -0.237 OA
ATOM     94  O   UNL A   1      44.861  37.799  27.079  1.00  0.00    -0.237 OA
ATOM     95  O   UNL A   1      45.464  35.476  26.585  1.00  0.00    -0.744 OA
ENDBRANCH  89  92
ENDBRANCH  62  85
ENDBRANCH  36  37
ENDBRANCH  28  31
ENDBRANCH  26  27
ENDBRANCH   1  26
TORSDOF 18
ENDMDL
MODEL 3
REMARK VINA RESULT:     -12.4      4.031      9.293
REMARK SMILES Cc1ccc(C[C@@H](Cc2cc(F)cc(Br)c2)C(=O)NCCCCNC(=O)c2ccc(-c3c4nc(c(-c5cccc(S(=O)(=O)[O-])c5F)c5ccc([nH]5)c(-c5cccc(S(=O)(=O)[O-])c5F)c5nc(c(-c6cccc(S(=O)(=O)[O-])c6F)c6ccc3[nH]6)C=C5)C=C4)cc2)cc1
REMARK SMILES IDX 22 1 21 2 20 3 19 4 17 5 18 6 7 8 6 9 5 10 1 11 2 12 3 13
REMARK SMILES IDX 91 14 4 15 90 16 8 17 9 18 10 19 16 20 11 21 14 22 12 23
REMARK SMILES IDX 13 24 15 25 23 26 24 27 25 28 26 30 27 31 28 32 89 33 29 34
REMARK SMILES IDX 88 35 30 36 31 37 32 38 82 39 33 40 87 41 81 42 83 43 34 44
REMARK SMILES IDX 86 45 80 46 79 47 35 49 67 50 47 51 66 52 48 53 51 54 65 55
REMARK SMILES IDX 84 56 49 57 50 58 64 60 85 61 52 62 36 63 37 64 45 65 38 66
REMARK SMILES IDX 40 67 46 68 39 69 41 70 42 71 43 72 44 73 68 74 69 75 77 76
REMARK SMILES IDX 70 77 72 78 78 79 71 80 73 81 74 82 75 83 76 84 53 85 54 86
REMARK SMILES IDX 62 87 55 88 57 89 63 90 56 91 58 92 59 93 60 94 61 95
REMARK H PARENT 19 7 24 29 83 48 51 59
REMARK Flexibility Score: inf
ROOT
ATOM      1  C   UNL A   1      32.167  30.526  26.886  1.00  0.00     0.023 C 
ENDROOT
BRANCH   1   2
ATOM      2  C   UNL A   1      31.488  29.411  26.090  1.00  0.00     0.023 C 
BRANCH   2   3
ATOM      3  C   UNL A   1      31.345  29.712  24.594  1.00  0.00     0.116 C 
BRANCH   3   4
ATOM      4  N   UNL A   1      32.622  29.574  23.911  1.00  0.00    -0.356 N 
ATOM      5  C   UNL A   1      33.369  28.474  23.626  1.00  0.00     0.223 C 
ATOM      6  O   UNL A   1      34.453  28.640  23.061  1.00  0.00    -0.275 OA
ATOM      7  H   UNL A   1      33.014  30.423  23.603  1.00  0.00     0.163 HD
BRANCH   5   8
ATOM      8  C   UNL A   1      32.898  27.079  23.988  1.00  0.00     0.087 C 
BRANCH   8   9
ATOM      9  C   UNL A   1      33.217  26.188  22.759  1.00  0.00     0.049 C 
BRANCH   9  10
ATOM     10  C   UNL A   1      33.023  24.694  22.834  1.00  0.00    -0.047 A 
ATOM     11  C   UNL A   1      32.495  20.455  23.484  1.00  0.00     0.044 C 
ATOM     12  C   UNL A   1      32.692  21.924  23.265  1.00  0.00    -0.051 A 
ATOM     13  C   UNL A   1      31.580  22.754  23.102  1.00  0.00     0.004 A 
ATOM     14  C   UNL A   1      33.970  22.485  23.215  1.00  0.00     0.004 A 
ATOM     15  C   UNL A   1      31.746  24.125  22.909  1.00  0.00     0.004 A 
ATOM     16  C   UNL A   1      34.134  23.856  22.997  1.00  0.00     0.004 A 
ENDBRANCH   9  10
ENDBRANCH   8   9
BRANCH   8  17
ATOM     17  C   UNL A   1      33.370  26.552  25.365  1.00  0.00     0.049 C 
BRANCH  17  18
ATOM     18  C   UNL A   1      32.863  25.290  26.042  1.00  0.00    -0.043 A 
ATOM     19  C   UNL A   1      31.473  25.193  26.218  1.00  0.00     0.043 A 
ATOM     20  C   UNL A   1      33.637  24.202  26.462  1.00  0.00     0.019 A 
ATOM     21  C   UNL A   1      30.888  24.027  26.699  1.00  0.00     0.124 A 
ATOM     22  C   UNL A   1      33.030  23.003  26.862  1.00  0.00     0.021 A 
ATOM     23  F   UNL A   1      29.565  24.012  26.891  1.00  0.00    -0.207 F 
ATOM     24  C   UNL A   1      31.650  22.905  26.977  1.00  0.00     0.055 A 
ATOM     25  Br  UNL A   1      34.107  21.483  27.195  1.00  0.00    -0.051 Br
ENDBRANCH  17  18
ENDBRANCH   8  17
ENDBRANCH   5   8
ENDBRANCH   3   4
ENDBRANCH   2   3
ENDBRANCH   1   2
BRANCH   1  26
ATOM     26  C   UNL A   1      33.639  30.258  27.143  1.00  0.00     0.116 C 
BRANCH  26  27
ATOM     27  N   UNL A   1      34.294  31.308  27.888  1.00  0.00    -0.352 N 
ATOM     28  C   UNL A   1      35.259  31.182  28.869  1.00  0.00     0.251 C 
ATOM     29  H   UNL A   1      34.020  32.228  27.670  1.00  0.00     0.163 HD
ATOM     30  O   UNL A   1      35.343  32.060  29.725  1.00  0.00    -0.269 OA
BRANCH  28  31
ATOM     31  C   UNL A   1      36.268  30.095  28.778  1.00  0.00     0.039 A 
ATOM     32  C   UNL A   1      36.638  29.468  29.977  1.00  0.00     0.014 A 
ATOM     33  C   UNL A   1      37.012  29.870  27.624  1.00  0.00     0.014 A 
ATOM     34  C   UNL A   1      37.871  28.831  30.072  1.00  0.00     0.010 A 
ATOM     35  C   UNL A   1      38.271  29.330  27.733  1.00  0.00     0.010 A 
ATOM     36  C   UNL A   1      38.715  28.865  28.971  1.00  0.00    -0.014 A 
BRANCH  36  37
ATOM     37  C   UNL A   1      40.083  28.395  28.970  1.00  0.00     0.031 A 
ATOM     38  C   UNL A   1      40.345  26.962  28.773  1.00  0.00     0.074 A 
ATOM     39  C   UNL A   1      41.075  29.308  28.934  1.00  0.00     0.049 A 
ATOM     40  N   UNL A   1      41.437  26.376  29.114  1.00  0.00    -0.248 NA
ATOM     41  C   UNL A   1      39.362  26.073  28.162  1.00  0.00     0.031 C 
ATOM     42  C   UNL A   1      42.457  29.085  28.547  1.00  0.00     0.029 A 
ATOM     43  N   UNL A   1      41.059  30.620  29.421  1.00  0.00    -0.354 N 
ATOM     44  C   UNL A   1      41.426  25.135  28.516  1.00  0.00     0.074 A 
ATOM     45  C   UNL A   1      40.082  24.956  28.016  1.00  0.00     0.031 C 
ATOM     46  C   UNL A   1      43.208  30.079  29.048  1.00  0.00     0.029 A 
ATOM     47  C   UNL A   1      42.349  30.868  29.916  1.00  0.00     0.049 A 
ATOM     48  H   UNL A   1      40.296  31.243  29.416  1.00  0.00     0.167 HD
ATOM     49  C   UNL A   1      42.600  24.472  28.334  1.00  0.00     0.034 A 
ATOM     50  C   UNL A   1      42.615  31.165  31.222  1.00  0.00     0.034 A 
ATOM     51  C   UNL A   1      43.729  25.269  28.826  1.00  0.00     0.049 A 
ATOM     52  C   UNL A   1      43.549  30.147  31.852  1.00  0.00     0.074 A 
ATOM     53  C   UNL A   1      44.599  26.141  28.189  1.00  0.00     0.029 A 
ATOM     54  N   UNL A   1      43.869  25.503  30.188  1.00  0.00    -0.354 N 
ATOM     55  N   UNL A   1      43.840  29.002  31.297  1.00  0.00    -0.248 NA
ATOM     56  C   UNL A   1      44.231  30.317  33.131  1.00  0.00     0.031 C 
ATOM     57  C   UNL A   1      45.205  26.960  29.177  1.00  0.00     0.029 A 
ATOM     58  C   UNL A   1      44.729  26.567  30.417  1.00  0.00     0.049 A 
ATOM     59  H   UNL A   1      43.420  24.985  30.894  1.00  0.00     0.167 HD
ATOM     60  C   UNL A   1      44.665  28.273  32.103  1.00  0.00     0.074 A 
ATOM     61  C   UNL A   1      44.914  29.159  33.229  1.00  0.00     0.031 C 
ATOM     62  C   UNL A   1      45.036  26.995  31.778  1.00  0.00     0.034 A 
BRANCH  49  63
ATOM     63  C   UNL A   1      42.743  23.303  27.380  1.00  0.00     0.023 A 
ATOM     64  C   UNL A   1      41.968  22.151  27.635  1.00  0.00     0.012 A 
ATOM     65  C   UNL A   1      43.625  23.237  26.275  1.00  0.00     0.148 A 
ATOM     66  C   UNL A   1      42.124  20.966  26.911  1.00  0.00     0.002 A 
ATOM     67  C   UNL A   1      43.827  22.033  25.590  1.00  0.00     0.091 A 
ATOM     68  F   UNL A   1      44.228  24.354  25.846  1.00  0.00    -0.205 F 
ATOM     69  C   UNL A   1      43.079  20.895  25.910  1.00  0.00     0.022 A 
BRANCH  67  70
ATOM     70  S   UNL A   1      45.118  21.826  24.351  1.00  0.00     0.127 S 
ATOM     71  O   UNL A   1      46.341  21.957  25.147  1.00  0.00    -0.237 OA
ATOM     72  O   UNL A   1      44.865  20.477  23.850  1.00  0.00    -0.237 OA
ATOM     73  O   UNL A   1      44.922  22.908  23.392  1.00  0.00    -0.744 OA
ENDBRANCH  67  70
ENDBRANCH  49  63
BRANCH  50  74
ATOM     74  C   UNL A   1      41.503  31.895  31.898  1.00  0.00     0.023 A 
ATOM     75  C   UNL A   1      41.143  33.146  31.336  1.00  0.00     0.012 A 
ATOM     76  C   UNL A   1      40.571  31.226  32.709  1.00  0.00     0.148 A 
ATOM     77  C   UNL A   1      39.836  33.629  31.432  1.00  0.00     0.002 A 
ATOM     78  C   UNL A   1      39.270  31.718  32.805  1.00  0.00     0.091 A 
ATOM     79  F   UNL A   1      40.939  30.082  33.300  1.00  0.00    -0.205 F 
ATOM     80  C   UNL A   1      38.889  32.890  32.130  1.00  0.00     0.022 A 
BRANCH  78  81
ATOM     81  S   UNL A   1      37.985  30.810  33.677  1.00  0.00     0.127 S 
ATOM     82  O   UNL A   1      38.372  29.428  33.409  1.00  0.00    -0.237 OA
ATOM     83  O   UNL A   1      38.177  31.241  35.061  1.00  0.00    -0.237 OA
ATOM     84  O   UNL A   1      36.740  31.263  33.076  1.00  0.00    -0.744 OA
ENDBRANCH  78  81
ENDBRANCH  50  74
BRANCH  62  85
ATOM     85  C   UNL A   1      45.724  26.008  32.698  1.00  0.00     0.023 A 
ATOM     86  C   UNL A   1      47.122  25.963  32.840  1.00  0.00     0.012 A 
ATOM     87  C   UNL A   1      44.963  25.213  33.596  1.00  0.00     0.148 A 
ATOM     88  C   UNL A   1      47.737  25.149  33.798  1.00  0.00     0.002 A 
ATOM     89  C   UNL A   1      45.574  24.508  34.627  1.00  0.00     0.091 A 
ATOM     90  F   UNL A   1      43.633  25.118  33.450  1.00  0.00    -0.205 F 
ATOM     91  C   UNL A   1      46.964  24.448  34.713  1.00  0.00     0.022 A 
BRANCH  89  92
ATOM     92  S   UNL A   1      44.598  23.821  35.974  1.00  0.00     0.127 S 
ATOM     93  O   UNL A   1      45.575  23.762  37.058  1.00  0.00    -0.237 OA
ATOM     94  O   UNL A   1      43.553  24.832  36.150  1.00  0.00    -0.237 OA
ATOM     95  O   UNL A   1      44.112  22.543  35.473  1.00  0.00    -0.744 OA
ENDBRANCH  89  92
ENDBRANCH  62  85
ENDBRANCH  36  37
ENDBRANCH  28  31
ENDBRANCH  26  27
ENDBRANCH   1  26
TORSDOF 18
ENDMDL
