MODEL 1
REMARK VINA RESULT:     -12.3      0.000      0.000
REMARK SMILES O=C(NCCCCNC(=O)[C@H]1CC(=O)N(c2cccc(OC(F)(F)F)c2)C1)c1ccc(-c2c3nc(c(-c4cccc(S(=O)(=O)[O-])c4F)c4ccc([nH]4)c(-c4cccc(S(=O)(=O)[O-])c4F)c4nc(c(-c5cccc(S(=O)(=O)[O-])c5F)c5ccc2[nH]5)C=C4)C=C3)cc1
REMARK SMILES IDX 5 1 4 2 3 3 1 4 2 5 28 7 29 8 90 9 30 10 89 11 31 12 32 13
REMARK SMILES IDX 33 14 83 15 34 16 88 17 82 18 84 19 35 20 87 21 81 22 80 23
REMARK SMILES IDX 36 25 68 26 48 27 67 28 49 29 52 30 66 31 85 32 50 33 51 34
REMARK SMILES IDX 65 36 86 37 53 38 37 39 38 40 46 41 39 42 41 43 47 44 40 45
REMARK SMILES IDX 42 46 43 47 44 48 45 49 69 50 70 51 78 52 71 53 73 54 79 55
REMARK SMILES IDX 72 56 74 57 75 58 76 59 77 60 54 61 55 62 63 63 56 64 58 65
REMARK SMILES IDX 64 66 57 67 59 68 60 69 61 70 62 71 6 72 7 73 8 74 9 75
REMARK SMILES IDX 10 77 11 78 12 79 27 80 13 81 15 82 14 83 16 84 17 85 26 86
REMARK SMILES IDX 18 87 20 88 19 89 21 90 22 91 23 92 24 93 25 94
REMARK H PARENT 3 6 84 24 52 35 8 76
REMARK Flexibility Score: inf
ROOT
ATOM      1  C   UNL A   1      32.801  29.115  24.551  1.00  0.00     0.023 C 
ENDROOT
BRANCH   1   2
ATOM      2  C   UNL A   1      33.246  29.492  25.957  1.00  0.00     0.116 C 
BRANCH   2   3
ATOM      3  N   UNL A   1      32.798  30.808  26.391  1.00  0.00    -0.352 N 
ATOM      4  O   UNL A   1      32.923  32.705  27.624  1.00  0.00    -0.269 OA
ATOM      5  C   UNL A   1      33.450  31.661  27.258  1.00  0.00     0.251 C 
ATOM      6  H   UNL A   1      31.940  31.122  26.028  1.00  0.00     0.163 HD
BRANCH   5   7
ATOM      7  C   UNL A   1      34.775  31.252  27.772  1.00  0.00     0.039 A 
ATOM      8  C   UNL A   1      34.946  29.972  28.297  1.00  0.00     0.014 A 
ATOM      9  C   UNL A   1      35.816  32.182  27.816  1.00  0.00     0.014 A 
ATOM     10  C   UNL A   1      36.092  29.679  29.020  1.00  0.00     0.010 A 
ATOM     11  C   UNL A   1      37.014  31.846  28.456  1.00  0.00     0.010 A 
ATOM     12  C   UNL A   1      37.147  30.607  29.099  1.00  0.00    -0.014 A 
BRANCH  12  13
ATOM     13  C   UNL A   1      38.395  30.198  29.794  1.00  0.00     0.031 A 
ATOM     14  C   UNL A   1      38.715  30.657  31.190  1.00  0.00     0.074 A 
ATOM     15  C   UNL A   1      39.224  29.352  29.153  1.00  0.00     0.049 A 
ATOM     16  N   UNL A   1      39.723  30.314  31.952  1.00  0.00    -0.248 NA
ATOM     17  C   UNL A   1      37.800  31.627  31.814  1.00  0.00     0.031 C 
ATOM     18  C   UNL A   1      39.042  28.888  27.774  1.00  0.00     0.029 A 
ATOM     19  N   UNL A   1      40.365  28.717  29.567  1.00  0.00    -0.354 N 
ATOM     20  C   UNL A   1      39.586  31.045  33.127  1.00  0.00     0.074 A 
ATOM     21  C   UNL A   1      38.400  31.860  32.976  1.00  0.00     0.031 C 
ATOM     22  C   UNL A   1      40.007  28.008  27.473  1.00  0.00     0.029 A 
ATOM     23  C   UNL A   1      40.907  27.889  28.612  1.00  0.00     0.049 A 
ATOM     24  H   UNL A   1      40.758  28.842  30.461  1.00  0.00     0.167 HD
ATOM     25  C   UNL A   1      40.369  31.024  34.233  1.00  0.00     0.034 A 
ATOM     26  C   UNL A   1      42.014  27.123  28.642  1.00  0.00     0.034 A 
ATOM     27  C   UNL A   1      41.531  30.186  34.387  1.00  0.00     0.049 A 
ATOM     28  C   UNL A   1      42.825  27.078  29.902  1.00  0.00     0.074 A 
ATOM     29  C   UNL A   1      42.369  30.067  35.482  1.00  0.00     0.029 A 
ATOM     30  N   UNL A   1      42.020  29.320  33.419  1.00  0.00    -0.354 N 
ATOM     31  N   UNL A   1      42.613  27.693  31.040  1.00  0.00    -0.248 NA
ATOM     32  C   UNL A   1      44.012  26.214  29.894  1.00  0.00     0.031 C 
ATOM     33  C   UNL A   1      43.368  29.137  35.173  1.00  0.00     0.029 A 
ATOM     34  C   UNL A   1      43.144  28.663  33.891  1.00  0.00     0.049 A 
ATOM     35  H   UNL A   1      41.624  29.192  32.526  1.00  0.00     0.167 HD
ATOM     36  C   UNL A   1      43.635  27.289  31.885  1.00  0.00     0.074 A 
ATOM     37  C   UNL A   1      44.438  26.337  31.144  1.00  0.00     0.031 C 
ATOM     38  C   UNL A   1      43.908  27.692  33.151  1.00  0.00     0.034 A 
BRANCH  25  39
ATOM     39  C   UNL A   1      39.971  31.893  35.399  1.00  0.00     0.023 A 
ATOM     40  C   UNL A   1      40.478  33.206  35.484  1.00  0.00     0.012 A 
ATOM     41  C   UNL A   1      39.033  31.452  36.354  1.00  0.00     0.148 A 
ATOM     42  C   UNL A   1      40.074  34.060  36.511  1.00  0.00     0.002 A 
ATOM     43  C   UNL A   1      38.607  32.321  37.353  1.00  0.00     0.091 A 
ATOM     44  F   UNL A   1      38.575  30.196  36.267  1.00  0.00    -0.205 F 
ATOM     45  C   UNL A   1      39.132  33.622  37.438  1.00  0.00     0.022 A 
BRANCH  43  46
ATOM     46  S   UNL A   1      37.343  31.880  38.552  1.00  0.00     0.127 S 
ATOM     47  O   UNL A   1      38.025  32.158  39.816  1.00  0.00    -0.237 OA
ATOM     48  O   UNL A   1      36.266  32.815  38.223  1.00  0.00    -0.237 OA
ATOM     49  O   UNL A   1      37.027  30.480  38.307  1.00  0.00    -0.744 OA
ENDBRANCH  43  46
ENDBRANCH  25  39
BRANCH  26  50
ATOM     50  C   UNL A   1      42.378  26.314  27.446  1.00  0.00     0.023 A 
ATOM     51  C   UNL A   1      43.171  26.883  26.431  1.00  0.00     0.012 A 
ATOM     52  C   UNL A   1      41.997  24.963  27.343  1.00  0.00     0.148 A 
ATOM     53  C   UNL A   1      43.558  26.124  25.325  1.00  0.00     0.002 A 
ATOM     54  C   UNL A   1      42.443  24.195  26.274  1.00  0.00     0.091 A 
ATOM     55  F   UNL A   1      41.223  24.442  28.306  1.00  0.00    -0.205 F 
ATOM     56  C   UNL A   1      43.208  24.778  25.254  1.00  0.00     0.022 A 
BRANCH  54  57
ATOM     57  S   UNL A   1      42.173  22.421  26.219  1.00  0.00     0.127 S 
ATOM     58  O   UNL A   1      42.768  21.986  27.479  1.00  0.00    -0.237 OA
ATOM     59  O   UNL A   1      40.712  22.329  26.162  1.00  0.00    -0.237 OA
ATOM     60  O   UNL A   1      42.840  21.975  25.003  1.00  0.00    -0.744 OA
ENDBRANCH  54  57
ENDBRANCH  26  50
BRANCH  38  61
ATOM     61  C   UNL A   1      45.128  27.103  33.805  1.00  0.00     0.023 A 
ATOM     62  C   UNL A   1      46.359  27.783  33.713  1.00  0.00     0.012 A 
ATOM     63  C   UNL A   1      45.055  25.899  34.530  1.00  0.00     0.148 A 
ATOM     64  C   UNL A   1      47.507  27.254  34.298  1.00  0.00     0.002 A 
ATOM     65  C   UNL A   1      46.195  25.399  35.148  1.00  0.00     0.091 A 
ATOM     66  F   UNL A   1      43.881  25.253  34.586  1.00  0.00    -0.205 F 
ATOM     67  C   UNL A   1      47.424  26.068  35.023  1.00  0.00     0.022 A 
BRANCH  65  68
ATOM     68  S   UNL A   1      46.156  23.921  36.168  1.00  0.00     0.127 S 
ATOM     69  O   UNL A   1      47.549  23.820  36.600  1.00  0.00    -0.237 OA
ATOM     70  O   UNL A   1      45.215  24.293  37.226  1.00  0.00    -0.237 OA
ATOM     71  O   UNL A   1      45.686  22.854  35.296  1.00  0.00    -0.744 OA
ENDBRANCH  65  68
ENDBRANCH  38  61
ENDBRANCH  12  13
ENDBRANCH   5   7
ENDBRANCH   2   3
ENDBRANCH   1   2
BRANCH   1  72
ATOM     72  C   UNL A   1      31.343  29.452  24.232  1.00  0.00     0.023 C 
BRANCH  72  73
ATOM     73  C   UNL A   1      30.820  28.839  22.929  1.00  0.00     0.116 C 
BRANCH  73  74
ATOM     74  N   UNL A   1      29.702  27.945  23.158  1.00  0.00    -0.356 N 
ATOM     75  C   UNL A   1      29.533  26.824  23.896  1.00  0.00     0.225 C 
ATOM     76  H   UNL A   1      28.888  28.211  22.672  1.00  0.00     0.163 HD
ATOM     77  O   UNL A   1      28.398  26.329  23.869  1.00  0.00    -0.275 OA
BRANCH  75  78
ATOM     78  C   UNL A   1      30.603  26.102  24.701  1.00  0.00     0.107 C 
ATOM     79  C   UNL A   1      29.968  25.440  25.924  1.00  0.00     0.116 C 
ATOM     80  C   UNL A   1      31.454  25.017  24.094  1.00  0.00     0.139 C 
ATOM     81  C   UNL A   1      30.861  24.266  26.232  1.00  0.00     0.227 C 
ATOM     82  N   UNL A   1      31.733  24.087  25.161  1.00  0.00    -0.311 N 
ATOM     83  O   UNL A   1      30.776  23.596  27.251  1.00  0.00    -0.274 OA
BRANCH  82  84
ATOM     84  C   UNL A   1      32.472  22.912  24.882  1.00  0.00     0.047 A 
ATOM     85  C   UNL A   1      31.869  21.856  24.189  1.00  0.00     0.026 A 
ATOM     86  C   UNL A   1      33.759  22.734  25.411  1.00  0.00     0.073 A 
ATOM     87  C   UNL A   1      32.534  20.641  24.028  1.00  0.00     0.006 A 
ATOM     88  C   UNL A   1      34.399  21.495  25.315  1.00  0.00     0.131 A 
ATOM     89  C   UNL A   1      33.792  20.462  24.599  1.00  0.00     0.047 A 
BRANCH  88  90
ATOM     90  O   UNL A   1      35.598  21.168  25.884  1.00  0.00    -0.406 OA
BRANCH  90  91
ATOM     91  C   UNL A   1      36.720  21.081  25.017  1.00  0.00     0.573 C 
ATOM     92  F   UNL A   1      36.528  21.827  23.910  1.00  0.00    -0.132 F 
ATOM     93  F   UNL A   1      37.857  21.467  25.635  1.00  0.00    -0.132 F 
ATOM     94  F   UNL A   1      36.868  19.793  24.634  1.00  0.00    -0.132 F 
ENDBRANCH  90  91
ENDBRANCH  88  90
ENDBRANCH  82  84
ENDBRANCH  75  78
ENDBRANCH  73  74
ENDBRANCH  72  73
ENDBRANCH   1  72
TORSDOF 17
ENDMDL
MODEL 2
REMARK VINA RESULT:     -12.0      5.362     10.381
REMARK SMILES O=C(NCCCCNC(=O)[C@H]1CC(=O)N(c2cccc(OC(F)(F)F)c2)C1)c1ccc(-c2c3nc(c(-c4cccc(S(=O)(=O)[O-])c4F)c4ccc([nH]4)c(-c4cccc(S(=O)(=O)[O-])c4F)c4nc(c(-c5cccc(S(=O)(=O)[O-])c5F)c5ccc2[nH]5)C=C4)C=C3)cc1
REMARK SMILES IDX 5 1 4 2 3 3 1 4 2 5 28 7 29 8 90 9 30 10 89 11 31 12 32 13
REMARK SMILES IDX 33 14 83 15 34 16 88 17 82 18 84 19 35 20 87 21 81 22 80 23
REMARK SMILES IDX 36 25 68 26 48 27 67 28 49 29 52 30 66 31 85 32 50 33 51 34
REMARK SMILES IDX 65 36 86 37 53 38 37 39 38 40 46 41 39 42 41 43 47 44 40 45
REMARK SMILES IDX 42 46 43 47 44 48 45 49 69 50 70 51 78 52 71 53 73 54 79 55
REMARK SMILES IDX 72 56 74 57 75 58 76 59 77 60 54 61 55 62 63 63 56 64 58 65
REMARK SMILES IDX 64 66 57 67 59 68 60 69 61 70 62 71 6 72 7 73 8 74 9 75
REMARK SMILES IDX 10 77 11 78 12 79 27 80 13 81 15 82 14 83 16 84 17 85 26 86
REMARK SMILES IDX 18 87 20 88 19 89 21 90 22 91 23 92 24 93 25 94
REMARK H PARENT 3 6 84 24 52 35 8 76
REMARK Flexibility Score: inf
ROOT
ATOM      1  C   UNL A   1      36.888  22.285  23.872  1.00  0.00     0.023 C 
ENDROOT
BRANCH   1   2
ATOM      2  C   UNL A   1      37.245  22.043  25.332  1.00  0.00     0.116 C 
BRANCH   2   3
ATOM      3  N   UNL A   1      38.120  20.899  25.550  1.00  0.00    -0.352 N 
ATOM      4  O   UNL A   1      40.046  19.893  26.193  1.00  0.00    -0.269 OA
ATOM      5  C   UNL A   1      39.360  20.908  26.155  1.00  0.00     0.251 C 
ATOM      6  H   UNL A   1      37.793  20.028  25.232  1.00  0.00     0.163 HD
BRANCH   5   7
ATOM      7  C   UNL A   1      39.856  22.187  26.707  1.00  0.00     0.039 A 
ATOM      8  C   UNL A   1      39.425  23.391  26.152  1.00  0.00     0.014 A 
ATOM      9  C   UNL A   1      40.825  22.177  27.713  1.00  0.00     0.014 A 
ATOM     10  C   UNL A   1      40.085  24.567  26.475  1.00  0.00     0.010 A 
ATOM     11  C   UNL A   1      41.416  23.380  28.113  1.00  0.00     0.010 A 
ATOM     12  C   UNL A   1      41.080  24.580  27.469  1.00  0.00    -0.014 A 
BRANCH  12  13
ATOM     13  C   UNL A   1      41.677  25.886  27.852  1.00  0.00     0.031 A 
ATOM     14  C   UNL A   1      43.056  26.291  27.412  1.00  0.00     0.074 A 
ATOM     15  C   UNL A   1      40.921  26.735  28.576  1.00  0.00     0.049 A 
ATOM     16  N   UNL A   1      43.672  27.431  27.599  1.00  0.00    -0.248 NA
ATOM     17  C   UNL A   1      43.854  25.297  26.674  1.00  0.00     0.031 C 
ATOM     18  C   UNL A   1      39.590  26.423  29.107  1.00  0.00     0.029 A 
ATOM     19  N   UNL A   1      41.141  28.027  28.974  1.00  0.00    -0.354 N 
ATOM     20  C   UNL A   1      44.935  27.285  27.037  1.00  0.00     0.074 A 
ATOM     21  C   UNL A   1      45.004  25.940  26.507  1.00  0.00     0.031 C 
ATOM     22  C   UNL A   1      39.095  27.507  29.720  1.00  0.00     0.029 A 
ATOM     23  C   UNL A   1      40.090  28.569  29.676  1.00  0.00     0.049 A 
ATOM     24  H   UNL A   1      41.972  28.518  28.777  1.00  0.00     0.167 HD
ATOM     25  C   UNL A   1      45.936  28.196  26.956  1.00  0.00     0.034 A 
ATOM     26  C   UNL A   1      39.944  29.785  30.234  1.00  0.00     0.034 A 
ATOM     27  C   UNL A   1      45.848  29.543  27.459  1.00  0.00     0.049 A 
ATOM     28  C   UNL A   1      41.046  30.788  30.076  1.00  0.00     0.074 A 
ATOM     29  C   UNL A   1      46.795  30.550  27.396  1.00  0.00     0.029 A 
ATOM     30  N   UNL A   1      44.748  30.074  28.117  1.00  0.00    -0.354 N 
ATOM     31  N   UNL A   1      42.188  30.664  29.443  1.00  0.00    -0.248 NA
ATOM     32  C   UNL A   1      40.835  32.108  30.685  1.00  0.00     0.031 C 
ATOM     33  C   UNL A   1      46.271  31.688  28.021  1.00  0.00     0.029 A 
ATOM     34  C   UNL A   1      44.991  31.394  28.461  1.00  0.00     0.049 A 
ATOM     35  H   UNL A   1      43.916  29.585  28.310  1.00  0.00     0.167 HD
ATOM     36  C   UNL A   1      42.828  31.887  29.572  1.00  0.00     0.074 A 
ATOM     37  C   UNL A   1      41.926  32.755  30.300  1.00  0.00     0.031 C 
ATOM     38  C   UNL A   1      44.066  32.252  29.154  1.00  0.00     0.034 A 
BRANCH  25  39
ATOM     39  C   UNL A   1      47.205  27.791  26.250  1.00  0.00     0.023 A 
ATOM     40  C   UNL A   1      48.250  27.203  26.993  1.00  0.00     0.012 A 
ATOM     41  C   UNL A   1      47.333  27.906  24.850  1.00  0.00     0.148 A 
ATOM     42  C   UNL A   1      49.409  26.754  26.358  1.00  0.00     0.002 A 
ATOM     43  C   UNL A   1      48.475  27.421  24.221  1.00  0.00     0.091 A 
ATOM     44  F   UNL A   1      46.337  28.483  24.164  1.00  0.00    -0.205 F 
ATOM     45  C   UNL A   1      49.516  26.852  24.974  1.00  0.00     0.022 A 
BRANCH  43  46
ATOM     46  S   UNL A   1      48.681  27.435  22.436  1.00  0.00     0.127 S 
ATOM     47  O   UNL A   1      47.566  28.282  22.016  1.00  0.00    -0.237 OA
ATOM     48  O   UNL A   1      50.002  28.046  22.282  1.00  0.00    -0.237 OA
ATOM     49  O   UNL A   1      48.603  26.044  22.012  1.00  0.00    -0.744 OA
ENDBRANCH  43  46
ENDBRANCH  25  39
BRANCH  26  50
ATOM     50  C   UNL A   1      38.682  30.116  30.952  1.00  0.00     0.023 A 
ATOM     51  C   UNL A   1      38.519  29.728  32.296  1.00  0.00     0.012 A 
ATOM     52  C   UNL A   1      37.670  30.870  30.328  1.00  0.00     0.148 A 
ATOM     53  C   UNL A   1      37.361  30.068  32.997  1.00  0.00     0.002 A 
ATOM     54  C   UNL A   1      36.551  31.263  31.052  1.00  0.00     0.091 A 
ATOM     55  F   UNL A   1      37.829  31.211  29.042  1.00  0.00    -0.205 F 
ATOM     56  C   UNL A   1      36.385  30.848  32.381  1.00  0.00     0.022 A 
BRANCH  54  57
ATOM     57  S   UNL A   1      35.350  32.410  30.369  1.00  0.00     0.127 S 
ATOM     58  O   UNL A   1      36.184  33.567  30.053  1.00  0.00    -0.237 OA
ATOM     59  O   UNL A   1      34.845  31.677  29.206  1.00  0.00    -0.237 OA
ATOM     60  O   UNL A   1      34.363  32.597  31.424  1.00  0.00    -0.744 OA
ENDBRANCH  54  57
ENDBRANCH  26  50
BRANCH  38  61
ATOM     61  C   UNL A   1      44.509  33.652  29.485  1.00  0.00     0.023 A 
ATOM     62  C   UNL A   1      45.122  33.909  30.727  1.00  0.00     0.012 A 
ATOM     63  C   UNL A   1      44.347  34.703  28.562  1.00  0.00     0.148 A 
ATOM     64  C   UNL A   1      45.531  35.198  31.063  1.00  0.00     0.002 A 
ATOM     65  C   UNL A   1      44.797  35.977  28.887  1.00  0.00     0.091 A 
ATOM     66  F   UNL A   1      43.739  34.445  27.394  1.00  0.00    -0.205 F 
ATOM     67  C   UNL A   1      45.378  36.229  30.141  1.00  0.00     0.022 A 
BRANCH  65  68
ATOM     68  S   UNL A   1      44.711  37.343  27.723  1.00  0.00     0.127 S 
ATOM     69  O   UNL A   1      45.250  38.445  28.518  1.00  0.00    -0.237 OA
ATOM     70  O   UNL A   1      45.583  36.889  26.639  1.00  0.00    -0.237 OA
ATOM     71  O   UNL A   1      43.306  37.458  27.355  1.00  0.00    -0.744 OA
ENDBRANCH  65  68
ENDBRANCH  38  61
ENDBRANCH  12  13
ENDBRANCH   5   7
ENDBRANCH   2   3
ENDBRANCH   1   2
BRANCH   1  72
ATOM     72  C   UNL A   1      35.871  23.405  23.643  1.00  0.00     0.023 C 
BRANCH  72  73
ATOM     73  C   UNL A   1      34.541  23.217  24.382  1.00  0.00     0.116 C 
BRANCH  73  74
ATOM     74  N   UNL A   1      33.761  22.126  23.830  1.00  0.00    -0.356 N 
ATOM     75  C   UNL A   1      32.441  21.937  23.607  1.00  0.00     0.225 C 
ATOM     76  H   UNL A   1      34.312  21.357  23.558  1.00  0.00     0.163 HD
ATOM     77  O   UNL A   1      32.134  20.858  23.082  1.00  0.00    -0.275 OA
BRANCH  75  78
ATOM     78  C   UNL A   1      31.315  22.889  23.981  1.00  0.00     0.107 C 
ATOM     79  C   UNL A   1      31.245  23.032  25.501  1.00  0.00     0.116 C 
ATOM     80  C   UNL A   1      31.277  24.308  23.476  1.00  0.00     0.139 C 
ATOM     81  C   UNL A   1      30.658  24.400  25.733  1.00  0.00     0.227 C 
ATOM     82  N   UNL A   1      30.658  25.086  24.521  1.00  0.00    -0.311 N 
ATOM     83  O   UNL A   1      30.285  24.804  26.825  1.00  0.00    -0.274 OA
BRANCH  82  84
ATOM     84  C   UNL A   1      30.535  26.488  24.363  1.00  0.00     0.047 A 
ATOM     85  C   UNL A   1      29.572  27.010  23.490  1.00  0.00     0.026 A 
ATOM     86  C   UNL A   1      31.455  27.359  24.964  1.00  0.00     0.073 A 
ATOM     87  C   UNL A   1      29.528  28.376  23.217  1.00  0.00     0.006 A 
ATOM     88  C   UNL A   1      31.461  28.718  24.637  1.00  0.00     0.131 A 
ATOM     89  C   UNL A   1      30.478  29.224  23.783  1.00  0.00     0.047 A 
BRANCH  88  90
ATOM     90  O   UNL A   1      32.372  29.641  25.067  1.00  0.00    -0.406 OA
BRANCH  90  91
ATOM     91  C   UNL A   1      32.036  30.385  26.230  1.00  0.00     0.573 C 
ATOM     92  F   UNL A   1      31.227  31.418  25.919  1.00  0.00    -0.132 F 
ATOM     93  F   UNL A   1      31.446  29.609  27.165  1.00  0.00    -0.132 F 
ATOM     94  F   UNL A   1      33.173  30.888  26.761  1.00  0.00    -0.132 F 
ENDBRANCH  90  91
ENDBRANCH  88  90
ENDBRANCH  82  84
ENDBRANCH  75  78
ENDBRANCH  73  74
ENDBRANCH  72  73
ENDBRANCH   1  72
TORSDOF 17
ENDMDL
MODEL 3
REMARK VINA RESULT:     -12.0      1.439      2.044
REMARK SMILES O=C(NCCCCNC(=O)[C@H]1CC(=O)N(c2cccc(OC(F)(F)F)c2)C1)c1ccc(-c2c3nc(c(-c4cccc(S(=O)(=O)[O-])c4F)c4ccc([nH]4)c(-c4cccc(S(=O)(=O)[O-])c4F)c4nc(c(-c5cccc(S(=O)(=O)[O-])c5F)c5ccc2[nH]5)C=C4)C=C3)cc1
REMARK SMILES IDX 5 1 4 2 3 3 1 4 2 5 28 7 29 8 90 9 30 10 89 11 31 12 32 13
REMARK SMILES IDX 33 14 83 15 34 16 88 17 82 18 84 19 35 20 87 21 81 22 80 23
REMARK SMILES IDX 36 25 68 26 48 27 67 28 49 29 52 30 66 31 85 32 50 33 51 34
REMARK SMILES IDX 65 36 86 37 53 38 37 39 38 40 46 41 39 42 41 43 47 44 40 45
REMARK SMILES IDX 42 46 43 47 44 48 45 49 69 50 70 51 78 52 71 53 73 54 79 55
REMARK SMILES IDX 72 56 74 57 75 58 76 59 77 60 54 61 55 62 63 63 56 64 58 65
REMARK SMILES IDX 64 66 57 67 59 68 60 69 61 70 62 71 6 72 7 73 8 74 9 75
REMARK SMILES IDX 10 77 11 78 12 79 27 80 13 81 15 82 14 83 16 84 17 85 26 86
REMARK SMILES IDX 18 87 20 88 19 89 21 90 22 91 23 92 24 93 25 94
REMARK H PARENT 3 6 84 24 52 35 8 76
REMARK Flexibility Score: inf
ROOT
ATOM      1  C   UNL A   1      32.754  29.392  25.529  1.00  0.00     0.023 C 
ENDROOT
BRANCH   1   2
ATOM      2  C   UNL A   1      32.784  29.959  26.942  1.00  0.00     0.116 C 
BRANCH   2   3
ATOM      3  N   UNL A   1      32.596  31.401  27.009  1.00  0.00    -0.352 N 
ATOM      4  O   UNL A   1      33.164  33.509  27.615  1.00  0.00    -0.269 OA
ATOM      5  C   UNL A   1      33.478  32.329  27.525  1.00  0.00     0.251 C 
ATOM      6  H   UNL A   1      31.751  31.752  26.649  1.00  0.00     0.163 HD
BRANCH   5   7
ATOM      7  C   UNL A   1      34.788  31.846  28.015  1.00  0.00     0.039 A 
ATOM      8  C   UNL A   1      34.897  30.558  28.537  1.00  0.00     0.014 A 
ATOM      9  C   UNL A   1      35.880  32.717  28.040  1.00  0.00     0.014 A 
ATOM     10  C   UNL A   1      36.038  30.200  29.240  1.00  0.00     0.010 A 
ATOM     11  C   UNL A   1      37.068  32.313  28.659  1.00  0.00     0.010 A 
ATOM     12  C   UNL A   1      37.143  31.068  29.299  1.00  0.00    -0.014 A 
BRANCH  12  13
ATOM     13  C   UNL A   1      38.379  30.590  29.972  1.00  0.00     0.031 A 
ATOM     14  C   UNL A   1      38.751  31.032  31.361  1.00  0.00     0.074 A 
ATOM     15  C   UNL A   1      39.147  29.697  29.317  1.00  0.00     0.049 A 
ATOM     16  N   UNL A   1      39.752  30.633  32.104  1.00  0.00    -0.248 NA
ATOM     17  C   UNL A   1      37.905  32.053  32.000  1.00  0.00     0.031 C 
ATOM     18  C   UNL A   1      38.912  29.242  27.943  1.00  0.00     0.029 A 
ATOM     19  N   UNL A   1      40.257  28.998  29.712  1.00  0.00    -0.354 N 
ATOM     20  C   UNL A   1      39.680  31.373  33.279  1.00  0.00     0.074 A 
ATOM     21  C   UNL A   1      38.539  32.253  33.149  1.00  0.00     0.031 C 
ATOM     22  C   UNL A   1      39.819  28.309  27.627  1.00  0.00     0.029 A 
ATOM     23  C   UNL A   1      40.733  28.140  28.749  1.00  0.00     0.049 A 
ATOM     24  H   UNL A   1      40.673  29.102  30.598  1.00  0.00     0.167 HD
ATOM     25  C   UNL A   1      40.481  31.308  34.371  1.00  0.00     0.034 A 
ATOM     26  C   UNL A   1      41.794  27.312  28.760  1.00  0.00     0.034 A 
ATOM     27  C   UNL A   1      41.596  30.405  34.505  1.00  0.00     0.049 A 
ATOM     28  C   UNL A   1      42.625  27.222  30.004  1.00  0.00     0.074 A 
ATOM     29  C   UNL A   1      42.447  30.241  35.584  1.00  0.00     0.029 A 
ATOM     30  N   UNL A   1      42.016  29.512  33.530  1.00  0.00    -0.354 N 
ATOM     31  N   UNL A   1      42.470  27.850  31.144  1.00  0.00    -0.248 NA
ATOM     32  C   UNL A   1      43.761  26.293  29.976  1.00  0.00     0.031 C 
ATOM     33  C   UNL A   1      43.385  29.255  35.259  1.00  0.00     0.029 A 
ATOM     34  C   UNL A   1      43.110  28.793  33.983  1.00  0.00     0.049 A 
ATOM     35  H   UNL A   1      41.597  29.405  32.645  1.00  0.00     0.167 HD
ATOM     36  C   UNL A   1      43.484  27.390  31.972  1.00  0.00     0.074 A 
ATOM     37  C   UNL A   1      44.216  26.393  31.217  1.00  0.00     0.031 C 
ATOM     38  C   UNL A   1      43.803  27.779  33.231  1.00  0.00     0.034 A 
BRANCH  25  39
ATOM     39  C   UNL A   1      40.155  32.200  35.542  1.00  0.00     0.023 A 
ATOM     40  C   UNL A   1      40.848  33.419  35.693  1.00  0.00     0.012 A 
ATOM     41  C   UNL A   1      39.111  31.884  36.435  1.00  0.00     0.148 A 
ATOM     42  C   UNL A   1      40.521  34.300  36.725  1.00  0.00     0.002 A 
ATOM     43  C   UNL A   1      38.767  32.784  37.438  1.00  0.00     0.091 A 
ATOM     44  F   UNL A   1      38.476  30.714  36.286  1.00  0.00    -0.205 F 
ATOM     45  C   UNL A   1      39.475  33.988  37.589  1.00  0.00     0.022 A 
BRANCH  43  46
ATOM     46  S   UNL A   1      37.388  32.512  38.558  1.00  0.00     0.127 S 
ATOM     47  O   UNL A   1      37.732  33.396  39.671  1.00  0.00    -0.237 OA
ATOM     48  O   UNL A   1      36.247  32.957  37.757  1.00  0.00    -0.237 OA
ATOM     49  O   UNL A   1      37.395  31.088  38.865  1.00  0.00    -0.744 OA
ENDBRANCH  43  46
ENDBRANCH  25  39
BRANCH  26  50
ATOM     50  C   UNL A   1      42.090  26.482  27.559  1.00  0.00     0.023 A 
ATOM     51  C   UNL A   1      42.878  27.010  26.519  1.00  0.00     0.012 A 
ATOM     52  C   UNL A   1      41.646  25.148  27.475  1.00  0.00     0.148 A 
ATOM     53  C   UNL A   1      43.201  26.230  25.407  1.00  0.00     0.002 A 
ATOM     54  C   UNL A   1      42.027  24.357  26.398  1.00  0.00     0.091 A 
ATOM     55  F   UNL A   1      40.876  24.667  28.461  1.00  0.00    -0.205 F 
ATOM     56  C   UNL A   1      42.789  24.900  25.354  1.00  0.00     0.022 A 
BRANCH  54  57
ATOM     57  S   UNL A   1      41.678  22.596  26.361  1.00  0.00     0.127 S 
ATOM     58  O   UNL A   1      42.389  22.172  25.159  1.00  0.00    -0.237 OA
ATOM     59  O   UNL A   1      42.266  22.135  27.621  1.00  0.00    -0.237 OA
ATOM     60  O   UNL A   1      40.224  22.500  26.318  1.00  0.00    -0.744 OA
ENDBRANCH  54  57
ENDBRANCH  26  50
BRANCH  38  61
ATOM     61  C   UNL A   1      45.000  27.121  33.863  1.00  0.00     0.023 A 
ATOM     62  C   UNL A   1      46.275  27.695  33.690  1.00  0.00     0.012 A 
ATOM     63  C   UNL A   1      44.863  25.961  34.647  1.00  0.00     0.148 A 
ATOM     64  C   UNL A   1      47.402  27.100  34.254  1.00  0.00     0.002 A 
ATOM     65  C   UNL A   1      45.986  25.398  35.242  1.00  0.00     0.091 A 
ATOM     66  F   UNL A   1      43.644  25.415  34.780  1.00  0.00    -0.205 F 
ATOM     67  C   UNL A   1      47.257  25.959  35.037  1.00  0.00     0.022 A 
BRANCH  65  68
ATOM     68  S   UNL A   1      45.873  23.975  36.333  1.00  0.00     0.127 S 
ATOM     69  O   UNL A   1      47.262  23.817  36.760  1.00  0.00    -0.237 OA
ATOM     70  O   UNL A   1      44.964  24.448  37.377  1.00  0.00    -0.237 OA
ATOM     71  O   UNL A   1      45.337  22.895  35.516  1.00  0.00    -0.744 OA
ENDBRANCH  65  68
ENDBRANCH  38  61
ENDBRANCH  12  13
ENDBRANCH   5   7
ENDBRANCH   2   3
ENDBRANCH   1   2
BRANCH   1  72
ATOM     72  C   UNL A   1      32.641  27.868  25.457  1.00  0.00     0.023 C 
BRANCH  72  73
ATOM     73  C   UNL A   1      31.275  27.311  25.873  1.00  0.00     0.116 C 
BRANCH  73  74
ATOM     74  N   UNL A   1      31.399  26.131  26.707  1.00  0.00    -0.356 N 
ATOM     75  C   UNL A   1      31.672  24.831  26.457  1.00  0.00     0.225 C 
ATOM     76  H   UNL A   1      31.254  26.318  27.662  1.00  0.00     0.163 HD
ATOM     77  O   UNL A   1      31.722  24.092  27.449  1.00  0.00    -0.275 OA
BRANCH  75  78
ATOM     78  C   UNL A   1      31.871  24.195  25.089  1.00  0.00     0.107 C 
ATOM     79  C   UNL A   1      33.310  24.413  24.624  1.00  0.00     0.116 C 
ATOM     80  C   UNL A   1      31.626  22.727  24.854  1.00  0.00     0.139 C 
ATOM     81  C   UNL A   1      33.597  23.254  23.705  1.00  0.00     0.227 C 
ATOM     82  N   UNL A   1      32.571  22.323  23.843  1.00  0.00    -0.311 N 
ATOM     83  O   UNL A   1      34.592  23.178  22.998  1.00  0.00    -0.274 OA
BRANCH  82  84
ATOM     84  C   UNL A   1      32.628  20.965  23.448  1.00  0.00     0.047 A 
ATOM     85  C   UNL A   1      32.086  20.573  22.217  1.00  0.00     0.026 A 
ATOM     86  C   UNL A   1      33.096  19.981  24.331  1.00  0.00     0.073 A 
ATOM     87  C   UNL A   1      32.009  19.224  21.874  1.00  0.00     0.006 A 
ATOM     88  C   UNL A   1      32.952  18.626  24.023  1.00  0.00     0.131 A 
ATOM     89  C   UNL A   1      32.433  18.255  22.780  1.00  0.00     0.047 A 
BRANCH  88  90
ATOM     90  O   UNL A   1      33.265  17.580  24.845  1.00  0.00    -0.406 OA
BRANCH  90  91
ATOM     91  C   UNL A   1      34.456  16.864  24.554  1.00  0.00     0.573 C 
ATOM     92  F   UNL A   1      34.797  16.064  25.585  1.00  0.00    -0.132 F 
ATOM     93  F   UNL A   1      34.332  16.128  23.428  1.00  0.00    -0.132 F 
ATOM     94  F   UNL A   1      35.457  17.753  24.365  1.00  0.00    -0.132 F 
ENDBRANCH  90  91
ENDBRANCH  88  90
ENDBRANCH  82  84
ENDBRANCH  75  78
ENDBRANCH  73  74
ENDBRANCH  72  73
ENDBRANCH   1  72
TORSDOF 17
ENDMDL
