MODEL 1
REMARK VINA RESULT:     -11.3      0.000      0.000
REMARK SMILES O=C(CC1(C[S@](=O)C[C@H]2Cc3ccccc3S2)CC1)NCCCCNC(=O)c1ccc(-c2c3nc(c(-c4cccc(S(=O)(=O)[O-])c4F)c4ccc([nH]4)c(-c4cccc(S(=O)(=O)[O-])c4F)c4nc(c(-c5cccc(S(=O)(=O)[O-])c5F)c5ccc2[nH]5)C=C4)C=C3)cc1
REMARK SMILES IDX 21 1 20 2 1 3 2 4 3 6 4 7 18 8 19 9 5 10 6 11 7 12 8 13 9 14
REMARK SMILES IDX 10 15 17 16 11 17 16 18 12 19 15 20 13 21 14 22 22 23 23 24
REMARK SMILES IDX 24 25 25 26 26 27 27 29 28 30 29 31 90 32 30 33 89 34 31 35
REMARK SMILES IDX 32 36 33 37 83 38 34 39 88 40 82 41 84 42 35 43 87 44 81 45
REMARK SMILES IDX 80 46 36 48 68 49 48 50 67 51 49 52 52 53 66 54 85 55 50 56
REMARK SMILES IDX 51 57 65 59 86 60 53 61 37 62 38 63 46 64 39 65 41 66 47 67
REMARK SMILES IDX 40 68 42 69 43 70 44 71 45 72 69 73 70 74 78 75 71 76 73 77
REMARK SMILES IDX 79 78 72 79 74 80 75 81 76 82 77 83 54 84 55 85 63 86 56 87
REMARK SMILES IDX 58 88 64 89 57 90 59 91 60 92 61 93 62 94
REMARK H PARENT 20 5 25 28 84 47 52 58
REMARK Flexibility Score: inf
ROOT
ATOM      1  C   UNL A   1      33.022  29.737  26.644  1.00  0.00     0.116 C 
ENDROOT
BRANCH   1   2
ATOM      2  N   UNL A   1      32.961  28.291  26.640  1.00  0.00    -0.356 N 
ATOM      3  O   UNL A   1      33.389  27.962  24.400  1.00  0.00    -0.275 OA
ATOM      4  C   UNL A   1      33.123  27.519  25.514  1.00  0.00     0.220 C 
ATOM      5  H   UNL A   1      32.792  27.834  27.495  1.00  0.00     0.163 HD
BRANCH   4   6
ATOM      6  C   UNL A   1      32.983  26.032  25.791  1.00  0.00     0.108 C 
BRANCH   6   7
ATOM      7  C   UNL A   1      31.737  25.435  25.160  1.00  0.00    -0.009 C 
ATOM      8  C   UNL A   1      30.703  24.805  26.081  1.00  0.00     0.009 C 
ATOM      9  C   UNL A   1      30.408  26.121  25.429  1.00  0.00     0.009 C 
BRANCH   7  10
ATOM     10  C   UNL A   1      31.944  24.788  23.804  1.00  0.00     0.112 C 
BRANCH  10  11
ATOM     11  S   UNL A   1      33.683  24.395  23.510  1.00  0.00     0.023 S 
ATOM     12  O   UNL A   1      34.144  25.051  22.248  1.00  0.00    -0.260 OA
BRANCH  11  13
ATOM     13  C   UNL A   1      33.580  22.601  23.314  1.00  0.00     0.120 C 
BRANCH  13  14
ATOM     14  C   UNL A   1      33.278  21.670  24.497  1.00  0.00     0.068 C 
ATOM     15  C   UNL A   1      32.247  20.553  24.246  1.00  0.00     0.052 C 
ATOM     16  S   UNL A   1      34.727  20.879  25.278  1.00  0.00    -0.121 SA
ATOM     17  C   UNL A   1      32.997  19.260  24.118  1.00  0.00    -0.033 A 
ATOM     18  C   UNL A   1      34.300  19.294  24.618  1.00  0.00     0.011 A 
ATOM     19  C   UNL A   1      32.481  18.087  23.574  1.00  0.00     0.005 A 
ATOM     20  C   UNL A   1      35.120  18.180  24.551  1.00  0.00     0.015 A 
ATOM     21  C   UNL A   1      33.303  16.961  23.499  1.00  0.00     0.000 A 
ATOM     22  C   UNL A   1      34.617  17.009  23.978  1.00  0.00     0.001 A 
ENDBRANCH  13  14
ENDBRANCH  11  13
ENDBRANCH  10  11
ENDBRANCH   7  10
ENDBRANCH   6   7
ENDBRANCH   4   6
ENDBRANCH   1   2
BRANCH   1  23
ATOM     23  C   UNL A   1      31.700  30.360  26.194  1.00  0.00     0.023 C 
BRANCH  23  24
ATOM     24  C   UNL A   1      31.521  31.841  26.544  1.00  0.00     0.023 C 
BRANCH  24  25
ATOM     25  C   UNL A   1      32.701  32.490  27.259  1.00  0.00     0.116 C 
BRANCH  25  26
ATOM     26  N   UNL A   1      32.461  33.886  27.587  1.00  0.00    -0.352 N 
ATOM     27  C   UNL A   1      33.095  34.678  28.517  1.00  0.00     0.251 C 
ATOM     28  H   UNL A   1      31.747  34.325  27.071  1.00  0.00     0.163 HD
ATOM     29  O   UNL A   1      32.656  35.797  28.768  1.00  0.00    -0.269 OA
BRANCH  27  30
ATOM     30  C   UNL A   1      34.279  34.158  29.239  1.00  0.00     0.039 A 
ATOM     31  C   UNL A   1      35.568  34.531  28.853  1.00  0.00     0.014 A 
ATOM     32  C   UNL A   1      34.095  33.257  30.292  1.00  0.00     0.014 A 
ATOM     33  C   UNL A   1      36.667  33.877  29.402  1.00  0.00     0.010 A 
ATOM     34  C   UNL A   1      35.206  32.659  30.895  1.00  0.00     0.010 A 
ATOM     35  C   UNL A   1      36.499  32.921  30.418  1.00  0.00    -0.014 A 
BRANCH  35  36
ATOM     36  C   UNL A   1      37.687  32.204  30.955  1.00  0.00     0.031 A 
ATOM     37  C   UNL A   1      38.183  32.465  32.353  1.00  0.00     0.074 A 
ATOM     38  C   UNL A   1      38.303  31.281  30.192  1.00  0.00     0.049 A 
ATOM     39  N   UNL A   1      39.167  31.888  32.994  1.00  0.00    -0.248 NA
ATOM     40  C   UNL A   1      37.494  33.506  33.134  1.00  0.00     0.031 C 
ATOM     41  C   UNL A   1      37.937  30.952  28.813  1.00  0.00     0.029 A 
ATOM     42  N   UNL A   1      39.352  30.441  30.468  1.00  0.00    -0.354 N 
ATOM     43  C   UNL A   1      39.248  32.525  34.227  1.00  0.00     0.074 A 
ATOM     44  C   UNL A   1      38.211  33.533  34.249  1.00  0.00     0.031 C 
ATOM     45  C   UNL A   1      38.715  29.949  28.380  1.00  0.00     0.029 A 
ATOM     46  C   UNL A   1      39.664  29.594  29.432  1.00  0.00     0.049 A 
ATOM     47  H   UNL A   1      39.834  30.446  31.327  1.00  0.00     0.167 HD
ATOM     48  C   UNL A   1      40.096  32.281  35.254  1.00  0.00     0.034 A 
ATOM     49  C   UNL A   1      40.606  28.636  29.333  1.00  0.00     0.034 A 
ATOM     50  C   UNL A   1      41.082  31.236  35.264  1.00  0.00     0.049 A 
ATOM     51  C   UNL A   1      41.516  28.366  30.494  1.00  0.00     0.074 A 
ATOM     52  C   UNL A   1      41.923  30.862  36.299  1.00  0.00     0.029 A 
ATOM     53  N   UNL A   1      41.365  30.401  34.197  1.00  0.00    -0.354 N 
ATOM     54  N   UNL A   1      41.505  28.911  31.686  1.00  0.00    -0.248 NA
ATOM     55  C   UNL A   1      42.559  27.349  30.304  1.00  0.00     0.031 C 
ATOM     56  C   UNL A   1      42.723  29.807  35.851  1.00  0.00     0.029 A 
ATOM     57  C   UNL A   1      42.376  29.521  34.541  1.00  0.00     0.049 A 
ATOM     58  H   UNL A   1      40.915  30.431  33.321  1.00  0.00     0.167 HD
ATOM     59  C   UNL A   1      42.532  28.296  32.393  1.00  0.00     0.074 A 
ATOM     60  C   UNL A   1      43.133  27.325  31.502  1.00  0.00     0.031 C 
ATOM     61  C   UNL A   1      42.945  28.533  33.661  1.00  0.00     0.034 A 
BRANCH  48  62
ATOM     62  C   UNL A   1      39.968  33.129  36.489  1.00  0.00     0.023 A 
ATOM     63  C   UNL A   1      40.586  34.394  36.526  1.00  0.00     0.012 A 
ATOM     64  C   UNL A   1      39.167  32.713  37.570  1.00  0.00     0.148 A 
ATOM     65  C   UNL A   1      40.418  35.230  37.630  1.00  0.00     0.002 A 
ATOM     66  C   UNL A   1      38.982  33.564  38.654  1.00  0.00     0.091 A 
ATOM     67  F   UNL A   1      38.606  31.496  37.519  1.00  0.00    -0.205 F 
ATOM     68  C   UNL A   1      39.610  34.820  38.687  1.00  0.00     0.022 A 
BRANCH  66  69
ATOM     69  S   UNL A   1      37.917  33.152  40.041  1.00  0.00     0.127 S 
ATOM     70  O   UNL A   1      37.978  34.380  40.833  1.00  0.00    -0.237 OA
ATOM     71  O   UNL A   1      36.633  32.912  39.383  1.00  0.00    -0.237 OA
ATOM     72  O   UNL A   1      38.509  31.977  40.666  1.00  0.00    -0.744 OA
ENDBRANCH  66  69
ENDBRANCH  48  62
BRANCH  49  73
ATOM     73  C   UNL A   1      40.669  27.822  28.089  1.00  0.00     0.023 A 
ATOM     74  C   UNL A   1      41.352  28.337  26.972  1.00  0.00     0.012 A 
ATOM     75  C   UNL A   1      40.164  26.508  28.051  1.00  0.00     0.148 A 
ATOM     76  C   UNL A   1      41.537  27.552  25.834  1.00  0.00     0.002 A 
ATOM     77  C   UNL A   1      40.390  25.718  26.932  1.00  0.00     0.091 A 
ATOM     78  F   UNL A   1      39.523  26.046  29.133  1.00  0.00    -0.205 F 
ATOM     79  C   UNL A   1      41.068  26.240  25.818  1.00  0.00     0.022 A 
BRANCH  77  80
ATOM     80  S   UNL A   1      39.933  23.982  26.861  1.00  0.00     0.127 S 
ATOM     81  O   UNL A   1      38.555  24.055  26.380  1.00  0.00    -0.237 OA
ATOM     82  O   UNL A   1      40.898  23.464  25.892  1.00  0.00    -0.237 OA
ATOM     83  O   UNL A   1      40.092  23.473  28.216  1.00  0.00    -0.744 OA
ENDBRANCH  77  80
ENDBRANCH  49  73
BRANCH  61  84
ATOM     84  C   UNL A   1      44.112  27.743  34.184  1.00  0.00     0.023 A 
ATOM     85  C   UNL A   1      45.408  28.282  34.073  1.00  0.00     0.012 A 
ATOM     86  C   UNL A   1      43.913  26.543  34.892  1.00  0.00     0.148 A 
ATOM     87  C   UNL A   1      46.494  27.632  34.659  1.00  0.00     0.002 A 
ATOM     88  C   UNL A   1      44.996  25.918  35.500  1.00  0.00     0.091 A 
ATOM     89  F   UNL A   1      42.670  26.048  34.973  1.00  0.00    -0.205 F 
ATOM     90  C   UNL A   1      46.287  26.460  35.381  1.00  0.00     0.022 A 
BRANCH  88  91
ATOM     91  S   UNL A   1      44.821  24.446  36.515  1.00  0.00     0.127 S 
ATOM     92  O   UNL A   1      46.208  24.177  36.892  1.00  0.00    -0.237 OA
ATOM     93  O   UNL A   1      43.973  24.922  37.607  1.00  0.00    -0.237 OA
ATOM     94  O   UNL A   1      44.206  23.439  35.662  1.00  0.00    -0.744 OA
ENDBRANCH  88  91
ENDBRANCH  61  84
ENDBRANCH  35  36
ENDBRANCH  27  30
ENDBRANCH  25  26
ENDBRANCH  24  25
ENDBRANCH  23  24
ENDBRANCH   1  23
TORSDOF 19
ENDMDL
MODEL 2
REMARK VINA RESULT:     -11.1      2.025      8.438
REMARK SMILES O=C(CC1(C[S@](=O)C[C@H]2Cc3ccccc3S2)CC1)NCCCCNC(=O)c1ccc(-c2c3nc(c(-c4cccc(S(=O)(=O)[O-])c4F)c4ccc([nH]4)c(-c4cccc(S(=O)(=O)[O-])c4F)c4nc(c(-c5cccc(S(=O)(=O)[O-])c5F)c5ccc2[nH]5)C=C4)C=C3)cc1
REMARK SMILES IDX 21 1 20 2 1 3 2 4 3 6 4 7 18 8 19 9 5 10 6 11 7 12 8 13 9 14
REMARK SMILES IDX 10 15 17 16 11 17 16 18 12 19 15 20 13 21 14 22 22 23 23 24
REMARK SMILES IDX 24 25 25 26 26 27 27 29 28 30 29 31 90 32 30 33 89 34 31 35
REMARK SMILES IDX 32 36 33 37 83 38 34 39 88 40 82 41 84 42 35 43 87 44 81 45
REMARK SMILES IDX 80 46 36 48 68 49 48 50 67 51 49 52 52 53 66 54 85 55 50 56
REMARK SMILES IDX 51 57 65 59 86 60 53 61 37 62 38 63 46 64 39 65 41 66 47 67
REMARK SMILES IDX 40 68 42 69 43 70 44 71 45 72 69 73 70 74 78 75 71 76 73 77
REMARK SMILES IDX 79 78 72 79 74 80 75 81 76 82 77 83 54 84 55 85 63 86 56 87
REMARK SMILES IDX 58 88 64 89 57 90 59 91 60 92 61 93 62 94
REMARK H PARENT 20 5 25 28 84 47 52 58
REMARK Flexibility Score: inf
ROOT
ATOM      1  C   UNL A   1      33.130  27.983  26.318  1.00  0.00     0.116 C 
ENDROOT
BRANCH   1   2
ATOM      2  N   UNL A   1      33.957  26.893  25.845  1.00  0.00    -0.356 N 
ATOM      3  O   UNL A   1      32.478  25.174  26.249  1.00  0.00    -0.275 OA
ATOM      4  C   UNL A   1      33.575  25.572  25.872  1.00  0.00     0.220 C 
ATOM      5  H   UNL A   1      34.846  27.111  25.484  1.00  0.00     0.163 HD
BRANCH   4   6
ATOM      6  C   UNL A   1      34.647  24.636  25.340  1.00  0.00     0.108 C 
BRANCH   6   7
ATOM      7  C   UNL A   1      34.333  24.121  23.946  1.00  0.00    -0.009 C 
ATOM      8  C   UNL A   1      35.085  22.893  23.453  1.00  0.00     0.009 C 
ATOM      9  C   UNL A   1      33.639  22.774  23.828  1.00  0.00     0.009 C 
BRANCH   7  10
ATOM     10  C   UNL A   1      33.999  25.187  22.921  1.00  0.00     0.112 C 
BRANCH  10  11
ATOM     11  S   UNL A   1      32.693  24.645  21.796  1.00  0.00     0.023 S 
ATOM     12  O   UNL A   1      33.289  24.232  20.489  1.00  0.00    -0.260 OA
BRANCH  11  13
ATOM     13  C   UNL A   1      31.753  26.180  21.629  1.00  0.00     0.120 C 
BRANCH  13  14
ATOM     14  C   UNL A   1      31.473  27.097  22.828  1.00  0.00     0.068 C 
ATOM     15  C   UNL A   1      31.481  28.612  22.551  1.00  0.00     0.052 C 
ATOM     16  S   UNL A   1      29.944  26.743  23.761  1.00  0.00    -0.121 SA
ATOM     17  C   UNL A   1      30.057  29.083  22.547  1.00  0.00    -0.033 A 
ATOM     18  C   UNL A   1      29.155  28.203  23.148  1.00  0.00     0.011 A 
ATOM     19  C   UNL A   1      29.617  30.294  22.023  1.00  0.00     0.005 A 
ATOM     20  C   UNL A   1      27.801  28.494  23.202  1.00  0.00     0.015 A 
ATOM     21  C   UNL A   1      28.254  30.594  22.069  1.00  0.00     0.000 A 
ATOM     22  C   UNL A   1      27.350  29.695  22.650  1.00  0.00     0.001 A 
ENDBRANCH  13  14
ENDBRANCH  11  13
ENDBRANCH  10  11
ENDBRANCH   7  10
ENDBRANCH   6   7
ENDBRANCH   4   6
ENDBRANCH   1   2
BRANCH   1  23
ATOM     23  C   UNL A   1      33.535  29.315  25.686  1.00  0.00     0.023 C 
BRANCH  23  24
ATOM     24  C   UNL A   1      32.468  30.414  25.737  1.00  0.00     0.023 C 
BRANCH  24  25
ATOM     25  C   UNL A   1      32.205  31.005  27.117  1.00  0.00     0.116 C 
BRANCH  25  26
ATOM     26  N   UNL A   1      32.403  32.444  27.160  1.00  0.00    -0.352 N 
ATOM     27  C   UNL A   1      33.460  33.157  27.679  1.00  0.00     0.251 C 
ATOM     28  H   UNL A   1      31.681  32.983  26.762  1.00  0.00     0.163 HD
ATOM     29  O   UNL A   1      33.388  34.380  27.766  1.00  0.00    -0.269 OA
BRANCH  27  30
ATOM     30  C   UNL A   1      34.660  32.440  28.166  1.00  0.00     0.039 A 
ATOM     31  C   UNL A   1      34.557  31.140  28.667  1.00  0.00     0.014 A 
ATOM     32  C   UNL A   1      35.896  33.092  28.154  1.00  0.00     0.014 A 
ATOM     33  C   UNL A   1      35.648  30.562  29.310  1.00  0.00     0.010 A 
ATOM     34  C   UNL A   1      37.011  32.474  28.732  1.00  0.00     0.010 A 
ATOM     35  C   UNL A   1      36.884  31.229  29.365  1.00  0.00    -0.014 A 
BRANCH  35  36
ATOM     36  C   UNL A   1      38.021  30.608  30.096  1.00  0.00     0.031 A 
ATOM     37  C   UNL A   1      38.956  29.650  29.406  1.00  0.00     0.074 A 
ATOM     38  C   UNL A   1      38.238  30.939  31.383  1.00  0.00     0.049 A 
ATOM     39  N   UNL A   1      40.026  29.064  29.881  1.00  0.00    -0.248 NA
ATOM     40  C   UNL A   1      38.656  29.297  28.009  1.00  0.00     0.031 C 
ATOM     41  C   UNL A   1      37.392  31.836  32.174  1.00  0.00     0.029 A 
ATOM     42  N   UNL A   1      39.239  30.576  32.248  1.00  0.00    -0.354 N 
ATOM     43  C   UNL A   1      40.496  28.241  28.865  1.00  0.00     0.074 A 
ATOM     44  C   UNL A   1      39.598  28.402  27.743  1.00  0.00     0.031 C 
ATOM     45  C   UNL A   1      37.935  31.991  33.390  1.00  0.00     0.029 A 
ATOM     46  C   UNL A   1      39.140  31.171  33.483  1.00  0.00     0.049 A 
ATOM     47  H   UNL A   1      39.958  29.948  32.007  1.00  0.00     0.167 HD
ATOM     48  C   UNL A   1      41.586  27.438  28.859  1.00  0.00     0.034 A 
ATOM     49  C   UNL A   1      39.928  31.075  34.572  1.00  0.00     0.034 A 
ATOM     50  C   UNL A   1      42.520  27.326  29.945  1.00  0.00     0.049 A 
ATOM     51  C   UNL A   1      41.145  30.200  34.531  1.00  0.00     0.074 A 
ATOM     52  C   UNL A   1      43.700  26.603  29.989  1.00  0.00     0.029 A 
ATOM     53  N   UNL A   1      42.384  27.946  31.176  1.00  0.00    -0.354 N 
ATOM     54  N   UNL A   1      41.627  29.512  33.525  1.00  0.00    -0.248 NA
ATOM     55  C   UNL A   1      41.932  30.092  35.768  1.00  0.00     0.031 C 
ATOM     56  C   UNL A   1      44.272  26.779  31.253  1.00  0.00     0.029 A 
ATOM     57  C   UNL A   1      43.451  27.614  31.992  1.00  0.00     0.049 A 
ATOM     58  H   UNL A   1      41.637  28.535  31.433  1.00  0.00     0.167 HD
ATOM     59  C   UNL A   1      42.778  28.898  34.002  1.00  0.00     0.074 A 
ATOM     60  C   UNL A   1      42.933  29.308  35.382  1.00  0.00     0.031 C 
ATOM     61  C   UNL A   1      43.618  28.055  33.353  1.00  0.00     0.034 A 
BRANCH  48  62
ATOM     62  C   UNL A   1      41.869  26.643  27.614  1.00  0.00     0.023 A 
ATOM     63  C   UNL A   1      42.428  27.287  26.494  1.00  0.00     0.012 A 
ATOM     64  C   UNL A   1      41.665  25.249  27.588  1.00  0.00     0.148 A 
ATOM     65  C   UNL A   1      42.770  26.556  25.356  1.00  0.00     0.002 A 
ATOM     66  C   UNL A   1      42.035  24.524  26.461  1.00  0.00     0.091 A 
ATOM     67  F   UNL A   1      41.114  24.662  28.660  1.00  0.00    -0.205 F 
ATOM     68  C   UNL A   1      42.583  25.176  25.344  1.00  0.00     0.022 A 
BRANCH  66  69
ATOM     69  S   UNL A   1      41.886  22.736  26.365  1.00  0.00     0.127 S 
ATOM     70  O   UNL A   1      42.374  22.473  25.011  1.00  0.00    -0.237 OA
ATOM     71  O   UNL A   1      42.782  22.294  27.433  1.00  0.00    -0.237 OA
ATOM     72  O   UNL A   1      40.479  22.439  26.589  1.00  0.00    -0.744 OA
ENDBRANCH  66  69
ENDBRANCH  48  62
BRANCH  49  73
ATOM     73  C   UNL A   1      39.602  31.900  35.765  1.00  0.00     0.023 A 
ATOM     74  C   UNL A   1      40.130  33.201  35.860  1.00  0.00     0.012 A 
ATOM     75  C   UNL A   1      38.686  31.450  36.735  1.00  0.00     0.148 A 
ATOM     76  C   UNL A   1      39.746  34.045  36.902  1.00  0.00     0.002 A 
ATOM     77  C   UNL A   1      38.275  32.311  37.744  1.00  0.00     0.091 A 
ATOM     78  F   UNL A   1      38.198  30.208  36.614  1.00  0.00    -0.205 F 
ATOM     79  C   UNL A   1      38.810  33.606  37.835  1.00  0.00     0.022 A 
BRANCH  77  80
ATOM     80  S   UNL A   1      36.988  31.881  38.921  1.00  0.00     0.127 S 
ATOM     81  O   UNL A   1      37.602  32.265  40.190  1.00  0.00    -0.237 OA
ATOM     82  O   UNL A   1      35.889  32.742  38.482  1.00  0.00    -0.237 OA
ATOM     83  O   UNL A   1      36.753  30.454  38.752  1.00  0.00    -0.744 OA
ENDBRANCH  77  80
ENDBRANCH  49  73
BRANCH  61  84
ATOM     84  C   UNL A   1      44.788  27.498  34.114  1.00  0.00     0.023 A 
ATOM     85  C   UNL A   1      45.964  28.266  34.219  1.00  0.00     0.012 A 
ATOM     86  C   UNL A   1      44.679  26.287  34.824  1.00  0.00     0.148 A 
ATOM     87  C   UNL A   1      47.019  27.832  35.021  1.00  0.00     0.002 A 
ATOM     88  C   UNL A   1      45.723  25.877  35.646  1.00  0.00     0.091 A 
ATOM     89  F   UNL A   1      43.552  25.572  34.697  1.00  0.00    -0.205 F 
ATOM     90  C   UNL A   1      46.894  26.647  35.742  1.00  0.00     0.022 A 
BRANCH  88  91
ATOM     91  S   UNL A   1      45.628  24.406  36.673  1.00  0.00     0.127 S 
ATOM     92  O   UNL A   1      45.490  23.351  35.670  1.00  0.00    -0.237 OA
ATOM     93  O   UNL A   1      46.917  24.428  37.364  1.00  0.00    -0.237 OA
ATOM     94  O   UNL A   1      44.471  24.593  37.538  1.00  0.00    -0.744 OA
ENDBRANCH  88  91
ENDBRANCH  61  84
ENDBRANCH  35  36
ENDBRANCH  27  30
ENDBRANCH  25  26
ENDBRANCH  24  25
ENDBRANCH  23  24
ENDBRANCH   1  23
TORSDOF 19
ENDMDL
MODEL 3
REMARK VINA RESULT:     -10.9      1.803      2.237
REMARK SMILES O=C(CC1(C[S@](=O)C[C@H]2Cc3ccccc3S2)CC1)NCCCCNC(=O)c1ccc(-c2c3nc(c(-c4cccc(S(=O)(=O)[O-])c4F)c4ccc([nH]4)c(-c4cccc(S(=O)(=O)[O-])c4F)c4nc(c(-c5cccc(S(=O)(=O)[O-])c5F)c5ccc2[nH]5)C=C4)C=C3)cc1
REMARK SMILES IDX 21 1 20 2 1 3 2 4 3 6 4 7 18 8 19 9 5 10 6 11 7 12 8 13 9 14
REMARK SMILES IDX 10 15 17 16 11 17 16 18 12 19 15 20 13 21 14 22 22 23 23 24
REMARK SMILES IDX 24 25 25 26 26 27 27 29 28 30 29 31 90 32 30 33 89 34 31 35
REMARK SMILES IDX 32 36 33 37 83 38 34 39 88 40 82 41 84 42 35 43 87 44 81 45
REMARK SMILES IDX 80 46 36 48 68 49 48 50 67 51 49 52 52 53 66 54 85 55 50 56
REMARK SMILES IDX 51 57 65 59 86 60 53 61 37 62 38 63 46 64 39 65 41 66 47 67
REMARK SMILES IDX 40 68 42 69 43 70 44 71 45 72 69 73 70 74 78 75 71 76 73 77
REMARK SMILES IDX 79 78 72 79 74 80 75 81 76 82 77 83 54 84 55 85 63 86 56 87
REMARK SMILES IDX 58 88 64 89 57 90 59 91 60 92 61 93 62 94
REMARK H PARENT 20 5 25 28 84 47 52 58
REMARK Flexibility Score: inf
ROOT
ATOM      1  C   UNL A   1      32.960  29.943  26.526  1.00  0.00     0.116 C 
ENDROOT
BRANCH   1   2
ATOM      2  N   UNL A   1      32.970  28.547  26.147  1.00  0.00    -0.356 N 
ATOM      3  O   UNL A   1      31.603  27.752  27.822  1.00  0.00    -0.275 OA
ATOM      4  C   UNL A   1      32.312  27.558  26.840  1.00  0.00     0.220 C 
ATOM      5  H   UNL A   1      33.480  28.290  25.345  1.00  0.00     0.163 HD
BRANCH   4   6
ATOM      6  C   UNL A   1      32.515  26.178  26.237  1.00  0.00     0.108 C 
BRANCH   6   7
ATOM      7  C   UNL A   1      31.347  25.742  25.371  1.00  0.00    -0.009 C 
ATOM      8  C   UNL A   1      30.646  24.438  25.721  1.00  0.00     0.009 C 
ATOM      9  C   UNL A   1      29.962  25.743  25.995  1.00  0.00     0.009 C 
BRANCH   7  10
ATOM     10  C   UNL A   1      31.466  26.090  23.899  1.00  0.00     0.112 C 
BRANCH  10  11
ATOM     11  S   UNL A   1      33.190  26.134  23.361  1.00  0.00     0.023 S 
ATOM     12  O   UNL A   1      33.448  27.386  22.587  1.00  0.00    -0.260 OA
BRANCH  11  13
ATOM     13  C   UNL A   1      33.231  24.681  22.286  1.00  0.00     0.120 C 
BRANCH  13  14
ATOM     14  C   UNL A   1      33.933  23.381  22.702  1.00  0.00     0.068 C 
ATOM     15  C   UNL A   1      35.060  23.512  23.744  1.00  0.00     0.052 C 
ATOM     16  S   UNL A   1      32.840  22.036  23.279  1.00  0.00    -0.121 SA
ATOM     17  C   UNL A   1      34.530  23.011  25.055  1.00  0.00    -0.033 A 
ATOM     18  C   UNL A   1      33.378  22.229  24.954  1.00  0.00     0.011 A 
ATOM     19  C   UNL A   1      35.109  23.256  26.297  1.00  0.00     0.005 A 
ATOM     20  C   UNL A   1      32.764  21.713  26.083  1.00  0.00     0.015 A 
ATOM     21  C   UNL A   1      34.494  22.744  27.441  1.00  0.00     0.000 A 
ATOM     22  C   UNL A   1      33.323  21.982  27.334  1.00  0.00     0.001 A 
ENDBRANCH  13  14
ENDBRANCH  11  13
ENDBRANCH  10  11
ENDBRANCH   7  10
ENDBRANCH   6   7
ENDBRANCH   4   6
ENDBRANCH   1   2
BRANCH   1  23
ATOM     23  C   UNL A   1      31.698  30.653  26.034  1.00  0.00     0.023 C 
BRANCH  23  24
ATOM     24  C   UNL A   1      31.423  32.018  26.674  1.00  0.00     0.023 C 
BRANCH  24  25
ATOM     25  C   UNL A   1      32.630  32.692  27.318  1.00  0.00     0.116 C 
BRANCH  25  26
ATOM     26  N   UNL A   1      32.390  34.092  27.632  1.00  0.00    -0.352 N 
ATOM     27  C   UNL A   1      33.028  34.893  28.552  1.00  0.00     0.251 C 
ATOM     28  H   UNL A   1      31.674  34.525  27.115  1.00  0.00     0.163 HD
ATOM     29  O   UNL A   1      32.589  36.015  28.793  1.00  0.00    -0.269 OA
BRANCH  27  30
ATOM     30  C   UNL A   1      34.213  34.380  29.275  1.00  0.00     0.039 A 
ATOM     31  C   UNL A   1      35.502  34.662  28.817  1.00  0.00     0.014 A 
ATOM     32  C   UNL A   1      34.030  33.579  30.406  1.00  0.00     0.014 A 
ATOM     33  C   UNL A   1      36.592  34.005  29.381  1.00  0.00     0.010 A 
ATOM     34  C   UNL A   1      35.137  32.983  31.019  1.00  0.00     0.010 A 
ATOM     35  C   UNL A   1      36.421  33.145  30.479  1.00  0.00    -0.014 A 
BRANCH  35  36
ATOM     36  C   UNL A   1      37.596  32.422  31.035  1.00  0.00     0.031 A 
ATOM     37  C   UNL A   1      38.060  32.664  32.446  1.00  0.00     0.074 A 
ATOM     38  C   UNL A   1      38.230  31.508  30.274  1.00  0.00     0.049 A 
ATOM     39  N   UNL A   1      39.029  32.079  33.103  1.00  0.00    -0.248 NA
ATOM     40  C   UNL A   1      37.353  33.696  33.224  1.00  0.00     0.031 C 
ATOM     41  C   UNL A   1      37.896  31.197  28.883  1.00  0.00     0.029 A 
ATOM     42  N   UNL A   1      39.273  30.665  30.564  1.00  0.00    -0.354 N 
ATOM     43  C   UNL A   1      39.082  32.701  34.345  1.00  0.00     0.074 A 
ATOM     44  C   UNL A   1      38.045  33.709  34.356  1.00  0.00     0.031 C 
ATOM     45  C   UNL A   1      38.685  30.199  28.456  1.00  0.00     0.029 A 
ATOM     46  C   UNL A   1      39.609  29.831  29.524  1.00  0.00     0.049 A 
ATOM     47  H   UNL A   1      39.735  30.658  31.433  1.00  0.00     0.167 HD
ATOM     48  C   UNL A   1      39.906  32.444  35.388  1.00  0.00     0.034 A 
ATOM     49  C   UNL A   1      40.553  28.874  29.435  1.00  0.00     0.034 A 
ATOM     50  C   UNL A   1      40.892  31.399  35.408  1.00  0.00     0.049 A 
ATOM     51  C   UNL A   1      41.436  28.590  30.613  1.00  0.00     0.074 A 
ATOM     52  C   UNL A   1      41.709  31.012  36.457  1.00  0.00     0.029 A 
ATOM     53  N   UNL A   1      41.200  30.578  34.337  1.00  0.00    -0.354 N 
ATOM     54  N   UNL A   1      41.398  29.119  31.812  1.00  0.00    -0.248 NA
ATOM     55  C   UNL A   1      42.484  27.575  30.434  1.00  0.00     0.031 C 
ATOM     56  C   UNL A   1      42.519  29.962  36.014  1.00  0.00     0.029 A 
ATOM     57  C   UNL A   1      42.202  29.694  34.693  1.00  0.00     0.049 A 
ATOM     58  H   UNL A   1      40.769  30.618  33.451  1.00  0.00     0.167 HD
ATOM     59  C   UNL A   1      42.408  28.495  32.534  1.00  0.00     0.074 A 
ATOM     60  C   UNL A   1      43.030  27.536  31.645  1.00  0.00     0.031 C 
ATOM     61  C   UNL A   1      42.792  28.716  33.814  1.00  0.00     0.034 A 
BRANCH  48  62
ATOM     62  C   UNL A   1      39.750  33.277  36.631  1.00  0.00     0.023 A 
ATOM     63  C   UNL A   1      38.805  32.897  37.603  1.00  0.00     0.012 A 
ATOM     64  C   UNL A   1      40.597  34.375  36.874  1.00  0.00     0.148 A 
ATOM     65  C   UNL A   1      38.695  33.608  38.798  1.00  0.00     0.002 A 
ATOM     66  C   UNL A   1      40.501  35.061  38.079  1.00  0.00     0.091 A 
ATOM     67  F   UNL A   1      41.475  34.728  35.924  1.00  0.00    -0.205 F 
ATOM     68  C   UNL A   1      39.549  34.682  39.039  1.00  0.00     0.022 A 
BRANCH  66  69
ATOM     69  S   UNL A   1      41.590  36.424  38.509  1.00  0.00     0.127 S 
ATOM     70  O   UNL A   1      40.648  37.378  39.095  1.00  0.00    -0.237 OA
ATOM     71  O   UNL A   1      42.501  35.800  39.467  1.00  0.00    -0.237 OA
ATOM     72  O   UNL A   1      42.213  36.848  37.264  1.00  0.00    -0.744 OA
ENDBRANCH  66  69
ENDBRANCH  48  62
BRANCH  49  73
ATOM     73  C   UNL A   1      40.645  28.076  28.183  1.00  0.00     0.023 A 
ATOM     74  C   UNL A   1      41.370  28.596  27.095  1.00  0.00     0.012 A 
ATOM     75  C   UNL A   1      40.125  26.770  28.110  1.00  0.00     0.148 A 
ATOM     76  C   UNL A   1      41.581  27.823  25.953  1.00  0.00     0.002 A 
ATOM     77  C   UNL A   1      40.376  25.991  26.988  1.00  0.00     0.091 A 
ATOM     78  F   UNL A   1      39.443  26.302  29.166  1.00  0.00    -0.205 F 
ATOM     79  C   UNL A   1      41.096  26.518  25.904  1.00  0.00     0.022 A 
BRANCH  77  80
ATOM     80  S   UNL A   1      39.897  24.263  26.880  1.00  0.00     0.127 S 
ATOM     81  O   UNL A   1      38.668  24.340  26.094  1.00  0.00    -0.237 OA
ATOM     82  O   UNL A   1      41.044  23.685  26.177  1.00  0.00    -0.237 OA
ATOM     83  O   UNL A   1      39.729  23.809  28.253  1.00  0.00    -0.744 OA
ENDBRANCH  77  80
ENDBRANCH  49  73
BRANCH  61  84
ATOM     84  C   UNL A   1      43.947  27.920  34.354  1.00  0.00     0.023 A 
ATOM     85  C   UNL A   1      45.240  28.475  34.311  1.00  0.00     0.012 A 
ATOM     86  C   UNL A   1      43.734  26.694  35.013  1.00  0.00     0.148 A 
ATOM     87  C   UNL A   1      46.310  27.815  34.916  1.00  0.00     0.002 A 
ATOM     88  C   UNL A   1      44.800  26.058  35.640  1.00  0.00     0.091 A 
ATOM     89  F   UNL A   1      42.494  26.184  35.029  1.00  0.00    -0.205 F 
ATOM     90  C   UNL A   1      46.088  26.616  35.589  1.00  0.00     0.022 A 
BRANCH  88  91
ATOM     91  S   UNL A   1      44.603  24.550  36.596  1.00  0.00     0.127 S 
ATOM     92  O   UNL A   1      43.711  24.991  37.667  1.00  0.00    -0.237 OA
ATOM     93  O   UNL A   1      43.989  23.645  35.624  1.00  0.00    -0.237 OA
ATOM     94  O   UNL A   1      45.942  24.166  37.023  1.00  0.00    -0.744 OA
ENDBRANCH  88  91
ENDBRANCH  61  84
ENDBRANCH  35  36
ENDBRANCH  27  30
ENDBRANCH  25  26
ENDBRANCH  24  25
ENDBRANCH  23  24
ENDBRANCH   1  23
TORSDOF 19
ENDMDL
