MODEL 1
REMARK VINA RESULT:     -11.9      0.000      0.000
REMARK SMILES Cc1ccc(C(=O)N[C@@H]2C=C[C@H](C(=O)NCCCCNC(=O)c3ccc(-c4c5nc(c(-c6cccc(S(=O)(=O)[O-])c6F)c6ccc([nH]6)c(-c6cccc(S(=O)(=O)[O-])c6F)c6nc(c(-c7cccc(S(=O)(=O)[O-])c7F)c7ccc4[nH]7)C=C6)C=C5)cc3)C2)c(F)c1
REMARK SMILES IDX 18 1 17 2 16 3 15 4 13 5 14 6 12 8 9 9 10 10 86 11 11 12
REMARK SMILES IDX 8 13 6 14 7 15 5 17 1 18 2 19 3 20 89 21 4 22 87 23 88 24
REMARK SMILES IDX 19 25 20 26 21 27 22 29 23 30 24 31 85 32 25 33 84 34 26 35
REMARK SMILES IDX 27 36 28 37 78 38 29 39 83 40 77 41 79 42 30 43 82 44 76 45
REMARK SMILES IDX 75 46 31 48 63 49 43 50 62 51 44 52 47 53 61 54 80 55 45 56
REMARK SMILES IDX 46 57 60 59 81 60 48 61 32 62 33 63 41 64 34 65 36 66 42 67
REMARK SMILES IDX 35 68 37 69 38 70 39 71 40 72 64 73 65 74 73 75 66 76 68 77
REMARK SMILES IDX 74 78 67 79 69 80 70 81 71 82 72 83 49 84 50 85 58 86 51 87
REMARK SMILES IDX 53 88 59 89 52 90 54 91 55 92 56 93 57 94
REMARK H PARENT 15 7 8 16 20 28 79 47 47 58
REMARK Flexibility Score: inf
ROOT
ATOM      1  C   UNL A   1      38.160  19.604  25.009  1.00  0.00     0.023 C 
ENDROOT
BRANCH   1   2
ATOM      2  C   UNL A   1      37.103  20.654  24.660  1.00  0.00     0.023 C 
BRANCH   2   3
ATOM      3  C   UNL A   1      37.362  22.064  25.183  1.00  0.00     0.116 C 
BRANCH   3   4
ATOM      4  N   UNL A   1      36.375  22.510  26.150  1.00  0.00    -0.356 N 
ATOM      5  C   UNL A   1      35.176  23.136  25.926  1.00  0.00     0.227 C 
ATOM      6  O   UNL A   1      34.404  23.283  26.872  1.00  0.00    -0.274 OA
ATOM      7  H   UNL A   1      36.596  22.341  27.093  1.00  0.00     0.163 HD
BRANCH   5   8
ATOM      8  C   UNL A   1      34.890  23.679  24.524  1.00  0.00     0.103 C 
ATOM      9  C   UNL A   1      32.723  24.850  24.243  1.00  0.00     0.106 C 
ATOM     10  C   UNL A   1      32.752  23.520  23.554  1.00  0.00    -0.006 C 
ATOM     11  C   UNL A   1      34.193  25.036  24.653  1.00  0.00     0.047 C 
ATOM     12  C   UNL A   1      33.913  22.878  23.726  1.00  0.00    -0.016 C 
BRANCH   9  13
ATOM     13  N   UNL A   1      31.703  24.778  25.275  1.00  0.00    -0.346 N 
ATOM     14  C   UNL A   1      30.954  25.737  25.915  1.00  0.00     0.254 C 
ATOM     15  O   UNL A   1      29.909  25.415  26.473  1.00  0.00    -0.269 OA
ATOM     16  H   UNL A   1      31.510  23.861  25.576  1.00  0.00     0.164 HD
BRANCH  14  17
ATOM     17  C   UNL A   1      31.438  27.122  26.016  1.00  0.00     0.075 A 
ATOM     18  C   UNL A   1      31.806  31.369  26.500  1.00  0.00     0.044 C 
ATOM     19  C   UNL A   1      31.780  29.882  26.299  1.00  0.00    -0.048 A 
ATOM     20  C   UNL A   1      32.175  29.011  27.326  1.00  0.00     0.004 A 
ATOM     21  C   UNL A   1      31.353  29.349  25.078  1.00  0.00     0.043 A 
ATOM     22  C   UNL A   1      32.027  27.628  27.178  1.00  0.00     0.017 A 
ATOM     23  C   UNL A   1      31.175  27.976  24.946  1.00  0.00     0.136 A 
ATOM     24  F   UNL A   1      30.679  27.511  23.790  1.00  0.00    -0.206 F 
ENDBRANCH  14  17
ENDBRANCH   9  13
ENDBRANCH   5   8
ENDBRANCH   3   4
ENDBRANCH   2   3
ENDBRANCH   1   2
BRANCH   1  25
ATOM     25  C   UNL A   1      39.170  20.009  26.077  1.00  0.00     0.116 C 
BRANCH  25  26
ATOM     26  N   UNL A   1      40.342  19.149  26.104  1.00  0.00    -0.352 N 
ATOM     27  C   UNL A   1      41.672  19.479  26.214  1.00  0.00     0.251 C 
ATOM     28  H   UNL A   1      40.155  18.185  26.033  1.00  0.00     0.163 HD
ATOM     29  O   UNL A   1      42.520  18.602  26.081  1.00  0.00    -0.269 OA
BRANCH  27  30
ATOM     30  C   UNL A   1      42.089  20.880  26.467  1.00  0.00     0.039 A 
ATOM     31  C   UNL A   1      42.165  21.760  25.383  1.00  0.00     0.014 A 
ATOM     32  C   UNL A   1      42.429  21.326  27.746  1.00  0.00     0.014 A 
ATOM     33  C   UNL A   1      42.547  23.089  25.588  1.00  0.00     0.010 A 
ATOM     34  C   UNL A   1      42.723  22.673  27.962  1.00  0.00     0.010 A 
ATOM     35  C   UNL A   1      42.810  23.564  26.884  1.00  0.00    -0.014 A 
BRANCH  35  36
ATOM     36  C   UNL A   1      43.188  24.984  27.110  1.00  0.00     0.031 A 
ATOM     37  C   UNL A   1      42.221  25.944  27.753  1.00  0.00     0.074 A 
ATOM     38  C   UNL A   1      44.387  25.431  26.686  1.00  0.00     0.049 A 
ATOM     39  N   UNL A   1      42.391  27.206  28.056  1.00  0.00    -0.248 NA
ATOM     40  C   UNL A   1      40.880  25.430  28.072  1.00  0.00     0.031 C 
ATOM     41  C   UNL A   1      45.374  24.633  25.954  1.00  0.00     0.029 A 
ATOM     42  N   UNL A   1      44.970  26.669  26.788  1.00  0.00    -0.354 N 
ATOM     43  C   UNL A   1      41.172  27.645  28.559  1.00  0.00     0.074 A 
ATOM     44  C   UNL A   1      40.261  26.525  28.487  1.00  0.00     0.031 C 
ATOM     45  C   UNL A   1      46.442  25.399  25.683  1.00  0.00     0.029 A 
ATOM     46  C   UNL A   1      46.209  26.746  26.197  1.00  0.00     0.049 A 
ATOM     47  H   UNL A   1      44.541  27.431  27.240  1.00  0.00     0.167 HD
ATOM     48  C   UNL A   1      40.846  28.861  29.063  1.00  0.00     0.034 A 
ATOM     49  C   UNL A   1      47.063  27.782  26.079  1.00  0.00     0.034 A 
ATOM     50  C   UNL A   1      41.765  29.962  29.167  1.00  0.00     0.049 A 
ATOM     51  C   UNL A   1      46.711  29.098  26.714  1.00  0.00     0.074 A 
ATOM     52  C   UNL A   1      41.567  31.195  29.762  1.00  0.00     0.029 A 
ATOM     53  N   UNL A   1      43.050  29.972  28.646  1.00  0.00    -0.354 N 
ATOM     54  N   UNL A   1      45.621  29.438  27.356  1.00  0.00    -0.248 NA
ATOM     55  C   UNL A   1      47.728  30.157  26.652  1.00  0.00     0.031 C 
ATOM     56  C   UNL A   1      42.719  31.966  29.566  1.00  0.00     0.029 A 
ATOM     57  C   UNL A   1      43.651  31.195  28.890  1.00  0.00     0.049 A 
ATOM     58  H   UNL A   1      43.473  29.220  28.172  1.00  0.00     0.167 HD
ATOM     59  C   UNL A   1      45.830  30.738  27.803  1.00  0.00     0.074 A 
ATOM     60  C   UNL A   1      47.164  31.113  27.378  1.00  0.00     0.031 C 
ATOM     61  C   UNL A   1      44.992  31.550  28.495  1.00  0.00     0.034 A 
BRANCH  48  62
ATOM     62  C   UNL A   1      39.437  29.050  29.568  1.00  0.00     0.023 A 
ATOM     63  C   UNL A   1      39.098  28.649  30.878  1.00  0.00     0.012 A 
ATOM     64  C   UNL A   1      38.456  29.658  28.760  1.00  0.00     0.148 A 
ATOM     65  C   UNL A   1      37.797  28.802  31.355  1.00  0.00     0.002 A 
ATOM     66  C   UNL A   1      37.175  29.854  29.261  1.00  0.00     0.091 A 
ATOM     67  F   UNL A   1      38.787  30.014  27.510  1.00  0.00    -0.205 F 
ATOM     68  C   UNL A   1      36.839  29.412  30.551  1.00  0.00     0.022 A 
BRANCH  66  69
ATOM     69  S   UNL A   1      35.896  30.710  28.335  1.00  0.00     0.127 S 
ATOM     70  O   UNL A   1      36.595  31.926  27.922  1.00  0.00    -0.237 OA
ATOM     71  O   UNL A   1      35.618  29.769  27.250  1.00  0.00    -0.237 OA
ATOM     72  O   UNL A   1      34.791  30.905  29.264  1.00  0.00    -0.744 OA
ENDBRANCH  66  69
ENDBRANCH  48  62
BRANCH  49  73
ATOM     73  C   UNL A   1      48.364  27.583  25.381  1.00  0.00     0.023 A 
ATOM     74  C   UNL A   1      49.501  27.193  26.116  1.00  0.00     0.012 A 
ATOM     75  C   UNL A   1      48.464  27.727  23.984  1.00  0.00     0.148 A 
ATOM     76  C   UNL A   1      50.720  26.976  25.473  1.00  0.00     0.002 A 
ATOM     77  C   UNL A   1      49.666  27.452  23.344  1.00  0.00     0.091 A 
ATOM     78  F   UNL A   1      47.370  28.106  23.308  1.00  0.00    -0.205 F 
ATOM     79  C   UNL A   1      50.800  27.094  24.088  1.00  0.00     0.022 A 
BRANCH  77  80
ATOM     80  S   UNL A   1      49.825  27.439  21.556  1.00  0.00     0.127 S 
ATOM     81  O   UNL A   1      49.761  28.863  21.239  1.00  0.00    -0.237 OA
ATOM     82  O   UNL A   1      51.141  26.825  21.378  1.00  0.00    -0.237 OA
ATOM     83  O   UNL A   1      48.714  26.633  21.065  1.00  0.00    -0.744 OA
ENDBRANCH  77  80
ENDBRANCH  49  73
BRANCH  61  84
ATOM     84  C   UNL A   1      45.502  32.917  28.876  1.00  0.00     0.023 A 
ATOM     85  C   UNL A   1      46.202  33.101  30.085  1.00  0.00     0.012 A 
ATOM     86  C   UNL A   1      45.327  34.012  28.007  1.00  0.00     0.148 A 
ATOM     87  C   UNL A   1      46.677  34.361  30.446  1.00  0.00     0.002 A 
ATOM     88  C   UNL A   1      45.851  35.253  28.348  1.00  0.00     0.091 A 
ATOM     89  F   UNL A   1      44.642  33.827  26.870  1.00  0.00    -0.205 F 
ATOM     90  C   UNL A   1      46.512  35.434  29.573  1.00  0.00     0.022 A 
BRANCH  88  91
ATOM     91  S   UNL A   1      45.772  36.663  27.236  1.00  0.00     0.127 S 
ATOM     92  O   UNL A   1      46.554  37.660  27.964  1.00  0.00    -0.237 OA
ATOM     93  O   UNL A   1      46.419  36.144  26.029  1.00  0.00    -0.237 OA
ATOM     94  O   UNL A   1      44.357  36.967  27.077  1.00  0.00    -0.744 OA
ENDBRANCH  88  91
ENDBRANCH  61  84
ENDBRANCH  35  36
ENDBRANCH  27  30
ENDBRANCH  25  26
ENDBRANCH   1  25
TORSDOF 16
ENDMDL
MODEL 2
REMARK VINA RESULT:     -11.8      6.380     11.806
REMARK SMILES Cc1ccc(C(=O)N[C@@H]2C=C[C@H](C(=O)NCCCCNC(=O)c3ccc(-c4c5nc(c(-c6cccc(S(=O)(=O)[O-])c6F)c6ccc([nH]6)c(-c6cccc(S(=O)(=O)[O-])c6F)c6nc(c(-c7cccc(S(=O)(=O)[O-])c7F)c7ccc4[nH]7)C=C6)C=C5)cc3)C2)c(F)c1
REMARK SMILES IDX 18 1 17 2 16 3 15 4 13 5 14 6 12 8 9 9 10 10 86 11 11 12
REMARK SMILES IDX 8 13 6 14 7 15 5 17 1 18 2 19 3 20 89 21 4 22 87 23 88 24
REMARK SMILES IDX 19 25 20 26 21 27 22 29 23 30 24 31 85 32 25 33 84 34 26 35
REMARK SMILES IDX 27 36 28 37 78 38 29 39 83 40 77 41 79 42 30 43 82 44 76 45
REMARK SMILES IDX 75 46 31 48 63 49 43 50 62 51 44 52 47 53 61 54 80 55 45 56
REMARK SMILES IDX 46 57 60 59 81 60 48 61 32 62 33 63 41 64 34 65 36 66 42 67
REMARK SMILES IDX 35 68 37 69 38 70 39 71 40 72 64 73 65 74 73 75 66 76 68 77
REMARK SMILES IDX 74 78 67 79 69 80 70 81 71 82 72 83 49 84 50 85 58 86 51 87
REMARK SMILES IDX 53 88 59 89 52 90 54 91 55 92 56 93 57 94
REMARK H PARENT 15 7 8 16 20 28 79 47 47 58
REMARK Flexibility Score: inf
ROOT
ATOM      1  C   UNL A   1      31.408  32.252  26.638  1.00  0.00     0.023 C 
ENDROOT
BRANCH   1   2
ATOM      2  C   UNL A   1      31.536  30.838  26.068  1.00  0.00     0.023 C 
BRANCH   2   3
ATOM      3  C   UNL A   1      32.834  30.101  26.391  1.00  0.00     0.116 C 
BRANCH   3   4
ATOM      4  N   UNL A   1      33.465  29.508  25.225  1.00  0.00    -0.356 N 
ATOM      5  C   UNL A   1      33.484  28.194  24.835  1.00  0.00     0.227 C 
ATOM      6  O   UNL A   1      33.934  27.918  23.724  1.00  0.00    -0.274 OA
ATOM      7  H   UNL A   1      33.944  30.133  24.636  1.00  0.00     0.163 HD
BRANCH   5   8
ATOM      8  C   UNL A   1      33.009  27.133  25.831  1.00  0.00     0.103 C 
ATOM      9  C   UNL A   1      33.361  24.777  25.144  1.00  0.00     0.106 C 
ATOM     10  C   UNL A   1      31.917  25.175  25.115  1.00  0.00    -0.006 C 
ATOM     11  C   UNL A   1      34.016  25.980  25.842  1.00  0.00     0.047 C 
ATOM     12  C   UNL A   1      31.730  26.454  25.462  1.00  0.00    -0.016 C 
BRANCH   9  13
ATOM     13  N   UNL A   1      33.746  24.452  23.781  1.00  0.00    -0.346 N 
ATOM     14  C   UNL A   1      33.620  23.313  23.023  1.00  0.00     0.254 C 
ATOM     15  O   UNL A   1      33.681  23.392  21.799  1.00  0.00    -0.269 OA
ATOM     16  H   UNL A   1      34.185  25.195  23.308  1.00  0.00     0.164 HD
BRANCH  14  17
ATOM     17  C   UNL A   1      33.507  21.994  23.664  1.00  0.00     0.075 A 
ATOM     18  C   UNL A   1      33.579  17.806  24.591  1.00  0.00     0.044 C 
ATOM     19  C   UNL A   1      33.500  19.286  24.358  1.00  0.00    -0.048 A 
ATOM     20  C   UNL A   1      34.472  20.150  24.885  1.00  0.00     0.004 A 
ATOM     21  C   UNL A   1      32.449  19.820  23.604  1.00  0.00     0.043 A 
ATOM     22  C   UNL A   1      34.464  21.510  24.559  1.00  0.00     0.017 A 
ATOM     23  C   UNL A   1      32.463  21.166  23.252  1.00  0.00     0.136 A 
ATOM     24  F   UNL A   1      31.486  21.620  22.453  1.00  0.00    -0.206 F 
ENDBRANCH  14  17
ENDBRANCH   9  13
ENDBRANCH   5   8
ENDBRANCH   3   4
ENDBRANCH   2   3
ENDBRANCH   1   2
BRANCH   1  25
ATOM     25  C   UNL A   1      32.699  32.881  27.148  1.00  0.00     0.116 C 
BRANCH  25  26
ATOM     26  N   UNL A   1      32.507  34.224  27.669  1.00  0.00    -0.352 N 
ATOM     27  C   UNL A   1      33.137  34.860  28.714  1.00  0.00     0.251 C 
ATOM     28  H   UNL A   1      31.823  34.760  27.206  1.00  0.00     0.163 HD
ATOM     29  O   UNL A   1      32.730  35.959  29.079  1.00  0.00    -0.269 OA
BRANCH  27  30
ATOM     30  C   UNL A   1      34.282  34.224  29.411  1.00  0.00     0.039 A 
ATOM     31  C   UNL A   1      34.016  33.356  30.474  1.00  0.00     0.014 A 
ATOM     32  C   UNL A   1      35.604  34.494  29.050  1.00  0.00     0.014 A 
ATOM     33  C   UNL A   1      35.072  32.735  31.147  1.00  0.00     0.010 A 
ATOM     34  C   UNL A   1      36.650  33.805  29.664  1.00  0.00     0.010 A 
ATOM     35  C   UNL A   1      36.399  32.937  30.735  1.00  0.00    -0.014 A 
BRANCH  35  36
ATOM     36  C   UNL A   1      37.523  32.255  31.430  1.00  0.00     0.031 A 
ATOM     37  C   UNL A   1      38.278  31.137  30.759  1.00  0.00     0.074 A 
ATOM     38  C   UNL A   1      37.834  32.602  32.695  1.00  0.00     0.049 A 
ATOM     39  N   UNL A   1      39.302  30.453  31.200  1.00  0.00    -0.248 NA
ATOM     40  C   UNL A   1      37.804  30.713  29.431  1.00  0.00     0.031 C 
ATOM     41  C   UNL A   1      37.116  33.594  33.499  1.00  0.00     0.029 A 
ATOM     42  N   UNL A   1      38.820  32.145  33.533  1.00  0.00    -0.354 N 
ATOM     43  C   UNL A   1      39.568  29.494  30.228  1.00  0.00     0.074 A 
ATOM     44  C   UNL A   1      38.574  29.663  29.192  1.00  0.00     0.031 C 
ATOM     45  C   UNL A   1      37.690  33.677  34.709  1.00  0.00     0.029 A 
ATOM     46  C   UNL A   1      38.800  32.731  34.778  1.00  0.00     0.049 A 
ATOM     47  H   UNL A   1      39.479  31.463  33.270  1.00  0.00     0.167 HD
ATOM     48  C   UNL A   1      40.563  28.576  30.186  1.00  0.00     0.034 A 
ATOM     49  C   UNL A   1      39.585  32.529  35.855  1.00  0.00     0.034 A 
ATOM     50  C   UNL A   1      41.572  28.435  31.202  1.00  0.00     0.049 A 
ATOM     51  C   UNL A   1      40.731  31.561  35.757  1.00  0.00     0.074 A 
ATOM     52  C   UNL A   1      42.685  27.614  31.202  1.00  0.00     0.029 A 
ATOM     53  N   UNL A   1      41.579  29.117  32.410  1.00  0.00    -0.354 N 
ATOM     54  N   UNL A   1      41.080  30.796  34.753  1.00  0.00    -0.248 NA
ATOM     55  C   UNL A   1      41.619  31.466  36.924  1.00  0.00     0.031 C 
ATOM     56  C   UNL A   1      43.345  27.771  32.427  1.00  0.00     0.029 A 
ATOM     57  C   UNL A   1      42.668  28.724  33.170  1.00  0.00     0.049 A 
ATOM     58  H   UNL A   1      40.908  29.782  32.687  1.00  0.00     0.167 HD
ATOM     59  C   UNL A   1      42.246  30.152  35.151  1.00  0.00     0.074 A 
ATOM     60  C   UNL A   1      42.556  30.638  36.480  1.00  0.00     0.031 C 
ATOM     61  C   UNL A   1      42.989  29.236  34.479  1.00  0.00     0.034 A 
BRANCH  48  62
ATOM     62  C   UNL A   1      40.625  27.669  28.982  1.00  0.00     0.023 A 
ATOM     63  C   UNL A   1      39.722  26.591  28.864  1.00  0.00     0.012 A 
ATOM     64  C   UNL A   1      41.553  27.904  27.949  1.00  0.00     0.148 A 
ATOM     65  C   UNL A   1      39.776  25.734  27.766  1.00  0.00     0.002 A 
ATOM     66  C   UNL A   1      41.566  27.077  26.833  1.00  0.00     0.091 A 
ATOM     67  F   UNL A   1      42.418  28.920  28.084  1.00  0.00    -0.205 F 
ATOM     68  C   UNL A   1      40.691  25.982  26.747  1.00  0.00     0.022 A 
BRANCH  66  69
ATOM     69  S   UNL A   1      42.646  27.367  25.427  1.00  0.00     0.127 S 
ATOM     70  O   UNL A   1      43.940  27.552  26.083  1.00  0.00    -0.237 OA
ATOM     71  O   UNL A   1      42.517  26.117  24.676  1.00  0.00    -0.237 OA
ATOM     72  O   UNL A   1      42.112  28.539  24.747  1.00  0.00    -0.744 OA
ENDBRANCH  66  69
ENDBRANCH  48  62
BRANCH  49  73
ATOM     73  C   UNL A   1      39.341  33.316  37.097  1.00  0.00     0.023 A 
ATOM     74  C   UNL A   1      39.880  34.611  37.223  1.00  0.00     0.012 A 
ATOM     75  C   UNL A   1      38.531  32.805  38.128  1.00  0.00     0.148 A 
ATOM     76  C   UNL A   1      39.638  35.372  38.367  1.00  0.00     0.002 A 
ATOM     77  C   UNL A   1      38.246  33.590  39.238  1.00  0.00     0.091 A 
ATOM     78  F   UNL A   1      38.034  31.567  37.989  1.00  0.00    -0.205 F 
ATOM     79  C   UNL A   1      38.813  34.867  39.368  1.00  0.00     0.022 A 
BRANCH  77  80
ATOM     80  S   UNL A   1      37.081  33.081  40.507  1.00  0.00     0.127 S 
ATOM     81  O   UNL A   1      37.089  34.237  41.401  1.00  0.00    -0.237 OA
ATOM     82  O   UNL A   1      35.853  32.909  39.731  1.00  0.00    -0.237 OA
ATOM     83  O   UNL A   1      37.619  31.848  41.066  1.00  0.00    -0.744 OA
ENDBRANCH  77  80
ENDBRANCH  49  73
BRANCH  61  84
ATOM     84  C   UNL A   1      44.237  28.722  35.151  1.00  0.00     0.023 A 
ATOM     85  C   UNL A   1      45.490  29.295  34.854  1.00  0.00     0.012 A 
ATOM     86  C   UNL A   1      44.159  27.700  36.117  1.00  0.00     0.148 A 
ATOM     87  C   UNL A   1      46.649  28.826  35.471  1.00  0.00     0.002 A 
ATOM     88  C   UNL A   1      45.311  27.276  36.768  1.00  0.00     0.091 A 
ATOM     89  F   UNL A   1      42.963  27.151  36.375  1.00  0.00    -0.205 F 
ATOM     90  C   UNL A   1      46.559  27.825  36.435  1.00  0.00     0.022 A 
BRANCH  88  91
ATOM     91  S   UNL A   1      45.269  26.064  38.094  1.00  0.00     0.127 S 
ATOM     92  O   UNL A   1      44.364  26.699  39.050  1.00  0.00    -0.237 OA
ATOM     93  O   UNL A   1      44.717  24.886  37.423  1.00  0.00    -0.237 OA
ATOM     94  O   UNL A   1      46.647  25.912  38.540  1.00  0.00    -0.744 OA
ENDBRANCH  88  91
ENDBRANCH  61  84
ENDBRANCH  35  36
ENDBRANCH  27  30
ENDBRANCH  25  26
ENDBRANCH   1  25
TORSDOF 16
ENDMDL
MODEL 3
REMARK VINA RESULT:     -11.8      5.407      8.746
REMARK SMILES Cc1ccc(C(=O)N[C@@H]2C=C[C@H](C(=O)NCCCCNC(=O)c3ccc(-c4c5nc(c(-c6cccc(S(=O)(=O)[O-])c6F)c6ccc([nH]6)c(-c6cccc(S(=O)(=O)[O-])c6F)c6nc(c(-c7cccc(S(=O)(=O)[O-])c7F)c7ccc4[nH]7)C=C6)C=C5)cc3)C2)c(F)c1
REMARK SMILES IDX 18 1 17 2 16 3 15 4 13 5 14 6 12 8 9 9 10 10 86 11 11 12
REMARK SMILES IDX 8 13 6 14 7 15 5 17 1 18 2 19 3 20 89 21 4 22 87 23 88 24
REMARK SMILES IDX 19 25 20 26 21 27 22 29 23 30 24 31 85 32 25 33 84 34 26 35
REMARK SMILES IDX 27 36 28 37 78 38 29 39 83 40 77 41 79 42 30 43 82 44 76 45
REMARK SMILES IDX 75 46 31 48 63 49 43 50 62 51 44 52 47 53 61 54 80 55 45 56
REMARK SMILES IDX 46 57 60 59 81 60 48 61 32 62 33 63 41 64 34 65 36 66 42 67
REMARK SMILES IDX 35 68 37 69 38 70 39 71 40 72 64 73 65 74 73 75 66 76 68 77
REMARK SMILES IDX 74 78 67 79 69 80 70 81 71 82 72 83 49 84 50 85 58 86 51 87
REMARK SMILES IDX 53 88 59 89 52 90 54 91 55 92 56 93 57 94
REMARK H PARENT 15 7 8 16 20 28 79 47 47 58
REMARK Flexibility Score: inf
ROOT
ATOM      1  C   UNL A   1      34.039  27.746  26.093  1.00  0.00     0.023 C 
ENDROOT
BRANCH   1   2
ATOM      2  C   UNL A   1      33.542  28.234  24.731  1.00  0.00     0.023 C 
BRANCH   2   3
ATOM      3  C   UNL A   1      32.073  27.961  24.417  1.00  0.00     0.116 C 
BRANCH   3   4
ATOM      4  N   UNL A   1      31.855  26.697  23.737  1.00  0.00    -0.356 N 
ATOM      5  C   UNL A   1      31.398  25.512  24.253  1.00  0.00     0.227 C 
ATOM      6  O   UNL A   1      31.124  24.599  23.475  1.00  0.00    -0.274 OA
ATOM      7  H   UNL A   1      32.064  26.689  22.776  1.00  0.00     0.163 HD
BRANCH   5   8
ATOM      8  C   UNL A   1      31.319  25.364  25.774  1.00  0.00     0.103 C 
ATOM      9  C   UNL A   1      31.487  23.048  26.642  1.00  0.00     0.106 C 
ATOM     10  C   UNL A   1      30.108  23.615  26.779  1.00  0.00    -0.006 C 
ATOM     11  C   UNL A   1      32.304  24.279  26.216  1.00  0.00     0.047 C 
ATOM     12  C   UNL A   1      30.011  24.856  26.289  1.00  0.00    -0.016 C 
BRANCH   9  13
ATOM     13  N   UNL A   1      31.398  21.911  25.741  1.00  0.00    -0.346 N 
ATOM     14  C   UNL A   1      32.337  21.040  25.242  1.00  0.00     0.254 C 
ATOM     15  O   UNL A   1      31.978  19.951  24.804  1.00  0.00    -0.269 OA
ATOM     16  H   UNL A   1      30.483  21.729  25.426  1.00  0.00     0.164 HD
BRANCH  14  17
ATOM     17  C   UNL A   1      33.750  21.436  25.144  1.00  0.00     0.075 A 
ATOM     18  C   UNL A   1      37.476  23.562  25.118  1.00  0.00     0.044 C 
ATOM     19  C   UNL A   1      36.225  22.735  25.086  1.00  0.00    -0.048 A 
ATOM     20  C   UNL A   1      35.890  21.897  26.161  1.00  0.00     0.004 A 
ATOM     21  C   UNL A   1      35.374  22.796  23.977  1.00  0.00     0.043 A 
ATOM     22  C   UNL A   1      34.662  21.227  26.182  1.00  0.00     0.017 A 
ATOM     23  C   UNL A   1      34.139  22.156  24.015  1.00  0.00     0.136 A 
ATOM     24  F   UNL A   1      33.314  22.312  22.969  1.00  0.00    -0.206 F 
ENDBRANCH  14  17
ENDBRANCH   9  13
ENDBRANCH   5   8
ENDBRANCH   3   4
ENDBRANCH   2   3
ENDBRANCH   1   2
BRANCH   1  25
ATOM     25  C   UNL A   1      33.332  28.336  27.308  1.00  0.00     0.116 C 
BRANCH  25  26
ATOM     26  N   UNL A   1      33.349  29.789  27.324  1.00  0.00    -0.352 N 
ATOM     27  C   UNL A   1      34.313  30.652  27.791  1.00  0.00     0.251 C 
ATOM     28  H   UNL A   1      32.551  30.221  26.943  1.00  0.00     0.163 HD
ATOM     29  O   UNL A   1      34.071  31.854  27.832  1.00  0.00    -0.269 OA
BRANCH  27  30
ATOM     30  C   UNL A   1      35.624  30.143  28.263  1.00  0.00     0.039 A 
ATOM     31  C   UNL A   1      36.711  30.182  27.383  1.00  0.00     0.014 A 
ATOM     32  C   UNL A   1      35.787  29.606  29.542  1.00  0.00     0.014 A 
ATOM     33  C   UNL A   1      37.961  29.716  27.799  1.00  0.00     0.010 A 
ATOM     34  C   UNL A   1      37.054  29.226  29.984  1.00  0.00     0.010 A 
ATOM     35  C   UNL A   1      38.150  29.252  29.112  1.00  0.00    -0.014 A 
BRANCH  35  36
ATOM     36  C   UNL A   1      39.486  28.784  29.567  1.00  0.00     0.031 A 
ATOM     37  C   UNL A   1      40.207  29.487  30.689  1.00  0.00     0.074 A 
ATOM     38  C   UNL A   1      40.084  27.755  28.934  1.00  0.00     0.049 A 
ATOM     39  N   UNL A   1      41.360  29.199  31.236  1.00  0.00    -0.248 NA
ATOM     40  C   UNL A   1      39.563  30.686  31.249  1.00  0.00     0.031 C 
ATOM     41  C   UNL A   1      39.544  27.055  27.767  1.00  0.00     0.029 A 
ATOM     42  N   UNL A   1      41.285  27.134  29.169  1.00  0.00    -0.354 N 
ATOM     43  C   UNL A   1      41.598  30.198  32.172  1.00  0.00     0.074 A 
ATOM     44  C   UNL A   1      40.488  31.121  32.092  1.00  0.00     0.031 C 
ATOM     45  C   UNL A   1      40.405  26.095  27.393  1.00  0.00     0.029 A 
ATOM     46  C   UNL A   1      41.568  26.126  28.277  1.00  0.00     0.049 A 
ATOM     47  H   UNL A   1      41.887  27.385  29.905  1.00  0.00     0.167 HD
ATOM     48  C   UNL A   1      42.632  30.325  33.039  1.00  0.00     0.034 A 
ATOM     49  C   UNL A   1      42.641  25.317  28.177  1.00  0.00     0.034 A 
ATOM     50  C   UNL A   1      43.717  29.386  33.142  1.00  0.00     0.049 A 
ATOM     51  C   UNL A   1      43.738  25.426  29.199  1.00  0.00     0.074 A 
ATOM     52  C   UNL A   1      44.751  29.362  34.060  1.00  0.00     0.029 A 
ATOM     53  N   UNL A   1      43.920  28.316  32.284  1.00  0.00    -0.354 N 
ATOM     54  N   UNL A   1      43.853  26.265  30.199  1.00  0.00    -0.248 NA
ATOM     55  C   UNL A   1      44.828  24.445  29.108  1.00  0.00     0.031 C 
ATOM     56  C   UNL A   1      45.603  28.300  33.733  1.00  0.00     0.029 A 
ATOM     57  C   UNL A   1      45.072  27.634  32.640  1.00  0.00     0.049 A 
ATOM     58  H   UNL A   1      43.332  28.075  31.532  1.00  0.00     0.167 HD
ATOM     59  C   UNL A   1      45.010  25.894  30.877  1.00  0.00     0.074 A 
ATOM     60  C   UNL A   1      45.544  24.739  30.186  1.00  0.00     0.031 C 
ATOM     61  C   UNL A   1      45.580  26.465  31.968  1.00  0.00     0.034 A 
BRANCH  48  62
ATOM     62  C   UNL A   1      42.619  31.512  33.970  1.00  0.00     0.023 A 
ATOM     63  C   UNL A   1      43.152  32.748  33.544  1.00  0.00     0.012 A 
ATOM     64  C   UNL A   1      42.049  31.417  35.255  1.00  0.00     0.148 A 
ATOM     65  C   UNL A   1      43.163  33.851  34.397  1.00  0.00     0.002 A 
ATOM     66  C   UNL A   1      42.016  32.534  36.079  1.00  0.00     0.091 A 
ATOM     67  F   UNL A   1      41.566  30.231  35.653  1.00  0.00    -0.205 F 
ATOM     68  C   UNL A   1      42.587  33.746  35.660  1.00  0.00     0.022 A 
BRANCH  66  69
ATOM     69  S   UNL A   1      41.218  32.525  37.689  1.00  0.00     0.127 S 
ATOM     70  O   UNL A   1      41.237  33.945  38.036  1.00  0.00    -0.237 OA
ATOM     71  O   UNL A   1      39.892  31.993  37.372  1.00  0.00    -0.237 OA
ATOM     72  O   UNL A   1      42.031  31.660  38.533  1.00  0.00    -0.744 OA
ENDBRANCH  66  69
ENDBRANCH  48  62
BRANCH  49  73
ATOM     73  C   UNL A   1      42.688  24.290  27.099  1.00  0.00     0.023 A 
ATOM     74  C   UNL A   1      43.403  24.550  25.914  1.00  0.00     0.012 A 
ATOM     75  C   UNL A   1      42.070  23.037  27.269  1.00  0.00     0.148 A 
ATOM     76  C   UNL A   1      43.479  23.589  24.906  1.00  0.00     0.002 A 
ATOM     77  C   UNL A   1      42.200  22.063  26.287  1.00  0.00     0.091 A 
ATOM     78  F   UNL A   1      41.390  22.814  28.402  1.00  0.00    -0.205 F 
ATOM     79  C   UNL A   1      42.888  22.342  25.096  1.00  0.00     0.022 A 
BRANCH  77  80
ATOM     80  S   UNL A   1      41.597  20.386  26.506  1.00  0.00     0.127 S 
ATOM     81  O   UNL A   1      42.173  20.027  27.800  1.00  0.00    -0.237 OA
ATOM     82  O   UNL A   1      40.148  20.588  26.510  1.00  0.00    -0.237 OA
ATOM     83  O   UNL A   1      42.096  19.632  25.363  1.00  0.00    -0.744 OA
ENDBRANCH  77  80
ENDBRANCH  49  73
BRANCH  61  84
ATOM     84  C   UNL A   1      46.832  25.826  32.514  1.00  0.00     0.023 A 
ATOM     85  C   UNL A   1      48.098  26.225  32.037  1.00  0.00     0.012 A 
ATOM     86  C   UNL A   1      46.755  24.861  33.537  1.00  0.00     0.148 A 
ATOM     87  C   UNL A   1      49.261  25.639  32.536  1.00  0.00     0.002 A 
ATOM     88  C   UNL A   1      47.920  24.321  34.068  1.00  0.00     0.091 A 
ATOM     89  F   UNL A   1      45.544  24.476  33.966  1.00  0.00    -0.205 F 
ATOM     90  C   UNL A   1      49.173  24.697  33.558  1.00  0.00     0.022 A 
BRANCH  88  91
ATOM     91  S   UNL A   1      47.901  23.178  35.454  1.00  0.00     0.127 S 
ATOM     92  O   UNL A   1      49.206  23.428  36.063  1.00  0.00    -0.237 OA
ATOM     93  O   UNL A   1      46.761  23.658  36.237  1.00  0.00    -0.237 OA
ATOM     94  O   UNL A   1      47.721  21.854  34.877  1.00  0.00    -0.744 OA
ENDBRANCH  88  91
ENDBRANCH  61  84
ENDBRANCH  35  36
ENDBRANCH  27  30
ENDBRANCH  25  26
ENDBRANCH   1  25
TORSDOF 16
ENDMDL
