MODEL 1
REMARK VINA RESULT:     -10.1      0.000      0.000
REMARK SMILES C#CC[N@H+](CC(=O)NCCCCNC(=O)c1ccc(-c2c3nc(c(-c4cccc(S(=O)(=O)[O-])c4F)c4ccc([nH]4)c(-c4cccc(S(=O)(=O)[O-])c4F)c4nc(c(-c5cccc(S(=O)(=O)[O-])c5F)c5ccc2[nH]5)C=C4)C=C3)cc1)[C@H](C)[C@@H](C)O
REMARK SMILES IDX 10 1 9 2 8 3 6 4 7 5 5 7 4 8 3 10 2 11 1 12 79 13 80 14
REMARK SMILES IDX 81 15 82 16 83 17 11 19 12 20 13 21 14 22 15 24 16 25 17 26
REMARK SMILES IDX 78 27 18 28 77 29 19 30 20 31 21 32 71 33 22 34 76 35 70 36
REMARK SMILES IDX 72 37 23 38 75 39 69 40 68 41 24 43 56 44 36 45 55 46 37 47
REMARK SMILES IDX 40 48 54 49 73 50 38 51 39 52 53 54 74 55 41 56 25 57 26 58
REMARK SMILES IDX 34 59 27 60 29 61 35 62 28 63 30 64 31 65 32 66 33 67 57 68
REMARK SMILES IDX 58 69 66 70 59 71 61 72 67 73 60 74 62 75 63 76 64 77 65 78
REMARK SMILES IDX 42 79 43 80 51 81 44 82 46 83 52 84 45 85 47 86 48 87 49 88
REMARK SMILES IDX 50 89
REMARK H PARENT 8 6 4 9 83 18 13 23 72 42 40 53
REMARK Flexibility Score: inf
ROOT
ATOM      1  C   UNL A   1      32.286  28.751  23.100  1.00  0.00     0.023 C 
ENDROOT
BRANCH   1   2
ATOM      2  C   UNL A   1      31.583  27.420  22.786  1.00  0.00     0.116 C 
BRANCH   2   3
ATOM      3  N   UNL A   1      32.162  26.760  21.625  1.00  0.00    -0.351 N 
ATOM      4  C   UNL A   1      32.811  25.555  21.495  1.00  0.00     0.275 C 
ATOM      5  O   UNL A   1      33.278  25.276  20.388  1.00  0.00    -0.269 OA
ATOM      6  H   UNL A   1      32.072  27.265  20.784  1.00  0.00     0.163 HD
BRANCH   4   7
ATOM      7  C   UNL A   1      32.904  24.563  22.676  1.00  0.00     0.364 C 
BRANCH   7   8
ATOM      8  N   UNL A   1      34.282  24.373  23.275  1.00  0.00    -0.313 N 
ATOM      9  H   UNL A   1      35.024  24.703  22.658  1.00  0.00     0.349 HD
BRANCH   8  10
ATOM     10  C   UNL A   1      34.372  25.187  24.489  1.00  0.00     0.354 C 
BRANCH  10  11
ATOM     11  C   UNL A   1      33.271  25.294  25.449  1.00  0.00    -0.047 C 
ATOM     12  C   UNL A   1      32.293  25.494  26.115  1.00  0.00     0.010 C 
ENDBRANCH  10  11
ENDBRANCH   8  10
BRANCH   8  13
ATOM     13  C   UNL A   1      34.566  22.907  23.445  1.00  0.00     0.210 C 
ATOM     14  C   UNL A   1      33.312  22.034  23.632  1.00  0.00     0.078 C 
BRANCH  13  15
ATOM     15  C   UNL A   1      35.661  22.620  24.518  1.00  0.00     0.169 C 
ATOM     16  C   UNL A   1      35.252  21.694  25.652  1.00  0.00     0.045 C 
BRANCH  15  17
ATOM     17  O   UNL A   1      36.788  22.003  23.882  1.00  0.00    -0.387 OA
ATOM     18  H   UNL A   1      36.958  22.439  23.032  1.00  0.00     0.211 HD
ENDBRANCH  15  17
ENDBRANCH  13  15
ENDBRANCH   8  13
ENDBRANCH   7   8
ENDBRANCH   4   7
ENDBRANCH   2   3
ENDBRANCH   1   2
BRANCH   1  19
ATOM     19  C   UNL A   1      33.689  28.641  23.661  1.00  0.00     0.023 C 
BRANCH  19  20
ATOM     20  C   UNL A   1      33.776  28.953  25.136  1.00  0.00     0.116 C 
BRANCH  20  21
ATOM     21  N   UNL A   1      32.987  30.119  25.515  1.00  0.00    -0.352 N 
ATOM     22  C   UNL A   1      33.119  30.920  26.622  1.00  0.00     0.251 C 
ATOM     23  H   UNL A   1      32.263  30.366  24.895  1.00  0.00     0.163 HD
ATOM     24  O   UNL A   1      32.272  31.769  26.875  1.00  0.00    -0.269 OA
BRANCH  22  25
ATOM     25  C   UNL A   1      34.279  30.716  27.511  1.00  0.00     0.039 A 
ATOM     26  C   UNL A   1      34.419  29.497  28.172  1.00  0.00     0.014 A 
ATOM     27  C   UNL A   1      35.256  31.707  27.630  1.00  0.00     0.014 A 
ATOM     28  C   UNL A   1      35.574  29.259  28.912  1.00  0.00     0.010 A 
ATOM     29  C   UNL A   1      36.460  31.413  28.247  1.00  0.00     0.010 A 
ATOM     30  C   UNL A   1      36.620  30.200  28.924  1.00  0.00    -0.014 A 
BRANCH  30  31
ATOM     31  C   UNL A   1      37.879  29.916  29.651  1.00  0.00     0.031 A 
ATOM     32  C   UNL A   1      38.092  30.449  31.041  1.00  0.00     0.074 A 
ATOM     33  C   UNL A   1      38.842  29.201  29.039  1.00  0.00     0.049 A 
ATOM     34  N   UNL A   1      39.087  30.227  31.859  1.00  0.00    -0.248 NA
ATOM     35  C   UNL A   1      37.078  31.374  31.578  1.00  0.00     0.031 C 
ATOM     36  C   UNL A   1      38.796  28.732  27.650  1.00  0.00     0.029 A 
ATOM     37  N   UNL A   1      40.047  28.741  29.502  1.00  0.00    -0.354 N 
ATOM     38  C   UNL A   1      38.833  30.999  32.985  1.00  0.00     0.074 A 
ATOM     39  C   UNL A   1      37.621  31.739  32.728  1.00  0.00     0.031 C 
ATOM     40  C   UNL A   1      39.899  28.015  27.390  1.00  0.00     0.029 A 
ATOM     41  C   UNL A   1      40.746  28.001  28.579  1.00  0.00     0.049 A 
ATOM     42  H   UNL A   1      40.381  28.926  30.410  1.00  0.00     0.167 HD
ATOM     43  C   UNL A   1      39.528  31.061  34.145  1.00  0.00     0.034 A 
ATOM     44  C   UNL A   1      41.932  27.374  28.682  1.00  0.00     0.034 A 
ATOM     45  C   UNL A   1      40.719  30.299  34.400  1.00  0.00     0.049 A 
ATOM     46  C   UNL A   1      42.651  27.405  30.001  1.00  0.00     0.074 A 
ATOM     47  C   UNL A   1      41.452  30.217  35.570  1.00  0.00     0.029 A 
ATOM     48  N   UNL A   1      41.364  29.505  33.465  1.00  0.00    -0.354 N 
ATOM     49  N   UNL A   1      42.305  28.002  31.116  1.00  0.00    -0.248 NA
ATOM     50  C   UNL A   1      43.899  26.637  30.090  1.00  0.00     0.031 C 
ATOM     51  C   UNL A   1      42.567  29.406  35.328  1.00  0.00     0.029 A 
ATOM     52  C   UNL A   1      42.496  28.939  34.025  1.00  0.00     0.049 A 
ATOM     53  H   UNL A   1      41.061  29.363  32.539  1.00  0.00     0.167 HD
ATOM     54  C   UNL A   1      43.274  27.655  32.049  1.00  0.00     0.074 A 
ATOM     55  C   UNL A   1      44.203  26.771  31.374  1.00  0.00     0.031 C 
ATOM     56  C   UNL A   1      43.392  28.038  33.345  1.00  0.00     0.034 A 
BRANCH  43  57
ATOM     57  C   UNL A   1      38.995  31.957  35.233  1.00  0.00     0.023 A 
ATOM     58  C   UNL A   1      39.049  33.359  35.083  1.00  0.00     0.012 A 
ATOM     59  C   UNL A   1      38.399  31.411  36.387  1.00  0.00     0.148 A 
ATOM     60  C   UNL A   1      38.555  34.201  36.079  1.00  0.00     0.002 A 
ATOM     61  C   UNL A   1      37.861  32.256  37.349  1.00  0.00     0.091 A 
ATOM     62  F   UNL A   1      38.380  30.078  36.525  1.00  0.00    -0.205 F 
ATOM     63  C   UNL A   1      37.951  33.650  37.205  1.00  0.00     0.022 A 
BRANCH  61  64
ATOM     64  S   UNL A   1      36.987  31.645  38.794  1.00  0.00     0.127 S 
ATOM     65  O   UNL A   1      37.979  31.850  39.847  1.00  0.00    -0.237 OA
ATOM     66  O   UNL A   1      35.836  32.545  38.857  1.00  0.00    -0.237 OA
ATOM     67  O   UNL A   1      36.659  30.255  38.509  1.00  0.00    -0.744 OA
ENDBRANCH  61  64
ENDBRANCH  43  57
BRANCH  44  68
ATOM     68  C   UNL A   1      42.475  26.612  27.523  1.00  0.00     0.023 A 
ATOM     69  C   UNL A   1      43.335  27.245  26.605  1.00  0.00     0.012 A 
ATOM     70  C   UNL A   1      42.164  25.251  27.347  1.00  0.00     0.148 A 
ATOM     71  C   UNL A   1      43.845  26.545  25.511  1.00  0.00     0.002 A 
ATOM     72  C   UNL A   1      42.722  24.544  26.291  1.00  0.00     0.091 A 
ATOM     73  F   UNL A   1      41.338  24.670  28.230  1.00  0.00    -0.205 F 
ATOM     74  C   UNL A   1      43.547  25.193  25.359  1.00  0.00     0.022 A 
BRANCH  72  75
ATOM     75  S   UNL A   1      42.504  22.772  26.098  1.00  0.00     0.127 S 
ATOM     76  O   UNL A   1      42.952  22.564  24.724  1.00  0.00    -0.237 OA
ATOM     77  O   UNL A   1      43.401  22.248  27.128  1.00  0.00    -0.237 OA
ATOM     78  O   UNL A   1      41.091  22.520  26.348  1.00  0.00    -0.744 OA
ENDBRANCH  72  75
ENDBRANCH  44  68
BRANCH  56  79
ATOM     79  C   UNL A   1      44.543  27.464  34.131  1.00  0.00     0.023 A 
ATOM     80  C   UNL A   1      45.791  28.119  34.145  1.00  0.00     0.012 A 
ATOM     81  C   UNL A   1      44.373  26.284  34.880  1.00  0.00     0.148 A 
ATOM     82  C   UNL A   1      46.868  27.574  34.844  1.00  0.00     0.002 A 
ATOM     83  C   UNL A   1      45.433  25.781  35.623  1.00  0.00     0.091 A 
ATOM     84  F   UNL A   1      43.184  25.666  34.844  1.00  0.00    -0.205 F 
ATOM     85  C   UNL A   1      46.687  26.412  35.589  1.00  0.00     0.022 A 
BRANCH  83  86
ATOM     86  S   UNL A   1      45.258  24.350  36.693  1.00  0.00     0.127 S 
ATOM     87  O   UNL A   1      46.628  24.163  37.167  1.00  0.00    -0.237 OA
ATOM     88  O   UNL A   1      44.322  24.836  37.709  1.00  0.00    -0.237 OA
ATOM     89  O   UNL A   1      44.733  23.283  35.853  1.00  0.00    -0.744 OA
ENDBRANCH  83  86
ENDBRANCH  56  79
ENDBRANCH  30  31
ENDBRANCH  22  25
ENDBRANCH  20  21
ENDBRANCH  19  20
ENDBRANCH   1  19
TORSDOF 20
ENDMDL
MODEL 2
REMARK VINA RESULT:     -10.0      5.327     10.353
REMARK SMILES C#CC[N@H+](CC(=O)NCCCCNC(=O)c1ccc(-c2c3nc(c(-c4cccc(S(=O)(=O)[O-])c4F)c4ccc([nH]4)c(-c4cccc(S(=O)(=O)[O-])c4F)c4nc(c(-c5cccc(S(=O)(=O)[O-])c5F)c5ccc2[nH]5)C=C4)C=C3)cc1)[C@H](C)[C@@H](C)O
REMARK SMILES IDX 10 1 9 2 8 3 6 4 7 5 5 7 4 8 3 10 2 11 1 12 79 13 80 14
REMARK SMILES IDX 81 15 82 16 83 17 11 19 12 20 13 21 14 22 15 24 16 25 17 26
REMARK SMILES IDX 78 27 18 28 77 29 19 30 20 31 21 32 71 33 22 34 76 35 70 36
REMARK SMILES IDX 72 37 23 38 75 39 69 40 68 41 24 43 56 44 36 45 55 46 37 47
REMARK SMILES IDX 40 48 54 49 73 50 38 51 39 52 53 54 74 55 41 56 25 57 26 58
REMARK SMILES IDX 34 59 27 60 29 61 35 62 28 63 30 64 31 65 32 66 33 67 57 68
REMARK SMILES IDX 58 69 66 70 59 71 61 72 67 73 60 74 62 75 63 76 64 77 65 78
REMARK SMILES IDX 42 79 43 80 51 81 44 82 46 83 52 84 45 85 47 86 48 87 49 88
REMARK SMILES IDX 50 89
REMARK H PARENT 8 6 4 9 83 18 13 23 72 42 40 53
REMARK Flexibility Score: inf
ROOT
ATOM      1  C   UNL A   1      34.788  22.305  24.449  1.00  0.00     0.023 C 
ENDROOT
BRANCH   1   2
ATOM      2  C   UNL A   1      34.080  23.669  24.494  1.00  0.00     0.116 C 
BRANCH   2   3
ATOM      3  N   UNL A   1      34.223  24.398  23.242  1.00  0.00    -0.351 N 
ATOM      4  C   UNL A   1      33.645  25.564  22.799  1.00  0.00     0.275 C 
ATOM      5  O   UNL A   1      33.888  25.916  21.641  1.00  0.00    -0.269 OA
ATOM      6  H   UNL A   1      34.843  23.982  22.599  1.00  0.00     0.163 HD
BRANCH   4   7
ATOM      7  C   UNL A   1      32.769  26.430  23.732  1.00  0.00     0.364 C 
BRANCH   7   8
ATOM      8  N   UNL A   1      33.223  27.861  23.926  1.00  0.00    -0.313 N 
ATOM      9  H   UNL A   1      34.094  28.064  23.436  1.00  0.00     0.349 HD
BRANCH   8  10
ATOM     10  C   UNL A   1      32.214  28.747  23.340  1.00  0.00     0.354 C 
BRANCH  10  11
ATOM     11  C   UNL A   1      30.783  28.430  23.355  1.00  0.00    -0.047 C 
ATOM     12  C   UNL A   1      29.590  28.331  23.284  1.00  0.00     0.010 C 
ENDBRANCH  10  11
ENDBRANCH   8  10
BRANCH   8  13
ATOM     13  C   UNL A   1      33.546  28.102  25.374  1.00  0.00     0.210 C 
ATOM     14  C   UNL A   1      33.111  26.967  26.319  1.00  0.00     0.078 C 
BRANCH  13  15
ATOM     15  C   UNL A   1      33.091  29.507  25.874  1.00  0.00     0.169 C 
ATOM     16  C   UNL A   1      32.047  29.511  26.979  1.00  0.00     0.045 C 
BRANCH  15  17
ATOM     17  O   UNL A   1      34.228  30.209  26.392  1.00  0.00    -0.387 OA
ATOM     18  H   UNL A   1      34.169  31.146  26.146  1.00  0.00     0.211 HD
ENDBRANCH  15  17
ENDBRANCH  13  15
ENDBRANCH   8  13
ENDBRANCH   7   8
ENDBRANCH   4   7
ENDBRANCH   2   3
ENDBRANCH   1   2
BRANCH   1  19
ATOM     19  C   UNL A   1      36.282  22.346  24.200  1.00  0.00     0.023 C 
BRANCH  19  20
ATOM     20  C   UNL A   1      37.099  22.545  25.454  1.00  0.00     0.116 C 
BRANCH  20  21
ATOM     21  N   UNL A   1      38.099  21.501  25.650  1.00  0.00    -0.352 N 
ATOM     22  C   UNL A   1      39.368  21.615  26.161  1.00  0.00     0.251 C 
ATOM     23  H   UNL A   1      37.828  20.594  25.380  1.00  0.00     0.163 HD
ATOM     24  O   UNL A   1      40.141  20.665  26.112  1.00  0.00    -0.269 OA
BRANCH  22  25
ATOM     25  C   UNL A   1      39.787  22.907  26.737  1.00  0.00     0.039 A 
ATOM     26  C   UNL A   1      40.707  22.914  27.784  1.00  0.00     0.014 A 
ATOM     27  C   UNL A   1      39.320  24.105  26.192  1.00  0.00     0.014 A 
ATOM     28  C   UNL A   1      41.196  24.133  28.245  1.00  0.00     0.010 A 
ATOM     29  C   UNL A   1      39.912  25.302  26.556  1.00  0.00     0.010 A 
ATOM     30  C   UNL A   1      40.832  25.334  27.609  1.00  0.00    -0.014 A 
BRANCH  30  31
ATOM     31  C   UNL A   1      41.408  26.624  28.052  1.00  0.00     0.031 A 
ATOM     32  C   UNL A   1      42.851  26.948  27.781  1.00  0.00     0.074 A 
ATOM     33  C   UNL A   1      40.630  27.490  28.730  1.00  0.00     0.049 A 
ATOM     34  N   UNL A   1      43.499  28.060  28.014  1.00  0.00    -0.248 NA
ATOM     35  C   UNL A   1      43.690  25.884  27.200  1.00  0.00     0.031 C 
ATOM     36  C   UNL A   1      39.249  27.236  29.154  1.00  0.00     0.029 A 
ATOM     37  N   UNL A   1      40.885  28.759  29.181  1.00  0.00    -0.354 N 
ATOM     38  C   UNL A   1      44.814  27.820  27.636  1.00  0.00     0.074 A 
ATOM     39  C   UNL A   1      44.889  26.443  27.211  1.00  0.00     0.031 C 
ATOM     40  C   UNL A   1      38.767  28.329  29.763  1.00  0.00     0.029 A 
ATOM     41  C   UNL A   1      39.810  29.349  29.803  1.00  0.00     0.049 A 
ATOM     42  H   UNL A   1      41.756  29.205  29.071  1.00  0.00     0.167 HD
ATOM     43  C   UNL A   1      45.859  28.679  27.613  1.00  0.00     0.034 A 
ATOM     44  C   UNL A   1      39.678  30.577  30.337  1.00  0.00     0.034 A 
ATOM     45  C   UNL A   1      45.766  30.056  28.015  1.00  0.00     0.049 A 
ATOM     46  C   UNL A   1      40.834  31.532  30.240  1.00  0.00     0.074 A 
ATOM     47  C   UNL A   1      46.737  31.038  27.948  1.00  0.00     0.029 A 
ATOM     48  N   UNL A   1      44.642  30.640  28.578  1.00  0.00    -0.354 N 
ATOM     49  N   UNL A   1      42.022  31.341  29.719  1.00  0.00    -0.248 NA
ATOM     50  C   UNL A   1      40.614  32.887  30.762  1.00  0.00     0.031 C 
ATOM     51  C   UNL A   1      46.214  32.206  28.513  1.00  0.00     0.029 A 
ATOM     52  C   UNL A   1      44.899  31.967  28.878  1.00  0.00     0.049 A 
ATOM     53  H   UNL A   1      43.787  30.180  28.739  1.00  0.00     0.167 HD
ATOM     54  C   UNL A   1      42.681  32.560  29.819  1.00  0.00     0.074 A 
ATOM     55  C   UNL A   1      41.746  33.489  30.423  1.00  0.00     0.031 C 
ATOM     56  C   UNL A   1      43.946  32.883  29.453  1.00  0.00     0.034 A 
BRANCH  43  57
ATOM     57  C   UNL A   1      47.180  28.161  27.106  1.00  0.00     0.023 A 
ATOM     58  C   UNL A   1      48.215  27.855  28.016  1.00  0.00     0.012 A 
ATOM     59  C   UNL A   1      47.383  27.933  25.731  1.00  0.00     0.148 A 
ATOM     60  C   UNL A   1      49.441  27.370  27.563  1.00  0.00     0.002 A 
ATOM     61  C   UNL A   1      48.588  27.398  25.293  1.00  0.00     0.091 A 
ATOM     62  F   UNL A   1      46.399  28.254  24.879  1.00  0.00    -0.205 F 
ATOM     63  C   UNL A   1      49.623  27.130  26.203  1.00  0.00     0.022 A 
BRANCH  61  64
ATOM     64  S   UNL A   1      48.890  26.974  23.575  1.00  0.00     0.127 S 
ATOM     65  O   UNL A   1      47.950  25.872  23.374  1.00  0.00    -0.237 OA
ATOM     66  O   UNL A   1      48.532  28.213  22.886  1.00  0.00    -0.237 OA
ATOM     67  O   UNL A   1      50.299  26.614  23.490  1.00  0.00    -0.744 OA
ENDBRANCH  61  64
ENDBRANCH  43  57
BRANCH  44  68
ATOM     68  C   UNL A   1      38.384  30.987  30.949  1.00  0.00     0.023 A 
ATOM     69  C   UNL A   1      38.171  30.813  32.330  1.00  0.00     0.012 A 
ATOM     70  C   UNL A   1      37.374  31.579  30.167  1.00  0.00     0.148 A 
ATOM     71  C   UNL A   1      36.960  31.187  32.914  1.00  0.00     0.002 A 
ATOM     72  C   UNL A   1      36.196  32.004  30.765  1.00  0.00     0.091 A 
ATOM     73  F   UNL A   1      37.596  31.730  28.853  1.00  0.00    -0.205 F 
ATOM     74  C   UNL A   1      35.977  31.791  32.135  1.00  0.00     0.022 A 
BRANCH  72  75
ATOM     75  S   UNL A   1      34.936  32.914  29.865  1.00  0.00     0.127 S 
ATOM     76  O   UNL A   1      34.046  33.338  30.943  1.00  0.00    -0.237 OA
ATOM     77  O   UNL A   1      35.721  33.986  29.254  1.00  0.00    -0.237 OA
ATOM     78  O   UNL A   1      34.370  31.967  28.914  1.00  0.00    -0.744 OA
ENDBRANCH  72  75
ENDBRANCH  44  68
BRANCH  56  79
ATOM     79  C   UNL A   1      44.378  34.313  29.653  1.00  0.00     0.023 A 
ATOM     80  C   UNL A   1      44.976  34.712  30.866  1.00  0.00     0.012 A 
ATOM     81  C   UNL A   1      44.214  35.256  28.620  1.00  0.00     0.148 A 
ATOM     82  C   UNL A   1      45.346  36.041  31.068  1.00  0.00     0.002 A 
ATOM     83  C   UNL A   1      44.642  36.564  28.806  1.00  0.00     0.091 A 
ATOM     84  F   UNL A   1      43.631  34.862  27.479  1.00  0.00    -0.205 F 
ATOM     85  C   UNL A   1      45.189  36.963  30.037  1.00  0.00     0.022 A 
BRANCH  83  86
ATOM     86  S   UNL A   1      44.574  37.789  27.497  1.00  0.00     0.127 S 
ATOM     87  O   UNL A   1      44.893  39.018  28.221  1.00  0.00    -0.237 OA
ATOM     88  O   UNL A   1      45.622  37.327  26.585  1.00  0.00    -0.237 OA
ATOM     89  O   UNL A   1      43.226  37.716  26.949  1.00  0.00    -0.744 OA
ENDBRANCH  83  86
ENDBRANCH  56  79
ENDBRANCH  30  31
ENDBRANCH  22  25
ENDBRANCH  20  21
ENDBRANCH  19  20
ENDBRANCH   1  19
TORSDOF 20
ENDMDL
MODEL 3
REMARK VINA RESULT:     -10.0      1.764      2.372
REMARK SMILES C#CC[N@H+](CC(=O)NCCCCNC(=O)c1ccc(-c2c3nc(c(-c4cccc(S(=O)(=O)[O-])c4F)c4ccc([nH]4)c(-c4cccc(S(=O)(=O)[O-])c4F)c4nc(c(-c5cccc(S(=O)(=O)[O-])c5F)c5ccc2[nH]5)C=C4)C=C3)cc1)[C@H](C)[C@@H](C)O
REMARK SMILES IDX 10 1 9 2 8 3 6 4 7 5 5 7 4 8 3 10 2 11 1 12 79 13 80 14
REMARK SMILES IDX 81 15 82 16 83 17 11 19 12 20 13 21 14 22 15 24 16 25 17 26
REMARK SMILES IDX 78 27 18 28 77 29 19 30 20 31 21 32 71 33 22 34 76 35 70 36
REMARK SMILES IDX 72 37 23 38 75 39 69 40 68 41 24 43 56 44 36 45 55 46 37 47
REMARK SMILES IDX 40 48 54 49 73 50 38 51 39 52 53 54 74 55 41 56 25 57 26 58
REMARK SMILES IDX 34 59 27 60 29 61 35 62 28 63 30 64 31 65 32 66 33 67 57 68
REMARK SMILES IDX 58 69 66 70 59 71 61 72 67 73 60 74 62 75 63 76 64 77 65 78
REMARK SMILES IDX 42 79 43 80 51 81 44 82 46 83 52 84 45 85 47 86 48 87 49 88
REMARK SMILES IDX 50 89
REMARK H PARENT 8 6 4 9 83 18 13 23 72 42 40 53
REMARK Flexibility Score: inf
ROOT
ATOM      1  C   UNL A   1      33.049  28.822  24.119  1.00  0.00     0.023 C 
ENDROOT
BRANCH   1   2
ATOM      2  C   UNL A   1      33.648  27.415  24.276  1.00  0.00     0.116 C 
BRANCH   2   3
ATOM      3  N   UNL A   1      33.376  26.575  23.118  1.00  0.00    -0.351 N 
ATOM      4  C   UNL A   1      33.724  25.275  22.837  1.00  0.00     0.275 C 
ATOM      5  O   UNL A   1      33.426  24.833  21.724  1.00  0.00    -0.269 OA
ATOM      6  H   UNL A   1      32.851  27.016  22.411  1.00  0.00     0.163 HD
BRANCH   4   7
ATOM      7  C   UNL A   1      34.413  24.383  23.894  1.00  0.00     0.364 C 
BRANCH   7   8
ATOM      8  N   UNL A   1      33.505  23.449  24.666  1.00  0.00    -0.313 N 
ATOM      9  H   UNL A   1      32.533  23.511  24.363  1.00  0.00     0.349 HD
BRANCH   8  10
ATOM     10  C   UNL A   1      33.925  22.072  24.397  1.00  0.00     0.354 C 
BRANCH  10  11
ATOM     11  C   UNL A   1      32.977  20.957  24.332  1.00  0.00    -0.047 C 
ATOM     12  C   UNL A   1      32.329  19.948  24.364  1.00  0.00     0.010 C 
ENDBRANCH  10  11
ENDBRANCH   8  10
BRANCH   8  13
ATOM     13  C   UNL A   1      33.468  23.853  26.113  1.00  0.00     0.210 C 
ATOM     14  C   UNL A   1      34.535  23.172  26.990  1.00  0.00     0.078 C 
BRANCH  13  15
ATOM     15  C   UNL A   1      32.040  23.769  26.733  1.00  0.00     0.169 C 
ATOM     16  C   UNL A   1      30.885  23.816  25.746  1.00  0.00     0.045 C 
BRANCH  15  17
ATOM     17  O   UNL A   1      31.912  22.531  27.444  1.00  0.00    -0.387 OA
ATOM     18  H   UNL A   1      32.260  22.637  28.343  1.00  0.00     0.211 HD
ENDBRANCH  15  17
ENDBRANCH  13  15
ENDBRANCH   8  13
ENDBRANCH   7   8
ENDBRANCH   4   7
ENDBRANCH   2   3
ENDBRANCH   1   2
BRANCH   1  19
ATOM     19  C   UNL A   1      31.970  29.195  25.116  1.00  0.00     0.023 C 
BRANCH  19  20
ATOM     20  C   UNL A   1      32.511  29.704  26.430  1.00  0.00     0.116 C 
BRANCH  20  21
ATOM     21  N   UNL A   1      32.312  31.138  26.607  1.00  0.00    -0.352 N 
ATOM     22  C   UNL A   1      33.102  32.036  27.280  1.00  0.00     0.251 C 
ATOM     23  H   UNL A   1      31.503  31.512  26.188  1.00  0.00     0.163 HD
ATOM     24  O   UNL A   1      32.710  33.182  27.469  1.00  0.00    -0.269 OA
BRANCH  22  25
ATOM     25  C   UNL A   1      34.410  31.586  27.792  1.00  0.00     0.039 A 
ATOM     26  C   UNL A   1      35.431  32.520  27.956  1.00  0.00     0.014 A 
ATOM     27  C   UNL A   1      34.595  30.254  28.173  1.00  0.00     0.014 A 
ATOM     28  C   UNL A   1      36.623  32.121  28.554  1.00  0.00     0.010 A 
ATOM     29  C   UNL A   1      35.723  29.897  28.892  1.00  0.00     0.010 A 
ATOM     30  C   UNL A   1      36.764  30.816  29.062  1.00  0.00    -0.014 A 
BRANCH  30  31
ATOM     31  C   UNL A   1      38.004  30.411  29.763  1.00  0.00     0.031 A 
ATOM     32  C   UNL A   1      38.276  30.884  31.165  1.00  0.00     0.074 A 
ATOM     33  C   UNL A   1      38.900  29.640  29.117  1.00  0.00     0.049 A 
ATOM     34  N   UNL A   1      39.259  30.559  31.962  1.00  0.00    -0.248 NA
ATOM     35  C   UNL A   1      37.345  31.871  31.742  1.00  0.00     0.031 C 
ATOM     36  C   UNL A   1      38.800  29.218  27.716  1.00  0.00     0.029 A 
ATOM     37  N   UNL A   1      40.070  29.073  29.550  1.00  0.00    -0.354 N 
ATOM     38  C   UNL A   1      39.082  31.315  33.113  1.00  0.00     0.074 A 
ATOM     39  C   UNL A   1      37.929  32.157  32.894  1.00  0.00     0.031 C 
ATOM     40  C   UNL A   1      39.839  28.424  27.420  1.00  0.00     0.029 A 
ATOM     41  C   UNL A   1      40.696  28.307  28.595  1.00  0.00     0.049 A 
ATOM     42  H   UNL A   1      40.428  29.203  30.457  1.00  0.00     0.167 HD
ATOM     43  C   UNL A   1      39.792  31.287  34.265  1.00  0.00     0.034 A 
ATOM     44  C   UNL A   1      41.829  27.585  28.664  1.00  0.00     0.034 A 
ATOM     45  C   UNL A   1      40.922  30.426  34.481  1.00  0.00     0.049 A 
ATOM     46  C   UNL A   1      42.564  27.520  29.973  1.00  0.00     0.074 A 
ATOM     47  C   UNL A   1      41.660  30.250  35.637  1.00  0.00     0.029 A 
ATOM     48  N   UNL A   1      41.490  29.611  33.514  1.00  0.00    -0.354 N 
ATOM     49  N   UNL A   1      42.280  28.109  31.110  1.00  0.00    -0.248 NA
ATOM     50  C   UNL A   1      43.748  26.652  30.022  1.00  0.00     0.031 C 
ATOM     51  C   UNL A   1      42.704  29.362  35.356  1.00  0.00     0.029 A 
ATOM     52  C   UNL A   1      42.580  28.940  34.041  1.00  0.00     0.049 A 
ATOM     53  H   UNL A   1      41.165  29.521  32.589  1.00  0.00     0.167 HD
ATOM     54  C   UNL A   1      43.230  27.658  32.019  1.00  0.00     0.074 A 
ATOM     55  C   UNL A   1      44.076  26.723  31.305  1.00  0.00     0.031 C 
ATOM     56  C   UNL A   1      43.393  27.991  33.323  1.00  0.00     0.034 A 
BRANCH  43  57
ATOM     57  C   UNL A   1      39.346  32.190  35.385  1.00  0.00     0.023 A 
ATOM     58  C   UNL A   1      38.438  31.715  36.356  1.00  0.00     0.012 A 
ATOM     59  C   UNL A   1      39.860  33.496  35.504  1.00  0.00     0.148 A 
ATOM     60  C   UNL A   1      38.020  32.536  37.402  1.00  0.00     0.002 A 
ATOM     61  C   UNL A   1      39.480  34.289  36.579  1.00  0.00     0.091 A 
ATOM     62  F   UNL A   1      40.700  33.939  34.559  1.00  0.00    -0.205 F 
ATOM     63  C   UNL A   1      38.550  33.818  37.521  1.00  0.00     0.022 A 
BRANCH  61  64
ATOM     64  S   UNL A   1      40.170  35.922  36.869  1.00  0.00     0.127 S 
ATOM     65  O   UNL A   1      39.693  36.655  35.697  1.00  0.00    -0.237 OA
ATOM     66  O   UNL A   1      39.531  36.304  38.128  1.00  0.00    -0.237 OA
ATOM     67  O   UNL A   1      41.613  35.742  36.947  1.00  0.00    -0.744 OA
ENDBRANCH  61  64
ENDBRANCH  43  57
BRANCH  44  68
ATOM     68  C   UNL A   1      42.296  26.818  27.476  1.00  0.00     0.023 A 
ATOM     69  C   UNL A   1      43.062  27.456  26.482  1.00  0.00     0.012 A 
ATOM     70  C   UNL A   1      42.006  25.446  27.346  1.00  0.00     0.148 A 
ATOM     71  C   UNL A   1      43.499  26.750  25.360  1.00  0.00     0.002 A 
ATOM     72  C   UNL A   1      42.495  24.736  26.258  1.00  0.00     0.091 A 
ATOM     73  F   UNL A   1      41.269  24.861  28.301  1.00  0.00    -0.205 F 
ATOM     74  C   UNL A   1      43.224  25.389  25.253  1.00  0.00     0.022 A 
BRANCH  72  75
ATOM     75  S   UNL A   1      42.306  22.956  26.109  1.00  0.00     0.127 S 
ATOM     76  O   UNL A   1      42.873  22.705  24.787  1.00  0.00    -0.237 OA
ATOM     77  O   UNL A   1      43.115  22.476  27.230  1.00  0.00    -0.237 OA
ATOM     78  O   UNL A   1      40.879  22.698  26.245  1.00  0.00    -0.744 OA
ENDBRANCH  72  75
ENDBRANCH  44  68
BRANCH  56  79
ATOM     79  C   UNL A   1      44.504  27.305  34.075  1.00  0.00     0.023 A 
ATOM     80  C   UNL A   1      45.823  27.796  34.002  1.00  0.00     0.012 A 
ATOM     81  C   UNL A   1      44.228  26.184  34.882  1.00  0.00     0.148 A 
ATOM     82  C   UNL A   1      46.859  27.144  34.669  1.00  0.00     0.002 A 
ATOM     83  C   UNL A   1      45.255  25.577  35.593  1.00  0.00     0.091 A 
ATOM     84  F   UNL A   1      42.970  25.721  34.929  1.00  0.00    -0.205 F 
ATOM     85  C   UNL A   1      46.574  26.042  35.471  1.00  0.00     0.022 A 
BRANCH  83  86
ATOM     86  S   UNL A   1      44.960  24.220  36.729  1.00  0.00     0.127 S 
ATOM     87  O   UNL A   1      44.380  23.211  35.845  1.00  0.00    -0.237 OA
ATOM     88  O   UNL A   1      46.311  23.912  37.203  1.00  0.00    -0.237 OA
ATOM     89  O   UNL A   1      44.067  24.742  37.755  1.00  0.00    -0.744 OA
ENDBRANCH  83  86
ENDBRANCH  56  79
ENDBRANCH  30  31
ENDBRANCH  22  25
ENDBRANCH  20  21
ENDBRANCH  19  20
ENDBRANCH   1  19
TORSDOF 20
ENDMDL
