MODEL 1
REMARK VINA RESULT:     -11.4      0.000      0.000
REMARK SMILES C[NH2+]CCCC(=O)N[C@H]1C=C[C@@H](C(=O)NCCCCNC(=O)c2ccc(-c3c4nc(c(-c5cccc(S(=O)(=O)[O-])c5F)c5ccc([nH]5)c(-c5cccc(S(=O)(=O)[O-])c5F)c5nc(c(-c6cccc(S(=O)(=O)[O-])c6F)c6ccc3[nH]6)C=C5)C=C4)cc2)C1
REMARK SMILES IDX 16 1 15 2 13 3 14 4 12 6 9 7 10 8 86 9 11 10 8 11 6 12 7 13
REMARK SMILES IDX 5 15 4 16 3 17 2 18 1 19 17 22 18 23 19 24 20 25 21 26 22 28
REMARK SMILES IDX 23 29 24 30 85 31 25 32 84 33 26 34 27 35 28 36 78 37 29 38
REMARK SMILES IDX 83 39 77 40 79 41 30 42 82 43 76 44 75 45 31 47 63 48 43 49
REMARK SMILES IDX 62 50 44 51 47 52 61 53 80 54 45 55 46 56 60 58 81 59 48 60
REMARK SMILES IDX 32 61 33 62 41 63 34 64 36 65 42 66 35 67 37 68 38 69 39 70
REMARK SMILES IDX 40 71 64 72 65 73 73 74 66 75 68 76 74 77 67 78 69 79 70 80
REMARK SMILES IDX 71 81 72 82 49 83 50 84 58 85 51 86 53 87 59 88 52 89 54 90
REMARK SMILES IDX 55 91 56 92 57 93
REMARK H PARENT 15 5 8 14 2 20 2 21 20 27 79 46 47 57
REMARK Flexibility Score: inf
ROOT
ATOM      1  C   UNL A   1      31.220  28.481  24.094  1.00  0.00     0.116 C 
ENDROOT
BRANCH   1   2
ATOM      2  N   UNL A   1      32.373  28.623  23.226  1.00  0.00    -0.356 N 
ATOM      3  C   UNL A   1      33.074  27.704  22.504  1.00  0.00     0.227 C 
ATOM      4  O   UNL A   1      34.001  28.127  21.803  1.00  0.00    -0.274 OA
ATOM      5  H   UNL A   1      32.710  29.545  23.145  1.00  0.00     0.163 HD
BRANCH   3   6
ATOM      6  C   UNL A   1      32.805  26.187  22.553  1.00  0.00     0.103 C 
ATOM      7  C   UNL A   1      32.350  24.492  24.270  1.00  0.00     0.106 C 
ATOM      8  C   UNL A   1      31.116  24.850  23.505  1.00  0.00    -0.006 C 
ATOM      9  C   UNL A   1      33.382  25.513  23.803  1.00  0.00     0.047 C 
ATOM     10  C   UNL A   1      31.370  25.754  22.549  1.00  0.00    -0.016 C 
BRANCH   7  11
ATOM     11  N   UNL A   1      32.058  24.283  25.679  1.00  0.00    -0.350 N 
ATOM     12  C   UNL A   1      32.055  23.241  26.548  1.00  0.00     0.220 C 
ATOM     13  O   UNL A   1      31.380  23.368  27.575  1.00  0.00    -0.275 OA
ATOM     14  H   UNL A   1      31.793  25.123  26.121  1.00  0.00     0.164 HD
BRANCH  12  15
ATOM     15  C   UNL A   1      32.922  22.026  26.367  1.00  0.00     0.106 C 
BRANCH  15  16
ATOM     16  C   UNL A   1      32.362  20.917  25.475  1.00  0.00     0.071 C 
BRANCH  16  17
ATOM     17  C   UNL A   1      33.220  19.650  25.361  1.00  0.00     0.260 C 
BRANCH  17  18
ATOM     18  N   UNL A   1      32.801  18.623  26.317  1.00  0.00    -0.349 N 
ATOM     19  C   UNL A   1      32.736  17.295  25.714  1.00  0.00     0.330 C 
ATOM     20  H   UNL A   1      33.468  18.600  27.087  1.00  0.00     0.346 HD
ATOM     21  H   UNL A   1      31.864  18.863  26.640  1.00  0.00     0.346 HD
ENDBRANCH  17  18
ENDBRANCH  16  17
ENDBRANCH  15  16
ENDBRANCH  12  15
ENDBRANCH   7  11
ENDBRANCH   3   6
ENDBRANCH   1   2
BRANCH   1  22
ATOM     22  C   UNL A   1      31.594  28.008  25.498  1.00  0.00     0.023 C 
BRANCH  22  23
ATOM     23  C   UNL A   1      31.800  29.066  26.562  1.00  0.00     0.023 C 
BRANCH  23  24
ATOM     24  C   UNL A   1      32.926  30.043  26.291  1.00  0.00     0.116 C 
BRANCH  24  25
ATOM     25  N   UNL A   1      32.722  31.386  26.822  1.00  0.00    -0.352 N 
ATOM     26  C   UNL A   1      33.580  32.147  27.592  1.00  0.00     0.251 C 
ATOM     27  H   UNL A   1      31.858  31.805  26.603  1.00  0.00     0.163 HD
ATOM     28  O   UNL A   1      33.246  33.252  27.984  1.00  0.00    -0.269 OA
BRANCH  26  29
ATOM     29  C   UNL A   1      34.891  31.572  27.974  1.00  0.00     0.039 A 
ATOM     30  C   UNL A   1      36.003  32.413  28.058  1.00  0.00     0.014 A 
ATOM     31  C   UNL A   1      34.991  30.234  28.348  1.00  0.00     0.014 A 
ATOM     32  C   UNL A   1      37.191  31.922  28.607  1.00  0.00     0.010 A 
ATOM     33  C   UNL A   1      36.120  29.794  29.021  1.00  0.00     0.010 A 
ATOM     34  C   UNL A   1      37.243  30.624  29.140  1.00  0.00    -0.014 A 
BRANCH  34  35
ATOM     35  C   UNL A   1      38.461  30.101  29.810  1.00  0.00     0.031 A 
ATOM     36  C   UNL A   1      38.817  30.576  31.196  1.00  0.00     0.074 A 
ATOM     37  C   UNL A   1      39.296  29.279  29.142  1.00  0.00     0.049 A 
ATOM     38  N   UNL A   1      39.857  30.273  31.929  1.00  0.00    -0.248 NA
ATOM     39  C   UNL A   1      37.917  31.559  31.824  1.00  0.00     0.031 C 
ATOM     40  C   UNL A   1      39.131  28.846  27.751  1.00  0.00     0.029 A 
ATOM     41  N   UNL A   1      40.462  28.674  29.537  1.00  0.00    -0.354 N 
ATOM     42  C   UNL A   1      39.758  31.062  33.070  1.00  0.00     0.074 A 
ATOM     43  C   UNL A   1      38.595  31.901  32.907  1.00  0.00     0.031 C 
ATOM     44  C   UNL A   1      40.140  28.023  27.422  1.00  0.00     0.029 A 
ATOM     45  C   UNL A   1      41.034  27.883  28.566  1.00  0.00     0.049 A 
ATOM     46  H   UNL A   1      40.854  28.793  30.433  1.00  0.00     0.167 HD
ATOM     47  C   UNL A   1      40.534  31.054  34.179  1.00  0.00     0.034 A 
ATOM     48  C   UNL A   1      42.144  27.121  28.602  1.00  0.00     0.034 A 
ATOM     49  C   UNL A   1      41.637  30.155  34.371  1.00  0.00     0.049 A 
ATOM     50  C   UNL A   1      42.921  27.037  29.889  1.00  0.00     0.074 A 
ATOM     51  C   UNL A   1      42.421  29.980  35.496  1.00  0.00     0.029 A 
ATOM     52  N   UNL A   1      42.103  29.268  33.413  1.00  0.00    -0.354 N 
ATOM     53  N   UNL A   1      42.708  27.659  31.023  1.00  0.00    -0.248 NA
ATOM     54  C   UNL A   1      44.062  26.111  29.918  1.00  0.00     0.031 C 
ATOM     55  C   UNL A   1      43.369  28.990  35.215  1.00  0.00     0.029 A 
ATOM     56  C   UNL A   1      43.161  28.536  33.922  1.00  0.00     0.049 A 
ATOM     57  H   UNL A   1      41.736  29.173  32.505  1.00  0.00     0.167 HD
ATOM     58  C   UNL A   1      43.658  27.171  31.913  1.00  0.00     0.074 A 
ATOM     59  C   UNL A   1      44.437  26.186  31.188  1.00  0.00     0.031 C 
ATOM     60  C   UNL A   1      43.878  27.515  33.205  1.00  0.00     0.034 A 
BRANCH  47  61
ATOM     61  C   UNL A   1      40.160  31.991  35.298  1.00  0.00     0.023 A 
ATOM     62  C   UNL A   1      40.852  33.212  35.442  1.00  0.00     0.012 A 
ATOM     63  C   UNL A   1      39.107  31.686  36.184  1.00  0.00     0.148 A 
ATOM     64  C   UNL A   1      40.535  34.094  36.473  1.00  0.00     0.002 A 
ATOM     65  C   UNL A   1      38.765  32.594  37.180  1.00  0.00     0.091 A 
ATOM     66  F   UNL A   1      38.477  30.512  36.048  1.00  0.00    -0.205 F 
ATOM     67  C   UNL A   1      39.485  33.790  37.335  1.00  0.00     0.022 A 
BRANCH  65  68
ATOM     68  S   UNL A   1      37.375  32.334  38.288  1.00  0.00     0.127 S 
ATOM     69  O   UNL A   1      37.836  33.009  39.502  1.00  0.00    -0.237 OA
ATOM     70  O   UNL A   1      36.289  33.019  37.587  1.00  0.00    -0.237 OA
ATOM     71  O   UNL A   1      37.213  30.892  38.397  1.00  0.00    -0.744 OA
ENDBRANCH  65  68
ENDBRANCH  47  61
BRANCH  48  72
ATOM     72  C   UNL A   1      42.516  26.288  27.423  1.00  0.00     0.023 A 
ATOM     73  C   UNL A   1      43.291  26.858  26.395  1.00  0.00     0.012 A 
ATOM     74  C   UNL A   1      42.144  24.934  27.328  1.00  0.00     0.148 A 
ATOM     75  C   UNL A   1      43.658  26.108  25.277  1.00  0.00     0.002 A 
ATOM     76  C   UNL A   1      42.557  24.176  26.237  1.00  0.00     0.091 A 
ATOM     77  F   UNL A   1      41.399  24.409  28.311  1.00  0.00    -0.205 F 
ATOM     78  C   UNL A   1      43.300  24.766  25.202  1.00  0.00     0.022 A 
BRANCH  76  79
ATOM     79  S   UNL A   1      42.254  22.409  26.123  1.00  0.00     0.127 S 
ATOM     80  O   UNL A   1      42.899  21.915  27.336  1.00  0.00    -0.237 OA
ATOM     81  O   UNL A   1      40.791  22.350  26.136  1.00  0.00    -0.237 OA
ATOM     82  O   UNL A   1      42.857  21.989  24.865  1.00  0.00    -0.744 OA
ENDBRANCH  76  79
ENDBRANCH  48  72
BRANCH  60  83
ATOM     83  C   UNL A   1      44.974  26.796  33.943  1.00  0.00     0.023 A 
ATOM     84  C   UNL A   1      46.265  27.357  34.001  1.00  0.00     0.012 A 
ATOM     85  C   UNL A   1      44.702  25.606  34.645  1.00  0.00     0.148 A 
ATOM     86  C   UNL A   1      47.278  26.726  34.722  1.00  0.00     0.002 A 
ATOM     87  C   UNL A   1      45.703  25.009  35.401  1.00  0.00     0.091 A 
ATOM     88  F   UNL A   1      43.473  25.077  34.559  1.00  0.00    -0.205 F 
ATOM     89  C   UNL A   1      46.994  25.561  35.432  1.00  0.00     0.022 A 
BRANCH  87  90
ATOM     90  S   UNL A   1      45.394  23.566  36.424  1.00  0.00     0.127 S 
ATOM     91  O   UNL A   1      45.095  24.176  37.718  1.00  0.00    -0.237 OA
ATOM     92  O   UNL A   1      44.244  22.951  35.759  1.00  0.00    -0.237 OA
ATOM     93  O   UNL A   1      46.614  22.772  36.369  1.00  0.00    -0.744 OA
ENDBRANCH  87  90
ENDBRANCH  60  83
ENDBRANCH  34  35
ENDBRANCH  26  29
ENDBRANCH  24  25
ENDBRANCH  23  24
ENDBRANCH  22  23
ENDBRANCH   1  22
TORSDOF 19
ENDMDL
MODEL 2
REMARK VINA RESULT:     -10.7      4.399      6.415
REMARK SMILES C[NH2+]CCCC(=O)N[C@H]1C=C[C@@H](C(=O)NCCCCNC(=O)c2ccc(-c3c4nc(c(-c5cccc(S(=O)(=O)[O-])c5F)c5ccc([nH]5)c(-c5cccc(S(=O)(=O)[O-])c5F)c5nc(c(-c6cccc(S(=O)(=O)[O-])c6F)c6ccc3[nH]6)C=C5)C=C4)cc2)C1
REMARK SMILES IDX 16 1 15 2 13 3 14 4 12 6 9 7 10 8 86 9 11 10 8 11 6 12 7 13
REMARK SMILES IDX 5 15 4 16 3 17 2 18 1 19 17 22 18 23 19 24 20 25 21 26 22 28
REMARK SMILES IDX 23 29 24 30 85 31 25 32 84 33 26 34 27 35 28 36 78 37 29 38
REMARK SMILES IDX 83 39 77 40 79 41 30 42 82 43 76 44 75 45 31 47 63 48 43 49
REMARK SMILES IDX 62 50 44 51 47 52 61 53 80 54 45 55 46 56 60 58 81 59 48 60
REMARK SMILES IDX 32 61 33 62 41 63 34 64 36 65 42 66 35 67 37 68 38 69 39 70
REMARK SMILES IDX 40 71 64 72 65 73 73 74 66 75 68 76 74 77 67 78 69 79 70 80
REMARK SMILES IDX 71 81 72 82 49 83 50 84 58 85 51 86 53 87 59 88 52 89 54 90
REMARK SMILES IDX 55 91 56 92 57 93
REMARK H PARENT 15 5 8 14 2 20 2 21 20 27 79 46 47 57
REMARK Flexibility Score: inf
ROOT
ATOM      1  C   UNL A   1      33.291  25.727  25.038  1.00  0.00     0.116 C 
ENDROOT
BRANCH   1   2
ATOM      2  N   UNL A   1      33.605  26.237  23.717  1.00  0.00    -0.356 N 
ATOM      3  C   UNL A   1      33.283  25.775  22.476  1.00  0.00     0.227 C 
ATOM      4  O   UNL A   1      33.652  26.453  21.510  1.00  0.00    -0.274 OA
ATOM      5  H   UNL A   1      34.144  27.060  23.716  1.00  0.00     0.163 HD
BRANCH   3   6
ATOM      6  C   UNL A   1      32.538  24.450  22.219  1.00  0.00     0.103 C 
ATOM      7  C   UNL A   1      32.681  22.123  22.988  1.00  0.00     0.106 C 
ATOM      8  C   UNL A   1      31.525  22.841  23.608  1.00  0.00    -0.006 C 
ATOM      9  C   UNL A   1      33.454  23.223  22.269  1.00  0.00     0.047 C 
ATOM     10  C   UNL A   1      31.429  24.103  23.166  1.00  0.00    -0.016 C 
BRANCH   7  11
ATOM     11  N   UNL A   1      33.321  21.228  23.939  1.00  0.00    -0.350 N 
ATOM     12  C   UNL A   1      33.168  19.944  24.351  1.00  0.00     0.220 C 
ATOM     13  O   UNL A   1      33.645  19.647  25.450  1.00  0.00    -0.275 OA
ATOM     14  H   UNL A   1      34.064  21.672  24.407  1.00  0.00     0.164 HD
BRANCH  12  15
ATOM     15  C   UNL A   1      32.565  18.875  23.482  1.00  0.00     0.106 C 
BRANCH  15  16
ATOM     16  C   UNL A   1      33.311  17.541  23.427  1.00  0.00     0.071 C 
BRANCH  16  17
ATOM     17  C   UNL A   1      33.026  16.566  24.577  1.00  0.00     0.260 C 
BRANCH  17  18
ATOM     18  N   UNL A   1      34.055  16.639  25.617  1.00  0.00    -0.349 N 
ATOM     19  C   UNL A   1      35.232  15.840  25.292  1.00  0.00     0.330 C 
ATOM     20  H   UNL A   1      34.340  17.611  25.728  1.00  0.00     0.346 HD
ATOM     21  H   UNL A   1      33.654  16.266  26.477  1.00  0.00     0.346 HD
ENDBRANCH  17  18
ENDBRANCH  16  17
ENDBRANCH  15  16
ENDBRANCH  12  15
ENDBRANCH   7  11
ENDBRANCH   3   6
ENDBRANCH   1   2
BRANCH   1  22
ATOM     22  C   UNL A   1      34.501  25.102  25.730  1.00  0.00     0.023 C 
BRANCH  22  23
ATOM     23  C   UNL A   1      34.804  23.647  25.433  1.00  0.00     0.023 C 
BRANCH  23  24
ATOM     24  C   UNL A   1      35.697  22.955  26.442  1.00  0.00     0.116 C 
BRANCH  24  25
ATOM     25  N   UNL A   1      36.313  21.717  25.976  1.00  0.00    -0.352 N 
ATOM     26  C   UNL A   1      37.653  21.444  25.782  1.00  0.00     0.251 C 
ATOM     27  H   UNL A   1      35.692  20.981  25.773  1.00  0.00     0.163 HD
ATOM     28  O   UNL A   1      38.008  20.357  25.356  1.00  0.00    -0.269 OA
BRANCH  26  29
ATOM     29  C   UNL A   1      38.643  22.511  26.052  1.00  0.00     0.039 A 
ATOM     30  C   UNL A   1      38.437  23.783  25.512  1.00  0.00     0.014 A 
ATOM     31  C   UNL A   1      39.708  22.281  26.920  1.00  0.00     0.014 A 
ATOM     32  C   UNL A   1      39.253  24.840  25.921  1.00  0.00     0.010 A 
ATOM     33  C   UNL A   1      40.420  23.355  27.430  1.00  0.00     0.010 A 
ATOM     34  C   UNL A   1      40.218  24.645  26.922  1.00  0.00    -0.014 A 
BRANCH  34  35
ATOM     35  C   UNL A   1      41.042  25.766  27.445  1.00  0.00     0.031 A 
ATOM     36  C   UNL A   1      40.431  26.769  28.390  1.00  0.00     0.074 A 
ATOM     37  C   UNL A   1      42.302  25.938  26.997  1.00  0.00     0.049 A 
ATOM     38  N   UNL A   1      40.969  27.838  28.918  1.00  0.00    -0.248 NA
ATOM     39  C   UNL A   1      39.014  26.581  28.750  1.00  0.00     0.031 C 
ATOM     40  C   UNL A   1      42.968  25.111  25.987  1.00  0.00     0.029 A 
ATOM     41  N   UNL A   1      43.247  26.880  27.323  1.00  0.00    -0.354 N 
ATOM     42  C   UNL A   1      39.949  28.465  29.625  1.00  0.00     0.074 A 
ATOM     43  C   UNL A   1      38.747  27.696  29.408  1.00  0.00     0.031 C 
ATOM     44  C   UNL A   1      44.218  25.563  25.799  1.00  0.00     0.029 A 
ATOM     45  C   UNL A   1      44.441  26.722  26.657  1.00  0.00     0.049 A 
ATOM     46  H   UNL A   1      43.085  27.602  27.973  1.00  0.00     0.167 HD
ATOM     47  C   UNL A   1      40.014  29.554  30.425  1.00  0.00     0.034 A 
ATOM     48  C   UNL A   1      45.588  27.422  26.743  1.00  0.00     0.034 A 
ATOM     49  C   UNL A   1      41.232  30.262  30.707  1.00  0.00     0.049 A 
ATOM     50  C   UNL A   1      45.671  28.555  27.732  1.00  0.00     0.074 A 
ATOM     51  C   UNL A   1      41.439  31.307  31.588  1.00  0.00     0.029 A 
ATOM     52  N   UNL A   1      42.456  29.985  30.117  1.00  0.00    -0.354 N 
ATOM     53  N   UNL A   1      44.740  29.025  28.527  1.00  0.00    -0.248 NA
ATOM     54  C   UNL A   1      46.972  29.223  27.872  1.00  0.00     0.031 C 
ATOM     55  C   UNL A   1      42.788  31.668  31.526  1.00  0.00     0.029 A 
ATOM     56  C   UNL A   1      43.425  30.834  30.619  1.00  0.00     0.049 A 
ATOM     57  H   UNL A   1      42.611  29.288  29.439  1.00  0.00     0.167 HD
ATOM     58  C   UNL A   1      45.352  30.013  29.291  1.00  0.00     0.074 A 
ATOM     59  C   UNL A   1      46.739  30.060  28.874  1.00  0.00     0.031 C 
ATOM     60  C   UNL A   1      44.813  30.819  30.239  1.00  0.00     0.034 A 
BRANCH  47  61
ATOM     61  C   UNL A   1      38.748  29.990  31.116  1.00  0.00     0.023 A 
ATOM     62  C   UNL A   1      38.500  29.571  32.440  1.00  0.00     0.012 A 
ATOM     63  C   UNL A   1      37.824  30.839  30.476  1.00  0.00     0.148 A 
ATOM     64  C   UNL A   1      37.333  29.950  33.101  1.00  0.00     0.002 A 
ATOM     65  C   UNL A   1      36.685  31.253  31.159  1.00  0.00     0.091 A 
ATOM     66  F   UNL A   1      38.063  31.208  29.210  1.00  0.00    -0.205 F 
ATOM     67  C   UNL A   1      36.432  30.799  32.465  1.00  0.00     0.022 A 
BRANCH  65  68
ATOM     68  S   UNL A   1      35.505  32.411  30.460  1.00  0.00     0.127 S 
ATOM     69  O   UNL A   1      34.510  32.500  31.528  1.00  0.00    -0.237 OA
ATOM     70  O   UNL A   1      36.320  33.614  30.287  1.00  0.00    -0.237 OA
ATOM     71  O   UNL A   1      35.040  31.810  29.219  1.00  0.00    -0.744 OA
ENDBRANCH  65  68
ENDBRANCH  47  61
BRANCH  48  72
ATOM     72  C   UNL A   1      46.782  26.999  25.958  1.00  0.00     0.023 A 
ATOM     73  C   UNL A   1      47.614  25.980  26.465  1.00  0.00     0.012 A 
ATOM     74  C   UNL A   1      47.082  27.566  24.705  1.00  0.00     0.148 A 
ATOM     75  C   UNL A   1      48.740  25.559  25.757  1.00  0.00     0.002 A 
ATOM     76  C   UNL A   1      48.176  27.105  23.980  1.00  0.00     0.091 A 
ATOM     77  F   UNL A   1      46.286  28.540  24.242  1.00  0.00    -0.205 F 
ATOM     78  C   UNL A   1      49.016  26.114  24.511  1.00  0.00     0.022 A 
BRANCH  76  79
ATOM     79  S   UNL A   1      48.529  27.669  22.311  1.00  0.00     0.127 S 
ATOM     80  O   UNL A   1      49.842  28.286  22.474  1.00  0.00    -0.237 OA
ATOM     81  O   UNL A   1      48.529  26.413  21.558  1.00  0.00    -0.237 OA
ATOM     82  O   UNL A   1      47.440  28.572  21.965  1.00  0.00    -0.744 OA
ENDBRANCH  76  79
ENDBRANCH  48  72
BRANCH  60  83
ATOM     83  C   UNL A   1      45.728  31.793  30.929  1.00  0.00     0.023 A 
ATOM     84  C   UNL A   1      45.881  33.095  30.414  1.00  0.00     0.012 A 
ATOM     85  C   UNL A   1      46.370  31.441  32.132  1.00  0.00     0.148 A 
ATOM     86  C   UNL A   1      46.688  34.024  31.072  1.00  0.00     0.002 A 
ATOM     87  C   UNL A   1      47.133  32.387  32.806  1.00  0.00     0.091 A 
ATOM     88  F   UNL A   1      46.228  30.190  32.592  1.00  0.00    -0.205 F 
ATOM     89  C   UNL A   1      47.302  33.674  32.272  1.00  0.00     0.022 A 
BRANCH  87  90
ATOM     90  S   UNL A   1      47.873  32.049  34.407  1.00  0.00     0.127 S 
ATOM     91  O   UNL A   1      48.806  30.972  34.083  1.00  0.00    -0.237 OA
ATOM     92  O   UNL A   1      48.508  33.327  34.735  1.00  0.00    -0.237 OA
ATOM     93  O   UNL A   1      46.770  31.684  35.285  1.00  0.00    -0.744 OA
ENDBRANCH  87  90
ENDBRANCH  60  83
ENDBRANCH  34  35
ENDBRANCH  26  29
ENDBRANCH  24  25
ENDBRANCH  23  24
ENDBRANCH  22  23
ENDBRANCH   1  22
TORSDOF 19
ENDMDL
MODEL 3
REMARK VINA RESULT:     -10.7      5.498     10.208
REMARK SMILES C[NH2+]CCCC(=O)N[C@H]1C=C[C@@H](C(=O)NCCCCNC(=O)c2ccc(-c3c4nc(c(-c5cccc(S(=O)(=O)[O-])c5F)c5ccc([nH]5)c(-c5cccc(S(=O)(=O)[O-])c5F)c5nc(c(-c6cccc(S(=O)(=O)[O-])c6F)c6ccc3[nH]6)C=C5)C=C4)cc2)C1
REMARK SMILES IDX 16 1 15 2 13 3 14 4 12 6 9 7 10 8 86 9 11 10 8 11 6 12 7 13
REMARK SMILES IDX 5 15 4 16 3 17 2 18 1 19 17 22 18 23 19 24 20 25 21 26 22 28
REMARK SMILES IDX 23 29 24 30 85 31 25 32 84 33 26 34 27 35 28 36 78 37 29 38
REMARK SMILES IDX 83 39 77 40 79 41 30 42 82 43 76 44 75 45 31 47 63 48 43 49
REMARK SMILES IDX 62 50 44 51 47 52 61 53 80 54 45 55 46 56 60 58 81 59 48 60
REMARK SMILES IDX 32 61 33 62 41 63 34 64 36 65 42 66 35 67 37 68 38 69 39 70
REMARK SMILES IDX 40 71 64 72 65 73 73 74 66 75 68 76 74 77 67 78 69 79 70 80
REMARK SMILES IDX 71 81 72 82 49 83 50 84 58 85 51 86 53 87 59 88 52 89 54 90
REMARK SMILES IDX 55 91 56 92 57 93
REMARK H PARENT 15 5 8 14 2 20 2 21 20 27 79 46 47 57
REMARK Flexibility Score: inf
ROOT
ATOM      1  C   UNL A   1      36.852  23.550  25.727  1.00  0.00     0.116 C 
ENDROOT
BRANCH   1   2
ATOM      2  N   UNL A   1      35.885  23.036  26.678  1.00  0.00    -0.356 N 
ATOM      3  C   UNL A   1      34.528  23.141  26.725  1.00  0.00     0.227 C 
ATOM      4  O   UNL A   1      33.949  22.548  27.644  1.00  0.00    -0.274 OA
ATOM      5  H   UNL A   1      36.278  22.520  27.419  1.00  0.00     0.163 HD
BRANCH   3   6
ATOM      6  C   UNL A   1      33.696  23.983  25.738  1.00  0.00     0.103 C 
ATOM      7  C   UNL A   1      32.430  23.607  23.669  1.00  0.00     0.106 C 
ATOM      8  C   UNL A   1      31.526  23.796  24.843  1.00  0.00    -0.006 C 
ATOM      9  C   UNL A   1      33.821  23.508  24.286  1.00  0.00     0.047 C 
ATOM     10  C   UNL A   1      32.216  24.031  25.968  1.00  0.00    -0.016 C 
BRANCH   7  11
ATOM     11  N   UNL A   1      31.917  22.591  22.763  1.00  0.00    -0.350 N 
ATOM     12  C   UNL A   1      32.066  21.254  22.584  1.00  0.00     0.220 C 
ATOM     13  O   UNL A   1      31.774  20.801  21.473  1.00  0.00    -0.275 OA
ATOM     14  H   UNL A   1      31.295  22.977  22.104  1.00  0.00     0.164 HD
BRANCH  12  15
ATOM     15  C   UNL A   1      32.443  20.320  23.700  1.00  0.00     0.106 C 
BRANCH  15  16
ATOM     16  C   UNL A   1      32.471  18.829  23.359  1.00  0.00     0.071 C 
BRANCH  16  17
ATOM     17  C   UNL A   1      32.391  17.867  24.552  1.00  0.00     0.260 C 
BRANCH  17  18
ATOM     18  N   UNL A   1      32.843  16.520  24.194  1.00  0.00    -0.349 N 
ATOM     19  C   UNL A   1      34.031  16.541  23.346  1.00  0.00     0.330 C 
ATOM     20  H   UNL A   1      33.061  16.010  25.049  1.00  0.00     0.346 HD
ATOM     21  H   UNL A   1      32.094  16.070  23.669  1.00  0.00     0.346 HD
ENDBRANCH  17  18
ENDBRANCH  16  17
ENDBRANCH  15  16
ENDBRANCH  12  15
ENDBRANCH   7  11
ENDBRANCH   3   6
ENDBRANCH   1   2
BRANCH   1  22
ATOM     22  C   UNL A   1      37.206  22.536  24.640  1.00  0.00     0.023 C 
BRANCH  22  23
ATOM     23  C   UNL A   1      37.828  21.227  25.080  1.00  0.00     0.023 C 
BRANCH  23  24
ATOM     24  C   UNL A   1      38.983  21.354  26.052  1.00  0.00     0.116 C 
BRANCH  24  25
ATOM     25  N   UNL A   1      39.969  20.282  25.986  1.00  0.00    -0.352 N 
ATOM     26  C   UNL A   1      41.323  20.341  26.256  1.00  0.00     0.251 C 
ATOM     27  H   UNL A   1      39.626  19.401  25.712  1.00  0.00     0.163 HD
ATOM     28  O   UNL A   1      42.025  19.351  26.124  1.00  0.00    -0.269 OA
BRANCH  26  29
ATOM     29  C   UNL A   1      41.913  21.638  26.657  1.00  0.00     0.039 A 
ATOM     30  C   UNL A   1      42.142  22.612  25.682  1.00  0.00     0.014 A 
ATOM     31  C   UNL A   1      42.135  21.925  28.002  1.00  0.00     0.014 A 
ATOM     32  C   UNL A   1      42.508  23.901  26.076  1.00  0.00     0.010 A 
ATOM     33  C   UNL A   1      42.357  23.236  28.395  1.00  0.00     0.010 A 
ATOM     34  C   UNL A   1      42.569  24.237  27.438  1.00  0.00    -0.014 A 
BRANCH  34  35
ATOM     35  C   UNL A   1      42.868  25.620  27.891  1.00  0.00     0.031 A 
ATOM     36  C   UNL A   1      44.292  26.115  27.900  1.00  0.00     0.074 A 
ATOM     37  C   UNL A   1      41.879  26.394  28.382  1.00  0.00     0.049 A 
ATOM     38  N   UNL A   1      44.760  27.269  28.299  1.00  0.00    -0.248 NA
ATOM     39  C   UNL A   1      45.335  25.176  27.452  1.00  0.00     0.031 C 
ATOM     40  C   UNL A   1      40.480  25.987  28.545  1.00  0.00     0.029 A 
ATOM     41  N   UNL A   1      41.902  27.683  28.854  1.00  0.00    -0.354 N 
ATOM     42  C   UNL A   1      46.143  27.172  28.196  1.00  0.00     0.074 A 
ATOM     43  C   UNL A   1      46.443  25.830  27.759  1.00  0.00     0.031 C 
ATOM     44  C   UNL A   1      39.777  27.014  29.050  1.00  0.00     0.029 A 
ATOM     45  C   UNL A   1      40.672  28.145  29.265  1.00  0.00     0.049 A 
ATOM     46  H   UNL A   1      42.722  28.227  28.893  1.00  0.00     0.167 HD
ATOM     47  C   UNL A   1      47.080  28.128  28.397  1.00  0.00     0.034 A 
ATOM     48  C   UNL A   1      40.308  29.350  29.745  1.00  0.00     0.034 A 
ATOM     49  C   UNL A   1      46.768  29.485  28.746  1.00  0.00     0.049 A 
ATOM     50  C   UNL A   1      41.350  30.434  29.844  1.00  0.00     0.074 A 
ATOM     51  C   UNL A   1      47.625  30.564  28.865  1.00  0.00     0.029 A 
ATOM     52  N   UNL A   1      45.492  29.952  29.022  1.00  0.00    -0.354 N 
ATOM     53  N   UNL A   1      42.631  30.372  29.571  1.00  0.00    -0.248 NA
ATOM     54  C   UNL A   1      40.889  31.762  30.269  1.00  0.00     0.031 C 
ATOM     55  C   UNL A   1      46.866  31.684  29.220  1.00  0.00     0.029 A 
ATOM     56  C   UNL A   1      45.535  31.306  29.304  1.00  0.00     0.049 A 
ATOM     57  H   UNL A   1      44.676  29.402  29.019  1.00  0.00     0.167 HD
ATOM     58  C   UNL A   1      43.122  31.661  29.750  1.00  0.00     0.074 A 
ATOM     59  C   UNL A   1      41.994  32.484  30.137  1.00  0.00     0.031 C 
ATOM     60  C   UNL A   1      44.391  32.119  29.622  1.00  0.00     0.034 A 
BRANCH  47  61
ATOM     61  C   UNL A   1      48.520  27.754  28.160  1.00  0.00     0.023 A 
ATOM     62  C   UNL A   1      49.261  27.152  29.199  1.00  0.00     0.012 A 
ATOM     63  C   UNL A   1      49.131  27.961  26.908  1.00  0.00     0.148 A 
ATOM     64  C   UNL A   1      50.598  26.804  29.013  1.00  0.00     0.002 A 
ATOM     65  C   UNL A   1      50.450  27.566  26.714  1.00  0.00     0.091 A 
ATOM     66  F   UNL A   1      48.420  28.555  25.940  1.00  0.00    -0.205 F 
ATOM     67  C   UNL A   1      51.189  27.001  27.768  1.00  0.00     0.022 A 
BRANCH  65  68
ATOM     68  S   UNL A   1      51.277  27.700  25.125  1.00  0.00     0.127 S 
ATOM     69  O   UNL A   1      52.557  28.296  25.508  1.00  0.00    -0.237 OA
ATOM     70  O   UNL A   1      51.359  26.302  24.703  1.00  0.00    -0.237 OA
ATOM     71  O   UNL A   1      50.420  28.535  24.296  1.00  0.00    -0.744 OA
ENDBRANCH  65  68
ENDBRANCH  47  61
BRANCH  48  72
ATOM     72  C   UNL A   1      38.877  29.629  30.054  1.00  0.00     0.023 A 
ATOM     73  C   UNL A   1      38.384  29.350  31.344  1.00  0.00     0.012 A 
ATOM     74  C   UNL A   1      38.012  30.199  29.100  1.00  0.00     0.148 A 
ATOM     75  C   UNL A   1      37.050  29.599  31.669  1.00  0.00     0.002 A 
ATOM     76  C   UNL A   1      36.697  30.494  29.446  1.00  0.00     0.091 A 
ATOM     77  F   UNL A   1      38.495  30.450  27.875  1.00  0.00    -0.205 F 
ATOM     78  C   UNL A   1      36.210  30.179  30.724  1.00  0.00     0.022 A 
BRANCH  76  79
ATOM     79  S   UNL A   1      35.583  31.361  28.335  1.00  0.00     0.127 S 
ATOM     80  O   UNL A   1      35.302  30.338  27.332  1.00  0.00    -0.237 OA
ATOM     81  O   UNL A   1      34.460  31.681  29.219  1.00  0.00    -0.237 OA
ATOM     82  O   UNL A   1      36.325  32.524  27.867  1.00  0.00    -0.744 OA
ENDBRANCH  76  79
ENDBRANCH  48  72
BRANCH  60  83
ATOM     83  C   UNL A   1      44.631  33.585  29.856  1.00  0.00     0.023 A 
ATOM     84  C   UNL A   1      44.961  34.044  31.146  1.00  0.00     0.012 A 
ATOM     85  C   UNL A   1      44.609  34.494  28.780  1.00  0.00     0.148 A 
ATOM     86  C   UNL A   1      45.235  35.393  31.368  1.00  0.00     0.002 A 
ATOM     87  C   UNL A   1      44.930  35.828  29.000  1.00  0.00     0.091 A 
ATOM     88  F   UNL A   1      44.272  34.041  27.564  1.00  0.00    -0.205 F 
ATOM     89  C   UNL A   1      45.232  36.281  30.294  1.00  0.00     0.022 A 
BRANCH  87  90
ATOM     90  S   UNL A   1      45.049  37.014  27.657  1.00  0.00     0.127 S 
ATOM     91  O   UNL A   1      46.057  36.395  26.800  1.00  0.00    -0.237 OA
ATOM     92  O   UNL A   1      43.692  37.003  27.108  1.00  0.00    -0.237 OA
ATOM     93  O   UNL A   1      45.436  38.275  28.275  1.00  0.00    -0.744 OA
ENDBRANCH  87  90
ENDBRANCH  60  83
ENDBRANCH  34  35
ENDBRANCH  26  29
ENDBRANCH  24  25
ENDBRANCH  23  24
ENDBRANCH  22  23
ENDBRANCH   1  22
TORSDOF 19
ENDMDL
