MODEL 1
REMARK VINA RESULT:     -11.1      0.000      0.000
REMARK SMILES CO[C@@H]1C[C@@H](C(=O)NCCCCNC(=O)c2ccc(-c3c4nc(c(-c5cccc(S(=O)(=O)[O-])c5F)c5ccc([nH]5)c(-c5cccc(S(=O)(=O)[O-])c5F)c5nc(c(-c6cccc(S(=O)(=O)[O-])c6F)c6ccc3[nH]6)C=C5)C=C4)cc2)N(C(=O)CSc2cccs2)C1
REMARK SMILES IDX 10 1 9 2 8 3 6 4 7 5 5 7 3 8 4 9 89 10 79 11 2 12 1 13 80 14
REMARK SMILES IDX 81 15 82 16 83 17 84 18 85 19 88 20 86 21 87 22 11 23 12 24
REMARK SMILES IDX 13 25 14 26 15 28 16 29 17 30 78 31 18 32 77 33 19 34 20 35
REMARK SMILES IDX 21 36 71 37 22 38 76 39 70 40 72 41 23 42 75 43 69 44 68 45
REMARK SMILES IDX 24 47 56 48 36 49 55 50 37 51 40 52 54 53 73 54 38 55 39 56
REMARK SMILES IDX 53 58 74 59 41 60 25 61 26 62 34 63 27 64 29 65 35 66 28 67
REMARK SMILES IDX 30 68 31 69 32 70 33 71 57 72 58 73 66 74 59 75 61 76 67 77
REMARK SMILES IDX 60 78 62 79 63 80 64 81 65 82 42 83 43 84 51 85 44 86 46 87
REMARK SMILES IDX 52 88 45 89 47 90 48 91 49 92 50 93
REMARK H PARENT 8 6 13 27 72 46 40 57
REMARK Flexibility Score: inf
ROOT
ATOM      1  C   UNL A   1      37.022  22.265  24.045  1.00  0.00     0.023 C 
ENDROOT
BRANCH   1   2
ATOM      2  C   UNL A   1      35.570  22.645  24.367  1.00  0.00     0.116 C 
BRANCH   2   3
ATOM      3  N   UNL A   1      34.903  23.070  23.151  1.00  0.00    -0.354 N 
ATOM      4  C   UNL A   1      33.559  23.294  22.997  1.00  0.00     0.242 C 
ATOM      5  O   UNL A   1      33.032  22.944  21.943  1.00  0.00    -0.273 OA
ATOM      6  H   UNL A   1      35.470  23.212  22.360  1.00  0.00     0.163 HD
BRANCH   4   7
ATOM      7  C   UNL A   1      32.779  23.986  24.134  1.00  0.00     0.177 C 
ATOM      8  C   UNL A   1      33.103  25.379  26.105  1.00  0.00     0.139 C 
ATOM      9  C   UNL A   1      33.621  25.148  24.697  1.00  0.00     0.069 C 
ATOM     10  C   UNL A   1      32.632  24.002  26.553  1.00  0.00     0.152 C 
ATOM     11  N   UNL A   1      32.480  23.193  25.348  1.00  0.00    -0.327 N 
BRANCH   8  12
ATOM     12  O   UNL A   1      32.133  26.424  26.213  1.00  0.00    -0.380 OA
ATOM     13  C   UNL A   1      32.326  27.595  25.435  1.00  0.00     0.195 C 
ENDBRANCH   8  12
BRANCH  11  14
ATOM     14  C   UNL A   1      31.885  21.955  25.495  1.00  0.00     0.233 C 
ATOM     15  O   UNL A   1      30.671  21.881  25.737  1.00  0.00    -0.274 OA
BRANCH  14  16
ATOM     16  C   UNL A   1      32.684  20.667  25.401  1.00  0.00     0.175 C 
BRANCH  16  17
ATOM     17  S   UNL A   1      32.398  19.820  23.828  1.00  0.00    -0.105 SA
BRANCH  17  18
ATOM     18  C   UNL A   1      33.061  18.225  24.147  1.00  0.00     0.060 A 
ATOM     19  C   UNL A   1      33.936  17.498  23.365  1.00  0.00     0.027 A 
ATOM     20  S   UNL A   1      32.624  17.369  25.563  1.00  0.00    -0.137 S 
ATOM     21  C   UNL A   1      34.277  16.245  23.956  1.00  0.00     0.013 A 
ATOM     22  C   UNL A   1      33.628  16.048  25.154  1.00  0.00     0.066 A 
ENDBRANCH  17  18
ENDBRANCH  16  17
ENDBRANCH  14  16
ENDBRANCH  11  14
ENDBRANCH   4   7
ENDBRANCH   2   3
ENDBRANCH   1   2
BRANCH   1  23
ATOM     23  C   UNL A   1      37.476  20.949  24.691  1.00  0.00     0.023 C 
BRANCH  23  24
ATOM     24  C   UNL A   1      38.588  21.105  25.719  1.00  0.00     0.116 C 
BRANCH  24  25
ATOM     25  N   UNL A   1      39.428  19.919  25.815  1.00  0.00    -0.352 N 
ATOM     26  C   UNL A   1      40.761  19.852  26.131  1.00  0.00     0.251 C 
ATOM     27  H   UNL A   1      38.983  19.059  25.630  1.00  0.00     0.163 HD
ATOM     28  O   UNL A   1      41.368  18.788  26.057  1.00  0.00    -0.269 OA
BRANCH  26  29
ATOM     29  C   UNL A   1      41.459  21.091  26.520  1.00  0.00     0.039 A 
ATOM     30  C   UNL A   1      42.042  21.875  25.523  1.00  0.00     0.014 A 
ATOM     31  C   UNL A   1      41.466  21.505  27.855  1.00  0.00     0.014 A 
ATOM     32  C   UNL A   1      42.574  23.122  25.857  1.00  0.00     0.010 A 
ATOM     33  C   UNL A   1      41.951  22.767  28.176  1.00  0.00     0.010 A 
ATOM     34  C   UNL A   1      42.496  23.591  27.178  1.00  0.00    -0.014 A 
BRANCH  34  35
ATOM     35  C   UNL A   1      42.920  24.967  27.531  1.00  0.00     0.031 A 
ATOM     36  C   UNL A   1      41.930  25.945  28.094  1.00  0.00     0.074 A 
ATOM     37  C   UNL A   1      44.169  25.366  27.219  1.00  0.00     0.049 A 
ATOM     38  N   UNL A   1      42.099  27.208  28.383  1.00  0.00    -0.248 NA
ATOM     39  C   UNL A   1      40.565  25.449  28.336  1.00  0.00     0.031 C 
ATOM     40  C   UNL A   1      45.188  24.530  26.577  1.00  0.00     0.029 A 
ATOM     41  N   UNL A   1      44.781  26.587  27.358  1.00  0.00    -0.354 N 
ATOM     42  C   UNL A   1      40.857  27.669  28.803  1.00  0.00     0.074 A 
ATOM     43  C   UNL A   1      39.939  26.555  28.715  1.00  0.00     0.031 C 
ATOM     44  C   UNL A   1      46.288  25.268  26.360  1.00  0.00     0.029 A 
ATOM     45  C   UNL A   1      46.049  26.630  26.827  1.00  0.00     0.049 A 
ATOM     46  H   UNL A   1      44.353  27.357  27.795  1.00  0.00     0.167 HD
ATOM     47  C   UNL A   1      40.524  28.903  29.249  1.00  0.00     0.034 A 
ATOM     48  C   UNL A   1      46.917  27.655  26.714  1.00  0.00     0.034 A 
ATOM     49  C   UNL A   1      41.457  29.986  29.395  1.00  0.00     0.049 A 
ATOM     50  C   UNL A   1      46.533  29.000  27.266  1.00  0.00     0.074 A 
ATOM     51  C   UNL A   1      41.254  31.222  29.981  1.00  0.00     0.029 A 
ATOM     52  N   UNL A   1      42.765  29.969  28.936  1.00  0.00    -0.354 N 
ATOM     53  N   UNL A   1      45.422  29.358  27.863  1.00  0.00    -0.248 NA
ATOM     54  C   UNL A   1      47.530  30.075  27.155  1.00  0.00     0.031 C 
ATOM     55  C   UNL A   1      42.435  31.962  29.861  1.00  0.00     0.029 A 
ATOM     56  C   UNL A   1      43.374  31.183  29.204  1.00  0.00     0.049 A 
ATOM     57  H   UNL A   1      43.196  29.207  28.488  1.00  0.00     0.167 HD
ATOM     58  C   UNL A   1      45.593  30.692  28.216  1.00  0.00     0.074 A 
ATOM     59  C   UNL A   1      46.925  31.070  27.792  1.00  0.00     0.031 C 
ATOM     60  C   UNL A   1      44.715  31.533  28.815  1.00  0.00     0.034 A 
BRANCH  47  61
ATOM     61  C   UNL A   1      39.103  29.133  29.683  1.00  0.00     0.023 A 
ATOM     62  C   UNL A   1      38.715  28.777  30.990  1.00  0.00     0.012 A 
ATOM     63  C   UNL A   1      38.178  29.768  28.832  1.00  0.00     0.148 A 
ATOM     64  C   UNL A   1      37.420  29.033  31.439  1.00  0.00     0.002 A 
ATOM     65  C   UNL A   1      36.898  30.050  29.299  1.00  0.00     0.091 A 
ATOM     66  F   UNL A   1      38.561  30.075  27.585  1.00  0.00    -0.205 F 
ATOM     67  C   UNL A   1      36.518  29.678  30.600  1.00  0.00     0.022 A 
BRANCH  65  68
ATOM     68  S   UNL A   1      35.683  30.935  28.317  1.00  0.00     0.127 S 
ATOM     69  O   UNL A   1      36.457  32.087  27.858  1.00  0.00    -0.237 OA
ATOM     70  O   UNL A   1      35.363  29.962  27.271  1.00  0.00    -0.237 OA
ATOM     71  O   UNL A   1      34.582  31.239  29.220  1.00  0.00    -0.744 OA
ENDBRANCH  65  68
ENDBRANCH  47  61
BRANCH  48  72
ATOM     72  C   UNL A   1      48.254  27.429  26.100  1.00  0.00     0.023 A 
ATOM     73  C   UNL A   1      49.325  27.013  26.913  1.00  0.00     0.012 A 
ATOM     74  C   UNL A   1      48.462  27.584  24.716  1.00  0.00     0.148 A 
ATOM     75  C   UNL A   1      50.587  26.778  26.363  1.00  0.00     0.002 A 
ATOM     76  C   UNL A   1      49.708  27.297  24.167  1.00  0.00     0.091 A 
ATOM     77  F   UNL A   1      47.438  28.001  23.959  1.00  0.00    -0.205 F 
ATOM     78  C   UNL A   1      50.775  26.908  24.990  1.00  0.00     0.022 A 
BRANCH  76  79
ATOM     79  S   UNL A   1      49.981  27.309  22.390  1.00  0.00     0.127 S 
ATOM     80  O   UNL A   1      49.778  28.717  22.065  1.00  0.00    -0.237 OA
ATOM     81  O   UNL A   1      51.365  26.845  22.285  1.00  0.00    -0.237 OA
ATOM     82  O   UNL A   1      49.001  26.375  21.851  1.00  0.00    -0.744 OA
ENDBRANCH  76  79
ENDBRANCH  48  72
BRANCH  60  83
ATOM     83  C   UNL A   1      45.157  32.952  29.046  1.00  0.00     0.023 A 
ATOM     84  C   UNL A   1      45.858  33.270  30.226  1.00  0.00     0.012 A 
ATOM     85  C   UNL A   1      44.962  33.945  28.067  1.00  0.00     0.148 A 
ATOM     86  C   UNL A   1      46.341  34.559  30.438  1.00  0.00     0.002 A 
ATOM     87  C   UNL A   1      45.481  35.219  28.267  1.00  0.00     0.091 A 
ATOM     88  F   UNL A   1      44.275  33.626  26.960  1.00  0.00    -0.205 F 
ATOM     89  C   UNL A   1      46.163  35.530  29.455  1.00  0.00     0.022 A 
BRANCH  87  90
ATOM     90  S   UNL A   1      45.379  36.506  27.018  1.00  0.00     0.127 S 
ATOM     91  O   UNL A   1      46.085  35.889  25.896  1.00  0.00    -0.237 OA
ATOM     92  O   UNL A   1      43.936  36.645  26.828  1.00  0.00    -0.237 OA
ATOM     93  O   UNL A   1      46.027  37.677  27.597  1.00  0.00    -0.744 OA
ENDBRANCH  87  90
ENDBRANCH  60  83
ENDBRANCH  34  35
ENDBRANCH  26  29
ENDBRANCH  24  25
ENDBRANCH  23  24
ENDBRANCH   1  23
TORSDOF 19
ENDMDL
MODEL 2
REMARK VINA RESULT:     -11.1      6.653     11.740
REMARK SMILES CO[C@@H]1C[C@@H](C(=O)NCCCCNC(=O)c2ccc(-c3c4nc(c(-c5cccc(S(=O)(=O)[O-])c5F)c5ccc([nH]5)c(-c5cccc(S(=O)(=O)[O-])c5F)c5nc(c(-c6cccc(S(=O)(=O)[O-])c6F)c6ccc3[nH]6)C=C5)C=C4)cc2)N(C(=O)CSc2cccs2)C1
REMARK SMILES IDX 10 1 9 2 8 3 6 4 7 5 5 7 3 8 4 9 89 10 79 11 2 12 1 13 80 14
REMARK SMILES IDX 81 15 82 16 83 17 84 18 85 19 88 20 86 21 87 22 11 23 12 24
REMARK SMILES IDX 13 25 14 26 15 28 16 29 17 30 78 31 18 32 77 33 19 34 20 35
REMARK SMILES IDX 21 36 71 37 22 38 76 39 70 40 72 41 23 42 75 43 69 44 68 45
REMARK SMILES IDX 24 47 56 48 36 49 55 50 37 51 40 52 54 53 73 54 38 55 39 56
REMARK SMILES IDX 53 58 74 59 41 60 25 61 26 62 34 63 27 64 29 65 35 66 28 67
REMARK SMILES IDX 30 68 31 69 32 70 33 71 57 72 58 73 66 74 59 75 61 76 67 77
REMARK SMILES IDX 60 78 62 79 63 80 64 81 65 82 42 83 43 84 51 85 44 86 46 87
REMARK SMILES IDX 52 88 45 89 47 90 48 91 49 92 50 93
REMARK H PARENT 8 6 13 27 72 46 40 57
REMARK Flexibility Score: inf
ROOT
ATOM      1  C   UNL A   1      32.517  30.065  25.600  1.00  0.00     0.023 C 
ENDROOT
BRANCH   1   2
ATOM      2  C   UNL A   1      33.322  28.777  25.822  1.00  0.00     0.116 C 
BRANCH   2   3
ATOM      3  N   UNL A   1      32.538  27.850  26.616  1.00  0.00    -0.354 N 
ATOM      4  C   UNL A   1      31.710  26.868  26.139  1.00  0.00     0.242 C 
ATOM      5  O   UNL A   1      30.650  26.668  26.729  1.00  0.00    -0.273 OA
ATOM      6  H   UNL A   1      32.608  27.935  27.595  1.00  0.00     0.163 HD
BRANCH   4   7
ATOM      7  C   UNL A   1      32.150  26.051  24.906  1.00  0.00     0.177 C 
ATOM      8  C   UNL A   1      34.128  25.417  23.636  1.00  0.00     0.139 C 
ATOM      9  C   UNL A   1      33.636  25.670  25.050  1.00  0.00     0.069 C 
ATOM     10  C   UNL A   1      33.276  26.345  22.780  1.00  0.00     0.152 C 
ATOM     11  N   UNL A   1      32.120  26.723  23.587  1.00  0.00    -0.327 N 
BRANCH   8  12
ATOM     12  O   UNL A   1      34.122  24.042  23.244  1.00  0.00    -0.380 OA
ATOM     13  C   UNL A   1      35.288  23.274  23.495  1.00  0.00     0.195 C 
ENDBRANCH   8  12
BRANCH  11  14
ATOM     14  C   UNL A   1      31.111  27.419  22.949  1.00  0.00     0.233 C 
ATOM     15  O   UNL A   1      30.877  27.202  21.751  1.00  0.00    -0.274 OA
BRANCH  14  16
ATOM     16  C   UNL A   1      30.291  28.477  23.667  1.00  0.00     0.175 C 
BRANCH  16  17
ATOM     17  S   UNL A   1      28.598  28.549  23.034  1.00  0.00    -0.105 SA
BRANCH  17  18
ATOM     18  C   UNL A   1      28.489  30.210  22.473  1.00  0.00     0.060 A 
ATOM     19  C   UNL A   1      28.177  30.658  21.205  1.00  0.00     0.027 A 
ATOM     20  S   UNL A   1      28.806  31.510  23.539  1.00  0.00    -0.137 S 
ATOM     21  C   UNL A   1      28.162  32.081  21.123  1.00  0.00     0.013 A 
ATOM     22  C   UNL A   1      28.490  32.669  22.323  1.00  0.00     0.066 A 
ENDBRANCH  17  18
ENDBRANCH  16  17
ENDBRANCH  14  16
ENDBRANCH  11  14
ENDBRANCH   4   7
ENDBRANCH   2   3
ENDBRANCH   1   2
BRANCH   1  23
ATOM     23  C   UNL A   1      32.192  30.823  26.894  1.00  0.00     0.023 C 
BRANCH  23  24
ATOM     24  C   UNL A   1      33.282  31.782  27.350  1.00  0.00     0.116 C 
BRANCH  24  25
ATOM     25  N   UNL A   1      32.784  33.136  27.552  1.00  0.00    -0.352 N 
ATOM     26  C   UNL A   1      33.214  34.065  28.465  1.00  0.00     0.251 C 
ATOM     27  H   UNL A   1      32.049  33.418  26.961  1.00  0.00     0.163 HD
ATOM     28  O   UNL A   1      32.617  35.130  28.602  1.00  0.00    -0.269 OA
BRANCH  26  29
ATOM     29  C   UNL A   1      34.380  33.744  29.309  1.00  0.00     0.039 A 
ATOM     30  C   UNL A   1      34.193  32.940  30.435  1.00  0.00     0.014 A 
ATOM     31  C   UNL A   1      35.657  34.174  28.938  1.00  0.00     0.014 A 
ATOM     32  C   UNL A   1      35.306  32.503  31.156  1.00  0.00     0.010 A 
ATOM     33  C   UNL A   1      36.765  33.698  29.628  1.00  0.00     0.010 A 
ATOM     34  C   UNL A   1      36.600  32.848  30.733  1.00  0.00    -0.014 A 
BRANCH  34  35
ATOM     35  C   UNL A   1      37.800  32.281  31.392  1.00  0.00     0.031 A 
ATOM     36  C   UNL A   1      38.538  31.133  30.767  1.00  0.00     0.074 A 
ATOM     37  C   UNL A   1      38.141  32.721  32.620  1.00  0.00     0.049 A 
ATOM     38  N   UNL A   1      39.553  30.458  31.236  1.00  0.00    -0.248 NA
ATOM     39  C   UNL A   1      38.055  30.662  29.458  1.00  0.00     0.031 C 
ATOM     40  C   UNL A   1      37.435  33.765  33.369  1.00  0.00     0.029 A 
ATOM     41  N   UNL A   1      39.138  32.318  33.472  1.00  0.00    -0.354 N 
ATOM     42  C   UNL A   1      39.808  29.460  30.303  1.00  0.00     0.074 A 
ATOM     43  C   UNL A   1      38.829  29.606  29.248  1.00  0.00     0.031 C 
ATOM     44  C   UNL A   1      38.009  33.904  34.575  1.00  0.00     0.029 A 
ATOM     45  C   UNL A   1      39.107  32.949  34.694  1.00  0.00     0.049 A 
ATOM     46  H   UNL A   1      39.811  31.641  33.232  1.00  0.00     0.167 HD
ATOM     47  C   UNL A   1      40.788  28.527  30.315  1.00  0.00     0.034 A 
ATOM     48  C   UNL A   1      39.867  32.770  35.792  1.00  0.00     0.034 A 
ATOM     49  C   UNL A   1      41.796  28.429  31.335  1.00  0.00     0.049 A 
ATOM     50  C   UNL A   1      40.980  31.759  35.752  1.00  0.00     0.074 A 
ATOM     51  C   UNL A   1      42.919  27.622  31.358  1.00  0.00     0.029 A 
ATOM     52  N   UNL A   1      41.795  29.151  32.518  1.00  0.00    -0.354 N 
ATOM     53  N   UNL A   1      41.342  30.973  34.768  1.00  0.00    -0.248 NA
ATOM     54  C   UNL A   1      41.806  31.630  36.961  1.00  0.00     0.031 C 
ATOM     55  C   UNL A   1      43.589  27.842  32.566  1.00  0.00     0.029 A 
ATOM     56  C   UNL A   1      42.884  28.790  33.291  1.00  0.00     0.049 A 
ATOM     57  H   UNL A   1      41.119  29.821  32.770  1.00  0.00     0.167 HD
ATOM     58  C   UNL A   1      42.448  30.269  35.231  1.00  0.00     0.074 A 
ATOM     59  C   UNL A   1      42.715  30.744  36.573  1.00  0.00     0.031 C 
ATOM     60  C   UNL A   1      43.163  29.301  34.607  1.00  0.00     0.034 A 
BRANCH  47  61
ATOM     61  C   UNL A   1      40.866  27.575  29.152  1.00  0.00     0.023 A 
ATOM     62  C   UNL A   1      40.024  26.447  29.128  1.00  0.00     0.012 A 
ATOM     63  C   UNL A   1      41.708  27.838  28.055  1.00  0.00     0.148 A 
ATOM     64  C   UNL A   1      40.031  25.580  28.036  1.00  0.00     0.002 A 
ATOM     65  C   UNL A   1      41.686  26.987  26.955  1.00  0.00     0.091 A 
ATOM     66  F   UNL A   1      42.519  28.904  28.111  1.00  0.00    -0.205 F 
ATOM     67  C   UNL A   1      40.852  25.856  26.947  1.00  0.00     0.022 A 
BRANCH  65  68
ATOM     68  S   UNL A   1      42.659  27.291  25.476  1.00  0.00     0.127 S 
ATOM     69  O   UNL A   1      44.016  27.330  26.020  1.00  0.00    -0.237 OA
ATOM     70  O   UNL A   1      42.363  26.110  24.663  1.00  0.00    -0.237 OA
ATOM     71  O   UNL A   1      42.169  28.546  24.924  1.00  0.00    -0.744 OA
ENDBRANCH  65  68
ENDBRANCH  47  61
BRANCH  48  72
ATOM     72  C   UNL A   1      39.632  33.607  37.000  1.00  0.00     0.023 A 
ATOM     73  C   UNL A   1      40.101  34.934  37.022  1.00  0.00     0.012 A 
ATOM     74  C   UNL A   1      38.915  33.114  38.107  1.00  0.00     0.148 A 
ATOM     75  C   UNL A   1      39.882  35.749  38.135  1.00  0.00     0.002 A 
ATOM     76  C   UNL A   1      38.655  33.947  39.190  1.00  0.00     0.091 A 
ATOM     77  F   UNL A   1      38.494  31.842  38.079  1.00  0.00    -0.205 F 
ATOM     78  C   UNL A   1      39.149  35.259  39.213  1.00  0.00     0.022 A 
BRANCH  76  79
ATOM     79  S   UNL A   1      37.599  33.426  40.549  1.00  0.00     0.127 S 
ATOM     80  O   UNL A   1      38.369  32.329  41.124  1.00  0.00    -0.237 OA
ATOM     81  O   UNL A   1      37.535  34.634  41.374  1.00  0.00    -0.237 OA
ATOM     82  O   UNL A   1      36.331  33.067  39.926  1.00  0.00    -0.744 OA
ENDBRANCH  76  79
ENDBRANCH  48  72
BRANCH  60  83
ATOM     83  C   UNL A   1      44.302  28.677  35.368  1.00  0.00     0.023 A 
ATOM     84  C   UNL A   1      45.602  29.194  35.203  1.00  0.00     0.012 A 
ATOM     85  C   UNL A   1      44.077  27.649  36.303  1.00  0.00     0.148 A 
ATOM     86  C   UNL A   1      46.666  28.684  35.944  1.00  0.00     0.002 A 
ATOM     87  C   UNL A   1      45.136  27.173  37.069  1.00  0.00     0.091 A 
ATOM     88  F   UNL A   1      42.836  27.159  36.430  1.00  0.00    -0.205 F 
ATOM     89  C   UNL A   1      46.432  27.683  36.884  1.00  0.00     0.022 A 
BRANCH  87  90
ATOM     90  S   UNL A   1      44.913  25.950  38.365  1.00  0.00     0.127 S 
ATOM     91  O   UNL A   1      44.512  24.772  37.597  1.00  0.00    -0.237 OA
ATOM     92  O   UNL A   1      46.249  25.868  38.953  1.00  0.00    -0.237 OA
ATOM     93  O   UNL A   1      43.895  26.493  39.255  1.00  0.00    -0.744 OA
ENDBRANCH  87  90
ENDBRANCH  60  83
ENDBRANCH  34  35
ENDBRANCH  26  29
ENDBRANCH  24  25
ENDBRANCH  23  24
ENDBRANCH   1  23
TORSDOF 19
ENDMDL
MODEL 3
REMARK VINA RESULT:     -11.0      5.600     10.265
REMARK SMILES CO[C@@H]1C[C@@H](C(=O)NCCCCNC(=O)c2ccc(-c3c4nc(c(-c5cccc(S(=O)(=O)[O-])c5F)c5ccc([nH]5)c(-c5cccc(S(=O)(=O)[O-])c5F)c5nc(c(-c6cccc(S(=O)(=O)[O-])c6F)c6ccc3[nH]6)C=C5)C=C4)cc2)N(C(=O)CSc2cccs2)C1
REMARK SMILES IDX 10 1 9 2 8 3 6 4 7 5 5 7 3 8 4 9 89 10 79 11 2 12 1 13 80 14
REMARK SMILES IDX 81 15 82 16 83 17 84 18 85 19 88 20 86 21 87 22 11 23 12 24
REMARK SMILES IDX 13 25 14 26 15 28 16 29 17 30 78 31 18 32 77 33 19 34 20 35
REMARK SMILES IDX 21 36 71 37 22 38 76 39 70 40 72 41 23 42 75 43 69 44 68 45
REMARK SMILES IDX 24 47 56 48 36 49 55 50 37 51 40 52 54 53 73 54 38 55 39 56
REMARK SMILES IDX 53 58 74 59 41 60 25 61 26 62 34 63 27 64 29 65 35 66 28 67
REMARK SMILES IDX 30 68 31 69 32 70 33 71 57 72 58 73 66 74 59 75 61 76 67 77
REMARK SMILES IDX 60 78 62 79 63 80 64 81 65 82 42 83 43 84 51 85 44 86 46 87
REMARK SMILES IDX 52 88 45 89 47 90 48 91 49 92 50 93
REMARK H PARENT 8 6 13 27 72 46 40 57
REMARK Flexibility Score: inf
ROOT
ATOM      1  C   UNL A   1      32.583  28.270  27.507  1.00  0.00     0.023 C 
ENDROOT
BRANCH   1   2
ATOM      2  C   UNL A   1      33.689  27.860  26.524  1.00  0.00     0.116 C 
BRANCH   2   3
ATOM      3  N   UNL A   1      33.460  26.499  26.081  1.00  0.00    -0.354 N 
ATOM      4  C   UNL A   1      32.463  26.074  25.240  1.00  0.00     0.242 C 
ATOM      5  O   UNL A   1      31.923  24.997  25.481  1.00  0.00    -0.273 OA
ATOM      6  H   UNL A   1      34.080  25.812  26.417  1.00  0.00     0.163 HD
BRANCH   4   7
ATOM      7  C   UNL A   1      32.083  26.949  24.028  1.00  0.00     0.177 C 
ATOM      8  C   UNL A   1      30.159  27.700  22.737  1.00  0.00     0.139 C 
ATOM      9  C   UNL A   1      30.608  27.380  24.152  1.00  0.00     0.069 C 
ATOM     10  C   UNL A   1      30.997  26.772  21.868  1.00  0.00     0.152 C 
ATOM     11  N   UNL A   1      32.119  26.323  22.686  1.00  0.00    -0.327 N 
BRANCH   8  12
ATOM     12  O   UNL A   1      30.225  29.087  22.395  1.00  0.00    -0.380 OA
ATOM     13  C   UNL A   1      29.062  29.876  22.592  1.00  0.00     0.195 C 
ENDBRANCH   8  12
BRANCH  11  14
ATOM     14  C   UNL A   1      33.117  25.613  22.046  1.00  0.00     0.233 C 
ATOM     15  O   UNL A   1      33.468  25.940  20.903  1.00  0.00    -0.274 OA
BRANCH  14  16
ATOM     16  C   UNL A   1      33.784  24.411  22.693  1.00  0.00     0.175 C 
BRANCH  16  17
ATOM     17  S   UNL A   1      32.794  22.911  22.487  1.00  0.00    -0.105 SA
BRANCH  17  18
ATOM     18  C   UNL A   1      33.317  21.939  23.853  1.00  0.00     0.060 A 
ATOM     19  C   UNL A   1      32.665  20.870  24.434  1.00  0.00     0.027 A 
ATOM     20  S   UNL A   1      34.793  22.281  24.649  1.00  0.00    -0.137 S 
ATOM     21  C   UNL A   1      33.404  20.307  25.515  1.00  0.00     0.013 A 
ATOM     22  C   UNL A   1      34.581  20.983  25.741  1.00  0.00     0.066 A 
ENDBRANCH  17  18
ENDBRANCH  16  17
ENDBRANCH  14  16
ENDBRANCH  11  14
ENDBRANCH   4   7
ENDBRANCH   2   3
ENDBRANCH   1   2
BRANCH   1  23
ATOM     23  C   UNL A   1      31.734  29.454  27.025  1.00  0.00     0.023 C 
BRANCH  23  24
ATOM     24  C   UNL A   1      32.504  30.492  26.222  1.00  0.00     0.116 C 
BRANCH  24  25
ATOM     25  N   UNL A   1      32.219  31.854  26.655  1.00  0.00    -0.352 N 
ATOM     26  C   UNL A   1      32.986  32.663  27.455  1.00  0.00     0.251 C 
ATOM     27  H   UNL A   1      31.372  32.240  26.335  1.00  0.00     0.163 HD
ATOM     28  O   UNL A   1      32.561  33.749  27.836  1.00  0.00    -0.269 OA
BRANCH  26  29
ATOM     29  C   UNL A   1      34.313  32.183  27.882  1.00  0.00     0.039 A 
ATOM     30  C   UNL A   1      35.382  33.082  27.888  1.00  0.00     0.014 A 
ATOM     31  C   UNL A   1      34.474  30.874  28.344  1.00  0.00     0.014 A 
ATOM     32  C   UNL A   1      36.606  32.685  28.431  1.00  0.00     0.010 A 
ATOM     33  C   UNL A   1      35.677  30.498  28.929  1.00  0.00     0.010 A 
ATOM     34  C   UNL A   1      36.748  31.404  28.989  1.00  0.00    -0.014 A 
BRANCH  34  35
ATOM     35  C   UNL A   1      37.987  31.009  29.700  1.00  0.00     0.031 A 
ATOM     36  C   UNL A   1      38.932  30.018  29.084  1.00  0.00     0.074 A 
ATOM     37  C   UNL A   1      38.186  31.448  30.959  1.00  0.00     0.049 A 
ATOM     38  N   UNL A   1      40.016  29.494  29.591  1.00  0.00    -0.248 NA
ATOM     39  C   UNL A   1      38.601  29.530  27.734  1.00  0.00     0.031 C 
ATOM     40  C   UNL A   1      37.283  32.335  31.697  1.00  0.00     0.029 A 
ATOM     41  N   UNL A   1      39.188  31.173  31.856  1.00  0.00    -0.354 N 
ATOM     42  C   UNL A   1      40.477  28.588  28.645  1.00  0.00     0.074 A 
ATOM     43  C   UNL A   1      39.545  28.619  27.539  1.00  0.00     0.031 C 
ATOM     44  C   UNL A   1      37.762  32.514  32.939  1.00  0.00     0.029 A 
ATOM     45  C   UNL A   1      38.991  31.742  33.093  1.00  0.00     0.049 A 
ATOM     46  H   UNL A   1      39.973  30.622  31.635  1.00  0.00     0.167 HD
ATOM     47  C   UNL A   1      41.592  27.822  28.685  1.00  0.00     0.034 A 
ATOM     48  C   UNL A   1      39.710  31.641  34.228  1.00  0.00     0.034 A 
ATOM     49  C   UNL A   1      42.546  27.845  29.759  1.00  0.00     0.049 A 
ATOM     50  C   UNL A   1      40.971  30.823  34.222  1.00  0.00     0.074 A 
ATOM     51  C   UNL A   1      43.782  27.226  29.824  1.00  0.00     0.029 A 
ATOM     52  N   UNL A   1      42.366  28.509  30.962  1.00  0.00    -0.354 N 
ATOM     53  N   UNL A   1      41.507  30.144  33.237  1.00  0.00    -0.248 NA
ATOM     54  C   UNL A   1      41.742  30.777  35.474  1.00  0.00     0.031 C 
ATOM     55  C   UNL A   1      44.342  27.501  31.076  1.00  0.00     0.029 A 
ATOM     56  C   UNL A   1      43.456  28.294  31.787  1.00  0.00     0.049 A 
ATOM     57  H   UNL A   1      41.580  29.053  31.195  1.00  0.00     0.167 HD
ATOM     58  C   UNL A   1      42.686  29.606  33.743  1.00  0.00     0.074 A 
ATOM     59  C   UNL A   1      42.800  30.063  35.112  1.00  0.00     0.031 C 
ATOM     60  C   UNL A   1      43.579  28.790  33.133  1.00  0.00     0.034 A 
BRANCH  47  61
ATOM     61  C   UNL A   1      41.884  26.943  27.500  1.00  0.00     0.023 A 
ATOM     62  C   UNL A   1      42.532  27.494  26.377  1.00  0.00     0.012 A 
ATOM     63  C   UNL A   1      41.591  25.566  27.528  1.00  0.00     0.148 A 
ATOM     64  C   UNL A   1      42.870  26.690  25.289  1.00  0.00     0.002 A 
ATOM     65  C   UNL A   1      41.961  24.765  26.453  1.00  0.00     0.091 A 
ATOM     66  F   UNL A   1      40.952  25.069  28.596  1.00  0.00    -0.205 F 
ATOM     67  C   UNL A   1      42.594  25.327  25.331  1.00  0.00     0.022 A 
BRANCH  65  68
ATOM     68  S   UNL A   1      41.708  22.986  26.439  1.00  0.00     0.127 S 
ATOM     69  O   UNL A   1      42.384  22.603  25.201  1.00  0.00    -0.237 OA
ATOM     70  O   UNL A   1      42.393  22.567  27.663  1.00  0.00    -0.237 OA
ATOM     71  O   UNL A   1      40.265  22.787  26.453  1.00  0.00    -0.744 OA
ENDBRANCH  65  68
ENDBRANCH  47  61
BRANCH  48  72
ATOM     72  C   UNL A   1      39.279  32.382  35.446  1.00  0.00     0.023 A 
ATOM     73  C   UNL A   1      38.401  31.762  36.355  1.00  0.00     0.012 A 
ATOM     74  C   UNL A   1      39.761  33.674  35.728  1.00  0.00     0.148 A 
ATOM     75  C   UNL A   1      37.992  32.425  37.513  1.00  0.00     0.002 A 
ATOM     76  C   UNL A   1      39.391  34.308  36.909  1.00  0.00     0.091 A 
ATOM     77  F   UNL A   1      40.579  34.258  34.841  1.00  0.00    -0.205 F 
ATOM     78  C   UNL A   1      38.495  33.692  37.796  1.00  0.00     0.022 A 
BRANCH  76  79
ATOM     79  S   UNL A   1      40.111  35.879  37.403  1.00  0.00     0.127 S 
ATOM     80  O   UNL A   1      39.723  36.748  36.297  1.00  0.00    -0.237 OA
ATOM     81  O   UNL A   1      39.429  36.150  38.670  1.00  0.00    -0.237 OA
ATOM     82  O   UNL A   1      41.537  35.613  37.544  1.00  0.00    -0.744 OA
ENDBRANCH  76  79
ENDBRANCH  48  72
BRANCH  60  83
ATOM     83  C   UNL A   1      44.761  28.325  33.940  1.00  0.00     0.023 A 
ATOM     84  C   UNL A   1      45.918  29.127  33.988  1.00  0.00     0.012 A 
ATOM     85  C   UNL A   1      44.698  27.151  34.715  1.00  0.00     0.148 A 
ATOM     86  C   UNL A   1      47.003  28.758  34.780  1.00  0.00     0.002 A 
ATOM     87  C   UNL A   1      45.768  26.810  35.535  1.00  0.00     0.091 A 
ATOM     88  F   UNL A   1      43.595  26.393  34.639  1.00  0.00    -0.205 F 
ATOM     89  C   UNL A   1      46.924  27.608  35.562  1.00  0.00     0.022 A 
BRANCH  87  90
ATOM     90  S   UNL A   1      45.720  25.397  36.643  1.00  0.00     0.127 S 
ATOM     91  O   UNL A   1      47.032  25.476  37.283  1.00  0.00    -0.237 OA
ATOM     92  O   UNL A   1      44.594  25.723  37.518  1.00  0.00    -0.237 OA
ATOM     93  O   UNL A   1      45.506  24.232  35.794  1.00  0.00    -0.744 OA
ENDBRANCH  87  90
ENDBRANCH  60  83
ENDBRANCH  34  35
ENDBRANCH  26  29
ENDBRANCH  24  25
ENDBRANCH  23  24
ENDBRANCH   1  23
TORSDOF 19
ENDMDL
