MODEL 1
REMARK VINA RESULT:      -9.9      0.000      0.000
REMARK SMILES CC[C@H](C)N(CC(=O)NCCCCNC(=O)c1ccc(-c2c3nc(c(-c4cccc(S(=O)(=O)[O-])c4F)c4ccc([nH]4)c(-c4cccc(S(=O)(=O)[O-])c4F)c4nc(c(-c5cccc(S(=O)(=O)[O-])c5F)c5ccc2[nH]5)C=C4)C=C3)cc1)C(=O)N(C)[C@@H](C)Cc1cccs1
REMARK SMILES IDX 10 1 9 2 7 3 8 4 6 6 5 7 3 8 4 9 2 10 1 11 80 12 81 13 82 14
REMARK SMILES IDX 83 15 84 16 85 17 86 18 87 19 88 20 91 21 89 22 90 23 11 24
REMARK SMILES IDX 12 25 13 26 14 27 15 28 16 30 17 31 18 32 79 33 19 34 78 35
REMARK SMILES IDX 20 36 21 37 22 38 72 39 23 40 77 41 71 42 73 43 24 44 76 45
REMARK SMILES IDX 70 46 69 47 25 49 57 50 37 51 56 52 38 53 41 54 55 55 74 56
REMARK SMILES IDX 39 57 40 58 54 60 75 61 42 62 26 63 27 64 35 65 28 66 30 67
REMARK SMILES IDX 36 68 29 69 31 70 32 71 33 72 34 73 58 74 59 75 67 76 60 77
REMARK SMILES IDX 62 78 68 79 61 80 63 81 64 82 65 83 66 84 43 85 44 86 52 87
REMARK SMILES IDX 45 88 47 89 53 90 46 91 48 92 49 93 50 94 51 95
REMARK H PARENT 9 5 14 29 73 48 41 59
REMARK Flexibility Score: inf
ROOT
ATOM      1  C   UNL A   1      31.018  27.230  26.264  1.00  0.00     0.116 C 
ENDROOT
BRANCH   1   2
ATOM      2  N   UNL A   1      30.963  25.819  26.553  1.00  0.00    -0.355 N 
ATOM      3  C   UNL A   1      31.935  24.886  26.356  1.00  0.00     0.239 C 
ATOM      4  O   UNL A   1      31.826  23.814  26.960  1.00  0.00    -0.273 OA
ATOM      5  H   UNL A   1      30.120  25.491  26.941  1.00  0.00     0.163 HD
BRANCH   3   6
ATOM      6  C   UNL A   1      33.216  25.220  25.572  1.00  0.00     0.221 C 
BRANCH   6   7
ATOM      7  N   UNL A   1      33.289  24.973  24.118  1.00  0.00    -0.313 N 
BRANCH   7   8
ATOM      8  C   UNL A   1      33.119  26.195  23.264  1.00  0.00     0.084 C 
ATOM      9  C   UNL A   1      31.691  26.353  22.723  1.00  0.00     0.031 C 
BRANCH   8  10
ATOM     10  C   UNL A   1      33.705  27.540  23.771  1.00  0.00     0.021 C 
ATOM     11  C   UNL A   1      33.161  28.857  23.245  1.00  0.00     0.006 C 
ENDBRANCH   8  10
ENDBRANCH   7   8
BRANCH   7  12
ATOM     12  C   UNL A   1      33.816  23.847  23.498  1.00  0.00     0.320 C 
ATOM     13  O   UNL A   1      34.716  24.004  22.665  1.00  0.00    -0.248 OA
BRANCH  12  14
ATOM     14  N   UNL A   1      33.399  22.553  23.742  1.00  0.00    -0.325 N 
ATOM     15  C   UNL A   1      32.391  21.750  23.062  1.00  0.00     0.149 C 
BRANCH  14  16
ATOM     16  C   UNL A   1      33.973  21.863  24.936  1.00  0.00     0.088 C 
ATOM     17  C   UNL A   1      33.019  20.797  25.493  1.00  0.00     0.031 C 
BRANCH  16  18
ATOM     18  C   UNL A   1      35.407  21.298  24.740  1.00  0.00     0.071 C 
BRANCH  18  19
ATOM     19  C   UNL A   1      36.485  22.172  25.334  1.00  0.00     0.007 A 
ATOM     20  C   UNL A   1      36.353  23.422  25.908  1.00  0.00     0.015 A 
ATOM     21  S   UNL A   1      38.113  21.630  25.391  1.00  0.00    -0.149 S 
ATOM     22  C   UNL A   1      37.602  23.954  26.343  1.00  0.00     0.012 A 
ATOM     23  C   UNL A   1      38.645  23.091  26.097  1.00  0.00     0.065 A 
ENDBRANCH  18  19
ENDBRANCH  16  18
ENDBRANCH  14  16
ENDBRANCH  12  14
ENDBRANCH   7  12
ENDBRANCH   6   7
ENDBRANCH   3   6
ENDBRANCH   1   2
BRANCH   1  24
ATOM     24  C   UNL A   1      31.845  28.002  27.286  1.00  0.00     0.023 C 
BRANCH  24  25
ATOM     25  C   UNL A   1      32.211  29.427  26.881  1.00  0.00     0.023 C 
BRANCH  25  26
ATOM     26  C   UNL A   1      33.634  29.853  27.220  1.00  0.00     0.116 C 
BRANCH  26  27
ATOM     27  N   UNL A   1      33.725  31.145  27.891  1.00  0.00    -0.352 N 
ATOM     28  C   UNL A   1      34.748  31.623  28.684  1.00  0.00     0.251 C 
ATOM     29  H   UNL A   1      32.960  31.751  27.763  1.00  0.00     0.163 HD
ATOM     30  O   UNL A   1      34.665  32.708  29.231  1.00  0.00    -0.269 OA
BRANCH  28  31
ATOM     31  C   UNL A   1      35.931  30.760  28.887  1.00  0.00     0.039 A 
ATOM     32  C   UNL A   1      37.079  31.000  28.131  1.00  0.00     0.014 A 
ATOM     33  C   UNL A   1      35.930  29.804  29.904  1.00  0.00     0.014 A 
ATOM     34  C   UNL A   1      38.266  30.341  28.460  1.00  0.00     0.010 A 
ATOM     35  C   UNL A   1      37.127  29.209  30.278  1.00  0.00     0.010 A 
ATOM     36  C   UNL A   1      38.308  29.481  29.569  1.00  0.00    -0.014 A 
BRANCH  36  37
ATOM     37  C   UNL A   1      39.575  28.867  30.040  1.00  0.00     0.031 A 
ATOM     38  C   UNL A   1      40.352  29.522  31.147  1.00  0.00     0.074 A 
ATOM     39  C   UNL A   1      40.090  27.808  29.383  1.00  0.00     0.049 A 
ATOM     40  N   UNL A   1      41.548  29.241  31.594  1.00  0.00    -0.248 NA
ATOM     41  C   UNL A   1      39.716  30.673  31.811  1.00  0.00     0.031 C 
ATOM     42  C   UNL A   1      39.471  27.134  28.239  1.00  0.00     0.029 A 
ATOM     43  N   UNL A   1      41.276  27.137  29.556  1.00  0.00    -0.354 N 
ATOM     44  C   UNL A   1      41.829  30.208  32.551  1.00  0.00     0.074 A 
ATOM     45  C   UNL A   1      40.691  31.100  32.601  1.00  0.00     0.031 C 
ATOM     46  C   UNL A   1      40.281  26.152  27.812  1.00  0.00     0.029 A 
ATOM     47  C   UNL A   1      41.491  26.143  28.629  1.00  0.00     0.049 A 
ATOM     48  H   UNL A   1      41.913  27.347  30.278  1.00  0.00     0.167 HD
ATOM     49  C   UNL A   1      42.922  30.327  33.338  1.00  0.00     0.034 A 
ATOM     50  C   UNL A   1      42.548  25.327  28.450  1.00  0.00     0.034 A 
ATOM     51  C   UNL A   1      44.018  29.397  33.336  1.00  0.00     0.049 A 
ATOM     52  C   UNL A   1      43.721  25.435  29.386  1.00  0.00     0.074 A 
ATOM     53  C   UNL A   1      45.123  29.368  34.166  1.00  0.00     0.029 A 
ATOM     54  N   UNL A   1      44.142  28.327  32.462  1.00  0.00    -0.354 N 
ATOM     55  N   UNL A   1      43.900  26.260  30.390  1.00  0.00    -0.248 NA
ATOM     56  C   UNL A   1      44.823  24.482  29.188  1.00  0.00     0.031 C 
ATOM     57  C   UNL A   1      45.919  28.280  33.793  1.00  0.00     0.029 A 
ATOM     58  C   UNL A   1      45.305  27.629  32.734  1.00  0.00     0.049 A 
ATOM     59  H   UNL A   1      43.498  28.099  31.754  1.00  0.00     0.167 HD
ATOM     60  C   UNL A   1      45.114  25.903  30.964  1.00  0.00     0.074 A 
ATOM     61  C   UNL A   1      45.620  24.777  30.207  1.00  0.00     0.031 C 
ATOM     62  C   UNL A   1      45.760  26.469  32.014  1.00  0.00     0.034 A 
BRANCH  49  63
ATOM     63  C   UNL A   1      42.955  31.466  34.320  1.00  0.00     0.023 A 
ATOM     64  C   UNL A   1      43.657  32.643  33.990  1.00  0.00     0.012 A 
ATOM     65  C   UNL A   1      42.258  31.397  35.542  1.00  0.00     0.148 A 
ATOM     66  C   UNL A   1      43.694  33.720  34.873  1.00  0.00     0.002 A 
ATOM     67  C   UNL A   1      42.265  32.491  36.400  1.00  0.00     0.091 A 
ATOM     68  F   UNL A   1      41.618  30.260  35.851  1.00  0.00    -0.205 F 
ATOM     69  C   UNL A   1      42.990  33.648  36.072  1.00  0.00     0.022 A 
BRANCH  67  70
ATOM     70  S   UNL A   1      41.329  32.521  37.933  1.00  0.00     0.127 S 
ATOM     71  O   UNL A   1      40.066  31.913  37.518  1.00  0.00    -0.237 OA
ATOM     72  O   UNL A   1      42.147  31.684  38.812  1.00  0.00    -0.237 OA
ATOM     73  O   UNL A   1      41.255  33.920  38.327  1.00  0.00    -0.744 OA
ENDBRANCH  67  70
ENDBRANCH  49  63
BRANCH  50  74
ATOM     74  C   UNL A   1      42.508  24.282  27.387  1.00  0.00     0.023 A 
ATOM     75  C   UNL A   1      42.951  24.608  26.090  1.00  0.00     0.012 A 
ATOM     76  C   UNL A   1      42.074  22.970  27.654  1.00  0.00     0.148 A 
ATOM     77  C   UNL A   1      42.938  23.656  25.071  1.00  0.00     0.002 A 
ATOM     78  C   UNL A   1      42.110  22.010  26.647  1.00  0.00     0.091 A 
ATOM     79  F   UNL A   1      41.642  22.680  28.889  1.00  0.00    -0.205 F 
ATOM     80  C   UNL A   1      42.527  22.355  25.351  1.00  0.00     0.022 A 
BRANCH  78  81
ATOM     81  S   UNL A   1      41.722  20.282  26.953  1.00  0.00     0.127 S 
ATOM     82  O   UNL A   1      42.784  19.896  27.877  1.00  0.00    -0.237 OA
ATOM     83  O   UNL A   1      40.388  20.369  27.548  1.00  0.00    -0.237 OA
ATOM     84  O   UNL A   1      41.751  19.642  25.644  1.00  0.00    -0.744 OA
ENDBRANCH  78  81
ENDBRANCH  50  74
BRANCH  62  85
ATOM     85  C   UNL A   1      47.071  25.865  32.439  1.00  0.00     0.023 A 
ATOM     86  C   UNL A   1      48.273  26.369  31.906  1.00  0.00     0.012 A 
ATOM     87  C   UNL A   1      47.115  24.875  33.440  1.00  0.00     0.148 A 
ATOM     88  C   UNL A   1      49.501  25.884  32.352  1.00  0.00     0.002 A 
ATOM     89  C   UNL A   1      48.343  24.427  33.910  1.00  0.00     0.091 A 
ATOM     90  F   UNL A   1      45.957  24.396  33.918  1.00  0.00    -0.205 F 
ATOM     91  C   UNL A   1      49.537  24.924  33.361  1.00  0.00     0.022 A 
BRANCH  89  92
ATOM     92  S   UNL A   1      48.486  23.263  35.271  1.00  0.00     0.127 S 
ATOM     93  O   UNL A   1      49.936  23.175  35.437  1.00  0.00    -0.237 OA
ATOM     94  O   UNL A   1      47.788  23.960  36.352  1.00  0.00    -0.237 OA
ATOM     95  O   UNL A   1      47.832  22.041  34.822  1.00  0.00    -0.744 OA
ENDBRANCH  89  92
ENDBRANCH  62  85
ENDBRANCH  36  37
ENDBRANCH  28  31
ENDBRANCH  26  27
ENDBRANCH  25  26
ENDBRANCH  24  25
ENDBRANCH   1  24
TORSDOF 22
ENDMDL
MODEL 2
REMARK VINA RESULT:      -9.9      3.118      8.392
REMARK SMILES CC[C@H](C)N(CC(=O)NCCCCNC(=O)c1ccc(-c2c3nc(c(-c4cccc(S(=O)(=O)[O-])c4F)c4ccc([nH]4)c(-c4cccc(S(=O)(=O)[O-])c4F)c4nc(c(-c5cccc(S(=O)(=O)[O-])c5F)c5ccc2[nH]5)C=C4)C=C3)cc1)C(=O)N(C)[C@@H](C)Cc1cccs1
REMARK SMILES IDX 10 1 9 2 7 3 8 4 6 6 5 7 3 8 4 9 2 10 1 11 80 12 81 13 82 14
REMARK SMILES IDX 83 15 84 16 85 17 86 18 87 19 88 20 91 21 89 22 90 23 11 24
REMARK SMILES IDX 12 25 13 26 14 27 15 28 16 30 17 31 18 32 79 33 19 34 78 35
REMARK SMILES IDX 20 36 21 37 22 38 72 39 23 40 77 41 71 42 73 43 24 44 76 45
REMARK SMILES IDX 70 46 69 47 25 49 57 50 37 51 56 52 38 53 41 54 55 55 74 56
REMARK SMILES IDX 39 57 40 58 54 60 75 61 42 62 26 63 27 64 35 65 28 66 30 67
REMARK SMILES IDX 36 68 29 69 31 70 32 71 33 72 34 73 58 74 59 75 67 76 60 77
REMARK SMILES IDX 62 78 68 79 61 80 63 81 64 82 65 83 66 84 43 85 44 86 52 87
REMARK SMILES IDX 45 88 47 89 53 90 46 91 48 92 49 93 50 94 51 95
REMARK H PARENT 9 5 14 29 73 48 41 59
REMARK Flexibility Score: inf
ROOT
ATOM      1  C   UNL A   1      31.955  28.327  26.254  1.00  0.00     0.116 C 
ENDROOT
BRANCH   1   2
ATOM      2  N   UNL A   1      31.092  27.261  26.696  1.00  0.00    -0.355 N 
ATOM      3  C   UNL A   1      30.834  26.079  26.070  1.00  0.00     0.239 C 
ATOM      4  O   UNL A   1      30.340  25.172  26.748  1.00  0.00    -0.273 OA
ATOM      5  H   UNL A   1      30.634  27.405  27.555  1.00  0.00     0.163 HD
BRANCH   3   6
ATOM      6  C   UNL A   1      31.316  25.814  24.634  1.00  0.00     0.221 C 
BRANCH   6   7
ATOM      7  N   UNL A   1      32.702  25.374  24.379  1.00  0.00    -0.313 N 
BRANCH   7   8
ATOM      8  C   UNL A   1      33.405  26.115  23.281  1.00  0.00     0.084 C 
ATOM      9  C   UNL A   1      32.720  25.955  21.915  1.00  0.00     0.031 C 
BRANCH   8  10
ATOM     10  C   UNL A   1      33.850  27.580  23.543  1.00  0.00     0.021 C 
ATOM     11  C   UNL A   1      33.499  28.674  22.550  1.00  0.00     0.006 C 
ENDBRANCH   8  10
ENDBRANCH   7   8
BRANCH   7  12
ATOM     12  C   UNL A   1      33.500  24.623  25.234  1.00  0.00     0.320 C 
ATOM     13  O   UNL A   1      34.367  25.209  25.892  1.00  0.00    -0.248 OA
BRANCH  12  14
ATOM     14  N   UNL A   1      33.398  23.255  25.397  1.00  0.00    -0.325 N 
ATOM     15  C   UNL A   1      32.809  22.483  26.483  1.00  0.00     0.149 C 
BRANCH  14  16
ATOM     16  C   UNL A   1      34.062  22.393  24.375  1.00  0.00     0.088 C 
ATOM     17  C   UNL A   1      33.089  21.972  23.263  1.00  0.00     0.031 C 
BRANCH  16  18
ATOM     18  C   UNL A   1      35.382  22.967  23.790  1.00  0.00     0.071 C 
BRANCH  18  19
ATOM     19  C   UNL A   1      36.593  22.685  24.646  1.00  0.00     0.007 A 
ATOM     20  C   UNL A   1      37.324  23.573  25.412  1.00  0.00     0.015 A 
ATOM     21  S   UNL A   1      37.205  21.088  24.792  1.00  0.00    -0.149 S 
ATOM     22  C   UNL A   1      38.421  22.946  26.072  1.00  0.00     0.012 A 
ATOM     23  C   UNL A   1      38.486  21.598  25.798  1.00  0.00     0.065 A 
ENDBRANCH  18  19
ENDBRANCH  16  18
ENDBRANCH  14  16
ENDBRANCH  12  14
ENDBRANCH   7  12
ENDBRANCH   6   7
ENDBRANCH   3   6
ENDBRANCH   1   2
BRANCH   1  24
ATOM     24  C   UNL A   1      32.075  29.444  27.284  1.00  0.00     0.023 C 
BRANCH  24  25
ATOM     25  C   UNL A   1      32.296  30.838  26.706  1.00  0.00     0.023 C 
BRANCH  25  26
ATOM     26  C   UNL A   1      33.146  31.770  27.561  1.00  0.00     0.116 C 
BRANCH  26  27
ATOM     27  N   UNL A   1      32.633  33.132  27.649  1.00  0.00    -0.352 N 
ATOM     28  C   UNL A   1      33.089  34.165  28.441  1.00  0.00     0.251 C 
ATOM     29  H   UNL A   1      31.865  33.341  27.069  1.00  0.00     0.163 HD
ATOM     30  O   UNL A   1      32.525  35.244  28.454  1.00  0.00    -0.269 OA
BRANCH  28  31
ATOM     31  C   UNL A   1      34.257  33.910  29.311  1.00  0.00     0.039 A 
ATOM     32  C   UNL A   1      34.074  33.183  30.490  1.00  0.00     0.014 A 
ATOM     33  C   UNL A   1      35.534  34.287  28.893  1.00  0.00     0.014 A 
ATOM     34  C   UNL A   1      35.192  32.750  31.207  1.00  0.00     0.010 A 
ATOM     35  C   UNL A   1      36.642  33.790  29.565  1.00  0.00     0.010 A 
ATOM     36  C   UNL A   1      36.483  33.008  30.720  1.00  0.00    -0.014 A 
BRANCH  36  37
ATOM     37  C   UNL A   1      37.695  32.450  31.372  1.00  0.00     0.031 A 
ATOM     38  C   UNL A   1      38.433  31.314  30.722  1.00  0.00     0.074 A 
ATOM     39  C   UNL A   1      38.045  32.872  32.604  1.00  0.00     0.049 A 
ATOM     40  N   UNL A   1      39.408  30.586  31.196  1.00  0.00    -0.248 NA
ATOM     41  C   UNL A   1      37.985  30.918  29.376  1.00  0.00     0.031 C 
ATOM     42  C   UNL A   1      37.356  33.910  33.375  1.00  0.00     0.029 A 
ATOM     43  N   UNL A   1      39.044  32.446  33.445  1.00  0.00    -0.354 N 
ATOM     44  C   UNL A   1      39.656  29.615  30.234  1.00  0.00     0.074 A 
ATOM     45  C   UNL A   1      38.711  29.830  29.161  1.00  0.00     0.031 C 
ATOM     46  C   UNL A   1      37.950  34.038  34.573  1.00  0.00     0.029 A 
ATOM     47  C   UNL A   1      39.039  33.072  34.671  1.00  0.00     0.049 A 
ATOM     48  H   UNL A   1      39.702  31.758  33.194  1.00  0.00     0.167 HD
ATOM     49  C   UNL A   1      40.604  28.650  30.229  1.00  0.00     0.034 A 
ATOM     50  C   UNL A   1      39.817  32.880  35.754  1.00  0.00     0.034 A 
ATOM     51  C   UNL A   1      41.588  28.487  31.264  1.00  0.00     0.049 A 
ATOM     52  C   UNL A   1      40.910  31.847  35.695  1.00  0.00     0.074 A 
ATOM     53  C   UNL A   1      42.655  27.609  31.305  1.00  0.00     0.029 A 
ATOM     54  N   UNL A   1      41.627  29.224  32.438  1.00  0.00    -0.354 N 
ATOM     55  N   UNL A   1      41.229  31.042  34.710  1.00  0.00    -0.248 NA
ATOM     56  C   UNL A   1      41.770  31.717  36.880  1.00  0.00     0.031 C 
ATOM     57  C   UNL A   1      43.340  27.812  32.507  1.00  0.00     0.029 A 
ATOM     58  C   UNL A   1      42.702  28.821  33.211  1.00  0.00     0.049 A 
ATOM     59  H   UNL A   1      40.985  29.927  32.685  1.00  0.00     0.167 HD
ATOM     60  C   UNL A   1      42.346  30.337  35.142  1.00  0.00     0.074 A 
ATOM     61  C   UNL A   1      42.660  30.821  36.470  1.00  0.00     0.031 C 
ATOM     62  C   UNL A   1      43.039  29.362  34.502  1.00  0.00     0.034 A 
BRANCH  49  63
ATOM     63  C   UNL A   1      40.668  27.741  29.033  1.00  0.00     0.023 A 
ATOM     64  C   UNL A   1      39.752  26.674  28.926  1.00  0.00     0.012 A 
ATOM     65  C   UNL A   1      41.595  27.962  27.996  1.00  0.00     0.148 A 
ATOM     66  C   UNL A   1      39.777  25.823  27.824  1.00  0.00     0.002 A 
ATOM     67  C   UNL A   1      41.587  27.133  26.879  1.00  0.00     0.091 A 
ATOM     68  F   UNL A   1      42.475  28.964  28.127  1.00  0.00    -0.205 F 
ATOM     69  C   UNL A   1      40.686  26.058  26.796  1.00  0.00     0.022 A 
BRANCH  67  70
ATOM     70  S   UNL A   1      42.671  27.401  25.472  1.00  0.00     0.127 S 
ATOM     71  O   UNL A   1      43.966  27.578  26.128  1.00  0.00    -0.237 OA
ATOM     72  O   UNL A   1      42.530  26.148  24.729  1.00  0.00    -0.237 OA
ATOM     73  O   UNL A   1      42.148  28.573  24.785  1.00  0.00    -0.744 OA
ENDBRANCH  67  70
ENDBRANCH  49  63
BRANCH  50  74
ATOM     74  C   UNL A   1      39.640  33.740  36.959  1.00  0.00     0.023 A 
ATOM     75  C   UNL A   1      40.085  35.076  36.916  1.00  0.00     0.012 A 
ATOM     76  C   UNL A   1      39.010  33.265  38.124  1.00  0.00     0.148 A 
ATOM     77  C   UNL A   1      39.930  35.916  38.019  1.00  0.00     0.002 A 
ATOM     78  C   UNL A   1      38.813  34.120  39.203  1.00  0.00     0.091 A 
ATOM     79  F   UNL A   1      38.607  31.987  38.154  1.00  0.00    -0.205 F 
ATOM     80  C   UNL A   1      39.286  35.442  39.159  1.00  0.00     0.022 A 
BRANCH  78  81
ATOM     81  S   UNL A   1      37.880  33.630  40.659  1.00  0.00     0.127 S 
ATOM     82  O   UNL A   1      37.788  34.888  41.394  1.00  0.00    -0.237 OA
ATOM     83  O   UNL A   1      36.622  33.165  40.074  1.00  0.00    -0.237 OA
ATOM     84  O   UNL A   1      38.669  32.579  41.288  1.00  0.00    -0.744 OA
ENDBRANCH  78  81
ENDBRANCH  50  74
BRANCH  62  85
ATOM     85  C   UNL A   1      44.232  28.772  35.205  1.00  0.00     0.023 A 
ATOM     86  C   UNL A   1      45.510  29.319  34.982  1.00  0.00     0.012 A 
ATOM     87  C   UNL A   1      44.069  27.750  36.160  1.00  0.00     0.148 A 
ATOM     88  C   UNL A   1      46.614  28.845  35.688  1.00  0.00     0.002 A 
ATOM     89  C   UNL A   1      45.167  27.312  36.891  1.00  0.00     0.091 A 
ATOM     90  F   UNL A   1      42.846  27.231  36.341  1.00  0.00    -0.205 F 
ATOM     91  C   UNL A   1      46.440  27.852  36.651  1.00  0.00     0.022 A 
BRANCH  89  92
ATOM     92  S   UNL A   1      45.021  26.106  38.215  1.00  0.00     0.127 S 
ATOM     93  O   UNL A   1      46.312  26.244  38.887  1.00  0.00    -0.237 OA
ATOM     94  O   UNL A   1      43.879  26.613  38.976  1.00  0.00    -0.237 OA
ATOM     95  O   UNL A   1      44.788  24.824  37.563  1.00  0.00    -0.744 OA
ENDBRANCH  89  92
ENDBRANCH  62  85
ENDBRANCH  36  37
ENDBRANCH  28  31
ENDBRANCH  26  27
ENDBRANCH  25  26
ENDBRANCH  24  25
ENDBRANCH   1  24
TORSDOF 22
ENDMDL
MODEL 3
REMARK VINA RESULT:      -9.8      2.056      3.159
REMARK SMILES CC[C@H](C)N(CC(=O)NCCCCNC(=O)c1ccc(-c2c3nc(c(-c4cccc(S(=O)(=O)[O-])c4F)c4ccc([nH]4)c(-c4cccc(S(=O)(=O)[O-])c4F)c4nc(c(-c5cccc(S(=O)(=O)[O-])c5F)c5ccc2[nH]5)C=C4)C=C3)cc1)C(=O)N(C)[C@@H](C)Cc1cccs1
REMARK SMILES IDX 10 1 9 2 7 3 8 4 6 6 5 7 3 8 4 9 2 10 1 11 80 12 81 13 82 14
REMARK SMILES IDX 83 15 84 16 85 17 86 18 87 19 88 20 91 21 89 22 90 23 11 24
REMARK SMILES IDX 12 25 13 26 14 27 15 28 16 30 17 31 18 32 79 33 19 34 78 35
REMARK SMILES IDX 20 36 21 37 22 38 72 39 23 40 77 41 71 42 73 43 24 44 76 45
REMARK SMILES IDX 70 46 69 47 25 49 57 50 37 51 56 52 38 53 41 54 55 55 74 56
REMARK SMILES IDX 39 57 40 58 54 60 75 61 42 62 26 63 27 64 35 65 28 66 30 67
REMARK SMILES IDX 36 68 29 69 31 70 32 71 33 72 34 73 58 74 59 75 67 76 60 77
REMARK SMILES IDX 62 78 68 79 61 80 63 81 64 82 65 83 66 84 43 85 44 86 52 87
REMARK SMILES IDX 45 88 47 89 53 90 46 91 48 92 49 93 50 94 51 95
REMARK H PARENT 9 5 14 29 73 48 41 59
REMARK Flexibility Score: inf
ROOT
ATOM      1  C   UNL A   1      32.641  27.736  22.974  1.00  0.00     0.116 C 
ENDROOT
BRANCH   1   2
ATOM      2  N   UNL A   1      33.333  26.653  22.321  1.00  0.00    -0.355 N 
ATOM      3  C   UNL A   1      33.165  25.316  22.514  1.00  0.00     0.239 C 
ATOM      4  O   UNL A   1      33.600  24.555  21.644  1.00  0.00    -0.273 OA
ATOM      5  H   UNL A   1      34.009  26.913  21.654  1.00  0.00     0.163 HD
BRANCH   3   6
ATOM      6  C   UNL A   1      32.298  24.778  23.666  1.00  0.00     0.221 C 
BRANCH   6   7
ATOM      7  N   UNL A   1      32.863  24.628  25.021  1.00  0.00    -0.313 N 
BRANCH   7   8
ATOM      8  C   UNL A   1      31.881  24.823  26.138  1.00  0.00     0.084 C 
ATOM      9  C   UNL A   1      31.645  26.303  26.477  1.00  0.00     0.031 C 
BRANCH   8  10
ATOM     10  C   UNL A   1      30.557  24.012  26.109  1.00  0.00     0.021 C 
ATOM     11  C   UNL A   1      30.591  22.494  26.125  1.00  0.00     0.006 C 
ENDBRANCH   8  10
ENDBRANCH   7   8
BRANCH   7  12
ATOM     12  C   UNL A   1      34.067  24.016  25.350  1.00  0.00     0.320 C 
ATOM     13  O   UNL A   1      35.119  24.597  25.056  1.00  0.00    -0.248 OA
BRANCH  12  14
ATOM     14  N   UNL A   1      34.174  22.793  25.982  1.00  0.00    -0.325 N 
ATOM     15  C   UNL A   1      34.227  22.473  27.402  1.00  0.00     0.149 C 
BRANCH  14  16
ATOM     16  C   UNL A   1      34.362  21.591  25.116  1.00  0.00     0.088 C 
ATOM     17  C   UNL A   1      35.842  21.355  24.779  1.00  0.00     0.031 C 
BRANCH  16  18
ATOM     18  C   UNL A   1      33.683  20.294  25.636  1.00  0.00     0.071 C 
BRANCH  18  19
ATOM     19  C   UNL A   1      33.407  19.282  24.551  1.00  0.00     0.007 A 
ATOM     20  C   UNL A   1      33.941  18.016  24.406  1.00  0.00     0.015 A 
ATOM     21  S   UNL A   1      32.272  19.624  23.309  1.00  0.00    -0.149 S 
ATOM     22  C   UNL A   1      33.458  17.353  23.240  1.00  0.00     0.012 A 
ATOM     23  C   UNL A   1      32.563  18.128  22.539  1.00  0.00     0.065 A 
ENDBRANCH  18  19
ENDBRANCH  16  18
ENDBRANCH  14  16
ENDBRANCH  12  14
ENDBRANCH   7  12
ENDBRANCH   6   7
ENDBRANCH   3   6
ENDBRANCH   1   2
BRANCH   1  24
ATOM     24  C   UNL A   1      33.425  28.301  24.153  1.00  0.00     0.023 C 
BRANCH  24  25
ATOM     25  C   UNL A   1      32.830  29.556  24.785  1.00  0.00     0.023 C 
BRANCH  25  26
ATOM     26  C   UNL A   1      33.091  29.718  26.277  1.00  0.00     0.116 C 
BRANCH  26  27
ATOM     27  N   UNL A   1      32.902  31.077  26.771  1.00  0.00    -0.352 N 
ATOM     28  C   UNL A   1      33.758  31.826  27.551  1.00  0.00     0.251 C 
ATOM     29  H   UNL A   1      32.058  31.514  26.516  1.00  0.00     0.163 HD
ATOM     30  O   UNL A   1      33.445  32.937  27.940  1.00  0.00    -0.269 OA
BRANCH  28  31
ATOM     31  C   UNL A   1      35.051  31.223  27.941  1.00  0.00     0.039 A 
ATOM     32  C   UNL A   1      36.162  32.054  28.101  1.00  0.00     0.014 A 
ATOM     33  C   UNL A   1      35.120  29.866  28.259  1.00  0.00     0.014 A 
ATOM     34  C   UNL A   1      37.326  31.537  28.674  1.00  0.00     0.010 A 
ATOM     35  C   UNL A   1      36.250  29.375  28.899  1.00  0.00     0.010 A 
ATOM     36  C   UNL A   1      37.358  30.208  29.123  1.00  0.00    -0.014 A 
BRANCH  36  37
ATOM     37  C   UNL A   1      38.522  29.655  29.862  1.00  0.00     0.031 A 
ATOM     38  C   UNL A   1      38.868  30.201  31.219  1.00  0.00     0.074 A 
ATOM     39  C   UNL A   1      39.339  28.770  29.256  1.00  0.00     0.049 A 
ATOM     40  N   UNL A   1      39.923  29.972  31.954  1.00  0.00    -0.248 NA
ATOM     41  C   UNL A   1      37.921  31.163  31.807  1.00  0.00     0.031 C 
ATOM     42  C   UNL A   1      39.155  28.228  27.908  1.00  0.00     0.029 A 
ATOM     43  N   UNL A   1      40.514  28.201  29.682  1.00  0.00    -0.354 N 
ATOM     44  C   UNL A   1      39.795  30.798  33.064  1.00  0.00     0.074 A 
ATOM     45  C   UNL A   1      38.574  31.554  32.892  1.00  0.00     0.031 C 
ATOM     46  C   UNL A   1      40.180  27.411  27.616  1.00  0.00     0.029 A 
ATOM     47  C   UNL A   1      41.110  27.392  28.740  1.00  0.00     0.049 A 
ATOM     48  H   UNL A   1      40.894  28.356  30.577  1.00  0.00     0.167 HD
ATOM     49  C   UNL A   1      40.605  30.898  34.143  1.00  0.00     0.034 A 
ATOM     50  C   UNL A   1      42.279  26.723  28.776  1.00  0.00     0.034 A 
ATOM     51  C   UNL A   1      41.778  30.093  34.343  1.00  0.00     0.049 A 
ATOM     52  C   UNL A   1      43.125  26.797  30.018  1.00  0.00     0.074 A 
ATOM     53  C   UNL A   1      42.608  30.042  35.448  1.00  0.00     0.029 A 
ATOM     54  N   UNL A   1      42.284  29.193  33.417  1.00  0.00    -0.354 N 
ATOM     55  N   UNL A   1      42.907  27.466  31.125  1.00  0.00    -0.248 NA
ATOM     56  C   UNL A   1      44.361  26.001  30.031  1.00  0.00     0.031 C 
ATOM     57  C   UNL A   1      43.620  29.112  35.189  1.00  0.00     0.029 A 
ATOM     58  C   UNL A   1      43.415  28.579  33.926  1.00  0.00     0.049 A 
ATOM     59  H   UNL A   1      41.896  29.017  32.530  1.00  0.00     0.167 HD
ATOM     60  C   UNL A   1      43.956  27.144  31.977  1.00  0.00     0.074 A 
ATOM     61  C   UNL A   1      44.801  26.208  31.266  1.00  0.00     0.031 C 
ATOM     62  C   UNL A   1      44.206  27.598  33.231  1.00  0.00     0.034 A 
BRANCH  49  63
ATOM     63  C   UNL A   1      40.209  31.865  35.225  1.00  0.00     0.023 A 
ATOM     64  C   UNL A   1      40.838  33.125  35.290  1.00  0.00     0.012 A 
ATOM     65  C   UNL A   1      39.190  31.553  36.146  1.00  0.00     0.148 A 
ATOM     66  C   UNL A   1      40.483  34.047  36.272  1.00  0.00     0.002 A 
ATOM     67  C   UNL A   1      38.813  32.494  37.098  1.00  0.00     0.091 A 
ATOM     68  F   UNL A   1      38.622  30.341  36.086  1.00  0.00    -0.205 F 
ATOM     69  C   UNL A   1      39.465  33.736  37.169  1.00  0.00     0.022 A 
BRANCH  67  70
ATOM     70  S   UNL A   1      37.462  32.213  38.248  1.00  0.00     0.127 S 
ATOM     71  O   UNL A   1      37.308  30.762  38.173  1.00  0.00    -0.237 OA
ATOM     72  O   UNL A   1      38.022  32.703  39.509  1.00  0.00    -0.237 OA
ATOM     73  O   UNL A   1      36.340  32.992  37.742  1.00  0.00    -0.744 OA
ENDBRANCH  67  70
ENDBRANCH  49  63
BRANCH  50  74
ATOM     74  C   UNL A   1      42.677  25.860  27.627  1.00  0.00     0.023 A 
ATOM     75  C   UNL A   1      43.612  26.352  26.695  1.00  0.00     0.012 A 
ATOM     76  C   UNL A   1      42.171  24.557  27.468  1.00  0.00     0.148 A 
ATOM     77  C   UNL A   1      44.016  25.572  25.611  1.00  0.00     0.002 A 
ATOM     78  C   UNL A   1      42.615  23.765  26.414  1.00  0.00     0.091 A 
ATOM     79  F   UNL A   1      41.270  24.111  28.355  1.00  0.00    -0.205 F 
ATOM     80  C   UNL A   1      43.526  24.276  25.475  1.00  0.00     0.022 A 
BRANCH  78  81
ATOM     81  S   UNL A   1      42.134  22.043  26.238  1.00  0.00     0.127 S 
ATOM     82  O   UNL A   1      42.901  21.635  25.064  1.00  0.00    -0.237 OA
ATOM     83  O   UNL A   1      42.590  21.466  27.503  1.00  0.00    -0.237 OA
ATOM     84  O   UNL A   1      40.685  22.060  26.079  1.00  0.00    -0.744 OA
ENDBRANCH  78  81
ENDBRANCH  50  74
BRANCH  62  85
ATOM     85  C   UNL A   1      45.423  27.067  33.940  1.00  0.00     0.023 A 
ATOM     86  C   UNL A   1      46.643  27.763  33.841  1.00  0.00     0.012 A 
ATOM     87  C   UNL A   1      45.329  25.943  34.784  1.00  0.00     0.148 A 
ATOM     88  C   UNL A   1      47.759  27.337  34.559  1.00  0.00     0.002 A 
ATOM     89  C   UNL A   1      46.433  25.551  35.530  1.00  0.00     0.091 A 
ATOM     90  F   UNL A   1      44.163  25.285  34.847  1.00  0.00    -0.205 F 
ATOM     91  C   UNL A   1      47.651  26.240  35.413  1.00  0.00     0.022 A 
BRANCH  89  92
ATOM     92  S   UNL A   1      46.360  24.209  36.724  1.00  0.00     0.127 S 
ATOM     93  O   UNL A   1      47.778  23.960  36.978  1.00  0.00    -0.237 OA
ATOM     94  O   UNL A   1      45.638  24.823  37.839  1.00  0.00    -0.237 OA
ATOM     95  O   UNL A   1      45.642  23.127  36.064  1.00  0.00    -0.744 OA
ENDBRANCH  89  92
ENDBRANCH  62  85
ENDBRANCH  36  37
ENDBRANCH  28  31
ENDBRANCH  26  27
ENDBRANCH  25  26
ENDBRANCH  24  25
ENDBRANCH   1  24
TORSDOF 22
ENDMDL
