MODEL 1
REMARK VINA RESULT:     -11.4      0.000      0.000
REMARK SMILES O=C(NCCCCNC(=O)[C@@H](CCO)NC(=O)c1c(F)ccc([N+](=O)[O-])c1F)c1ccc(-c2c3nc(c(-c4cccc(S(=O)(=O)[O-])c4F)c4ccc([nH]4)c(-c4cccc(S(=O)(=O)[O-])c4F)c4nc(c(-c5cccc(S(=O)(=O)[O-])c5F)c5ccc2[nH]5)C=C4)C=C3)cc1
REMARK SMILES IDX 5 1 4 2 3 3 1 4 2 5 29 7 30 8 91 9 31 10 90 11 32 12 33 13
REMARK SMILES IDX 34 14 84 15 35 16 89 17 83 18 85 19 36 20 88 21 82 22 81 23
REMARK SMILES IDX 37 25 69 26 49 27 68 28 50 29 53 30 67 31 86 32 51 33 52 34
REMARK SMILES IDX 66 36 87 37 54 38 38 39 39 40 47 41 40 42 42 43 48 44 41 45
REMARK SMILES IDX 43 46 44 47 45 48 46 49 70 50 71 51 79 52 72 53 74 54 80 55
REMARK SMILES IDX 73 56 75 57 76 58 77 59 78 60 55 61 56 62 64 63 57 64 59 65
REMARK SMILES IDX 65 66 58 67 60 68 61 69 62 70 63 71 6 72 7 73 8 74 9 75
REMARK SMILES IDX 10 77 11 78 12 79 13 80 14 81 15 83 16 84 17 86 18 87 19 88
REMARK SMILES IDX 27 89 20 90 21 91 23 92 28 93 22 94 24 95 25 96 26 97
REMARK H PARENT 3 6 85 24 53 35 8 76 14 82 15 85
REMARK Flexibility Score: inf
ROOT
ATOM      1  C   UNL A   1      37.707  19.760  24.796  1.00  0.00     0.023 C 
ENDROOT
BRANCH   1   2
ATOM      2  C   UNL A   1      38.775  20.360  25.692  1.00  0.00     0.116 C 
BRANCH   2   3
ATOM      3  N   UNL A   1      39.902  19.471  25.931  1.00  0.00    -0.352 N 
ATOM      4  O   UNL A   1      42.046  18.958  26.431  1.00  0.00    -0.269 OA
ATOM      5  C   UNL A   1      41.165  19.801  26.375  1.00  0.00     0.251 C 
ATOM      6  H   UNL A   1      39.744  18.515  25.754  1.00  0.00     0.163 HD
BRANCH   5   7
ATOM      7  C   UNL A   1      41.431  21.210  26.735  1.00  0.00     0.039 A 
ATOM      8  C   UNL A   1      41.213  22.220  25.796  1.00  0.00     0.014 A 
ATOM      9  C   UNL A   1      41.983  21.505  27.983  1.00  0.00     0.014 A 
ATOM     10  C   UNL A   1      41.705  23.494  26.037  1.00  0.00     0.010 A 
ATOM     11  C   UNL A   1      42.383  22.814  28.263  1.00  0.00     0.010 A 
ATOM     12  C   UNL A   1      42.282  23.809  27.279  1.00  0.00    -0.014 A 
BRANCH  12  13
ATOM     13  C   UNL A   1      42.686  25.210  27.548  1.00  0.00     0.031 A 
ATOM     14  C   UNL A   1      41.756  26.186  28.211  1.00  0.00     0.074 A 
ATOM     15  C   UNL A   1      43.926  25.589  27.182  1.00  0.00     0.049 A 
ATOM     16  N   UNL A   1      41.966  27.442  28.511  1.00  0.00    -0.248 NA
ATOM     17  C   UNL A   1      40.417  25.700  28.580  1.00  0.00     0.031 C 
ATOM     18  C   UNL A   1      44.895  24.730  26.495  1.00  0.00     0.029 A 
ATOM     19  N   UNL A   1      44.588  26.779  27.334  1.00  0.00    -0.354 N 
ATOM     20  C   UNL A   1      40.778  27.911  29.058  1.00  0.00     0.074 A 
ATOM     21  C   UNL A   1      39.847  26.803  29.052  1.00  0.00     0.031 C 
ATOM     22  C   UNL A   1      46.037  25.407  26.316  1.00  0.00     0.029 A 
ATOM     23  C   UNL A   1      45.861  26.765  26.816  1.00  0.00     0.049 A 
ATOM     24  H   UNL A   1      44.191  27.566  27.772  1.00  0.00     0.167 HD
ATOM     25  C   UNL A   1      40.498  29.149  29.531  1.00  0.00     0.034 A 
ATOM     26  C   UNL A   1      46.781  27.742  26.728  1.00  0.00     0.034 A 
ATOM     27  C   UNL A   1      41.449  30.230  29.572  1.00  0.00     0.049 A 
ATOM     28  C   UNL A   1      46.452  29.092  27.288  1.00  0.00     0.074 A 
ATOM     29  C   UNL A   1      41.282  31.503  30.089  1.00  0.00     0.029 A 
ATOM     30  N   UNL A   1      42.742  30.168  29.075  1.00  0.00    -0.354 N 
ATOM     31  N   UNL A   1      45.362  29.483  27.902  1.00  0.00    -0.248 NA
ATOM     32  C   UNL A   1      47.481  30.132  27.163  1.00  0.00     0.031 C 
ATOM     33  C   UNL A   1      42.473  32.214  29.895  1.00  0.00     0.029 A 
ATOM     34  C   UNL A   1      43.383  31.380  29.265  1.00  0.00     0.049 A 
ATOM     35  H   UNL A   1      43.146  29.377  28.649  1.00  0.00     0.167 HD
ATOM     36  C   UNL A   1      45.575  30.810  28.247  1.00  0.00     0.074 A 
ATOM     37  C   UNL A   1      46.914  31.146  27.804  1.00  0.00     0.031 C 
ATOM     38  C   UNL A   1      44.731  31.680  28.854  1.00  0.00     0.034 A 
BRANCH  25  39
ATOM     39  C   UNL A   1      39.119  29.401  30.085  1.00  0.00     0.023 A 
ATOM     40  C   UNL A   1      38.815  28.994  31.399  1.00  0.00     0.012 A 
ATOM     41  C   UNL A   1      38.155  30.110  29.340  1.00  0.00     0.148 A 
ATOM     42  C   UNL A   1      37.566  29.269  31.956  1.00  0.00     0.002 A 
ATOM     43  C   UNL A   1      36.924  30.409  29.915  1.00  0.00     0.091 A 
ATOM     44  F   UNL A   1      38.453  30.468  28.083  1.00  0.00    -0.205 F 
ATOM     45  C   UNL A   1      36.626  29.985  31.220  1.00  0.00     0.022 A 
BRANCH  43  46
ATOM     46  S   UNL A   1      35.675  31.386  29.069  1.00  0.00     0.127 S 
ATOM     47  O   UNL A   1      36.494  32.396  28.400  1.00  0.00    -0.237 OA
ATOM     48  O   UNL A   1      35.066  30.405  28.171  1.00  0.00    -0.237 OA
ATOM     49  O   UNL A   1      34.787  31.884  30.110  1.00  0.00    -0.744 OA
ENDBRANCH  43  46
ENDBRANCH  25  39
BRANCH  26  50
ATOM     50  C   UNL A   1      48.107  27.444  26.119  1.00  0.00     0.023 A 
ATOM     51  C   UNL A   1      49.123  26.882  26.915  1.00  0.00     0.012 A 
ATOM     52  C   UNL A   1      48.335  27.630  24.742  1.00  0.00     0.148 A 
ATOM     53  C   UNL A   1      50.346  26.521  26.350  1.00  0.00     0.002 A 
ATOM     54  C   UNL A   1      49.532  27.210  24.174  1.00  0.00     0.091 A 
ATOM     55  F   UNL A   1      47.363  28.186  24.004  1.00  0.00    -0.205 F 
ATOM     56  C   UNL A   1      50.546  26.668  24.979  1.00  0.00     0.022 A 
BRANCH  54  57
ATOM     57  S   UNL A   1      49.791  27.217  22.397  1.00  0.00     0.127 S 
ATOM     58  O   UNL A   1      49.647  28.633  22.078  1.00  0.00    -0.237 OA
ATOM     59  O   UNL A   1      51.152  26.693  22.280  1.00  0.00    -0.237 OA
ATOM     60  O   UNL A   1      48.767  26.331  21.859  1.00  0.00    -0.744 OA
ENDBRANCH  54  57
ENDBRANCH  26  50
BRANCH  38  61
ATOM     61  C   UNL A   1      45.235  33.080  29.076  1.00  0.00     0.023 A 
ATOM     62  C   UNL A   1      45.898  33.391  30.279  1.00  0.00     0.012 A 
ATOM     63  C   UNL A   1      45.106  34.064  28.078  1.00  0.00     0.148 A 
ATOM     64  C   UNL A   1      46.402  34.671  30.497  1.00  0.00     0.002 A 
ATOM     65  C   UNL A   1      45.648  35.325  28.286  1.00  0.00     0.091 A 
ATOM     66  F   UNL A   1      44.451  33.751  26.951  1.00  0.00    -0.205 F 
ATOM     67  C   UNL A   1      46.287  35.634  29.497  1.00  0.00     0.022 A 
BRANCH  65  68
ATOM     68  S   UNL A   1      45.619  36.599  27.019  1.00  0.00     0.127 S 
ATOM     69  O   UNL A   1      44.187  36.864  26.895  1.00  0.00    -0.237 OA
ATOM     70  O   UNL A   1      46.388  37.677  27.641  1.00  0.00    -0.237 OA
ATOM     71  O   UNL A   1      46.253  36.008  25.848  1.00  0.00    -0.744 OA
ENDBRANCH  65  68
ENDBRANCH  38  61
ENDBRANCH  12  13
ENDBRANCH   5   7
ENDBRANCH   2   3
ENDBRANCH   1   2
BRANCH   1  72
ATOM     72  C   UNL A   1      36.294  20.272  25.046  1.00  0.00     0.023 C 
BRANCH  72  73
ATOM     73  C   UNL A   1      36.207  21.651  25.697  1.00  0.00     0.116 C 
BRANCH  73  74
ATOM     74  N   UNL A   1      35.305  21.634  26.828  1.00  0.00    -0.354 N 
ATOM     75  C   UNL A   1      34.089  22.206  27.014  1.00  0.00     0.242 C 
ATOM     76  H   UNL A   1      35.632  21.115  27.600  1.00  0.00     0.163 HD
ATOM     77  O   UNL A   1      33.624  22.164  28.161  1.00  0.00    -0.273 OA
BRANCH  75  78
ATOM     78  C   UNL A   1      33.305  22.953  25.911  1.00  0.00     0.173 C 
BRANCH  78  79
ATOM     79  C   UNL A   1      33.094  22.154  24.612  1.00  0.00     0.063 C 
BRANCH  79  80
ATOM     80  C   UNL A   1      32.435  20.779  24.650  1.00  0.00     0.158 C 
BRANCH  80  81
ATOM     81  O   UNL A   1      31.419  20.656  25.628  1.00  0.00    -0.396 OA
ATOM     82  H   UNL A   1      30.551  20.682  25.198  1.00  0.00     0.210 HD
ENDBRANCH  80  81
ENDBRANCH  79  80
ENDBRANCH  78  79
BRANCH  78  83
ATOM     83  N   UNL A   1      32.115  23.670  26.375  1.00  0.00    -0.340 N 
ATOM     84  C   UNL A   1      31.637  24.913  26.050  1.00  0.00     0.258 C 
ATOM     85  H   UNL A   1      31.568  23.177  27.029  1.00  0.00     0.164 HD
ATOM     86  O   UNL A   1      30.643  25.358  26.615  1.00  0.00    -0.269 OA
BRANCH  84  87
ATOM     87  C   UNL A   1      32.258  25.719  24.993  1.00  0.00     0.118 A 
ATOM     88  C   UNL A   1      33.204  26.692  25.311  1.00  0.00     0.139 A 
ATOM     89  C   UNL A   1      31.993  25.424  23.654  1.00  0.00     0.216 A 
ATOM     90  F   UNL A   1      33.559  26.916  26.583  1.00  0.00    -0.206 F 
ATOM     91  C   UNL A   1      33.826  27.440  24.316  1.00  0.00     0.047 A 
ATOM     92  C   UNL A   1      32.650  26.139  22.650  1.00  0.00     0.305 A 
ATOM     93  F   UNL A   1      31.095  24.474  23.355  1.00  0.00    -0.198 F 
ATOM     94  C   UNL A   1      33.552  27.168  22.977  1.00  0.00     0.092 A 
BRANCH  92  95
ATOM     95  N   UNL A   1      32.440  25.809  21.241  1.00  0.00     0.065 N 
ATOM     96  O   UNL A   1      31.418  26.222  20.681  1.00  0.00    -0.258 OA
ATOM     97  O   UNL A   1      33.289  25.085  20.701  1.00  0.00    -0.258 OA
ENDBRANCH  92  95
ENDBRANCH  84  87
ENDBRANCH  78  83
ENDBRANCH  75  78
ENDBRANCH  73  74
ENDBRANCH  72  73
ENDBRANCH   1  72
TORSDOF 20
ENDMDL
MODEL 2
REMARK VINA RESULT:     -11.3      5.263      8.226
REMARK SMILES O=C(NCCCCNC(=O)[C@@H](CCO)NC(=O)c1c(F)ccc([N+](=O)[O-])c1F)c1ccc(-c2c3nc(c(-c4cccc(S(=O)(=O)[O-])c4F)c4ccc([nH]4)c(-c4cccc(S(=O)(=O)[O-])c4F)c4nc(c(-c5cccc(S(=O)(=O)[O-])c5F)c5ccc2[nH]5)C=C4)C=C3)cc1
REMARK SMILES IDX 5 1 4 2 3 3 1 4 2 5 29 7 30 8 91 9 31 10 90 11 32 12 33 13
REMARK SMILES IDX 34 14 84 15 35 16 89 17 83 18 85 19 36 20 88 21 82 22 81 23
REMARK SMILES IDX 37 25 69 26 49 27 68 28 50 29 53 30 67 31 86 32 51 33 52 34
REMARK SMILES IDX 66 36 87 37 54 38 38 39 39 40 47 41 40 42 42 43 48 44 41 45
REMARK SMILES IDX 43 46 44 47 45 48 46 49 70 50 71 51 79 52 72 53 74 54 80 55
REMARK SMILES IDX 73 56 75 57 76 58 77 59 78 60 55 61 56 62 64 63 57 64 59 65
REMARK SMILES IDX 65 66 58 67 60 68 61 69 62 70 63 71 6 72 7 73 8 74 9 75
REMARK SMILES IDX 10 77 11 78 12 79 13 80 14 81 15 83 16 84 17 86 18 87 19 88
REMARK SMILES IDX 27 89 20 90 21 91 23 92 28 93 22 94 24 95 25 96 26 97
REMARK H PARENT 3 6 85 24 53 35 8 76 14 82 15 85
REMARK Flexibility Score: inf
ROOT
ATOM      1  C   UNL A   1      31.674  28.687  27.242  1.00  0.00     0.023 C 
ENDROOT
BRANCH   1   2
ATOM      2  C   UNL A   1      32.607  29.576  26.439  1.00  0.00     0.116 C 
BRANCH   2   3
ATOM      3  N   UNL A   1      32.340  30.997  26.600  1.00  0.00    -0.352 N 
ATOM      4  O   UNL A   1      32.710  33.081  27.395  1.00  0.00    -0.269 OA
ATOM      5  C   UNL A   1      33.112  31.937  27.250  1.00  0.00     0.251 C 
ATOM      6  H   UNL A   1      31.506  31.329  26.196  1.00  0.00     0.163 HD
BRANCH   5   7
ATOM      7  C   UNL A   1      34.414  31.509  27.803  1.00  0.00     0.039 A 
ATOM      8  C   UNL A   1      34.582  30.196  28.248  1.00  0.00     0.014 A 
ATOM      9  C   UNL A   1      35.436  32.448  27.956  1.00  0.00     0.014 A 
ATOM     10  C   UNL A   1      35.700  29.867  29.000  1.00  0.00     0.010 A 
ATOM     11  C   UNL A   1      36.607  32.083  28.623  1.00  0.00     0.010 A 
ATOM     12  C   UNL A   1      36.732  30.802  29.183  1.00  0.00    -0.014 A 
BRANCH  12  13
ATOM     13  C   UNL A   1      37.967  30.380  29.887  1.00  0.00     0.031 A 
ATOM     14  C   UNL A   1      38.296  30.875  31.267  1.00  0.00     0.074 A 
ATOM     15  C   UNL A   1      38.794  29.527  29.251  1.00  0.00     0.049 A 
ATOM     16  N   UNL A   1      39.336  30.596  32.009  1.00  0.00    -0.248 NA
ATOM     17  C   UNL A   1      37.345  31.806  31.897  1.00  0.00     0.031 C 
ATOM     18  C   UNL A   1      38.588  29.017  27.893  1.00  0.00     0.029 A 
ATOM     19  N   UNL A   1      39.963  28.937  29.653  1.00  0.00    -0.354 N 
ATOM     20  C   UNL A   1      39.195  31.350  33.169  1.00  0.00     0.074 A 
ATOM     21  C   UNL A   1      37.963  32.098  33.036  1.00  0.00     0.031 C 
ATOM     22  C   UNL A   1      39.574  28.165  27.587  1.00  0.00     0.029 A 
ATOM     23  C   UNL A   1      40.516  28.117  28.698  1.00  0.00     0.049 A 
ATOM     24  H   UNL A   1      40.367  29.084  30.538  1.00  0.00     0.167 HD
ATOM     25  C   UNL A   1      40.013  31.399  34.247  1.00  0.00     0.034 A 
ATOM     26  C   UNL A   1      41.667  27.421  28.702  1.00  0.00     0.034 A 
ATOM     27  C   UNL A   1      41.213  30.614  34.386  1.00  0.00     0.049 A 
ATOM     28  C   UNL A   1      42.534  27.472  29.922  1.00  0.00     0.074 A 
ATOM     29  C   UNL A   1      42.075  30.545  35.466  1.00  0.00     0.029 A 
ATOM     30  N   UNL A   1      41.720  29.764  33.415  1.00  0.00    -0.354 N 
ATOM     31  N   UNL A   1      42.325  28.103  31.052  1.00  0.00    -0.248 NA
ATOM     32  C   UNL A   1      43.785  26.704  29.880  1.00  0.00     0.031 C 
ATOM     33  C   UNL A   1      43.112  29.661  35.142  1.00  0.00     0.029 A 
ATOM     34  C   UNL A   1      42.888  29.172  33.865  1.00  0.00     0.049 A 
ATOM     35  H   UNL A   1      41.310  29.604  32.533  1.00  0.00     0.167 HD
ATOM     36  C   UNL A   1      43.411  27.801  31.862  1.00  0.00     0.074 A 
ATOM     37  C   UNL A   1      44.260  26.902  31.104  1.00  0.00     0.031 C 
ATOM     38  C   UNL A   1      43.695  28.248  33.110  1.00  0.00     0.034 A 
BRANCH  25  39
ATOM     39  C   UNL A   1      39.624  32.301  35.391  1.00  0.00     0.023 A 
ATOM     40  C   UNL A   1      38.877  31.777  36.464  1.00  0.00     0.012 A 
ATOM     41  C   UNL A   1      40.065  33.639  35.443  1.00  0.00     0.148 A 
ATOM     42  C   UNL A   1      38.556  32.575  37.562  1.00  0.00     0.002 A 
ATOM     43  C   UNL A   1      39.769  34.418  36.557  1.00  0.00     0.091 A 
ATOM     44  F   UNL A   1      40.754  34.128  34.402  1.00  0.00    -0.205 F 
ATOM     45  C   UNL A   1      39.011  33.890  37.614  1.00  0.00     0.022 A 
BRANCH  43  46
ATOM     46  S   UNL A   1      40.370  36.102  36.744  1.00  0.00     0.127 S 
ATOM     47  O   UNL A   1      41.818  35.898  36.765  1.00  0.00    -0.237 OA
ATOM     48  O   UNL A   1      39.865  36.751  35.534  1.00  0.00    -0.237 OA
ATOM     49  O   UNL A   1      39.786  36.597  37.983  1.00  0.00    -0.744 OA
ENDBRANCH  43  46
ENDBRANCH  25  39
BRANCH  26  50
ATOM     50  C   UNL A   1      42.021  26.590  27.517  1.00  0.00     0.023 A 
ATOM     51  C   UNL A   1      42.763  27.162  26.468  1.00  0.00     0.012 A 
ATOM     52  C   UNL A   1      41.704  25.219  27.469  1.00  0.00     0.148 A 
ATOM     53  C   UNL A   1      43.174  26.385  25.386  1.00  0.00     0.002 A 
ATOM     54  C   UNL A   1      42.171  24.437  26.419  1.00  0.00     0.091 A 
ATOM     55  F   UNL A   1      40.978  24.696  28.467  1.00  0.00    -0.205 F 
ATOM     56  C   UNL A   1      42.894  25.020  25.368  1.00  0.00     0.022 A 
BRANCH  54  57
ATOM     57  S   UNL A   1      41.990  22.649  26.417  1.00  0.00     0.127 S 
ATOM     58  O   UNL A   1      40.546  22.494  26.277  1.00  0.00    -0.237 OA
ATOM     59  O   UNL A   1      42.769  22.260  25.241  1.00  0.00    -0.237 OA
ATOM     60  O   UNL A   1      42.563  22.206  27.681  1.00  0.00    -0.744 OA
ENDBRANCH  54  57
ENDBRANCH  26  50
BRANCH  38  61
ATOM     61  C   UNL A   1      44.975  27.765  33.735  1.00  0.00     0.023 A 
ATOM     62  C   UNL A   1      46.145  28.536  33.591  1.00  0.00     0.012 A 
ATOM     63  C   UNL A   1      45.006  26.590  34.508  1.00  0.00     0.148 A 
ATOM     64  C   UNL A   1      47.338  28.128  34.187  1.00  0.00     0.002 A 
ATOM     65  C   UNL A   1      46.188  26.211  35.132  1.00  0.00     0.091 A 
ATOM     66  F   UNL A   1      43.886  25.861  34.611  1.00  0.00    -0.205 F 
ATOM     67  C   UNL A   1      47.356  26.973  34.965  1.00  0.00     0.022 A 
BRANCH  65  68
ATOM     68  S   UNL A   1      46.280  24.785  36.221  1.00  0.00     0.127 S 
ATOM     69  O   UNL A   1      46.011  23.686  35.296  1.00  0.00    -0.237 OA
ATOM     70  O   UNL A   1      47.659  24.850  36.707  1.00  0.00    -0.237 OA
ATOM     71  O   UNL A   1      45.270  25.005  37.249  1.00  0.00    -0.744 OA
ENDBRANCH  65  68
ENDBRANCH  38  61
ENDBRANCH  12  13
ENDBRANCH   5   7
ENDBRANCH   2   3
ENDBRANCH   1   2
BRANCH   1  72
ATOM     72  C   UNL A   1      31.441  27.301  26.655  1.00  0.00     0.023 C 
BRANCH  72  73
ATOM     73  C   UNL A   1      32.692  26.593  26.139  1.00  0.00     0.116 C 
BRANCH  73  74
ATOM     74  N   UNL A   1      32.404  25.217  25.795  1.00  0.00    -0.354 N 
ATOM     75  C   UNL A   1      32.966  24.385  24.883  1.00  0.00     0.242 C 
ATOM     76  H   UNL A   1      31.670  24.814  26.315  1.00  0.00     0.163 HD
ATOM     77  O   UNL A   1      32.391  23.306  24.686  1.00  0.00    -0.273 OA
BRANCH  75  78
ATOM     78  C   UNL A   1      34.216  24.736  24.043  1.00  0.00     0.173 C 
BRANCH  78  79
ATOM     79  C   UNL A   1      35.519  24.062  24.509  1.00  0.00     0.063 C 
BRANCH  79  80
ATOM     80  C   UNL A   1      36.083  22.864  23.750  1.00  0.00     0.158 C 
BRANCH  80  81
ATOM     81  O   UNL A   1      36.929  23.216  22.671  1.00  0.00    -0.396 OA
ATOM     82  H   UNL A   1      36.686  22.698  21.888  1.00  0.00     0.210 HD
ENDBRANCH  80  81
ENDBRANCH  79  80
ENDBRANCH  78  79
BRANCH  78  83
ATOM     83  N   UNL A   1      34.013  24.713  22.594  1.00  0.00    -0.340 N 
ATOM     84  C   UNL A   1      33.205  25.476  21.791  1.00  0.00     0.258 C 
ATOM     85  H   UNL A   1      34.546  24.037  22.115  1.00  0.00     0.164 HD
ATOM     86  O   UNL A   1      33.132  25.244  20.589  1.00  0.00    -0.269 OA
BRANCH  84  87
ATOM     87  C   UNL A   1      32.452  26.615  22.328  1.00  0.00     0.118 A 
ATOM     88  C   UNL A   1      33.030  27.883  22.377  1.00  0.00     0.139 A 
ATOM     89  C   UNL A   1      31.109  26.454  22.676  1.00  0.00     0.216 A 
ATOM     90  F   UNL A   1      34.280  28.086  21.943  1.00  0.00    -0.206 F 
ATOM     91  C   UNL A   1      32.315  28.979  22.853  1.00  0.00     0.047 A 
ATOM     92  C   UNL A   1      30.373  27.560  23.109  1.00  0.00     0.305 A 
ATOM     93  F   UNL A   1      30.555  25.235  22.610  1.00  0.00    -0.198 F 
ATOM     94  C   UNL A   1      30.981  28.823  23.222  1.00  0.00     0.092 A 
BRANCH  92  95
ATOM     95  N   UNL A   1      28.950  27.433  23.418  1.00  0.00     0.065 N 
ATOM     96  O   UNL A   1      28.170  28.288  22.985  1.00  0.00    -0.258 OA
ATOM     97  O   UNL A   1      28.616  26.486  24.146  1.00  0.00    -0.258 OA
ENDBRANCH  92  95
ENDBRANCH  84  87
ENDBRANCH  78  83
ENDBRANCH  75  78
ENDBRANCH  73  74
ENDBRANCH  72  73
ENDBRANCH   1  72
TORSDOF 20
ENDMDL
MODEL 3
REMARK VINA RESULT:     -11.2      2.114      3.622
REMARK SMILES O=C(NCCCCNC(=O)[C@@H](CCO)NC(=O)c1c(F)ccc([N+](=O)[O-])c1F)c1ccc(-c2c3nc(c(-c4cccc(S(=O)(=O)[O-])c4F)c4ccc([nH]4)c(-c4cccc(S(=O)(=O)[O-])c4F)c4nc(c(-c5cccc(S(=O)(=O)[O-])c5F)c5ccc2[nH]5)C=C4)C=C3)cc1
REMARK SMILES IDX 5 1 4 2 3 3 1 4 2 5 29 7 30 8 91 9 31 10 90 11 32 12 33 13
REMARK SMILES IDX 34 14 84 15 35 16 89 17 83 18 85 19 36 20 88 21 82 22 81 23
REMARK SMILES IDX 37 25 69 26 49 27 68 28 50 29 53 30 67 31 86 32 51 33 52 34
REMARK SMILES IDX 66 36 87 37 54 38 38 39 39 40 47 41 40 42 42 43 48 44 41 45
REMARK SMILES IDX 43 46 44 47 45 48 46 49 70 50 71 51 79 52 72 53 74 54 80 55
REMARK SMILES IDX 73 56 75 57 76 58 77 59 78 60 55 61 56 62 64 63 57 64 59 65
REMARK SMILES IDX 65 66 58 67 60 68 61 69 62 70 63 71 6 72 7 73 8 74 9 75
REMARK SMILES IDX 10 77 11 78 12 79 13 80 14 81 15 83 16 84 17 86 18 87 19 88
REMARK SMILES IDX 27 89 20 90 21 91 23 92 28 93 22 94 24 95 25 96 26 97
REMARK H PARENT 3 6 85 24 53 35 8 76 14 82 15 85
REMARK Flexibility Score: inf
ROOT
ATOM      1  C   UNL A   1      34.807  22.641  24.926  1.00  0.00     0.023 C 
ENDROOT
BRANCH   1   2
ATOM      2  C   UNL A   1      35.890  22.478  25.976  1.00  0.00     0.116 C 
BRANCH   2   3
ATOM      3  N   UNL A   1      36.832  21.408  25.681  1.00  0.00    -0.352 N 
ATOM      4  O   UNL A   1      38.879  20.488  25.408  1.00  0.00    -0.269 OA
ATOM      5  C   UNL A   1      38.206  21.433  25.790  1.00  0.00     0.251 C 
ATOM      6  H   UNL A   1      36.440  20.562  25.365  1.00  0.00     0.163 HD
BRANCH   5   7
ATOM      7  C   UNL A   1      38.840  22.650  26.340  1.00  0.00     0.039 A 
ATOM      8  C   UNL A   1      38.395  23.909  25.932  1.00  0.00     0.014 A 
ATOM      9  C   UNL A   1      39.939  22.525  27.193  1.00  0.00     0.014 A 
ATOM     10  C   UNL A   1      39.150  25.032  26.236  1.00  0.00     0.010 A 
ATOM     11  C   UNL A   1      40.637  23.670  27.583  1.00  0.00     0.010 A 
ATOM     12  C   UNL A   1      40.271  24.928  27.077  1.00  0.00    -0.014 A 
BRANCH  12  13
ATOM     13  C   UNL A   1      40.983  26.164  27.481  1.00  0.00     0.031 A 
ATOM     14  C   UNL A   1      40.319  27.218  28.320  1.00  0.00     0.074 A 
ATOM     15  C   UNL A   1      42.259  26.316  27.075  1.00  0.00     0.049 A 
ATOM     16  N   UNL A   1      40.812  28.351  28.752  1.00  0.00    -0.248 NA
ATOM     17  C   UNL A   1      38.924  26.983  28.724  1.00  0.00     0.031 C 
ATOM     18  C   UNL A   1      42.985  25.370  26.224  1.00  0.00     0.029 A 
ATOM     19  N   UNL A   1      43.171  27.308  27.320  1.00  0.00    -0.354 N 
ATOM     20  C   UNL A   1      39.780  28.985  29.433  1.00  0.00     0.074 A 
ATOM     21  C   UNL A   1      38.630  28.109  29.363  1.00  0.00     0.031 C 
ATOM     22  C   UNL A   1      44.238  25.807  26.046  1.00  0.00     0.029 A 
ATOM     23  C   UNL A   1      44.386  27.094  26.714  1.00  0.00     0.049 A 
ATOM     24  H   UNL A   1      42.976  28.097  27.875  1.00  0.00     0.167 HD
ATOM     25  C   UNL A   1      39.799  30.181  30.069  1.00  0.00     0.034 A 
ATOM     26  C   UNL A   1      45.493  27.857  26.677  1.00  0.00     0.034 A 
ATOM     27  C   UNL A   1      40.965  31.022  30.170  1.00  0.00     0.049 A 
ATOM     28  C   UNL A   1      45.493  29.161  27.416  1.00  0.00     0.074 A 
ATOM     29  C   UNL A   1      41.104  32.221  30.846  1.00  0.00     0.029 A 
ATOM     30  N   UNL A   1      42.190  30.753  29.578  1.00  0.00    -0.354 N 
ATOM     31  N   UNL A   1      44.542  29.689  28.148  1.00  0.00    -0.248 NA
ATOM     32  C   UNL A   1      46.718  29.966  27.342  1.00  0.00     0.031 C 
ATOM     33  C   UNL A   1      42.411  32.684  30.652  1.00  0.00     0.029 A 
ATOM     34  C   UNL A   1      43.089  31.766  29.865  1.00  0.00     0.049 A 
ATOM     35  H   UNL A   1      42.392  29.957  29.033  1.00  0.00     0.167 HD
ATOM     36  C   UNL A   1      45.056  30.884  28.633  1.00  0.00     0.074 A 
ATOM     37  C   UNL A   1      46.415  30.984  28.138  1.00  0.00     0.031 C 
ATOM     38  C   UNL A   1      44.450  31.826  29.396  1.00  0.00     0.034 A 
BRANCH  25  39
ATOM     39  C   UNL A   1      38.535  30.644  30.746  1.00  0.00     0.023 A 
ATOM     40  C   UNL A   1      38.356  30.398  32.121  1.00  0.00     0.012 A 
ATOM     41  C   UNL A   1      37.566  31.390  30.045  1.00  0.00     0.148 A 
ATOM     42  C   UNL A   1      37.222  30.869  32.785  1.00  0.00     0.002 A 
ATOM     43  C   UNL A   1      36.456  31.884  30.721  1.00  0.00     0.091 A 
ATOM     44  F   UNL A   1      37.742  31.593  28.731  1.00  0.00    -0.205 F 
ATOM     45  C   UNL A   1      36.279  31.620  32.089  1.00  0.00     0.022 A 
BRANCH  43  46
ATOM     46  S   UNL A   1      35.222  32.920  29.923  1.00  0.00     0.127 S 
ATOM     47  O   UNL A   1      34.377  33.297  31.055  1.00  0.00    -0.237 OA
ATOM     48  O   UNL A   1      36.033  34.010  29.380  1.00  0.00    -0.237 OA
ATOM     49  O   UNL A   1      34.588  32.080  28.916  1.00  0.00    -0.744 OA
ENDBRANCH  43  46
ENDBRANCH  25  39
BRANCH  26  50
ATOM     50  C   UNL A   1      46.693  27.368  25.944  1.00  0.00     0.023 A 
ATOM     51  C   UNL A   1      46.843  27.674  24.579  1.00  0.00     0.012 A 
ATOM     52  C   UNL A   1      47.724  26.680  26.612  1.00  0.00     0.148 A 
ATOM     53  C   UNL A   1      47.995  27.294  23.891  1.00  0.00     0.002 A 
ATOM     54  C   UNL A   1      48.896  26.361  25.937  1.00  0.00     0.091 A 
ATOM     55  F   UNL A   1      47.555  26.378  27.908  1.00  0.00    -0.205 F 
ATOM     56  C   UNL A   1      49.028  26.654  24.571  1.00  0.00     0.022 A 
BRANCH  54  57
ATOM     57  S   UNL A   1      50.327  25.687  26.789  1.00  0.00     0.127 S 
ATOM     58  O   UNL A   1      49.788  24.453  27.352  1.00  0.00    -0.237 OA
ATOM     59  O   UNL A   1      51.280  25.500  25.694  1.00  0.00    -0.237 OA
ATOM     60  O   UNL A   1      50.718  26.712  27.747  1.00  0.00    -0.744 OA
ENDBRANCH  54  57
ENDBRANCH  26  50
BRANCH  38  61
ATOM     61  C   UNL A   1      45.257  33.046  29.747  1.00  0.00     0.023 A 
ATOM     62  C   UNL A   1      46.055  33.034  30.907  1.00  0.00     0.012 A 
ATOM     63  C   UNL A   1      45.273  34.172  28.903  1.00  0.00     0.148 A 
ATOM     64  C   UNL A   1      46.837  34.139  31.238  1.00  0.00     0.002 A 
ATOM     65  C   UNL A   1      46.086  35.253  29.217  1.00  0.00     0.091 A 
ATOM     66  F   UNL A   1      44.487  34.168  27.816  1.00  0.00    -0.205 F 
ATOM     67  C   UNL A   1      46.861  35.243  30.388  1.00  0.00     0.022 A 
BRANCH  65  68
ATOM     68  S   UNL A   1      46.241  36.679  28.136  1.00  0.00     0.127 S 
ATOM     69  O   UNL A   1      46.701  36.062  26.893  1.00  0.00    -0.237 OA
ATOM     70  O   UNL A   1      44.871  37.190  28.092  1.00  0.00    -0.237 OA
ATOM     71  O   UNL A   1      47.193  37.569  28.787  1.00  0.00    -0.744 OA
ENDBRANCH  65  68
ENDBRANCH  38  61
ENDBRANCH  12  13
ENDBRANCH   5   7
ENDBRANCH   2   3
ENDBRANCH   1   2
BRANCH   1  72
ATOM     72  C   UNL A   1      34.920  23.898  24.074  1.00  0.00     0.023 C 
BRANCH  72  73
ATOM     73  C   UNL A   1      34.214  25.131  24.634  1.00  0.00     0.116 C 
BRANCH  73  74
ATOM     74  N   UNL A   1      34.278  26.234  23.700  1.00  0.00    -0.354 N 
ATOM     75  C   UNL A   1      33.592  27.403  23.645  1.00  0.00     0.242 C 
ATOM     76  H   UNL A   1      34.936  26.115  22.976  1.00  0.00     0.163 HD
ATOM     77  O   UNL A   1      33.736  28.085  22.622  1.00  0.00    -0.273 OA
BRANCH  75  78
ATOM     78  C   UNL A   1      32.607  27.882  24.736  1.00  0.00     0.173 C 
BRANCH  78  79
ATOM     79  C   UNL A   1      33.129  29.026  25.624  1.00  0.00     0.063 C 
BRANCH  79  80
ATOM     80  C   UNL A   1      32.155  29.993  26.290  1.00  0.00     0.158 C 
BRANCH  80  81
ATOM     81  O   UNL A   1      31.389  30.755  25.376  1.00  0.00    -0.396 OA
ATOM     82  H   UNL A   1      31.004  31.518  25.834  1.00  0.00     0.210 HD
ENDBRANCH  80  81
ENDBRANCH  79  80
ENDBRANCH  78  79
BRANCH  78  83
ATOM     83  N   UNL A   1      31.224  28.055  24.288  1.00  0.00    -0.340 N 
ATOM     84  C   UNL A   1      30.260  27.128  23.983  1.00  0.00     0.258 C 
ATOM     85  H   UNL A   1      30.937  28.992  24.189  1.00  0.00     0.164 HD
ATOM     86  O   UNL A   1      29.170  27.489  23.554  1.00  0.00    -0.269 OA
BRANCH  84  87
ATOM     87  C   UNL A   1      30.480  25.694  24.209  1.00  0.00     0.118 A 
ATOM     88  C   UNL A   1      30.910  24.874  23.167  1.00  0.00     0.139 A 
ATOM     89  C   UNL A   1      30.379  25.175  25.501  1.00  0.00     0.216 A 
ATOM     90  F   UNL A   1      31.125  25.373  21.942  1.00  0.00    -0.206 F 
ATOM     91  C   UNL A   1      31.156  23.520  23.375  1.00  0.00     0.047 A 
ATOM     92  C   UNL A   1      30.670  23.827  25.724  1.00  0.00     0.305 A 
ATOM     93  F   UNL A   1      29.982  25.974  26.501  1.00  0.00    -0.198 F 
ATOM     94  C   UNL A   1      31.036  22.988  24.656  1.00  0.00     0.092 A 
BRANCH  92  95
ATOM     95  N   UNL A   1      30.634  23.272  27.076  1.00  0.00     0.065 N 
ATOM     96  O   UNL A   1      29.536  23.100  27.618  1.00  0.00    -0.258 OA
ATOM     97  O   UNL A   1      31.725  23.047  27.621  1.00  0.00    -0.258 OA
ENDBRANCH  92  95
ENDBRANCH  84  87
ENDBRANCH  78  83
ENDBRANCH  75  78
ENDBRANCH  73  74
ENDBRANCH  72  73
ENDBRANCH   1  72
TORSDOF 20
ENDMDL
