MODEL 1
REMARK VINA RESULT:     -13.8      0.000      0.000
REMARK SMILES O=C(NCCCCNC(=O)[C@@H](Cc1ccccc1)N1C(=O)/C(=C/c2ccc3ncccc3c2)SC1=S)c1ccc(-c2c3nc(c(-c4cccc(S(=O)(=O)[O-])c4F)c4ccc([nH]4)c(-c4cccc(S(=O)(=O)[O-])c4F)c4nc(c(-c5cccc(S(=O)(=O)[O-])c5F)c5ccc2[nH]5)C=C4)C=C3)cc1
REMARK SMILES IDX 5 1 4 2 3 3 1 4 2 5 37 7 38 8 99 9 39 10 98 11 40 12 41 13
REMARK SMILES IDX 42 14 92 15 43 16 97 17 91 18 93 19 44 20 96 21 90 22 89 23
REMARK SMILES IDX 45 25 77 26 57 27 76 28 58 29 61 30 75 31 94 32 59 33 60 34
REMARK SMILES IDX 74 36 95 37 62 38 46 39 47 40 55 41 48 42 50 43 56 44 49 45
REMARK SMILES IDX 51 46 52 47 53 48 54 49 78 50 79 51 87 52 80 53 82 54 88 55
REMARK SMILES IDX 81 56 83 57 84 58 85 59 86 60 63 61 64 62 72 63 65 64 67 65
REMARK SMILES IDX 73 66 66 67 68 68 69 69 70 70 71 71 6 72 7 73 8 74 9 75
REMARK SMILES IDX 10 77 11 78 12 79 13 80 14 81 18 82 15 83 17 84 16 85 19 86
REMARK SMILES IDX 20 87 35 88 21 89 22 90 34 91 36 92 23 93 24 94 25 95 33 96
REMARK SMILES IDX 26 97 32 98 27 99 31 100 28 101 30 102 29 103
REMARK H PARENT 3 6 93 24 61 35 8 76
REMARK Flexibility Score: inf
ROOT
ATOM      1  C   UNL A   1      31.644  30.039  26.984  1.00  0.00     0.023 C 
ENDROOT
BRANCH   1   2
ATOM      2  C   UNL A   1      32.206  31.260  26.266  1.00  0.00     0.116 C 
BRANCH   2   3
ATOM      3  N   UNL A   1      32.044  32.521  26.980  1.00  0.00    -0.352 N 
ATOM      4  O   UNL A   1      32.701  34.218  28.339  1.00  0.00    -0.269 OA
ATOM      5  C   UNL A   1      32.979  33.169  27.767  1.00  0.00     0.251 C 
ATOM      6  H   UNL A   1      31.169  32.962  26.893  1.00  0.00     0.163 HD
BRANCH   5   7
ATOM      7  C   UNL A   1      34.298  32.523  27.955  1.00  0.00     0.039 A 
ATOM      8  C   UNL A   1      34.365  31.183  28.337  1.00  0.00     0.014 A 
ATOM      9  C   UNL A   1      35.450  33.312  27.932  1.00  0.00     0.014 A 
ATOM     10  C   UNL A   1      35.530  30.706  28.924  1.00  0.00     0.010 A 
ATOM     11  C   UNL A   1      36.650  32.789  28.423  1.00  0.00     0.010 A 
ATOM     12  C   UNL A   1      36.682  31.511  29.002  1.00  0.00    -0.014 A 
BRANCH  12  13
ATOM     13  C   UNL A   1      37.880  30.998  29.724  1.00  0.00     0.031 A 
ATOM     14  C   UNL A   1      38.147  31.365  31.165  1.00  0.00     0.074 A 
ATOM     15  C   UNL A   1      38.711  30.147  29.091  1.00  0.00     0.049 A 
ATOM     16  N   UNL A   1      39.117  30.964  31.949  1.00  0.00    -0.248 NA
ATOM     17  C   UNL A   1      37.219  32.309  31.810  1.00  0.00     0.031 C 
ATOM     18  C   UNL A   1      38.584  29.737  27.690  1.00  0.00     0.029 A 
ATOM     19  N   UNL A   1      39.809  29.458  29.539  1.00  0.00    -0.354 N 
ATOM     20  C   UNL A   1      38.955  31.651  33.148  1.00  0.00     0.074 A 
ATOM     21  C   UNL A   1      37.789  32.492  32.994  1.00  0.00     0.031 C 
ATOM     22  C   UNL A   1      39.526  28.824  27.412  1.00  0.00     0.029 A 
ATOM     23  C   UNL A   1      40.360  28.628  28.592  1.00  0.00     0.049 A 
ATOM     24  H   UNL A   1      40.168  29.549  30.452  1.00  0.00     0.167 HD
ATOM     25  C   UNL A   1      39.698  31.578  34.280  1.00  0.00     0.034 A 
ATOM     26  C   UNL A   1      41.418  27.797  28.659  1.00  0.00     0.034 A 
ATOM     27  C   UNL A   1      40.808  30.680  34.464  1.00  0.00     0.049 A 
ATOM     28  C   UNL A   1      42.176  27.679  29.950  1.00  0.00     0.074 A 
ATOM     29  C   UNL A   1      41.577  30.487  35.598  1.00  0.00     0.029 A 
ATOM     30  N   UNL A   1      41.300  29.819  33.497  1.00  0.00    -0.354 N 
ATOM     31  N   UNL A   1      41.938  28.261  31.101  1.00  0.00    -0.248 NA
ATOM     32  C   UNL A   1      43.331  26.773  29.960  1.00  0.00     0.031 C 
ATOM     33  C   UNL A   1      42.537  29.507  35.317  1.00  0.00     0.029 A 
ATOM     34  C   UNL A   1      42.361  29.089  34.008  1.00  0.00     0.049 A 
ATOM     35  H   UNL A   1      40.948  29.738  32.581  1.00  0.00     0.167 HD
ATOM     36  C   UNL A   1      42.902  27.777  31.976  1.00  0.00     0.074 A 
ATOM     37  C   UNL A   1      43.708  26.832  31.231  1.00  0.00     0.031 C 
ATOM     38  C   UNL A   1      43.115  28.108  33.273  1.00  0.00     0.034 A 
BRANCH  25  39
ATOM     39  C   UNL A   1      39.311  32.460  35.439  1.00  0.00     0.023 A 
ATOM     40  C   UNL A   1      38.517  31.936  36.478  1.00  0.00     0.012 A 
ATOM     41  C   UNL A   1      39.798  33.778  35.540  1.00  0.00     0.148 A 
ATOM     42  C   UNL A   1      38.194  32.716  37.588  1.00  0.00     0.002 A 
ATOM     43  C   UNL A   1      39.501  34.539  36.667  1.00  0.00     0.091 A 
ATOM     44  F   UNL A   1      40.531  34.270  34.532  1.00  0.00    -0.205 F 
ATOM     45  C   UNL A   1      38.694  34.012  37.688  1.00  0.00     0.022 A 
BRANCH  43  46
ATOM     46  S   UNL A   1      40.169  36.190  36.910  1.00  0.00     0.127 S 
ATOM     47  O   UNL A   1      41.592  35.911  37.087  1.00  0.00    -0.237 OA
ATOM     48  O   UNL A   1      39.831  36.855  35.651  1.00  0.00    -0.237 OA
ATOM     49  O   UNL A   1      39.476  36.725  38.075  1.00  0.00    -0.744 OA
ENDBRANCH  43  46
ENDBRANCH  25  39
BRANCH  26  50
ATOM     50  C   UNL A   1      41.766  26.958  27.478  1.00  0.00     0.023 A 
ATOM     51  C   UNL A   1      42.478  27.535  26.409  1.00  0.00     0.012 A 
ATOM     52  C   UNL A   1      41.465  25.584  27.441  1.00  0.00     0.148 A 
ATOM     53  C   UNL A   1      42.874  26.759  25.320  1.00  0.00     0.002 A 
ATOM     54  C   UNL A   1      41.916  24.805  26.383  1.00  0.00     0.091 A 
ATOM     55  F   UNL A   1      40.764  25.057  28.456  1.00  0.00    -0.205 F 
ATOM     56  C   UNL A   1      42.608  25.392  25.313  1.00  0.00     0.022 A 
BRANCH  54  57
ATOM     57  S   UNL A   1      41.752  23.016  26.394  1.00  0.00     0.127 S 
ATOM     58  O   UNL A   1      42.413  22.646  25.145  1.00  0.00    -0.237 OA
ATOM     59  O   UNL A   1      42.480  22.645  27.610  1.00  0.00    -0.237 OA
ATOM     60  O   UNL A   1      40.319  22.766  26.462  1.00  0.00    -0.744 OA
ENDBRANCH  54  57
ENDBRANCH  26  50
BRANCH  38  61
ATOM     61  C   UNL A   1      44.255  27.427  33.980  1.00  0.00     0.023 A 
ATOM     62  C   UNL A   1      45.516  28.053  34.024  1.00  0.00     0.012 A 
ATOM     63  C   UNL A   1      44.068  26.201  34.645  1.00  0.00     0.148 A 
ATOM     64  C   UNL A   1      46.581  27.457  34.697  1.00  0.00     0.002 A 
ATOM     65  C   UNL A   1      45.124  25.631  35.347  1.00  0.00     0.091 A 
ATOM     66  F   UNL A   1      42.868  25.604  34.572  1.00  0.00    -0.205 F 
ATOM     67  C   UNL A   1      46.383  26.251  35.367  1.00  0.00     0.022 A 
BRANCH  65  68
ATOM     68  S   UNL A   1      44.916  24.122  36.301  1.00  0.00     0.127 S 
ATOM     69  O   UNL A   1      43.899  24.517  37.272  1.00  0.00    -0.237 OA
ATOM     70  O   UNL A   1      44.455  23.166  35.291  1.00  0.00    -0.237 OA
ATOM     71  O   UNL A   1      46.234  23.823  36.846  1.00  0.00    -0.744 OA
ENDBRANCH  65  68
ENDBRANCH  38  61
ENDBRANCH  12  13
ENDBRANCH   5   7
ENDBRANCH   2   3
ENDBRANCH   1   2
BRANCH   1  72
ATOM     72  C   UNL A   1      32.019  28.704  26.357  1.00  0.00     0.023 C 
BRANCH  72  73
ATOM     73  C   UNL A   1      33.496  28.558  25.998  1.00  0.00     0.116 C 
BRANCH  73  74
ATOM     74  N   UNL A   1      33.745  28.907  24.615  1.00  0.00    -0.354 N 
ATOM     75  C   UNL A   1      32.971  28.787  23.505  1.00  0.00     0.243 C 
ATOM     76  H   UNL A   1      34.632  29.301  24.449  1.00  0.00     0.163 HD
ATOM     77  O   UNL A   1      33.409  29.298  22.466  1.00  0.00    -0.273 OA
BRANCH  75  78
ATOM     78  C   UNL A   1      31.622  28.031  23.468  1.00  0.00     0.185 C 
BRANCH  78  79
ATOM     79  C   UNL A   1      30.728  28.591  22.309  1.00  0.00     0.071 C 
BRANCH  79  80
ATOM     80  C   UNL A   1      29.838  29.815  22.431  1.00  0.00    -0.045 A 
ATOM     81  C   UNL A   1      29.194  30.457  21.366  1.00  0.00     0.004 A 
ATOM     82  C   UNL A   1      29.586  30.303  23.729  1.00  0.00     0.004 A 
ATOM     83  C   UNL A   1      28.389  31.585  21.579  1.00  0.00     0.000 A 
ATOM     84  C   UNL A   1      28.780  31.426  23.945  1.00  0.00     0.000 A 
ATOM     85  C   UNL A   1      28.190  32.074  22.866  1.00  0.00     0.000 A 
ENDBRANCH  79  80
ENDBRANCH  78  79
BRANCH  78  86
ATOM     86  N   UNL A   1      31.513  26.579  23.739  1.00  0.00    -0.280 N 
ATOM     87  C   UNL A   1      32.619  25.797  23.411  1.00  0.00     0.266 C 
ATOM     88  C   UNL A   1      30.385  25.852  24.062  1.00  0.00     0.149 C 
ATOM     89  O   UNL A   1      33.614  26.163  22.801  1.00  0.00    -0.268 OA
ATOM     90  C   UNL A   1      32.429  24.394  23.857  1.00  0.00     0.081 C 
ATOM     91  S   UNL A   1      30.851  24.209  24.494  1.00  0.00    -0.054 SA
ATOM     92  S   UNL A   1      28.773  26.263  24.062  1.00  0.00    -0.052 S 
ATOM     93  C   UNL A   1      33.411  23.483  23.781  1.00  0.00     0.029 C 
BRANCH  93  94
ATOM     94  C   UNL A   1      33.329  22.110  24.292  1.00  0.00    -0.024 A 
ATOM     95  C   UNL A   1      33.444  21.884  25.664  1.00  0.00     0.010 A 
ATOM     96  C   UNL A   1      33.091  21.022  23.448  1.00  0.00     0.018 A 
ATOM     97  C   UNL A   1      33.250  20.599  26.184  1.00  0.00     0.029 A 
ATOM     98  C   UNL A   1      32.852  19.744  23.978  1.00  0.00     0.001 A 
ATOM     99  C   UNL A   1      32.927  19.522  25.369  1.00  0.00     0.070 A 
ATOM    100  C   UNL A   1      32.497  18.669  23.154  1.00  0.00     0.012 A 
ATOM    101  N   UNL A   1      32.678  18.321  25.916  1.00  0.00    -0.256 NA
ATOM    102  C   UNL A   1      32.210  17.435  23.719  1.00  0.00     0.021 A 
ATOM    103  C   UNL A   1      32.313  17.313  25.092  1.00  0.00     0.112 A 
ENDBRANCH  93  94
ENDBRANCH  78  86
ENDBRANCH  75  78
ENDBRANCH  73  74
ENDBRANCH  72  73
ENDBRANCH   1  72
TORSDOF 18
ENDMDL
MODEL 2
REMARK VINA RESULT:     -13.6      1.622      2.064
REMARK SMILES O=C(NCCCCNC(=O)[C@@H](Cc1ccccc1)N1C(=O)/C(=C/c2ccc3ncccc3c2)SC1=S)c1ccc(-c2c3nc(c(-c4cccc(S(=O)(=O)[O-])c4F)c4ccc([nH]4)c(-c4cccc(S(=O)(=O)[O-])c4F)c4nc(c(-c5cccc(S(=O)(=O)[O-])c5F)c5ccc2[nH]5)C=C4)C=C3)cc1
REMARK SMILES IDX 5 1 4 2 3 3 1 4 2 5 37 7 38 8 99 9 39 10 98 11 40 12 41 13
REMARK SMILES IDX 42 14 92 15 43 16 97 17 91 18 93 19 44 20 96 21 90 22 89 23
REMARK SMILES IDX 45 25 77 26 57 27 76 28 58 29 61 30 75 31 94 32 59 33 60 34
REMARK SMILES IDX 74 36 95 37 62 38 46 39 47 40 55 41 48 42 50 43 56 44 49 45
REMARK SMILES IDX 51 46 52 47 53 48 54 49 78 50 79 51 87 52 80 53 82 54 88 55
REMARK SMILES IDX 81 56 83 57 84 58 85 59 86 60 63 61 64 62 72 63 65 64 67 65
REMARK SMILES IDX 73 66 66 67 68 68 69 69 70 70 71 71 6 72 7 73 8 74 9 75
REMARK SMILES IDX 10 77 11 78 12 79 13 80 14 81 18 82 15 83 17 84 16 85 19 86
REMARK SMILES IDX 20 87 35 88 21 89 22 90 34 91 36 92 23 93 24 94 25 95 33 96
REMARK SMILES IDX 26 97 32 98 27 99 31 100 28 101 30 102 29 103
REMARK H PARENT 3 6 93 24 61 35 8 76
REMARK Flexibility Score: inf
ROOT
ATOM      1  C   UNL A   1      31.477  31.287  26.772  1.00  0.00     0.023 C 
ENDROOT
BRANCH   1   2
ATOM      2  C   UNL A   1      32.376  32.475  26.456  1.00  0.00     0.116 C 
BRANCH   2   3
ATOM      3  N   UNL A   1      32.262  33.596  27.381  1.00  0.00    -0.352 N 
ATOM      4  O   UNL A   1      32.942  34.945  29.077  1.00  0.00    -0.269 OA
ATOM      5  C   UNL A   1      33.177  33.994  28.339  1.00  0.00     0.251 C 
ATOM      6  H   UNL A   1      31.439  34.131  27.318  1.00  0.00     0.163 HD
BRANCH   5   7
ATOM      7  C   UNL A   1      34.414  33.195  28.493  1.00  0.00     0.039 A 
ATOM      8  C   UNL A   1      34.354  31.928  29.072  1.00  0.00     0.014 A 
ATOM      9  C   UNL A   1      35.648  33.795  28.230  1.00  0.00     0.014 A 
ATOM     10  C   UNL A   1      35.510  31.373  29.606  1.00  0.00     0.010 A 
ATOM     11  C   UNL A   1      36.821  33.177  28.674  1.00  0.00     0.010 A 
ATOM     12  C   UNL A   1      36.756  32.003  29.441  1.00  0.00    -0.014 A 
BRANCH  12  13
ATOM     13  C   UNL A   1      37.957  31.428  30.110  1.00  0.00     0.031 A 
ATOM     14  C   UNL A   1      38.310  31.785  31.535  1.00  0.00     0.074 A 
ATOM     15  C   UNL A   1      38.711  30.530  29.445  1.00  0.00     0.049 A 
ATOM     16  N   UNL A   1      39.291  31.334  32.276  1.00  0.00    -0.248 NA
ATOM     17  C   UNL A   1      37.465  32.781  32.216  1.00  0.00     0.031 C 
ATOM     18  C   UNL A   1      38.496  30.123  28.054  1.00  0.00     0.029 A 
ATOM     19  N   UNL A   1      39.788  29.784  29.846  1.00  0.00    -0.354 N 
ATOM     20  C   UNL A   1      39.223  32.033  33.477  1.00  0.00     0.074 A 
ATOM     21  C   UNL A   1      38.098  32.936  33.372  1.00  0.00     0.031 C 
ATOM     22  C   UNL A   1      39.373  29.159  27.738  1.00  0.00     0.029 A 
ATOM     23  C   UNL A   1      40.249  28.921  28.880  1.00  0.00     0.049 A 
ATOM     24  H   UNL A   1      40.193  29.858  30.741  1.00  0.00     0.167 HD
ATOM     25  C   UNL A   1      40.012  31.923  34.574  1.00  0.00     0.034 A 
ATOM     26  C   UNL A   1      41.262  28.034  28.903  1.00  0.00     0.034 A 
ATOM     27  C   UNL A   1      41.079  30.967  34.712  1.00  0.00     0.049 A 
ATOM     28  C   UNL A   1      42.071  27.880  30.159  1.00  0.00     0.074 A 
ATOM     29  C   UNL A   1      41.888  30.736  35.812  1.00  0.00     0.029 A 
ATOM     30  N   UNL A   1      41.478  30.076  33.730  1.00  0.00    -0.354 N 
ATOM     31  N   UNL A   1      41.919  28.478  31.316  1.00  0.00    -0.248 NA
ATOM     32  C   UNL A   1      43.175  26.911  30.122  1.00  0.00     0.031 C 
ATOM     33  C   UNL A   1      42.778  29.704  35.492  1.00  0.00     0.029 A 
ATOM     34  C   UNL A   1      42.520  29.292  34.195  1.00  0.00     0.049 A 
ATOM     35  H   UNL A   1      41.080  30.011  32.831  1.00  0.00     0.167 HD
ATOM     36  C   UNL A   1      42.894  27.945  32.149  1.00  0.00     0.074 A 
ATOM     37  C   UNL A   1      43.612  26.954  31.373  1.00  0.00     0.031 C 
ATOM     38  C   UNL A   1      43.185  28.267  33.433  1.00  0.00     0.034 A 
BRANCH  25  39
ATOM     39  C   UNL A   1      39.727  32.830  35.745  1.00  0.00     0.023 A 
ATOM     40  C   UNL A   1      40.199  34.157  35.728  1.00  0.00     0.012 A 
ATOM     41  C   UNL A   1      38.928  32.395  36.819  1.00  0.00     0.148 A 
ATOM     42  C   UNL A   1      39.900  35.031  36.774  1.00  0.00     0.002 A 
ATOM     43  C   UNL A   1      38.603  33.282  37.841  1.00  0.00     0.091 A 
ATOM     44  F   UNL A   1      38.507  31.122  36.832  1.00  0.00    -0.205 F 
ATOM     45  C   UNL A   1      39.094  34.597  37.824  1.00  0.00     0.022 A 
BRANCH  43  46
ATOM     46  S   UNL A   1      37.508  32.826  39.192  1.00  0.00     0.127 S 
ATOM     47  O   UNL A   1      36.218  32.742  38.512  1.00  0.00    -0.237 OA
ATOM     48  O   UNL A   1      38.054  31.538  39.621  1.00  0.00    -0.237 OA
ATOM     49  O   UNL A   1      37.639  33.891  40.178  1.00  0.00    -0.744 OA
ENDBRANCH  43  46
ENDBRANCH  25  39
BRANCH  26  50
ATOM     50  C   UNL A   1      41.508  27.173  27.713  1.00  0.00     0.023 A 
ATOM     51  C   UNL A   1      42.177  27.714  26.599  1.00  0.00     0.012 A 
ATOM     52  C   UNL A   1      41.156  25.811  27.708  1.00  0.00     0.148 A 
ATOM     53  C   UNL A   1      42.479  26.915  25.496  1.00  0.00     0.002 A 
ATOM     54  C   UNL A   1      41.515  25.007  26.633  1.00  0.00     0.091 A 
ATOM     55  F   UNL A   1      40.497  25.318  28.768  1.00  0.00    -0.205 F 
ATOM     56  C   UNL A   1      42.164  25.559  25.519  1.00  0.00     0.022 A 
BRANCH  54  57
ATOM     57  S   UNL A   1      41.287  23.225  26.672  1.00  0.00     0.127 S 
ATOM     58  O   UNL A   1      41.789  22.886  28.001  1.00  0.00    -0.237 OA
ATOM     59  O   UNL A   1      39.837  23.095  26.510  1.00  0.00    -0.237 OA
ATOM     60  O   UNL A   1      42.056  22.718  25.544  1.00  0.00    -0.744 OA
ENDBRANCH  54  57
ENDBRANCH  26  50
BRANCH  38  61
ATOM     61  C   UNL A   1      44.317  27.528  34.091  1.00  0.00     0.023 A 
ATOM     62  C   UNL A   1      45.641  27.965  33.888  1.00  0.00     0.012 A 
ATOM     63  C   UNL A   1      44.071  26.441  34.950  1.00  0.00     0.148 A 
ATOM     64  C   UNL A   1      46.705  27.314  34.510  1.00  0.00     0.002 A 
ATOM     65  C   UNL A   1      45.135  25.820  35.597  1.00  0.00     0.091 A 
ATOM     66  F   UNL A   1      42.808  26.020  35.112  1.00  0.00    -0.205 F 
ATOM     67  C   UNL A   1      46.453  26.249  35.371  1.00  0.00     0.022 A 
BRANCH  65  68
ATOM     68  S   UNL A   1      44.873  24.496  36.783  1.00  0.00     0.127 S 
ATOM     69  O   UNL A   1      44.583  23.362  35.909  1.00  0.00    -0.237 OA
ATOM     70  O   UNL A   1      46.165  24.421  37.469  1.00  0.00    -0.237 OA
ATOM     71  O   UNL A   1      43.776  24.946  37.629  1.00  0.00    -0.744 OA
ENDBRANCH  65  68
ENDBRANCH  38  61
ENDBRANCH  12  13
ENDBRANCH   5   7
ENDBRANCH   2   3
ENDBRANCH   1   2
BRANCH   1  72
ATOM     72  C   UNL A   1      31.618  30.110  25.817  1.00  0.00     0.023 C 
BRANCH  72  73
ATOM     73  C   UNL A   1      32.892  29.288  25.999  1.00  0.00     0.116 C 
BRANCH  73  74
ATOM     74  N   UNL A   1      33.697  29.280  24.794  1.00  0.00    -0.354 N 
ATOM     75  C   UNL A   1      33.558  28.598  23.627  1.00  0.00     0.243 C 
ATOM     76  H   UNL A   1      34.482  29.871  24.827  1.00  0.00     0.163 HD
ATOM     77  O   UNL A   1      34.341  28.895  22.716  1.00  0.00    -0.273 OA
BRANCH  75  78
ATOM     78  C   UNL A   1      32.522  27.472  23.400  1.00  0.00     0.185 C 
BRANCH  78  79
ATOM     79  C   UNL A   1      31.345  28.002  22.511  1.00  0.00     0.071 C 
BRANCH  79  80
ATOM     80  C   UNL A   1      29.878  27.910  22.894  1.00  0.00    -0.045 A 
ATOM     81  C   UNL A   1      29.286  26.845  23.583  1.00  0.00     0.004 A 
ATOM     82  C   UNL A   1      29.061  29.018  22.589  1.00  0.00     0.004 A 
ATOM     83  C   UNL A   1      27.919  26.851  23.893  1.00  0.00     0.000 A 
ATOM     84  C   UNL A   1      27.698  29.028  22.900  1.00  0.00     0.000 A 
ATOM     85  C   UNL A   1      27.124  27.938  23.543  1.00  0.00     0.000 A 
ENDBRANCH  79  80
ENDBRANCH  78  79
BRANCH  78  86
ATOM     86  N   UNL A   1      32.912  26.058  23.197  1.00  0.00    -0.280 N 
ATOM     87  C   UNL A   1      33.672  25.468  24.206  1.00  0.00     0.266 C 
ATOM     88  C   UNL A   1      32.822  25.302  22.046  1.00  0.00     0.149 C 
ATOM     89  O   UNL A   1      34.162  26.034  25.173  1.00  0.00    -0.268 OA
ATOM     90  C   UNL A   1      33.875  24.022  23.942  1.00  0.00     0.081 C 
ATOM     91  S   UNL A   1      33.216  23.625  22.413  1.00  0.00    -0.054 SA
ATOM     92  S   UNL A   1      32.463  25.724  20.478  1.00  0.00    -0.052 S 
ATOM     93  C   UNL A   1      34.453  23.208  24.839  1.00  0.00     0.029 C 
BRANCH  93  94
ATOM     94  C   UNL A   1      34.597  21.756  24.690  1.00  0.00    -0.024 A 
ATOM     95  C   UNL A   1      35.862  21.178  24.811  1.00  0.00     0.010 A 
ATOM     96  C   UNL A   1      33.494  20.924  24.475  1.00  0.00     0.018 A 
ATOM     97  C   UNL A   1      36.003  19.785  24.792  1.00  0.00     0.029 A 
ATOM     98  C   UNL A   1      33.636  19.527  24.502  1.00  0.00     0.001 A 
ATOM     99  C   UNL A   1      34.908  18.941  24.667  1.00  0.00     0.070 A 
ATOM    100  C   UNL A   1      32.525  18.681  24.407  1.00  0.00     0.012 A 
ATOM    101  N   UNL A   1      35.081  17.610  24.726  1.00  0.00    -0.256 NA
ATOM    102  C   UNL A   1      32.696  17.307  24.497  1.00  0.00     0.021 A 
ATOM    103  C   UNL A   1      33.982  16.825  24.655  1.00  0.00     0.112 A 
ENDBRANCH  93  94
ENDBRANCH  78  86
ENDBRANCH  75  78
ENDBRANCH  73  74
ENDBRANCH  72  73
ENDBRANCH   1  72
TORSDOF 18
ENDMDL
MODEL 3
REMARK VINA RESULT:     -13.4      1.653      7.358
REMARK SMILES O=C(NCCCCNC(=O)[C@@H](Cc1ccccc1)N1C(=O)/C(=C/c2ccc3ncccc3c2)SC1=S)c1ccc(-c2c3nc(c(-c4cccc(S(=O)(=O)[O-])c4F)c4ccc([nH]4)c(-c4cccc(S(=O)(=O)[O-])c4F)c4nc(c(-c5cccc(S(=O)(=O)[O-])c5F)c5ccc2[nH]5)C=C4)C=C3)cc1
REMARK SMILES IDX 5 1 4 2 3 3 1 4 2 5 37 7 38 8 99 9 39 10 98 11 40 12 41 13
REMARK SMILES IDX 42 14 92 15 43 16 97 17 91 18 93 19 44 20 96 21 90 22 89 23
REMARK SMILES IDX 45 25 77 26 57 27 76 28 58 29 61 30 75 31 94 32 59 33 60 34
REMARK SMILES IDX 74 36 95 37 62 38 46 39 47 40 55 41 48 42 50 43 56 44 49 45
REMARK SMILES IDX 51 46 52 47 53 48 54 49 78 50 79 51 87 52 80 53 82 54 88 55
REMARK SMILES IDX 81 56 83 57 84 58 85 59 86 60 63 61 64 62 72 63 65 64 67 65
REMARK SMILES IDX 73 66 66 67 68 68 69 69 70 70 71 71 6 72 7 73 8 74 9 75
REMARK SMILES IDX 10 77 11 78 12 79 13 80 14 81 18 82 15 83 17 84 16 85 19 86
REMARK SMILES IDX 20 87 35 88 21 89 22 90 34 91 36 92 23 93 24 94 25 95 33 96
REMARK SMILES IDX 26 97 32 98 27 99 31 100 28 101 30 102 29 103
REMARK H PARENT 3 6 93 24 61 35 8 76
REMARK Flexibility Score: inf
ROOT
ATOM      1  C   UNL A   1      31.034  32.059  26.421  1.00  0.00     0.023 C 
ENDROOT
BRANCH   1   2
ATOM      2  C   UNL A   1      32.466  32.379  26.832  1.00  0.00     0.116 C 
BRANCH   2   3
ATOM      3  N   UNL A   1      32.655  33.696  27.429  1.00  0.00    -0.352 N 
ATOM      4  O   UNL A   1      33.771  35.280  28.613  1.00  0.00    -0.269 OA
ATOM      5  C   UNL A   1      33.753  34.149  28.136  1.00  0.00     0.251 C 
ATOM      6  H   UNL A   1      31.916  34.336  27.315  1.00  0.00     0.163 HD
BRANCH   5   7
ATOM      7  C   UNL A   1      34.873  33.207  28.363  1.00  0.00     0.039 A 
ATOM      8  C   UNL A   1      34.625  31.964  28.944  1.00  0.00     0.014 A 
ATOM      9  C   UNL A   1      36.183  33.648  28.165  1.00  0.00     0.014 A 
ATOM     10  C   UNL A   1      35.674  31.278  29.545  1.00  0.00     0.010 A 
ATOM     11  C   UNL A   1      37.245  32.897  28.677  1.00  0.00     0.010 A 
ATOM     12  C   UNL A   1      36.996  31.749  29.445  1.00  0.00    -0.014 A 
BRANCH  12  13
ATOM     13  C   UNL A   1      38.079  31.040  30.182  1.00  0.00     0.031 A 
ATOM     14  C   UNL A   1      38.960  30.021  29.498  1.00  0.00     0.074 A 
ATOM     15  C   UNL A   1      38.309  31.357  31.472  1.00  0.00     0.049 A 
ATOM     16  N   UNL A   1      39.976  29.354  29.986  1.00  0.00    -0.248 NA
ATOM     17  C   UNL A   1      38.662  29.698  28.093  1.00  0.00     0.031 C 
ATOM     18  C   UNL A   1      37.512  32.301  32.258  1.00  0.00     0.029 A 
ATOM     19  N   UNL A   1      39.285  30.943  32.341  1.00  0.00    -0.354 N 
ATOM     20  C   UNL A   1      40.393  28.491  28.977  1.00  0.00     0.074 A 
ATOM     21  C   UNL A   1      39.525  28.722  27.843  1.00  0.00     0.031 C 
ATOM     22  C   UNL A   1      38.064  32.440  33.472  1.00  0.00     0.029 A 
ATOM     23  C   UNL A   1      39.218  31.553  33.572  1.00  0.00     0.049 A 
ATOM     24  H   UNL A   1      39.969  30.274  32.107  1.00  0.00     0.167 HD
ATOM     25  C   UNL A   1      41.415  27.600  28.985  1.00  0.00     0.034 A 
ATOM     26  C   UNL A   1      39.995  31.419  34.664  1.00  0.00     0.034 A 
ATOM     27  C   UNL A   1      42.331  27.428  30.082  1.00  0.00     0.049 A 
ATOM     28  C   UNL A   1      41.166  30.481  34.618  1.00  0.00     0.074 A 
ATOM     29  C   UNL A   1      43.438  26.598  30.155  1.00  0.00     0.029 A 
ATOM     30  N   UNL A   1      42.259  28.103  31.289  1.00  0.00    -0.354 N 
ATOM     31  N   UNL A   1      41.602  29.755  33.616  1.00  0.00    -0.248 NA
ATOM     32  C   UNL A   1      41.968  30.360  35.842  1.00  0.00     0.031 C 
ATOM     33  C   UNL A   1      44.034  26.772  31.409  1.00  0.00     0.029 A 
ATOM     34  C   UNL A   1      43.301  27.712  32.114  1.00  0.00     0.049 A 
ATOM     35  H   UNL A   1      41.568  28.763  31.526  1.00  0.00     0.167 HD
ATOM     36  C   UNL A   1      42.738  29.107  34.083  1.00  0.00     0.074 A 
ATOM     37  C   UNL A   1      42.941  29.549  35.448  1.00  0.00     0.031 C 
ATOM     38  C   UNL A   1      43.526  28.206  33.448  1.00  0.00     0.034 A 
BRANCH  25  39
ATOM     39  C   UNL A   1      41.636  26.764  27.750  1.00  0.00     0.023 A 
ATOM     40  C   UNL A   1      42.247  27.341  26.619  1.00  0.00     0.012 A 
ATOM     41  C   UNL A   1      41.314  25.393  27.737  1.00  0.00     0.148 A 
ATOM     42  C   UNL A   1      42.513  26.573  25.486  1.00  0.00     0.002 A 
ATOM     43  C   UNL A   1      41.615  24.624  26.617  1.00  0.00     0.091 A 
ATOM     44  F   UNL A   1      40.710  24.864  28.811  1.00  0.00    -0.205 F 
ATOM     45  C   UNL A   1      42.208  25.213  25.488  1.00  0.00     0.022 A 
BRANCH  43  46
ATOM     46  S   UNL A   1      41.323  22.851  26.566  1.00  0.00     0.127 S 
ATOM     47  O   UNL A   1      41.925  22.416  27.824  1.00  0.00    -0.237 OA
ATOM     48  O   UNL A   1      39.863  22.771  26.530  1.00  0.00    -0.237 OA
ATOM     49  O   UNL A   1      41.979  22.381  25.352  1.00  0.00    -0.744 OA
ENDBRANCH  43  46
ENDBRANCH  25  39
BRANCH  26  50
ATOM     50  C   UNL A   1      39.724  32.259  35.863  1.00  0.00     0.023 A 
ATOM     51  C   UNL A   1      40.355  33.512  35.983  1.00  0.00     0.012 A 
ATOM     52  C   UNL A   1      38.791  31.863  36.840  1.00  0.00     0.148 A 
ATOM     53  C   UNL A   1      40.071  34.350  37.062  1.00  0.00     0.002 A 
ATOM     54  C   UNL A   1      38.466  32.728  37.878  1.00  0.00     0.091 A 
ATOM     55  F   UNL A   1      38.219  30.656  36.723  1.00  0.00    -0.205 F 
ATOM     56  C   UNL A   1      39.115  33.966  38.000  1.00  0.00     0.022 A 
BRANCH  54  57
ATOM     57  S   UNL A   1      37.129  32.367  39.022  1.00  0.00     0.127 S 
ATOM     58  O   UNL A   1      37.469  33.216  40.160  1.00  0.00    -0.237 OA
ATOM     59  O   UNL A   1      35.950  32.792  38.265  1.00  0.00    -0.237 OA
ATOM     60  O   UNL A   1      37.201  30.929  39.247  1.00  0.00    -0.744 OA
ENDBRANCH  54  57
ENDBRANCH  26  50
BRANCH  38  61
ATOM     61  C   UNL A   1      44.696  27.651  34.212  1.00  0.00     0.023 A 
ATOM     62  C   UNL A   1      45.930  28.330  34.180  1.00  0.00     0.012 A 
ATOM     63  C   UNL A   1      44.563  26.495  35.003  1.00  0.00     0.148 A 
ATOM     64  C   UNL A   1      47.021  27.852  34.903  1.00  0.00     0.002 A 
ATOM     65  C   UNL A   1      45.646  26.045  35.752  1.00  0.00     0.091 A 
ATOM     66  F   UNL A   1      43.390  25.844  35.003  1.00  0.00    -0.205 F 
ATOM     67  C   UNL A   1      46.877  26.716  35.696  1.00  0.00     0.022 A 
BRANCH  65  68
ATOM     68  S   UNL A   1      45.505  24.636  36.859  1.00  0.00     0.127 S 
ATOM     69  O   UNL A   1      45.046  23.586  35.953  1.00  0.00    -0.237 OA
ATOM     70  O   UNL A   1      46.878  24.469  37.339  1.00  0.00    -0.237 OA
ATOM     71  O   UNL A   1      44.560  25.047  37.890  1.00  0.00    -0.744 OA
ENDBRANCH  65  68
ENDBRANCH  38  61
ENDBRANCH  12  13
ENDBRANCH   5   7
ENDBRANCH   2   3
ENDBRANCH   1   2
BRANCH   1  72
ATOM     72  C   UNL A   1      30.892  30.872  25.480  1.00  0.00     0.023 C 
BRANCH  72  73
ATOM     73  C   UNL A   1      32.000  29.828  25.596  1.00  0.00     0.116 C 
BRANCH  73  74
ATOM     74  N   UNL A   1      32.763  29.722  24.370  1.00  0.00    -0.354 N 
ATOM     75  C   UNL A   1      32.619  28.909  23.290  1.00  0.00     0.243 C 
ATOM     76  H   UNL A   1      33.519  30.348  24.306  1.00  0.00     0.163 HD
ATOM     77  O   UNL A   1      33.355  29.139  22.322  1.00  0.00    -0.273 OA
BRANCH  75  78
ATOM     78  C   UNL A   1      31.633  27.719  23.228  1.00  0.00     0.185 C 
BRANCH  78  79
ATOM     79  C   UNL A   1      30.422  28.077  22.299  1.00  0.00     0.071 C 
BRANCH  79  80
ATOM     80  C   UNL A   1      29.508  29.270  22.510  1.00  0.00    -0.045 A 
ATOM     81  C   UNL A   1      29.734  30.562  22.018  1.00  0.00     0.004 A 
ATOM     82  C   UNL A   1      28.298  29.044  23.199  1.00  0.00     0.004 A 
ATOM     83  C   UNL A   1      28.829  31.602  22.265  1.00  0.00     0.000 A 
ATOM     84  C   UNL A   1      27.391  30.079  23.443  1.00  0.00     0.000 A 
ATOM     85  C   UNL A   1      27.663  31.363  22.985  1.00  0.00     0.000 A 
ENDBRANCH  79  80
ENDBRANCH  78  79
BRANCH  78  86
ATOM     86  N   UNL A   1      32.085  26.308  23.203  1.00  0.00    -0.280 N 
ATOM     87  C   UNL A   1      32.471  25.753  24.422  1.00  0.00     0.266 C 
ATOM     88  C   UNL A   1      32.394  25.529  22.107  1.00  0.00     0.149 C 
ATOM     89  O   UNL A   1      32.602  26.348  25.483  1.00  0.00    -0.268 OA
ATOM     90  C   UNL A   1      32.767  24.307  24.277  1.00  0.00     0.081 C 
ATOM     91  S   UNL A   1      32.663  23.867  22.626  1.00  0.00    -0.054 SA
ATOM     92  S   UNL A   1      32.576  25.913  20.499  1.00  0.00    -0.052 S 
ATOM     93  C   UNL A   1      33.022  23.522  25.335  1.00  0.00     0.029 C 
BRANCH  93  94
ATOM     94  C   UNL A   1      33.225  22.070  25.279  1.00  0.00    -0.024 A 
ATOM     95  C   UNL A   1      32.115  21.228  25.191  1.00  0.00     0.010 A 
ATOM     96  C   UNL A   1      34.503  21.503  25.264  1.00  0.00     0.018 A 
ATOM     97  C   UNL A   1      32.290  19.850  25.017  1.00  0.00     0.029 A 
ATOM     98  C   UNL A   1      34.673  20.127  25.044  1.00  0.00     0.001 A 
ATOM     99  C   UNL A   1      33.552  19.282  24.912  1.00  0.00     0.070 A 
ATOM    100  C   UNL A   1      35.947  19.565  24.908  1.00  0.00     0.012 A 
ATOM    101  N   UNL A   1      33.674  17.965  24.673  1.00  0.00    -0.256 NA
ATOM    102  C   UNL A   1      36.075  18.211  24.631  1.00  0.00     0.021 A 
ATOM    103  C   UNL A   1      34.919  17.461  24.523  1.00  0.00     0.112 A 
ENDBRANCH  93  94
ENDBRANCH  78  86
ENDBRANCH  75  78
ENDBRANCH  73  74
ENDBRANCH  72  73
ENDBRANCH   1  72
TORSDOF 18
ENDMDL
