MODEL 1
REMARK VINA RESULT:     -10.6      0.000      0.000
REMARK SMILES COc1ccc([C@H]2CC(c3ccccc3)=NN2C(=O)CCCC(=O)NCCCCNC(=O)c2ccc(-c3c4nc(c(-c5cccc(S(=O)(=O)[O-])c5F)c5ccc([nH]5)c(-c5cccc(S(=O)(=O)[O-])c5F)c5nc(c(-c6cccc(S(=O)(=O)[O-])c6F)c6ccc3[nH]6)C=C5)C=C4)cc2)cc1
REMARK SMILES IDX 26 1 25 2 23 3 24 4 22 6 21 7 20 8 18 9 19 10 17 11 7 12
REMARK SMILES IDX 8 13 9 14 16 15 6 16 3 17 4 18 97 19 5 20 96 21 2 22 1 23
REMARK SMILES IDX 10 24 11 25 15 26 12 27 14 28 13 29 27 30 28 31 29 32 30 33
REMARK SMILES IDX 31 34 32 36 33 37 34 38 95 39 35 40 94 41 36 42 37 43 38 44
REMARK SMILES IDX 88 45 39 46 93 47 87 48 89 49 40 50 92 51 86 52 85 53 41 55
REMARK SMILES IDX 73 56 53 57 72 58 54 59 57 60 71 61 90 62 55 63 56 64 70 66
REMARK SMILES IDX 91 67 58 68 42 69 43 70 51 71 44 72 46 73 52 74 45 75 47 76
REMARK SMILES IDX 48 77 49 78 50 79 74 80 75 81 83 82 76 83 78 84 84 85 77 86
REMARK SMILES IDX 79 87 80 88 81 89 82 90 59 91 60 92 68 93 61 94 63 95 69 96
REMARK SMILES IDX 62 97 64 98 65 99 66 100 67 101
REMARK H PARENT 25 5 30 35 89 54 57 65
REMARK Flexibility Score: inf
ROOT
ATOM      1  C   UNL A   1      41.720  21.638  26.909  1.00  0.00     0.116 C 
ENDROOT
BRANCH   1   2
ATOM      2  N   UNL A   1      40.917  22.547  27.680  1.00  0.00    -0.356 N 
ATOM      3  C   UNL A   1      39.795  23.226  27.342  1.00  0.00     0.220 C 
ATOM      4  O   UNL A   1      39.433  24.115  28.119  1.00  0.00    -0.275 OA
ATOM      5  H   UNL A   1      41.233  22.701  28.600  1.00  0.00     0.163 HD
BRANCH   3   6
ATOM      6  C   UNL A   1      38.885  22.813  26.197  1.00  0.00     0.100 C 
BRANCH   6   7
ATOM      7  C   UNL A   1      37.681  23.562  25.670  1.00  0.00     0.020 C 
BRANCH   7   8
ATOM      8  C   UNL A   1      36.577  22.873  24.868  1.00  0.00     0.103 C 
BRANCH   8   9
ATOM      9  C   UNL A   1      35.779  23.439  23.677  1.00  0.00     0.243 C 
ATOM     10  O   UNL A   1      36.140  23.055  22.550  1.00  0.00    -0.273 OA
BRANCH   9  11
ATOM     11  N   UNL A   1      34.579  24.126  23.823  1.00  0.00    -0.225 N 
ATOM     12  C   UNL A   1      33.202  23.859  23.334  1.00  0.00     0.147 C 
ATOM     13  C   UNL A   1      32.345  24.962  23.947  1.00  0.00     0.091 C 
ATOM     14  C   UNL A   1      33.371  25.647  24.786  1.00  0.00     0.071 C 
ATOM     15  N   UNL A   1      34.580  25.191  24.713  1.00  0.00    -0.174 NA
BRANCH  12  16
ATOM     16  C   UNL A   1      32.650  22.484  23.692  1.00  0.00    -0.023 A 
ATOM     17  C   UNL A   1      32.310  19.751  24.126  1.00  0.00     0.118 A 
ATOM     18  C   UNL A   1      32.083  20.272  22.856  1.00  0.00     0.047 A 
ATOM     19  C   UNL A   1      32.593  20.589  25.201  1.00  0.00     0.047 A 
ATOM     20  C   UNL A   1      32.211  21.644  22.646  1.00  0.00     0.010 A 
ATOM     21  C   UNL A   1      32.745  21.960  24.989  1.00  0.00     0.010 A 
BRANCH  17  22
ATOM     22  O   UNL A   1      32.428  18.397  24.274  1.00  0.00    -0.497 OA
ATOM     23  C   UNL A   1      33.165  17.831  23.199  1.00  0.00     0.278 C 
ENDBRANCH  17  22
ENDBRANCH  12  16
BRANCH  14  24
ATOM     24  C   UNL A   1      32.995  26.790  25.623  1.00  0.00    -0.002 A 
ATOM     25  C   UNL A   1      33.767  27.952  25.593  1.00  0.00     0.010 A 
ATOM     26  C   UNL A   1      31.881  26.688  26.458  1.00  0.00     0.010 A 
ATOM     27  C   UNL A   1      33.414  29.029  26.407  1.00  0.00     0.001 A 
ATOM     28  C   UNL A   1      31.544  27.762  27.282  1.00  0.00     0.001 A 
ATOM     29  C   UNL A   1      32.308  28.930  27.255  1.00  0.00     0.000 A 
ENDBRANCH  14  24
ENDBRANCH   9  11
ENDBRANCH   8   9
ENDBRANCH   7   8
ENDBRANCH   6   7
ENDBRANCH   3   6
ENDBRANCH   1   2
BRANCH   1  30
ATOM     30  C   UNL A   1      41.794  20.283  27.605  1.00  0.00     0.023 C 
BRANCH  30  31
ATOM     31  C   UNL A   1      42.504  19.228  26.760  1.00  0.00     0.023 C 
BRANCH  31  32
ATOM     32  C   UNL A   1      42.600  19.592  25.286  1.00  0.00     0.116 C 
BRANCH  32  33
ATOM     33  N   UNL A   1      43.901  19.271  24.705  1.00  0.00    -0.352 N 
ATOM     34  C   UNL A   1      44.966  20.125  24.553  1.00  0.00     0.251 C 
ATOM     35  H   UNL A   1      44.027  18.347  24.390  1.00  0.00     0.163 HD
ATOM     36  O   UNL A   1      45.979  19.789  23.950  1.00  0.00    -0.269 OA
BRANCH  34  37
ATOM     37  C   UNL A   1      44.828  21.473  25.123  1.00  0.00     0.039 A 
ATOM     38  C   UNL A   1      45.247  21.702  26.433  1.00  0.00     0.014 A 
ATOM     39  C   UNL A   1      44.443  22.522  24.284  1.00  0.00     0.014 A 
ATOM     40  C   UNL A   1      45.329  23.015  26.894  1.00  0.00     0.010 A 
ATOM     41  C   UNL A   1      44.602  23.828  24.722  1.00  0.00     0.010 A 
ATOM     42  C   UNL A   1      45.038  24.086  26.032  1.00  0.00    -0.014 A 
BRANCH  42  43
ATOM     43  C   UNL A   1      45.163  25.492  26.480  1.00  0.00     0.031 A 
ATOM     44  C   UNL A   1      46.511  26.156  26.455  1.00  0.00     0.074 A 
ATOM     45  C   UNL A   1      44.095  26.131  26.997  1.00  0.00     0.049 A 
ATOM     46  N   UNL A   1      46.852  27.347  26.871  1.00  0.00    -0.248 NA
ATOM     47  C   UNL A   1      47.636  25.361  25.929  1.00  0.00     0.031 C 
ATOM     48  C   UNL A   1      42.758  25.555  27.160  1.00  0.00     0.029 A 
ATOM     49  N   UNL A   1      43.973  27.399  27.506  1.00  0.00    -0.354 N 
ATOM     50  C   UNL A   1      48.228  27.426  26.700  1.00  0.00     0.074 A 
ATOM     51  C   UNL A   1      48.669  26.150  26.184  1.00  0.00     0.031 C 
ATOM     52  C   UNL A   1      41.950  26.469  27.724  1.00  0.00     0.029 A 
ATOM     53  C   UNL A   1      42.714  27.686  27.981  1.00  0.00     0.049 A 
ATOM     54  H   UNL A   1      44.717  28.043  27.530  1.00  0.00     0.167 HD
ATOM     55  C   UNL A   1      49.049  28.480  26.916  1.00  0.00     0.034 A 
ATOM     56  C   UNL A   1      42.234  28.807  28.554  1.00  0.00     0.034 A 
ATOM     57  C   UNL A   1      48.591  29.767  27.360  1.00  0.00     0.049 A 
ATOM     58  C   UNL A   1      43.150  29.992  28.707  1.00  0.00     0.074 A 
ATOM     59  C   UNL A   1      49.318  30.934  27.510  1.00  0.00     0.029 A 
ATOM     60  N   UNL A   1      47.285  30.058  27.721  1.00  0.00    -0.354 N 
ATOM     61  N   UNL A   1      44.415  30.104  28.381  1.00  0.00    -0.248 NA
ATOM     62  C   UNL A   1      42.564  31.217  29.270  1.00  0.00     0.031 C 
ATOM     63  C   UNL A   1      48.451  31.929  27.971  1.00  0.00     0.029 A 
ATOM     64  C   UNL A   1      47.182  31.385  28.094  1.00  0.00     0.049 A 
ATOM     65  H   UNL A   1      46.540  29.414  27.713  1.00  0.00     0.167 HD
ATOM     66  C   UNL A   1      44.767  31.418  28.663  1.00  0.00     0.074 A 
ATOM     67  C   UNL A   1      43.576  32.070  29.168  1.00  0.00     0.031 C 
ATOM     68  C   UNL A   1      45.971  32.029  28.533  1.00  0.00     0.034 A 
BRANCH  55  69
ATOM     69  C   UNL A   1      50.510  28.302  26.602  1.00  0.00     0.023 A 
ATOM     70  C   UNL A   1      50.986  28.629  25.315  1.00  0.00     0.012 A 
ATOM     71  C   UNL A   1      51.415  27.855  27.582  1.00  0.00     0.148 A 
ATOM     72  C   UNL A   1      52.334  28.477  24.996  1.00  0.00     0.002 A 
ATOM     73  C   UNL A   1      52.766  27.749  27.269  1.00  0.00     0.091 A 
ATOM     74  F   UNL A   1      50.941  27.525  28.791  1.00  0.00    -0.205 F 
ATOM     75  C   UNL A   1      53.225  28.048  25.975  1.00  0.00     0.022 A 
BRANCH  73  76
ATOM     76  S   UNL A   1      54.006  27.277  28.481  1.00  0.00     0.127 S 
ATOM     77  O   UNL A   1      54.277  25.891  28.101  1.00  0.00    -0.237 OA
ATOM     78  O   UNL A   1      55.092  28.212  28.191  1.00  0.00    -0.237 OA
ATOM     79  O   UNL A   1      53.381  27.457  29.784  1.00  0.00    -0.744 OA
ENDBRANCH  73  76
ENDBRANCH  55  69
BRANCH  56  80
ATOM     80  C   UNL A   1      40.797  28.892  28.941  1.00  0.00     0.023 A 
ATOM     81  C   UNL A   1      39.821  29.035  27.936  1.00  0.00     0.012 A 
ATOM     82  C   UNL A   1      40.388  28.805  30.286  1.00  0.00     0.148 A 
ATOM     83  C   UNL A   1      38.467  29.125  28.263  1.00  0.00     0.002 A 
ATOM     84  C   UNL A   1      39.034  28.843  30.601  1.00  0.00     0.091 A 
ATOM     85  F   UNL A   1      41.331  28.682  31.230  1.00  0.00    -0.205 F 
ATOM     86  C   UNL A   1      38.073  29.019  29.593  1.00  0.00     0.022 A 
BRANCH  84  87
ATOM     87  S   UNL A   1      38.432  28.583  32.274  1.00  0.00     0.127 S 
ATOM     88  O   UNL A   1      39.251  29.522  33.035  1.00  0.00    -0.237 OA
ATOM     89  O   UNL A   1      37.022  28.954  32.152  1.00  0.00    -0.237 OA
ATOM     90  O   UNL A   1      38.656  27.171  32.552  1.00  0.00    -0.744 OA
ENDBRANCH  84  87
ENDBRANCH  56  80
BRANCH  68  91
ATOM     91  C   UNL A   1      46.062  33.483  28.908  1.00  0.00     0.023 A 
ATOM     92  C   UNL A   1      46.538  33.844  30.184  1.00  0.00     0.012 A 
ATOM     93  C   UNL A   1      45.766  34.487  27.966  1.00  0.00     0.148 A 
ATOM     94  C   UNL A   1      46.693  35.187  30.526  1.00  0.00     0.002 A 
ATOM     95  C   UNL A   1      45.967  35.821  28.298  1.00  0.00     0.091 A 
ATOM     96  F   UNL A   1      45.297  34.120  26.765  1.00  0.00    -0.205 F 
ATOM     97  C   UNL A   1      46.420  36.173  29.579  1.00  0.00     0.022 A 
BRANCH  95  98
ATOM     98  S   UNL A   1      45.738  37.149  27.111  1.00  0.00     0.127 S 
ATOM     99  O   UNL A   1      46.223  38.306  27.861  1.00  0.00    -0.237 OA
ATOM    100  O   UNL A   1      46.602  36.733  26.005  1.00  0.00    -0.237 OA
ATOM    101  O   UNL A   1      44.317  37.159  26.792  1.00  0.00    -0.744 OA
ENDBRANCH  95  98
ENDBRANCH  68  91
ENDBRANCH  42  43
ENDBRANCH  34  37
ENDBRANCH  32  33
ENDBRANCH  31  32
ENDBRANCH  30  31
ENDBRANCH   1  30
TORSDOF 21
ENDMDL
MODEL 2
REMARK VINA RESULT:     -10.6      6.563     11.892
REMARK SMILES COc1ccc([C@H]2CC(c3ccccc3)=NN2C(=O)CCCC(=O)NCCCCNC(=O)c2ccc(-c3c4nc(c(-c5cccc(S(=O)(=O)[O-])c5F)c5ccc([nH]5)c(-c5cccc(S(=O)(=O)[O-])c5F)c5nc(c(-c6cccc(S(=O)(=O)[O-])c6F)c6ccc3[nH]6)C=C5)C=C4)cc2)cc1
REMARK SMILES IDX 26 1 25 2 23 3 24 4 22 6 21 7 20 8 18 9 19 10 17 11 7 12
REMARK SMILES IDX 8 13 9 14 16 15 6 16 3 17 4 18 97 19 5 20 96 21 2 22 1 23
REMARK SMILES IDX 10 24 11 25 15 26 12 27 14 28 13 29 27 30 28 31 29 32 30 33
REMARK SMILES IDX 31 34 32 36 33 37 34 38 95 39 35 40 94 41 36 42 37 43 38 44
REMARK SMILES IDX 88 45 39 46 93 47 87 48 89 49 40 50 92 51 86 52 85 53 41 55
REMARK SMILES IDX 73 56 53 57 72 58 54 59 57 60 71 61 90 62 55 63 56 64 70 66
REMARK SMILES IDX 91 67 58 68 42 69 43 70 51 71 44 72 46 73 52 74 45 75 47 76
REMARK SMILES IDX 48 77 49 78 50 79 74 80 75 81 83 82 76 83 78 84 84 85 77 86
REMARK SMILES IDX 79 87 80 88 81 89 82 90 59 91 60 92 68 93 61 94 63 95 69 96
REMARK SMILES IDX 62 97 64 98 65 99 66 100 67 101
REMARK H PARENT 25 5 30 35 89 54 57 65
REMARK Flexibility Score: inf
ROOT
ATOM      1  C   UNL A   1      35.777  32.533  28.798  1.00  0.00     0.116 C 
ENDROOT
BRANCH   1   2
ATOM      2  N   UNL A   1      35.838  31.418  27.894  1.00  0.00    -0.356 N 
ATOM      3  C   UNL A   1      34.875  30.541  27.520  1.00  0.00     0.220 C 
ATOM      4  O   UNL A   1      35.251  29.540  26.902  1.00  0.00    -0.275 OA
ATOM      5  H   UNL A   1      36.719  31.266  27.481  1.00  0.00     0.163 HD
BRANCH   3   6
ATOM      6  C   UNL A   1      33.389  30.834  27.642  1.00  0.00     0.100 C 
BRANCH   6   7
ATOM      7  C   UNL A   1      32.243  29.931  27.243  1.00  0.00     0.020 C 
BRANCH   7   8
ATOM      8  C   UNL A   1      32.374  28.408  27.220  1.00  0.00     0.103 C 
BRANCH   8   9
ATOM      9  C   UNL A   1      32.158  27.458  26.025  1.00  0.00     0.243 C 
ATOM     10  O   UNL A   1      32.038  26.252  26.304  1.00  0.00    -0.273 OA
BRANCH   9  11
ATOM     11  N   UNL A   1      31.859  27.905  24.742  1.00  0.00    -0.225 N 
ATOM     12  C   UNL A   1      32.298  27.461  23.395  1.00  0.00     0.147 C 
ATOM     13  C   UNL A   1      31.503  28.320  22.417  1.00  0.00     0.091 C 
ATOM     14  C   UNL A   1      30.644  29.073  23.378  1.00  0.00     0.071 C 
ATOM     15  N   UNL A   1      30.842  28.844  24.636  1.00  0.00    -0.174 NA
BRANCH  12  16
ATOM     16  C   UNL A   1      32.086  25.979  23.107  1.00  0.00    -0.023 A 
ATOM     17  C   UNL A   1      31.915  23.201  23.284  1.00  0.00     0.118 A 
ATOM     18  C   UNL A   1      33.139  23.790  22.983  1.00  0.00     0.047 A 
ATOM     19  C   UNL A   1      30.759  23.971  23.386  1.00  0.00     0.047 A 
ATOM     20  C   UNL A   1      33.218  25.176  22.852  1.00  0.00     0.010 A 
ATOM     21  C   UNL A   1      30.840  25.360  23.279  1.00  0.00     0.010 A 
BRANCH  17  22
ATOM     22  O   UNL A   1      31.887  21.886  23.654  1.00  0.00    -0.497 OA
ATOM     23  C   UNL A   1      33.177  21.444  24.055  1.00  0.00     0.278 C 
ENDBRANCH  17  22
ENDBRANCH  12  16
BRANCH  14  24
ATOM     24  C   UNL A   1      29.648  30.028  22.884  1.00  0.00    -0.002 A 
ATOM     25  C   UNL A   1      29.101  30.969  23.758  1.00  0.00     0.010 A 
ATOM     26  C   UNL A   1      29.245  29.967  21.549  1.00  0.00     0.010 A 
ATOM     27  C   UNL A   1      28.140  31.863  23.286  1.00  0.00     0.001 A 
ATOM     28  C   UNL A   1      28.271  30.853  21.088  1.00  0.00     0.001 A 
ATOM     29  C   UNL A   1      27.722  31.799  21.954  1.00  0.00     0.000 A 
ENDBRANCH  14  24
ENDBRANCH   9  11
ENDBRANCH   8   9
ENDBRANCH   7   8
ENDBRANCH   6   7
ENDBRANCH   3   6
ENDBRANCH   1   2
BRANCH   1  30
ATOM     30  C   UNL A   1      35.739  33.842  28.017  1.00  0.00     0.023 C 
BRANCH  30  31
ATOM     31  C   UNL A   1      34.668  34.800  28.531  1.00  0.00     0.023 C 
BRANCH  31  32
ATOM     32  C   UNL A   1      33.640  34.137  29.436  1.00  0.00     0.116 C 
BRANCH  32  33
ATOM     33  N   UNL A   1      32.911  35.093  30.264  1.00  0.00    -0.352 N 
ATOM     34  C   UNL A   1      33.133  35.368  31.591  1.00  0.00     0.251 C 
ATOM     35  H   UNL A   1      32.185  35.592  29.825  1.00  0.00     0.163 HD
ATOM     36  O   UNL A   1      32.392  36.107  32.228  1.00  0.00    -0.269 OA
BRANCH  34  37
ATOM     37  C   UNL A   1      34.287  34.714  32.224  1.00  0.00     0.039 A 
ATOM     38  C   UNL A   1      34.121  33.456  32.805  1.00  0.00     0.014 A 
ATOM     39  C   UNL A   1      35.552  35.288  32.076  1.00  0.00     0.014 A 
ATOM     40  C   UNL A   1      35.251  32.742  33.199  1.00  0.00     0.010 A 
ATOM     41  C   UNL A   1      36.675  34.541  32.396  1.00  0.00     0.010 A 
ATOM     42  C   UNL A   1      36.534  33.266  32.968  1.00  0.00    -0.014 A 
BRANCH  42  43
ATOM     43  C   UNL A   1      37.754  32.507  33.332  1.00  0.00     0.031 A 
ATOM     44  C   UNL A   1      38.527  32.899  34.559  1.00  0.00     0.074 A 
ATOM     45  C   UNL A   1      38.214  31.542  32.511  1.00  0.00     0.049 A 
ATOM     46  N   UNL A   1      39.655  32.419  35.011  1.00  0.00    -0.248 NA
ATOM     47  C   UNL A   1      37.981  34.007  35.365  1.00  0.00     0.031 C 
ATOM     48  C   UNL A   1      37.599  31.141  31.243  1.00  0.00     0.029 A 
ATOM     49  N   UNL A   1      39.324  30.741  32.609  1.00  0.00    -0.354 N 
ATOM     50  C   UNL A   1      39.975  33.190  36.121  1.00  0.00     0.074 A 
ATOM     51  C   UNL A   1      38.947  34.198  36.251  1.00  0.00     0.031 C 
ATOM     52  C   UNL A   1      38.337  30.165  30.686  1.00  0.00     0.029 A 
ATOM     53  C   UNL A   1      39.485  29.886  31.543  1.00  0.00     0.049 A 
ATOM     54  H   UNL A   1      39.946  30.776  33.371  1.00  0.00     0.167 HD
ATOM     55  C   UNL A   1      41.009  33.049  36.981  1.00  0.00     0.034 A 
ATOM     56  C   UNL A   1      40.448  28.979  31.292  1.00  0.00     0.034 A 
ATOM     57  C   UNL A   1      41.985  31.999  36.885  1.00  0.00     0.049 A 
ATOM     58  C   UNL A   1      41.545  28.788  32.307  1.00  0.00     0.074 A 
ATOM     59  C   UNL A   1      43.013  31.698  37.761  1.00  0.00     0.029 A 
ATOM     60  N   UNL A   1      42.050  31.074  35.855  1.00  0.00    -0.354 N 
ATOM     61  N   UNL A   1      41.736  29.415  33.442  1.00  0.00    -0.248 NA
ATOM     62  C   UNL A   1      42.534  27.737  32.027  1.00  0.00     0.031 C 
ATOM     63  C   UNL A   1      43.706  30.595  37.253  1.00  0.00     0.029 A 
ATOM     64  C   UNL A   1      43.100  30.201  36.070  1.00  0.00     0.049 A 
ATOM     65  H   UNL A   1      41.439  31.045  35.084  1.00  0.00     0.167 HD
ATOM     66  C   UNL A   1      42.843  28.813  34.030  1.00  0.00     0.074 A 
ATOM     67  C   UNL A   1      43.267  27.756  33.133  1.00  0.00     0.031 C 
ATOM     68  C   UNL A   1      43.465  29.116  35.196  1.00  0.00     0.034 A 
BRANCH  55  69
ATOM     69  C   UNL A   1      41.093  34.008  38.137  1.00  0.00     0.023 A 
ATOM     70  C   UNL A   1      41.922  35.145  38.034  1.00  0.00     0.012 A 
ATOM     71  C   UNL A   1      40.328  33.813  39.302  1.00  0.00     0.148 A 
ATOM     72  C   UNL A   1      42.018  36.052  39.087  1.00  0.00     0.002 A 
ATOM     73  C   UNL A   1      40.395  34.747  40.330  1.00  0.00     0.091 A 
ATOM     74  F   UNL A   1      39.566  32.715  39.392  1.00  0.00    -0.205 F 
ATOM     75  C   UNL A   1      41.247  35.859  40.230  1.00  0.00     0.022 A 
BRANCH  73  76
ATOM     76  S   UNL A   1      39.386  34.629  41.812  1.00  0.00     0.127 S 
ATOM     77  O   UNL A   1      39.772  35.843  42.529  1.00  0.00    -0.237 OA
ATOM     78  O   UNL A   1      38.030  34.650  41.264  1.00  0.00    -0.237 OA
ATOM     79  O   UNL A   1      39.762  33.377  42.454  1.00  0.00    -0.744 OA
ENDBRANCH  73  76
ENDBRANCH  55  69
BRANCH  56  80
ATOM     80  C   UNL A   1      40.371  28.123  30.075  1.00  0.00     0.023 A 
ATOM     81  C   UNL A   1      39.420  27.085  30.023  1.00  0.00     0.012 A 
ATOM     82  C   UNL A   1      41.207  28.343  28.963  1.00  0.00     0.148 A 
ATOM     83  C   UNL A   1      39.325  26.261  28.901  1.00  0.00     0.002 A 
ATOM     84  C   UNL A   1      41.072  27.551  27.828  1.00  0.00     0.091 A 
ATOM     85  F   UNL A   1      42.115  29.326  29.035  1.00  0.00    -0.205 F 
ATOM     86  C   UNL A   1      40.143  26.499  27.801  1.00  0.00     0.022 A 
BRANCH  84  87
ATOM     87  S   UNL A   1      41.994  27.871  26.320  1.00  0.00     0.127 S 
ATOM     88  O   UNL A   1      41.492  26.824  25.435  1.00  0.00    -0.237 OA
ATOM     89  O   UNL A   1      41.562  29.227  25.979  1.00  0.00    -0.237 OA
ATOM     90  O   UNL A   1      43.398  27.770  26.695  1.00  0.00    -0.744 OA
ENDBRANCH  84  87
ENDBRANCH  56  80
BRANCH  68  91
ATOM     91  C   UNL A   1      44.649  28.279  35.595  1.00  0.00     0.023 A 
ATOM     92  C   UNL A   1      45.945  28.679  35.214  1.00  0.00     0.012 A 
ATOM     93  C   UNL A   1      44.485  27.152  36.424  1.00  0.00     0.148 A 
ATOM     94  C   UNL A   1      47.060  27.953  35.632  1.00  0.00     0.002 A 
ATOM     95  C   UNL A   1      45.603  26.462  36.875  1.00  0.00     0.091 A 
ATOM     96  F   UNL A   1      43.241  26.779  36.759  1.00  0.00    -0.205 F 
ATOM     97  C   UNL A   1      46.890  26.854  36.472  1.00  0.00     0.022 A 
BRANCH  95  98
ATOM     98  S   UNL A   1      45.484  25.098  38.037  1.00  0.00     0.127 S 
ATOM     99  O   UNL A   1      44.723  24.116  37.266  1.00  0.00    -0.237 OA
ATOM    100  O   UNL A   1      46.888  24.748  38.254  1.00  0.00    -0.237 OA
ATOM    101  O   UNL A   1      44.809  25.633  39.212  1.00  0.00    -0.744 OA
ENDBRANCH  95  98
ENDBRANCH  68  91
ENDBRANCH  42  43
ENDBRANCH  34  37
ENDBRANCH  32  33
ENDBRANCH  31  32
ENDBRANCH  30  31
ENDBRANCH   1  30
TORSDOF 21
ENDMDL
MODEL 3
REMARK VINA RESULT:     -10.0      5.759      9.758
REMARK SMILES COc1ccc([C@H]2CC(c3ccccc3)=NN2C(=O)CCCC(=O)NCCCCNC(=O)c2ccc(-c3c4nc(c(-c5cccc(S(=O)(=O)[O-])c5F)c5ccc([nH]5)c(-c5cccc(S(=O)(=O)[O-])c5F)c5nc(c(-c6cccc(S(=O)(=O)[O-])c6F)c6ccc3[nH]6)C=C5)C=C4)cc2)cc1
REMARK SMILES IDX 26 1 25 2 23 3 24 4 22 6 21 7 20 8 18 9 19 10 17 11 7 12
REMARK SMILES IDX 8 13 9 14 16 15 6 16 3 17 4 18 97 19 5 20 96 21 2 22 1 23
REMARK SMILES IDX 10 24 11 25 15 26 12 27 14 28 13 29 27 30 28 31 29 32 30 33
REMARK SMILES IDX 31 34 32 36 33 37 34 38 95 39 35 40 94 41 36 42 37 43 38 44
REMARK SMILES IDX 88 45 39 46 93 47 87 48 89 49 40 50 92 51 86 52 85 53 41 55
REMARK SMILES IDX 73 56 53 57 72 58 54 59 57 60 71 61 90 62 55 63 56 64 70 66
REMARK SMILES IDX 91 67 58 68 42 69 43 70 51 71 44 72 46 73 52 74 45 75 47 76
REMARK SMILES IDX 48 77 49 78 50 79 74 80 75 81 83 82 76 83 78 84 84 85 77 86
REMARK SMILES IDX 79 87 80 88 81 89 82 90 59 91 60 92 68 93 61 94 63 95 69 96
REMARK SMILES IDX 62 97 64 98 65 99 66 100 67 101
REMARK H PARENT 25 5 30 35 89 54 57 65
REMARK Flexibility Score: inf
ROOT
ATOM      1  C   UNL A   1      39.367  27.766  28.770  1.00  0.00     0.116 C 
ENDROOT
BRANCH   1   2
ATOM      2  N   UNL A   1      40.366  27.040  28.034  1.00  0.00    -0.356 N 
ATOM      3  C   UNL A   1      40.378  25.752  27.613  1.00  0.00     0.220 C 
ATOM      4  O   UNL A   1      41.457  25.319  27.197  1.00  0.00    -0.275 OA
ATOM      5  H   UNL A   1      41.167  27.560  27.798  1.00  0.00     0.163 HD
BRANCH   3   6
ATOM      6  C   UNL A   1      39.119  24.918  27.445  1.00  0.00     0.100 C 
BRANCH   6   7
ATOM      7  C   UNL A   1      38.663  24.192  26.199  1.00  0.00     0.020 C 
BRANCH   7   8
ATOM      8  C   UNL A   1      37.313  23.477  26.118  1.00  0.00     0.103 C 
BRANCH   8   9
ATOM      9  C   UNL A   1      36.938  22.262  25.248  1.00  0.00     0.243 C 
ATOM     10  O   UNL A   1      37.890  21.642  24.741  1.00  0.00    -0.273 OA
BRANCH   9  11
ATOM     11  N   UNL A   1      35.660  21.713  25.217  1.00  0.00    -0.225 N 
ATOM     12  C   UNL A   1      34.308  22.322  25.136  1.00  0.00     0.147 C 
ATOM     13  C   UNL A   1      33.349  21.140  25.037  1.00  0.00     0.091 C 
ATOM     14  C   UNL A   1      34.331  20.018  24.979  1.00  0.00     0.071 C 
ATOM     15  N   UNL A   1      35.581  20.335  25.078  1.00  0.00    -0.174 NA
BRANCH  12  16
ATOM     16  C   UNL A   1      34.104  23.281  23.970  1.00  0.00    -0.023 A 
ATOM     17  C   UNL A   1      33.029  25.008  22.062  1.00  0.00     0.118 A 
ATOM     18  C   UNL A   1      32.995  23.636  21.834  1.00  0.00     0.047 A 
ATOM     19  C   UNL A   1      33.690  25.531  23.170  1.00  0.00     0.047 A 
ATOM     20  C   UNL A   1      33.570  22.773  22.766  1.00  0.00     0.010 A 
ATOM     21  C   UNL A   1      34.245  24.669  24.117  1.00  0.00     0.010 A 
BRANCH  17  22
ATOM     22  O   UNL A   1      32.258  25.827  21.285  1.00  0.00    -0.497 OA
ATOM     23  C   UNL A   1      31.448  26.673  22.088  1.00  0.00     0.278 C 
ENDBRANCH  17  22
ENDBRANCH  12  16
BRANCH  14  24
ATOM     24  C   UNL A   1      33.863  18.636  24.835  1.00  0.00    -0.002 A 
ATOM     25  C   UNL A   1      32.830  18.169  25.650  1.00  0.00     0.010 A 
ATOM     26  C   UNL A   1      34.476  17.801  23.901  1.00  0.00     0.010 A 
ATOM     27  C   UNL A   1      32.403  16.847  25.521  1.00  0.00     0.001 A 
ATOM     28  C   UNL A   1      34.054  16.475  23.789  1.00  0.00     0.001 A 
ATOM     29  C   UNL A   1      33.019  16.001  24.596  1.00  0.00     0.000 A 
ENDBRANCH  14  24
ENDBRANCH   9  11
ENDBRANCH   8   9
ENDBRANCH   7   8
ENDBRANCH   6   7
ENDBRANCH   3   6
ENDBRANCH   1   2
BRANCH   1  30
ATOM     30  C   UNL A   1      38.648  28.748  27.851  1.00  0.00     0.023 C 
BRANCH  30  31
ATOM     31  C   UNL A   1      37.590  29.569  28.583  1.00  0.00     0.023 C 
BRANCH  31  32
ATOM     32  C   UNL A   1      38.167  30.527  29.615  1.00  0.00     0.116 C 
BRANCH  32  33
ATOM     33  N   UNL A   1      37.219  30.862  30.673  1.00  0.00    -0.352 N 
ATOM     34  C   UNL A   1      37.353  30.590  32.012  1.00  0.00     0.251 C 
ATOM     35  H   UNL A   1      36.398  31.331  30.397  1.00  0.00     0.163 HD
ATOM     36  O   UNL A   1      36.448  30.813  32.808  1.00  0.00    -0.269 OA
BRANCH  34  37
ATOM     37  C   UNL A   1      38.624  29.995  32.449  1.00  0.00     0.039 A 
ATOM     38  C   UNL A   1      38.762  28.607  32.441  1.00  0.00     0.014 A 
ATOM     39  C   UNL A   1      39.713  30.836  32.694  1.00  0.00     0.014 A 
ATOM     40  C   UNL A   1      40.027  28.054  32.634  1.00  0.00     0.010 A 
ATOM     41  C   UNL A   1      40.980  30.284  32.806  1.00  0.00     0.010 A 
ATOM     42  C   UNL A   1      41.147  28.889  32.785  1.00  0.00    -0.014 A 
BRANCH  42  43
ATOM     43  C   UNL A   1      42.510  28.331  32.942  1.00  0.00     0.031 A 
ATOM     44  C   UNL A   1      43.279  27.909  31.722  1.00  0.00     0.074 A 
ATOM     45  C   UNL A   1      43.009  28.112  34.175  1.00  0.00     0.049 A 
ATOM     46  N   UNL A   1      44.448  27.332  31.643  1.00  0.00    -0.248 NA
ATOM     47  C   UNL A   1      42.630  28.131  30.416  1.00  0.00     0.031 C 
ATOM     48  C   UNL A   1      42.314  28.392  35.434  1.00  0.00     0.029 A 
ATOM     49  N   UNL A   1      44.208  27.577  34.571  1.00  0.00    -0.354 N 
ATOM     50  C   UNL A   1      44.653  27.081  30.292  1.00  0.00     0.074 A 
ATOM     51  C   UNL A   1      43.472  27.528  29.590  1.00  0.00     0.031 C 
ATOM     52  C   UNL A   1      43.102  28.033  36.462  1.00  0.00     0.029 A 
ATOM     53  C   UNL A   1      44.347  27.479  35.936  1.00  0.00     0.049 A 
ATOM     54  H   UNL A   1      44.905  27.291  33.937  1.00  0.00     0.167 HD
ATOM     55  C   UNL A   1      45.744  26.561  29.684  1.00  0.00     0.034 A 
ATOM     56  C   UNL A   1      45.366  27.001  36.676  1.00  0.00     0.034 A 
ATOM     57  C   UNL A   1      46.942  26.186  30.382  1.00  0.00     0.049 A 
ATOM     58  C   UNL A   1      46.600  26.503  35.973  1.00  0.00     0.074 A 
ATOM     59  C   UNL A   1      48.144  25.749  29.856  1.00  0.00     0.029 A 
ATOM     60  N   UNL A   1      47.092  26.211  31.760  1.00  0.00    -0.354 N 
ATOM     61  N   UNL A   1      46.844  26.431  34.686  1.00  0.00    -0.248 NA
ATOM     62  C   UNL A   1      47.715  26.058  36.821  1.00  0.00     0.031 C 
ATOM     63  C   UNL A   1      49.017  25.500  30.918  1.00  0.00     0.029 A 
ATOM     64  C   UNL A   1      48.364  25.796  32.104  1.00  0.00     0.049 A 
ATOM     65  H   UNL A   1      46.394  26.483  32.399  1.00  0.00     0.167 HD
ATOM     66  C   UNL A   1      48.150  25.969  34.570  1.00  0.00     0.074 A 
ATOM     67  C   UNL A   1      48.653  25.797  35.918  1.00  0.00     0.031 C 
ATOM     68  C   UNL A   1      48.865  25.694  33.451  1.00  0.00     0.034 A 
BRANCH  55  69
ATOM     69  C   UNL A   1      45.715  26.438  28.184  1.00  0.00     0.023 A 
ATOM     70  C   UNL A   1      46.135  27.528  27.392  1.00  0.00     0.012 A 
ATOM     71  C   UNL A   1      45.315  25.243  27.559  1.00  0.00     0.148 A 
ATOM     72  C   UNL A   1      46.121  27.443  26.002  1.00  0.00     0.002 A 
ATOM     73  C   UNL A   1      45.347  25.150  26.172  1.00  0.00     0.091 A 
ATOM     74  F   UNL A   1      44.896  24.227  28.327  1.00  0.00    -0.205 F 
ATOM     75  C   UNL A   1      45.738  26.251  25.393  1.00  0.00     0.022 A 
BRANCH  73  76
ATOM     76  S   UNL A   1      44.945  23.635  25.294  1.00  0.00     0.127 S 
ATOM     77  O   UNL A   1      45.700  23.804  24.053  1.00  0.00    -0.237 OA
ATOM     78  O   UNL A   1      45.471  22.608  26.193  1.00  0.00    -0.237 OA
ATOM     79  O   UNL A   1      43.496  23.631  25.147  1.00  0.00    -0.744 OA
ENDBRANCH  73  76
ENDBRANCH  55  69
BRANCH  56  80
ATOM     80  C   UNL A   1      45.298  27.053  38.164  1.00  0.00     0.023 A 
ATOM     81  C   UNL A   1      44.802  25.940  38.870  1.00  0.00     0.012 A 
ATOM     82  C   UNL A   1      45.744  28.178  38.884  1.00  0.00     0.148 A 
ATOM     83  C   UNL A   1      44.719  25.958  40.263  1.00  0.00     0.002 A 
ATOM     84  C   UNL A   1      45.707  28.169  40.274  1.00  0.00     0.091 A 
ATOM     85  F   UNL A   1      46.201  29.234  38.196  1.00  0.00    -0.205 F 
ATOM     86  C   UNL A   1      45.179  27.067  40.965  1.00  0.00     0.022 A 
BRANCH  84  87
ATOM     87  S   UNL A   1      46.400  29.502  41.261  1.00  0.00     0.127 S 
ATOM     88  O   UNL A   1      47.633  29.797  40.538  1.00  0.00    -0.237 OA
ATOM     89  O   UNL A   1      45.362  30.529  41.159  1.00  0.00    -0.237 OA
ATOM     90  O   UNL A   1      46.562  28.949  42.599  1.00  0.00    -0.744 OA
ENDBRANCH  84  87
ENDBRANCH  56  80
BRANCH  68  91
ATOM     91  C   UNL A   1      50.279  25.212  33.625  1.00  0.00     0.023 A 
ATOM     92  C   UNL A   1      51.321  26.148  33.770  1.00  0.00     0.012 A 
ATOM     93  C   UNL A   1      50.559  23.837  33.737  1.00  0.00     0.148 A 
ATOM     94  C   UNL A   1      52.628  25.721  33.999  1.00  0.00     0.002 A 
ATOM     95  C   UNL A   1      51.856  23.420  34.013  1.00  0.00     0.091 A 
ATOM     96  F   UNL A   1      49.555  22.963  33.578  1.00  0.00    -0.205 F 
ATOM     97  C   UNL A   1      52.893  24.359  34.133  1.00  0.00     0.022 A 
BRANCH  95  98
ATOM     98  S   UNL A   1      52.268  21.696  34.299  1.00  0.00     0.127 S 
ATOM     99  O   UNL A   1      51.304  21.328  35.335  1.00  0.00    -0.237 OA
ATOM    100  O   UNL A   1      52.016  21.092  32.990  1.00  0.00    -0.237 OA
ATOM    101  O   UNL A   1      53.666  21.681  34.709  1.00  0.00    -0.744 OA
ENDBRANCH  95  98
ENDBRANCH  68  91
ENDBRANCH  42  43
ENDBRANCH  34  37
ENDBRANCH  32  33
ENDBRANCH  31  32
ENDBRANCH  30  31
ENDBRANCH   1  30
TORSDOF 21
ENDMDL
