MODEL 1
REMARK VINA RESULT:     -11.8      0.000      0.000
REMARK SMILES C[C@H]1CC[C@@](Nc2ccc(C(N)=O)nn2)(C(=O)NCCCCNC(=O)c2ccc(-c3c4nc(c(-c5cccc(S(=O)(=O)[O-])c5F)c5ccc([nH]5)c(-c5cccc(S(=O)(=O)[O-])c5F)c5nc(c(-c6cccc(S(=O)(=O)[O-])c6F)c6ccc3[nH]6)C=C5)C=C4)cc2)CC1
REMARK SMILES IDX 20 1 19 2 18 3 16 4 17 5 5 7 1 8 2 9 90 10 3 11 89 12 4 13
REMARK SMILES IDX 6 14 7 16 8 17 15 18 9 19 14 20 10 21 11 22 12 23 13 24
REMARK SMILES IDX 21 27 22 28 23 29 24 30 25 32 26 33 27 34 88 35 28 36 87 37
REMARK SMILES IDX 29 38 30 39 31 40 81 41 32 42 86 43 80 44 82 45 33 46 85 47
REMARK SMILES IDX 79 48 78 49 34 51 66 52 46 53 65 54 47 55 50 56 64 57 83 58
REMARK SMILES IDX 48 59 49 60 63 62 84 63 51 64 35 65 36 66 44 67 37 68 39 69
REMARK SMILES IDX 45 70 38 71 40 72 41 73 42 74 43 75 67 76 68 77 76 78 69 79
REMARK SMILES IDX 71 80 77 81 70 82 72 83 73 84 74 85 75 86 52 87 53 88 61 89
REMARK SMILES IDX 54 90 56 91 62 92 55 93 57 94 58 95 59 96 60 97
REMARK H PARENT 18 6 6 15 12 25 12 26 23 31 82 50 50 61
REMARK Flexibility Score: inf
ROOT
ATOM      1  C   UNL A   1      32.570  26.965  24.952  1.00  0.00     0.023 C 
ENDROOT
BRANCH   1   2
ATOM      2  C   UNL A   1      32.385  25.484  24.650  1.00  0.00     0.116 C 
BRANCH   2   3
ATOM      3  N   UNL A   1      33.287  25.046  23.602  1.00  0.00    -0.354 N 
ATOM      4  C   UNL A   1      33.944  23.863  23.429  1.00  0.00     0.245 C 
ATOM      5  O   UNL A   1      34.537  23.721  22.354  1.00  0.00    -0.272 OA
ATOM      6  H   UNL A   1      33.454  25.713  22.898  1.00  0.00     0.163 HD
BRANCH   4   7
ATOM      7  C   UNL A   1      33.910  22.723  24.513  1.00  0.00     0.118 C 
ATOM      8  C   UNL A   1      37.983  23.724  25.852  1.00  0.00     0.007 C 
ATOM      9  C   UNL A   1      36.638  22.998  25.804  1.00  0.00    -0.014 C 
ATOM     10  C   UNL A   1      36.459  22.269  24.466  1.00  0.00     0.006 C 
ATOM     11  C   UNL A   1      35.501  23.986  26.067  1.00  0.00     0.006 C 
ATOM     12  C   UNL A   1      35.047  21.697  24.261  1.00  0.00     0.039 C 
ATOM     13  C   UNL A   1      34.141  23.305  25.931  1.00  0.00     0.039 C 
BRANCH   7  14
ATOM     14  N   UNL A   1      32.620  21.972  24.510  1.00  0.00    -0.354 N 
ATOM     15  H   UNL A   1      31.780  22.485  24.476  1.00  0.00     0.163 HD
BRANCH  14  16
ATOM     16  C   UNL A   1      32.544  20.592  24.553  1.00  0.00     0.149 A 
ATOM     17  C   UNL A   1      32.768  19.841  25.698  1.00  0.00     0.051 A 
ATOM     18  N   UNL A   1      32.356  19.968  23.367  1.00  0.00    -0.132 NA
ATOM     19  C   UNL A   1      32.923  18.459  25.597  1.00  0.00     0.040 A 
ATOM     20  N   UNL A   1      32.525  18.607  23.246  1.00  0.00    -0.143 NA
ATOM     21  C   UNL A   1      32.830  17.881  24.345  1.00  0.00     0.150 A 
BRANCH  21  22
ATOM     22  C   UNL A   1      33.136  16.438  24.146  1.00  0.00     0.269 C 
ATOM     23  N   UNL A   1      32.476  15.552  24.955  1.00  0.00    -0.364 N 
ATOM     24  O   UNL A   1      33.916  16.056  23.282  1.00  0.00    -0.268 OA
ATOM     25  H   UNL A   1      31.854  15.883  25.643  1.00  0.00     0.160 HD
ATOM     26  H   UNL A   1      32.624  14.585  24.851  1.00  0.00     0.160 HD
ENDBRANCH  21  22
ENDBRANCH  14  16
ENDBRANCH   7  14
ENDBRANCH   4   7
ENDBRANCH   2   3
ENDBRANCH   1   2
BRANCH   1  27
ATOM     27  C   UNL A   1      32.978  27.253  26.396  1.00  0.00     0.023 C 
BRANCH  27  28
ATOM     28  C   UNL A   1      34.160  28.205  26.553  1.00  0.00     0.116 C 
BRANCH  28  29
ATOM     29  N   UNL A   1      33.751  29.578  26.818  1.00  0.00    -0.352 N 
ATOM     30  C   UNL A   1      34.379  30.518  27.599  1.00  0.00     0.251 C 
ATOM     31  H   UNL A   1      32.918  29.869  26.383  1.00  0.00     0.163 HD
ATOM     32  O   UNL A   1      33.837  31.592  27.838  1.00  0.00    -0.269 OA
BRANCH  30  33
ATOM     33  C   UNL A   1      35.704  30.202  28.167  1.00  0.00     0.039 A 
ATOM     34  C   UNL A   1      35.780  29.657  29.451  1.00  0.00     0.014 A 
ATOM     35  C   UNL A   1      36.860  30.394  27.406  1.00  0.00     0.014 A 
ATOM     36  C   UNL A   1      37.019  29.244  29.947  1.00  0.00     0.010 A 
ATOM     37  C   UNL A   1      38.077  29.912  27.871  1.00  0.00     0.010 A 
ATOM     38  C   UNL A   1      38.170  29.336  29.147  1.00  0.00    -0.014 A 
BRANCH  38  39
ATOM     39  C   UNL A   1      39.480  28.821  29.621  1.00  0.00     0.031 A 
ATOM     40  C   UNL A   1      40.218  29.533  30.722  1.00  0.00     0.074 A 
ATOM     41  C   UNL A   1      40.048  27.769  28.999  1.00  0.00     0.049 A 
ATOM     42  N   UNL A   1      41.394  29.270  31.230  1.00  0.00    -0.248 NA
ATOM     43  C   UNL A   1      39.561  30.713  31.311  1.00  0.00     0.031 C 
ATOM     44  C   UNL A   1      39.471  27.044  27.863  1.00  0.00     0.029 A 
ATOM     45  N   UNL A   1      41.250  27.142  29.214  1.00  0.00    -0.354 N 
ATOM     46  C   UNL A   1      41.633  30.267  32.167  1.00  0.00     0.074 A 
ATOM     47  C   UNL A   1      40.497  31.162  32.134  1.00  0.00     0.031 C 
ATOM     48  C   UNL A   1      40.316  26.072  27.486  1.00  0.00     0.029 A 
ATOM     49  C   UNL A   1      41.506  26.120  28.329  1.00  0.00     0.049 A 
ATOM     50  H   UNL A   1      41.869  27.399  29.934  1.00  0.00     0.167 HD
ATOM     51  C   UNL A   1      42.689  30.410  33.004  1.00  0.00     0.034 A 
ATOM     52  C   UNL A   1      42.582  25.317  28.207  1.00  0.00     0.034 A 
ATOM     53  C   UNL A   1      43.796  29.494  33.065  1.00  0.00     0.049 A 
ATOM     54  C   UNL A   1      43.723  25.472  29.175  1.00  0.00     0.074 A 
ATOM     55  C   UNL A   1      44.868  29.499  33.938  1.00  0.00     0.029 A 
ATOM     56  N   UNL A   1      43.979  28.417  32.211  1.00  0.00    -0.354 N 
ATOM     57  N   UNL A   1      43.854  26.319  30.167  1.00  0.00    -0.248 NA
ATOM     58  C   UNL A   1      44.848  24.535  29.034  1.00  0.00     0.031 C 
ATOM     59  C   UNL A   1      45.713  28.438  33.598  1.00  0.00     0.029 A 
ATOM     60  C   UNL A   1      45.152  27.755  32.531  1.00  0.00     0.049 A 
ATOM     61  H   UNL A   1      43.366  28.161  31.485  1.00  0.00     0.167 HD
ATOM     62  C   UNL A   1      45.055  25.995  30.790  1.00  0.00     0.074 A 
ATOM     63  C   UNL A   1      45.601  24.860  30.075  1.00  0.00     0.031 C 
ATOM     64  C   UNL A   1      45.658  26.592  31.847  1.00  0.00     0.034 A 
BRANCH  51  65
ATOM     65  C   UNL A   1      42.670  31.572  33.963  1.00  0.00     0.023 A 
ATOM     66  C   UNL A   1      43.158  32.827  33.545  1.00  0.00     0.012 A 
ATOM     67  C   UNL A   1      42.120  31.440  35.253  1.00  0.00     0.148 A 
ATOM     68  C   UNL A   1      43.133  33.924  34.406  1.00  0.00     0.002 A 
ATOM     69  C   UNL A   1      42.054  32.549  36.089  1.00  0.00     0.091 A 
ATOM     70  F   UNL A   1      41.679  30.234  35.640  1.00  0.00    -0.205 F 
ATOM     71  C   UNL A   1      42.572  33.787  35.673  1.00  0.00     0.022 A 
BRANCH  69  72
ATOM     72  S   UNL A   1      41.275  32.499  37.707  1.00  0.00     0.127 S 
ATOM     73  O   UNL A   1      42.130  31.549  38.417  1.00  0.00    -0.237 OA
ATOM     74  O   UNL A   1      41.405  33.886  38.152  1.00  0.00    -0.237 OA
ATOM     75  O   UNL A   1      39.905  32.059  37.480  1.00  0.00    -0.744 OA
ENDBRANCH  69  72
ENDBRANCH  51  65
BRANCH  52  76
ATOM     76  C   UNL A   1      42.600  24.248  27.167  1.00  0.00     0.023 A 
ATOM     77  C   UNL A   1      43.286  24.473  25.957  1.00  0.00     0.012 A 
ATOM     78  C   UNL A   1      41.964  23.009  27.375  1.00  0.00     0.148 A 
ATOM     79  C   UNL A   1      43.311  23.498  24.961  1.00  0.00     0.002 A 
ATOM     80  C   UNL A   1      42.040  22.020  26.401  1.00  0.00     0.091 A 
ATOM     81  F   UNL A   1      41.307  22.818  28.528  1.00  0.00    -0.205 F 
ATOM     82  C   UNL A   1      42.697  22.268  25.186  1.00  0.00     0.022 A 
BRANCH  80  83
ATOM     83  S   UNL A   1      41.394  20.364  26.657  1.00  0.00     0.127 S 
ATOM     84  O   UNL A   1      41.832  19.681  25.443  1.00  0.00    -0.237 OA
ATOM     85  O   UNL A   1      42.086  19.955  27.880  1.00  0.00    -0.237 OA
ATOM     86  O   UNL A   1      39.953  20.524  26.810  1.00  0.00    -0.744 OA
ENDBRANCH  80  83
ENDBRANCH  52  76
BRANCH  64  87
ATOM     87  C   UNL A   1      46.960  26.011  32.331  1.00  0.00     0.023 A 
ATOM     88  C   UNL A   1      48.178  26.474  31.795  1.00  0.00     0.012 A 
ATOM     89  C   UNL A   1      46.978  25.061  33.371  1.00  0.00     0.148 A 
ATOM     90  C   UNL A   1      49.393  25.977  32.266  1.00  0.00     0.002 A 
ATOM     91  C   UNL A   1      48.193  24.608  33.870  1.00  0.00     0.091 A 
ATOM     92  F   UNL A   1      45.808  24.620  33.855  1.00  0.00    -0.205 F 
ATOM     93  C   UNL A   1      49.402  25.055  33.310  1.00  0.00     0.022 A 
BRANCH  91  94
ATOM     94  S   UNL A   1      48.304  23.497  35.277  1.00  0.00     0.127 S 
ATOM     95  O   UNL A   1      49.751  23.357  35.433  1.00  0.00    -0.237 OA
ATOM     96  O   UNL A   1      47.647  24.266  36.334  1.00  0.00    -0.237 OA
ATOM     97  O   UNL A   1      47.598  22.283  34.886  1.00  0.00    -0.744 OA
ENDBRANCH  91  94
ENDBRANCH  64  87
ENDBRANCH  38  39
ENDBRANCH  30  33
ENDBRANCH  28  29
ENDBRANCH  27  28
ENDBRANCH   1  27
TORSDOF 17
ENDMDL
MODEL 2
REMARK VINA RESULT:     -11.6      2.851      4.524
REMARK SMILES C[C@H]1CC[C@@](Nc2ccc(C(N)=O)nn2)(C(=O)NCCCCNC(=O)c2ccc(-c3c4nc(c(-c5cccc(S(=O)(=O)[O-])c5F)c5ccc([nH]5)c(-c5cccc(S(=O)(=O)[O-])c5F)c5nc(c(-c6cccc(S(=O)(=O)[O-])c6F)c6ccc3[nH]6)C=C5)C=C4)cc2)CC1
REMARK SMILES IDX 20 1 19 2 18 3 16 4 17 5 5 7 1 8 2 9 90 10 3 11 89 12 4 13
REMARK SMILES IDX 6 14 7 16 8 17 15 18 9 19 14 20 10 21 11 22 12 23 13 24
REMARK SMILES IDX 21 27 22 28 23 29 24 30 25 32 26 33 27 34 88 35 28 36 87 37
REMARK SMILES IDX 29 38 30 39 31 40 81 41 32 42 86 43 80 44 82 45 33 46 85 47
REMARK SMILES IDX 79 48 78 49 34 51 66 52 46 53 65 54 47 55 50 56 64 57 83 58
REMARK SMILES IDX 48 59 49 60 63 62 84 63 51 64 35 65 36 66 44 67 37 68 39 69
REMARK SMILES IDX 45 70 38 71 40 72 41 73 42 74 43 75 67 76 68 77 76 78 69 79
REMARK SMILES IDX 71 80 77 81 70 82 72 83 73 84 74 85 75 86 52 87 53 88 61 89
REMARK SMILES IDX 54 90 56 91 62 92 55 93 57 94 58 95 59 96 60 97
REMARK H PARENT 18 6 6 15 12 25 12 26 23 31 82 50 50 61
REMARK Flexibility Score: inf
ROOT
ATOM      1  C   UNL A   1      31.394  27.991  26.480  1.00  0.00     0.023 C 
ENDROOT
BRANCH   1   2
ATOM      2  C   UNL A   1      32.040  26.632  26.243  1.00  0.00     0.116 C 
BRANCH   2   3
ATOM      3  N   UNL A   1      31.276  25.572  26.871  1.00  0.00    -0.354 N 
ATOM      4  C   UNL A   1      30.993  24.306  26.447  1.00  0.00     0.245 C 
ATOM      5  O   UNL A   1      30.435  23.569  27.267  1.00  0.00    -0.272 OA
ATOM      6  H   UNL A   1      30.899  25.803  27.750  1.00  0.00     0.163 HD
BRANCH   4   7
ATOM      7  C   UNL A   1      31.395  23.797  25.014  1.00  0.00     0.118 C 
ATOM      8  C   UNL A   1      35.183  22.154  26.541  1.00  0.00     0.007 C 
ATOM      9  C   UNL A   1      34.085  22.503  25.536  1.00  0.00    -0.014 C 
ATOM     10  C   UNL A   1      33.948  24.023  25.384  1.00  0.00     0.006 C 
ATOM     11  C   UNL A   1      32.766  21.855  25.956  1.00  0.00     0.006 C 
ATOM     12  C   UNL A   1      32.726  24.452  24.556  1.00  0.00     0.039 C 
ATOM     13  C   UNL A   1      31.631  22.265  25.021  1.00  0.00     0.039 C 
BRANCH   7  14
ATOM     14  N   UNL A   1      30.361  24.115  23.985  1.00  0.00    -0.354 N 
ATOM     15  H   UNL A   1      29.745  23.401  23.704  1.00  0.00     0.163 HD
BRANCH  14  16
ATOM     16  C   UNL A   1      30.225  25.365  23.407  1.00  0.00     0.149 A 
ATOM     17  C   UNL A   1      31.177  25.941  22.580  1.00  0.00     0.051 A 
ATOM     18  N   UNL A   1      29.142  26.082  23.787  1.00  0.00    -0.132 NA
ATOM     19  C   UNL A   1      31.077  27.293  22.251  1.00  0.00     0.040 A 
ATOM     20  N   UNL A   1      29.038  27.422  23.488  1.00  0.00    -0.143 NA
ATOM     21  C   UNL A   1      30.010  28.010  22.755  1.00  0.00     0.150 A 
BRANCH  21  22
ATOM     22  C   UNL A   1      29.926  29.485  22.570  1.00  0.00     0.269 C 
ATOM     23  N   UNL A   1      30.703  30.026  21.581  1.00  0.00    -0.364 N 
ATOM     24  O   UNL A   1      29.178  30.180  23.246  1.00  0.00    -0.268 OA
ATOM     25  H   UNL A   1      31.298  29.447  21.050  1.00  0.00     0.160 HD
ATOM     26  H   UNL A   1      30.670  30.993  21.401  1.00  0.00     0.160 HD
ENDBRANCH  21  22
ENDBRANCH  14  16
ENDBRANCH   7  14
ENDBRANCH   4   7
ENDBRANCH   2   3
ENDBRANCH   1   2
BRANCH   1  27
ATOM     27  C   UNL A   1      31.780  29.046  25.444  1.00  0.00     0.023 C 
BRANCH  27  28
ATOM     28  C   UNL A   1      33.029  29.854  25.785  1.00  0.00     0.116 C 
BRANCH  28  29
ATOM     29  N   UNL A   1      32.723  31.191  26.275  1.00  0.00    -0.352 N 
ATOM     30  C   UNL A   1      33.380  31.914  27.242  1.00  0.00     0.251 C 
ATOM     31  H   UNL A   1      31.947  31.632  25.862  1.00  0.00     0.163 HD
ATOM     32  O   UNL A   1      32.918  32.976  27.646  1.00  0.00    -0.269 OA
BRANCH  30  33
ATOM     33  C   UNL A   1      34.635  31.378  27.804  1.00  0.00     0.039 A 
ATOM     34  C   UNL A   1      35.725  32.236  27.969  1.00  0.00     0.014 A 
ATOM     35  C   UNL A   1      34.708  30.046  28.217  1.00  0.00     0.014 A 
ATOM     36  C   UNL A   1      36.873  31.767  28.611  1.00  0.00     0.010 A 
ATOM     37  C   UNL A   1      35.821  29.606  28.923  1.00  0.00     0.010 A 
ATOM     38  C   UNL A   1      36.916  30.460  29.124  1.00  0.00    -0.014 A 
BRANCH  38  39
ATOM     39  C   UNL A   1      38.092  29.970  29.888  1.00  0.00     0.031 A 
ATOM     40  C   UNL A   1      38.359  30.485  31.276  1.00  0.00     0.074 A 
ATOM     41  C   UNL A   1      38.968  29.133  29.298  1.00  0.00     0.049 A 
ATOM     42  N   UNL A   1      39.359  30.219  32.076  1.00  0.00    -0.248 NA
ATOM     43  C   UNL A   1      37.388  31.445  31.830  1.00  0.00     0.031 C 
ATOM     44  C   UNL A   1      38.865  28.627  27.927  1.00  0.00     0.029 A 
ATOM     45  N   UNL A   1      40.134  28.580  29.767  1.00  0.00    -0.354 N 
ATOM     46  C   UNL A   1      39.161  31.004  33.204  1.00  0.00     0.074 A 
ATOM     47  C   UNL A   1      37.964  31.783  32.974  1.00  0.00     0.031 C 
ATOM     48  C   UNL A   1      39.919  27.838  27.668  1.00  0.00     0.029 A 
ATOM     49  C   UNL A   1      40.789  27.803  28.840  1.00  0.00     0.049 A 
ATOM     50  H   UNL A   1      40.469  28.725  30.681  1.00  0.00     0.167 HD
ATOM     51  C   UNL A   1      39.891  31.051  34.345  1.00  0.00     0.034 A 
ATOM     52  C   UNL A   1      41.961  27.142  28.923  1.00  0.00     0.034 A 
ATOM     53  C   UNL A   1      41.056  30.244  34.587  1.00  0.00     0.049 A 
ATOM     54  C   UNL A   1      42.731  27.179  30.214  1.00  0.00     0.074 A 
ATOM     55  C   UNL A   1      41.811  30.150  35.742  1.00  0.00     0.029 A 
ATOM     56  N   UNL A   1      41.641  29.400  33.655  1.00  0.00    -0.354 N 
ATOM     57  N   UNL A   1      42.437  27.797  31.333  1.00  0.00    -0.248 NA
ATOM     58  C   UNL A   1      43.975  26.397  30.270  1.00  0.00     0.031 C 
ATOM     59  C   UNL A   1      42.868  29.267  35.501  1.00  0.00     0.029 A 
ATOM     60  C   UNL A   1      42.753  28.787  34.206  1.00  0.00     0.049 A 
ATOM     61  H   UNL A   1      41.312  29.257  32.738  1.00  0.00     0.167 HD
ATOM     62  C   UNL A   1      43.437  27.450  32.235  1.00  0.00     0.074 A 
ATOM     63  C   UNL A   1      44.332  26.551  31.538  1.00  0.00     0.031 C 
ATOM     64  C   UNL A   1      43.606  27.851  33.519  1.00  0.00     0.034 A 
BRANCH  51  65
ATOM     65  C   UNL A   1      39.417  31.969  35.441  1.00  0.00     0.023 A 
ATOM     66  C   UNL A   1      38.533  31.479  36.425  1.00  0.00     0.012 A 
ATOM     67  C   UNL A   1      39.886  33.293  35.534  1.00  0.00     0.148 A 
ATOM     68  C   UNL A   1      38.094  32.301  37.462  1.00  0.00     0.002 A 
ATOM     69  C   UNL A   1      39.483  34.094  36.597  1.00  0.00     0.091 A 
ATOM     70  F   UNL A   1      40.710  33.749  34.579  1.00  0.00    -0.205 F 
ATOM     71  C   UNL A   1      38.577  33.603  37.554  1.00  0.00     0.022 A 
BRANCH  69  72
ATOM     72  S   UNL A   1      40.111  35.757  36.854  1.00  0.00     0.127 S 
ATOM     73  O   UNL A   1      39.540  36.090  38.158  1.00  0.00    -0.237 OA
ATOM     74  O   UNL A   1      41.557  35.540  36.859  1.00  0.00    -0.237 OA
ATOM     75  O   UNL A   1      39.619  36.549  35.735  1.00  0.00    -0.744 OA
ENDBRANCH  69  72
ENDBRANCH  51  65
BRANCH  52  76
ATOM     76  C   UNL A   1      42.443  26.333  27.767  1.00  0.00     0.023 A 
ATOM     77  C   UNL A   1      43.349  26.906  26.852  1.00  0.00     0.012 A 
ATOM     78  C   UNL A   1      42.030  24.999  27.580  1.00  0.00     0.148 A 
ATOM     79  C   UNL A   1      43.809  26.178  25.755  1.00  0.00     0.002 A 
ATOM     80  C   UNL A   1      42.536  24.261  26.516  1.00  0.00     0.091 A 
ATOM     81  F   UNL A   1      41.160  24.475  28.454  1.00  0.00    -0.205 F 
ATOM     82  C   UNL A   1      43.411  24.854  25.592  1.00  0.00     0.022 A 
BRANCH  80  83
ATOM     83  S   UNL A   1      42.184  22.513  26.302  1.00  0.00     0.127 S 
ATOM     84  O   UNL A   1      40.728  22.513  26.184  1.00  0.00    -0.237 OA
ATOM     85  O   UNL A   1      42.903  22.210  25.064  1.00  0.00    -0.237 OA
ATOM     86  O   UNL A   1      42.725  21.856  27.485  1.00  0.00    -0.744 OA
ENDBRANCH  80  83
ENDBRANCH  52  76
BRANCH  64  87
ATOM     87  C   UNL A   1      44.781  27.293  34.278  1.00  0.00     0.023 A 
ATOM     88  C   UNL A   1      45.994  28.009  34.320  1.00  0.00     0.012 A 
ATOM     89  C   UNL A   1      44.657  26.098  35.013  1.00  0.00     0.148 A 
ATOM     90  C   UNL A   1      47.076  27.526  35.056  1.00  0.00     0.002 A 
ATOM     91  C   UNL A   1      45.722  25.649  35.784  1.00  0.00     0.091 A 
ATOM     92  F   UNL A   1      43.501  25.422  34.945  1.00  0.00    -0.205 F 
ATOM     93  C   UNL A   1      46.937  26.355  35.796  1.00  0.00     0.022 A 
BRANCH  91  94
ATOM     94  S   UNL A   1      45.602  24.206  36.847  1.00  0.00     0.127 S 
ATOM     95  O   UNL A   1      44.966  23.234  35.959  1.00  0.00    -0.237 OA
ATOM     96  O   UNL A   1      47.005  23.926  37.153  1.00  0.00    -0.237 OA
ATOM     97  O   UNL A   1      44.805  24.618  37.995  1.00  0.00    -0.744 OA
ENDBRANCH  91  94
ENDBRANCH  64  87
ENDBRANCH  38  39
ENDBRANCH  30  33
ENDBRANCH  28  29
ENDBRANCH  27  28
ENDBRANCH   1  27
TORSDOF 17
ENDMDL
MODEL 3
REMARK VINA RESULT:     -11.3      1.973      3.676
REMARK SMILES C[C@H]1CC[C@@](Nc2ccc(C(N)=O)nn2)(C(=O)NCCCCNC(=O)c2ccc(-c3c4nc(c(-c5cccc(S(=O)(=O)[O-])c5F)c5ccc([nH]5)c(-c5cccc(S(=O)(=O)[O-])c5F)c5nc(c(-c6cccc(S(=O)(=O)[O-])c6F)c6ccc3[nH]6)C=C5)C=C4)cc2)CC1
REMARK SMILES IDX 20 1 19 2 18 3 16 4 17 5 5 7 1 8 2 9 90 10 3 11 89 12 4 13
REMARK SMILES IDX 6 14 7 16 8 17 15 18 9 19 14 20 10 21 11 22 12 23 13 24
REMARK SMILES IDX 21 27 22 28 23 29 24 30 25 32 26 33 27 34 88 35 28 36 87 37
REMARK SMILES IDX 29 38 30 39 31 40 81 41 32 42 86 43 80 44 82 45 33 46 85 47
REMARK SMILES IDX 79 48 78 49 34 51 66 52 46 53 65 54 47 55 50 56 64 57 83 58
REMARK SMILES IDX 48 59 49 60 63 62 84 63 51 64 35 65 36 66 44 67 37 68 39 69
REMARK SMILES IDX 45 70 38 71 40 72 41 73 42 74 43 75 67 76 68 77 76 78 69 79
REMARK SMILES IDX 71 80 77 81 70 82 72 83 73 84 74 85 75 86 52 87 53 88 61 89
REMARK SMILES IDX 54 90 56 91 62 92 55 93 57 94 58 95 59 96 60 97
REMARK H PARENT 18 6 6 15 12 25 12 26 23 31 82 50 50 61
REMARK Flexibility Score: inf
ROOT
ATOM      1  C   UNL A   1      31.611  27.464  26.387  1.00  0.00     0.023 C 
ENDROOT
BRANCH   1   2
ATOM      2  C   UNL A   1      32.395  26.162  26.297  1.00  0.00     0.116 C 
BRANCH   2   3
ATOM      3  N   UNL A   1      31.679  25.073  26.934  1.00  0.00    -0.354 N 
ATOM      4  C   UNL A   1      31.337  23.838  26.467  1.00  0.00     0.245 C 
ATOM      5  O   UNL A   1      30.850  23.058  27.292  1.00  0.00    -0.272 OA
ATOM      6  H   UNL A   1      31.391  25.255  27.857  1.00  0.00     0.163 HD
BRANCH   4   7
ATOM      7  C   UNL A   1      31.592  23.410  24.974  1.00  0.00     0.118 C 
ATOM      8  C   UNL A   1      35.357  21.411  26.074  1.00  0.00     0.007 C 
ATOM      9  C   UNL A   1      34.214  21.905  25.187  1.00  0.00    -0.014 C 
ATOM     10  C   UNL A   1      34.176  23.439  25.152  1.00  0.00     0.006 C 
ATOM     11  C   UNL A   1      32.887  21.317  25.667  1.00  0.00     0.006 C 
ATOM     12  C   UNL A   1      32.928  24.007  24.457  1.00  0.00     0.039 C 
ATOM     13  C   UNL A   1      31.718  21.869  24.856  1.00  0.00     0.039 C 
BRANCH   7  14
ATOM     14  N   UNL A   1      30.509  23.872  24.056  1.00  0.00    -0.354 N 
ATOM     15  H   UNL A   1      29.797  23.236  23.816  1.00  0.00     0.163 HD
BRANCH  14  16
ATOM     16  C   UNL A   1      30.455  25.148  23.526  1.00  0.00     0.149 A 
ATOM     17  C   UNL A   1      31.458  25.703  22.746  1.00  0.00     0.051 A 
ATOM     18  N   UNL A   1      29.404  25.909  23.910  1.00  0.00    -0.132 NA
ATOM     19  C   UNL A   1      31.440  27.070  22.470  1.00  0.00     0.040 A 
ATOM     20  N   UNL A   1      29.380  27.263  23.664  1.00  0.00    -0.143 NA
ATOM     21  C   UNL A   1      30.401  27.825  22.978  1.00  0.00     0.150 A 
BRANCH  21  22
ATOM     22  C   UNL A   1      30.402  29.308  22.851  1.00  0.00     0.269 C 
ATOM     23  N   UNL A   1      30.910  29.826  21.689  1.00  0.00    -0.364 N 
ATOM     24  O   UNL A   1      29.944  30.033  23.726  1.00  0.00    -0.268 OA
ATOM     25  H   UNL A   1      31.274  29.224  21.000  1.00  0.00     0.160 HD
ATOM     26  H   UNL A   1      30.915  30.799  21.544  1.00  0.00     0.160 HD
ENDBRANCH  21  22
ENDBRANCH  14  16
ENDBRANCH   7  14
ENDBRANCH   4   7
ENDBRANCH   2   3
ENDBRANCH   1   2
BRANCH   1  27
ATOM     27  C   UNL A   1      32.446  28.709  26.094  1.00  0.00     0.023 C 
BRANCH  27  28
ATOM     28  C   UNL A   1      33.523  29.018  27.130  1.00  0.00     0.116 C 
BRANCH  28  29
ATOM     29  N   UNL A   1      33.534  30.417  27.535  1.00  0.00    -0.352 N 
ATOM     30  C   UNL A   1      34.497  31.090  28.247  1.00  0.00     0.251 C 
ATOM     31  H   UNL A   1      32.752  30.949  27.263  1.00  0.00     0.163 HD
ATOM     32  O   UNL A   1      34.299  32.238  28.633  1.00  0.00    -0.269 OA
BRANCH  30  33
ATOM     33  C   UNL A   1      35.763  30.399  28.565  1.00  0.00     0.039 A 
ATOM     34  C   UNL A   1      36.858  30.565  27.715  1.00  0.00     0.014 A 
ATOM     35  C   UNL A   1      35.874  29.637  29.731  1.00  0.00     0.014 A 
ATOM     36  C   UNL A   1      38.091  30.014  28.072  1.00  0.00     0.010 A 
ATOM     37  C   UNL A   1      37.119  29.158  30.120  1.00  0.00     0.010 A 
ATOM     38  C   UNL A   1      38.239  29.337  29.294  1.00  0.00    -0.014 A 
BRANCH  38  39
ATOM     39  C   UNL A   1      39.559  28.821  29.735  1.00  0.00     0.031 A 
ATOM     40  C   UNL A   1      40.320  29.525  30.826  1.00  0.00     0.074 A 
ATOM     41  C   UNL A   1      40.116  27.775  29.092  1.00  0.00     0.049 A 
ATOM     42  N   UNL A   1      41.506  29.260  31.307  1.00  0.00    -0.248 NA
ATOM     43  C   UNL A   1      39.673  30.699  31.439  1.00  0.00     0.031 C 
ATOM     44  C   UNL A   1      39.516  27.060  27.962  1.00  0.00     0.029 A 
ATOM     45  N   UNL A   1      41.323  27.149  29.276  1.00  0.00    -0.354 N 
ATOM     46  C   UNL A   1      41.764  30.250  32.247  1.00  0.00     0.074 A 
ATOM     47  C   UNL A   1      40.626  31.142  32.246  1.00  0.00     0.031 C 
ATOM     48  C   UNL A   1      40.354  26.092  27.559  1.00  0.00     0.029 A 
ATOM     49  C   UNL A   1      41.562  26.135  28.377  1.00  0.00     0.049 A 
ATOM     50  H   UNL A   1      41.957  27.401  29.985  1.00  0.00     0.167 HD
ATOM     51  C   UNL A   1      42.837  30.387  33.063  1.00  0.00     0.034 A 
ATOM     52  C   UNL A   1      42.636  25.335  28.226  1.00  0.00     0.034 A 
ATOM     53  C   UNL A   1      43.946  29.473  33.092  1.00  0.00     0.049 A 
ATOM     54  C   UNL A   1      43.797  25.484  29.170  1.00  0.00     0.074 A 
ATOM     55  C   UNL A   1      45.037  29.472  33.943  1.00  0.00     0.029 A 
ATOM     56  N   UNL A   1      44.114  28.404  32.225  1.00  0.00    -0.354 N 
ATOM     57  N   UNL A   1      43.949  26.323  30.167  1.00  0.00    -0.248 NA
ATOM     58  C   UNL A   1      44.921  24.550  28.997  1.00  0.00     0.031 C 
ATOM     59  C   UNL A   1      45.877  28.416  33.575  1.00  0.00     0.029 A 
ATOM     60  C   UNL A   1      45.294  27.741  32.515  1.00  0.00     0.049 A 
ATOM     61  H   UNL A   1      43.485  28.153  31.511  1.00  0.00     0.167 HD
ATOM     62  C   UNL A   1      45.163  25.996  30.760  1.00  0.00     0.074 A 
ATOM     63  C   UNL A   1      45.696  24.869  30.025  1.00  0.00     0.031 C 
ATOM     64  C   UNL A   1      45.787  26.586  31.810  1.00  0.00     0.034 A 
BRANCH  51  65
ATOM     65  C   UNL A   1      42.836  31.541  34.032  1.00  0.00     0.023 A 
ATOM     66  C   UNL A   1      43.386  32.779  33.641  1.00  0.00     0.012 A 
ATOM     67  C   UNL A   1      42.243  31.420  35.303  1.00  0.00     0.148 A 
ATOM     68  C   UNL A   1      43.380  33.868  34.511  1.00  0.00     0.002 A 
ATOM     69  C   UNL A   1      42.196  32.524  36.149  1.00  0.00     0.091 A 
ATOM     70  F   UNL A   1      41.742  30.231  35.666  1.00  0.00    -0.205 F 
ATOM     71  C   UNL A   1      42.776  33.743  35.759  1.00  0.00     0.022 A 
BRANCH  69  72
ATOM     72  S   UNL A   1      41.368  32.492  37.742  1.00  0.00     0.127 S 
ATOM     73  O   UNL A   1      40.054  31.962  37.381  1.00  0.00    -0.237 OA
ATOM     74  O   UNL A   1      42.209  31.571  38.506  1.00  0.00    -0.237 OA
ATOM     75  O   UNL A   1      41.377  33.866  38.226  1.00  0.00    -0.744 OA
ENDBRANCH  69  72
ENDBRANCH  51  65
BRANCH  52  76
ATOM     76  C   UNL A   1      42.634  24.276  27.176  1.00  0.00     0.023 A 
ATOM     77  C   UNL A   1      43.263  24.526  25.941  1.00  0.00     0.012 A 
ATOM     78  C   UNL A   1      42.036  23.021  27.400  1.00  0.00     0.148 A 
ATOM     79  C   UNL A   1      43.268  23.559  24.935  1.00  0.00     0.002 A 
ATOM     80  C   UNL A   1      42.092  22.041  26.415  1.00  0.00     0.091 A 
ATOM     81  F   UNL A   1      41.433  22.805  28.578  1.00  0.00    -0.205 F 
ATOM     82  C   UNL A   1      42.691  22.314  25.175  1.00  0.00     0.022 A 
BRANCH  80  83
ATOM     83  S   UNL A   1      41.496  20.369  26.683  1.00  0.00     0.127 S 
ATOM     84  O   UNL A   1      42.234  19.976  27.880  1.00  0.00    -0.237 OA
ATOM     85  O   UNL A   1      40.063  20.588  26.885  1.00  0.00    -0.237 OA
ATOM     86  O   UNL A   1      41.823  19.636  25.467  1.00  0.00    -0.744 OA
ENDBRANCH  80  83
ENDBRANCH  52  76
BRANCH  64  87
ATOM     87  C   UNL A   1      47.100  26.003  32.261  1.00  0.00     0.023 A 
ATOM     88  C   UNL A   1      48.303  26.446  31.676  1.00  0.00     0.012 A 
ATOM     89  C   UNL A   1      47.146  25.072  33.318  1.00  0.00     0.148 A 
ATOM     90  C   UNL A   1      49.529  25.948  32.115  1.00  0.00     0.002 A 
ATOM     91  C   UNL A   1      48.374  24.619  33.784  1.00  0.00     0.091 A 
ATOM     92  F   UNL A   1      45.989  24.649  33.849  1.00  0.00    -0.205 F 
ATOM     93  C   UNL A   1      49.566  25.045  33.175  1.00  0.00     0.022 A 
BRANCH  91  94
ATOM     94  S   UNL A   1      48.523  23.532  35.207  1.00  0.00     0.127 S 
ATOM     95  O   UNL A   1      49.571  22.611  34.770  1.00  0.00    -0.237 OA
ATOM     96  O   UNL A   1      48.927  24.459  36.265  1.00  0.00    -0.237 OA
ATOM     97  O   UNL A   1      47.207  22.936  35.397  1.00  0.00    -0.744 OA
ENDBRANCH  91  94
ENDBRANCH  64  87
ENDBRANCH  38  39
ENDBRANCH  30  33
ENDBRANCH  28  29
ENDBRANCH  27  28
ENDBRANCH   1  27
TORSDOF 17
ENDMDL
