MODEL 1
REMARK VINA RESULT:     -12.6      0.000      0.000
REMARK SMILES Cc1ccccc1C[C@H](C[C@@H]1Cc2ccccc21)C(=O)NCCCCNC(=O)c1ccc(-c2c3nc(c(-c4cccc(S(=O)(=O)[O-])c4F)c4ccc([nH]4)c(-c4cccc(S(=O)(=O)[O-])c4F)c4nc(c(-c5cccc(S(=O)(=O)[O-])c5F)c5ccc2[nH]5)C=C4)C=C3)cc1
REMARK SMILES IDX 24 1 23 2 22 3 21 4 19 5 20 6 9 8 8 9 7 10 1 11 2 12 3 13
REMARK SMILES IDX 4 14 6 15 5 16 10 17 11 18 12 19 18 20 13 21 17 22 14 23
REMARK SMILES IDX 16 24 15 25 25 26 26 27 27 28 28 30 29 31 30 32 91 33 31 34
REMARK SMILES IDX 90 35 32 36 33 37 34 38 84 39 35 40 89 41 83 42 85 43 36 44
REMARK SMILES IDX 88 45 82 46 81 47 37 49 69 50 49 51 68 52 50 53 53 54 67 55
REMARK SMILES IDX 86 56 51 57 52 58 66 60 87 61 54 62 38 63 39 64 47 65 40 66
REMARK SMILES IDX 42 67 48 68 41 69 43 70 44 71 45 72 46 73 70 74 71 75 79 76
REMARK SMILES IDX 72 77 74 78 80 79 73 80 75 81 76 82 77 83 78 84 55 85 56 86
REMARK SMILES IDX 64 87 57 88 59 89 65 90 58 91 60 92 61 93 62 94 63 95
REMARK H PARENT 21 7 26 29 85 48 53 59
REMARK Flexibility Score: inf
ROOT
ATOM      1  C   UNL A   1      33.613  29.317  25.602  1.00  0.00     0.023 C 
ENDROOT
BRANCH   1   2
ATOM      2  C   UNL A   1      32.112  29.149  25.337  1.00  0.00     0.023 C 
BRANCH   2   3
ATOM      3  C   UNL A   1      31.693  27.843  24.669  1.00  0.00     0.116 C 
BRANCH   3   4
ATOM      4  N   UNL A   1      30.652  27.128  25.376  1.00  0.00    -0.356 N 
ATOM      5  C   UNL A   1      30.645  25.889  25.942  1.00  0.00     0.223 C 
ATOM      6  O   UNL A   1      29.634  25.585  26.586  1.00  0.00    -0.275 OA
ATOM      7  H   UNL A   1      29.804  27.621  25.462  1.00  0.00     0.163 HD
BRANCH   5   8
ATOM      8  C   UNL A   1      31.795  24.875  25.809  1.00  0.00     0.083 C 
BRANCH   8   9
ATOM      9  C   UNL A   1      31.465  23.367  26.011  1.00  0.00     0.049 C 
BRANCH   9  10
ATOM     10  C   UNL A   1      32.292  22.196  25.509  1.00  0.00    -0.044 A 
ATOM     11  C   UNL A   1      33.578  22.113  27.740  1.00  0.00     0.044 C 
ATOM     12  C   UNL A   1      33.296  21.633  26.341  1.00  0.00    -0.048 A 
ATOM     13  C   UNL A   1      34.096  20.576  25.863  1.00  0.00     0.004 A 
ATOM     14  C   UNL A   1      33.875  20.022  24.608  1.00  0.00     0.000 A 
ATOM     15  C   UNL A   1      32.051  21.570  24.280  1.00  0.00     0.004 A 
ATOM     16  C   UNL A   1      32.838  20.506  23.827  1.00  0.00     0.000 A 
ENDBRANCH   9  10
ENDBRANCH   8   9
BRANCH   8  17
ATOM     17  C   UNL A   1      33.211  25.363  26.218  1.00  0.00     0.022 C 
BRANCH  17  18
ATOM     18  C   UNL A   1      34.233  25.550  25.083  1.00  0.00     0.025 C 
ATOM     19  C   UNL A   1      33.981  25.087  23.588  1.00  0.00     0.044 C 
ATOM     20  C   UNL A   1      35.318  24.489  25.095  1.00  0.00    -0.041 A 
ATOM     21  C   UNL A   1      34.998  24.017  23.846  1.00  0.00    -0.044 A 
ATOM     22  C   UNL A   1      36.330  23.932  25.842  1.00  0.00     0.004 A 
ATOM     23  C   UNL A   1      35.634  22.935  23.286  1.00  0.00     0.004 A 
ATOM     24  C   UNL A   1      37.016  22.846  25.288  1.00  0.00     0.000 A 
ATOM     25  C   UNL A   1      36.659  22.341  24.025  1.00  0.00     0.000 A 
ENDBRANCH  17  18
ENDBRANCH   8  17
ENDBRANCH   5   8
ENDBRANCH   3   4
ENDBRANCH   2   3
ENDBRANCH   1   2
BRANCH   1  26
ATOM     26  C   UNL A   1      33.969  29.667  27.038  1.00  0.00     0.116 C 
BRANCH  26  27
ATOM     27  N   UNL A   1      34.812  30.858  27.103  1.00  0.00    -0.352 N 
ATOM     28  C   UNL A   1      35.918  31.074  27.888  1.00  0.00     0.251 C 
ATOM     29  H   UNL A   1      34.555  31.600  26.509  1.00  0.00     0.163 HD
ATOM     30  O   UNL A   1      36.122  32.228  28.299  1.00  0.00    -0.269 OA
BRANCH  28  31
ATOM     31  C   UNL A   1      36.883  29.991  28.132  1.00  0.00     0.039 A 
ATOM     32  C   UNL A   1      36.960  29.316  29.357  1.00  0.00     0.014 A 
ATOM     33  C   UNL A   1      37.873  29.795  27.176  1.00  0.00     0.014 A 
ATOM     34  C   UNL A   1      38.108  28.580  29.651  1.00  0.00     0.010 A 
ATOM     35  C   UNL A   1      38.850  28.875  27.355  1.00  0.00     0.010 A 
ATOM     36  C   UNL A   1      39.069  28.448  28.655  1.00  0.00    -0.014 A 
BRANCH  36  37
ATOM     37  C   UNL A   1      40.433  28.004  28.823  1.00  0.00     0.031 A 
ATOM     38  C   UNL A   1      40.751  26.602  28.609  1.00  0.00     0.074 A 
ATOM     39  C   UNL A   1      41.357  28.992  28.860  1.00  0.00     0.049 A 
ATOM     40  N   UNL A   1      41.858  26.063  28.962  1.00  0.00    -0.248 NA
ATOM     41  C   UNL A   1      39.812  25.681  27.985  1.00  0.00     0.031 C 
ATOM     42  C   UNL A   1      42.755  28.977  28.460  1.00  0.00     0.029 A 
ATOM     43  N   UNL A   1      41.178  30.299  29.280  1.00  0.00    -0.354 N 
ATOM     44  C   UNL A   1      41.914  24.840  28.335  1.00  0.00     0.074 A 
ATOM     45  C   UNL A   1      40.568  24.586  27.881  1.00  0.00     0.031 C 
ATOM     46  C   UNL A   1      43.343  30.117  28.879  1.00  0.00     0.029 A 
ATOM     47  C   UNL A   1      42.387  30.813  29.729  1.00  0.00     0.049 A 
ATOM     48  H   UNL A   1      40.324  30.788  29.264  1.00  0.00     0.167 HD
ATOM     49  C   UNL A   1      43.143  24.303  28.100  1.00  0.00     0.034 A 
ATOM     50  C   UNL A   1      42.541  31.038  31.074  1.00  0.00     0.034 A 
ATOM     51  C   UNL A   1      44.190  25.199  28.636  1.00  0.00     0.049 A 
ATOM     52  C   UNL A   1      43.511  30.056  31.712  1.00  0.00     0.074 A 
ATOM     53  C   UNL A   1      44.982  26.171  28.042  1.00  0.00     0.029 A 
ATOM     54  N   UNL A   1      44.261  25.428  30.006  1.00  0.00    -0.354 N 
ATOM     55  N   UNL A   1      43.971  28.985  31.123  1.00  0.00    -0.248 NA
ATOM     56  C   UNL A   1      44.056  30.219  33.053  1.00  0.00     0.031 C 
ATOM     57  C   UNL A   1      45.468  27.032  29.068  1.00  0.00     0.029 A 
ATOM     58  C   UNL A   1      45.002  26.569  30.288  1.00  0.00     0.049 A 
ATOM     59  H   UNL A   1      43.840  24.856  30.689  1.00  0.00     0.167 HD
ATOM     60  C   UNL A   1      44.744  28.259  31.987  1.00  0.00     0.074 A 
ATOM     61  C   UNL A   1      44.834  29.126  33.155  1.00  0.00     0.031 C 
ATOM     62  C   UNL A   1      45.194  26.999  31.677  1.00  0.00     0.034 A 
BRANCH  49  63
ATOM     63  C   UNL A   1      43.435  23.178  27.118  1.00  0.00     0.023 A 
ATOM     64  C   UNL A   1      44.305  23.481  26.046  1.00  0.00     0.012 A 
ATOM     65  C   UNL A   1      42.911  21.863  27.130  1.00  0.00     0.148 A 
ATOM     66  C   UNL A   1      44.576  22.577  25.014  1.00  0.00     0.002 A 
ATOM     67  C   UNL A   1      43.141  20.973  26.074  1.00  0.00     0.091 A 
ATOM     68  F   UNL A   1      42.248  21.416  28.196  1.00  0.00    -0.205 F 
ATOM     69  C   UNL A   1      43.973  21.330  25.012  1.00  0.00     0.022 A 
BRANCH  67  70
ATOM     70  S   UNL A   1      42.365  19.345  25.981  1.00  0.00     0.127 S 
ATOM     71  O   UNL A   1      40.957  19.687  25.770  1.00  0.00    -0.237 OA
ATOM     72  O   UNL A   1      43.024  18.750  24.821  1.00  0.00    -0.237 OA
ATOM     73  O   UNL A   1      42.632  18.689  27.256  1.00  0.00    -0.744 OA
ENDBRANCH  67  70
ENDBRANCH  49  63
BRANCH  50  74
ATOM     74  C   UNL A   1      41.259  31.529  31.705  1.00  0.00     0.023 A 
ATOM     75  C   UNL A   1      40.665  32.673  31.112  1.00  0.00     0.012 A 
ATOM     76  C   UNL A   1      40.445  30.669  32.463  1.00  0.00     0.148 A 
ATOM     77  C   UNL A   1      39.274  32.810  31.068  1.00  0.00     0.002 A 
ATOM     78  C   UNL A   1      39.058  30.834  32.439  1.00  0.00     0.091 A 
ATOM     79  F   UNL A   1      41.017  29.671  33.149  1.00  0.00    -0.205 F 
ATOM     80  C   UNL A   1      38.468  31.860  31.687  1.00  0.00     0.022 A 
BRANCH  78  81
ATOM     81  S   UNL A   1      37.988  29.672  33.299  1.00  0.00     0.127 S 
ATOM     82  O   UNL A   1      38.606  28.393  32.952  1.00  0.00    -0.237 OA
ATOM     83  O   UNL A   1      38.138  30.049  34.706  1.00  0.00    -0.237 OA
ATOM     84  O   UNL A   1      36.663  29.922  32.756  1.00  0.00    -0.744 OA
ENDBRANCH  78  81
ENDBRANCH  50  74
BRANCH  62  85
ATOM     85  C   UNL A   1      45.860  26.031  32.647  1.00  0.00     0.023 A 
ATOM     86  C   UNL A   1      47.252  25.980  32.836  1.00  0.00     0.012 A 
ATOM     87  C   UNL A   1      45.084  25.206  33.507  1.00  0.00     0.148 A 
ATOM     88  C   UNL A   1      47.852  25.117  33.760  1.00  0.00     0.002 A 
ATOM     89  C   UNL A   1      45.675  24.455  34.519  1.00  0.00     0.091 A 
ATOM     90  F   UNL A   1      43.759  25.108  33.335  1.00  0.00    -0.205 F 
ATOM     91  C   UNL A   1      47.062  24.374  34.622  1.00  0.00     0.022 A 
BRANCH  89  92
ATOM     92  S   UNL A   1      44.692  23.692  35.817  1.00  0.00     0.127 S 
ATOM     93  O   UNL A   1      44.101  22.555  35.115  1.00  0.00    -0.237 OA
ATOM     94  O   UNL A   1      45.712  23.335  36.805  1.00  0.00    -0.237 OA
ATOM     95  O   UNL A   1      43.765  24.723  36.262  1.00  0.00    -0.744 OA
ENDBRANCH  89  92
ENDBRANCH  62  85
ENDBRANCH  36  37
ENDBRANCH  28  31
ENDBRANCH  26  27
ENDBRANCH   1  26
TORSDOF 18
ENDMDL
MODEL 2
REMARK VINA RESULT:     -12.5      1.160      2.129
REMARK SMILES Cc1ccccc1C[C@H](C[C@@H]1Cc2ccccc21)C(=O)NCCCCNC(=O)c1ccc(-c2c3nc(c(-c4cccc(S(=O)(=O)[O-])c4F)c4ccc([nH]4)c(-c4cccc(S(=O)(=O)[O-])c4F)c4nc(c(-c5cccc(S(=O)(=O)[O-])c5F)c5ccc2[nH]5)C=C4)C=C3)cc1
REMARK SMILES IDX 24 1 23 2 22 3 21 4 19 5 20 6 9 8 8 9 7 10 1 11 2 12 3 13
REMARK SMILES IDX 4 14 6 15 5 16 10 17 11 18 12 19 18 20 13 21 17 22 14 23
REMARK SMILES IDX 16 24 15 25 25 26 26 27 27 28 28 30 29 31 30 32 91 33 31 34
REMARK SMILES IDX 90 35 32 36 33 37 34 38 84 39 35 40 89 41 83 42 85 43 36 44
REMARK SMILES IDX 88 45 82 46 81 47 37 49 69 50 49 51 68 52 50 53 53 54 67 55
REMARK SMILES IDX 86 56 51 57 52 58 66 60 87 61 54 62 38 63 39 64 47 65 40 66
REMARK SMILES IDX 42 67 48 68 41 69 43 70 44 71 45 72 46 73 70 74 71 75 79 76
REMARK SMILES IDX 72 77 74 78 80 79 73 80 75 81 76 82 77 83 78 84 55 85 56 86
REMARK SMILES IDX 64 87 57 88 59 89 65 90 58 91 60 92 61 93 62 94 63 95
REMARK H PARENT 21 7 26 29 85 48 53 59
REMARK Flexibility Score: inf
ROOT
ATOM      1  C   UNL A   1      32.597  30.354  26.888  1.00  0.00     0.023 C 
ENDROOT
BRANCH   1   2
ATOM      2  C   UNL A   1      31.686  29.222  26.395  1.00  0.00     0.023 C 
BRANCH   2   3
ATOM      3  C   UNL A   1      31.276  29.285  24.927  1.00  0.00     0.116 C 
BRANCH   3   4
ATOM      4  N   UNL A   1      32.363  29.596  24.025  1.00  0.00    -0.356 N 
ATOM      5  C   UNL A   1      33.272  28.788  23.409  1.00  0.00     0.223 C 
ATOM      6  O   UNL A   1      34.025  29.331  22.592  1.00  0.00    -0.275 OA
ATOM      7  H   UNL A   1      32.465  30.553  23.821  1.00  0.00     0.163 HD
BRANCH   5   8
ATOM      8  C   UNL A   1      33.411  27.280  23.686  1.00  0.00     0.083 C 
BRANCH   8   9
ATOM      9  C   UNL A   1      33.966  26.841  25.073  1.00  0.00     0.049 C 
BRANCH   9  10
ATOM     10  C   UNL A   1      34.111  25.412  25.565  1.00  0.00    -0.044 A 
ATOM     11  C   UNL A   1      31.722  25.474  26.529  1.00  0.00     0.044 C 
ATOM     12  C   UNL A   1      33.041  24.795  26.266  1.00  0.00    -0.048 A 
ATOM     13  C   UNL A   1      33.186  23.485  26.764  1.00  0.00     0.004 A 
ATOM     14  C   UNL A   1      34.341  22.752  26.522  1.00  0.00     0.000 A 
ATOM     15  C   UNL A   1      35.231  24.621  25.280  1.00  0.00     0.004 A 
ATOM     16  C   UNL A   1      35.354  23.314  25.761  1.00  0.00     0.000 A 
ENDBRANCH   9  10
ENDBRANCH   8   9
BRANCH   8  17
ATOM     17  C   UNL A   1      33.716  26.368  22.467  1.00  0.00     0.022 C 
BRANCH  17  18
ATOM     18  C   UNL A   1      32.562  25.490  21.953  1.00  0.00     0.025 C 
ATOM     19  C   UNL A   1      31.112  25.480  22.595  1.00  0.00     0.044 C 
ATOM     20  C   UNL A   1      32.653  24.059  22.450  1.00  0.00    -0.041 A 
ATOM     21  C   UNL A   1      31.450  24.114  23.109  1.00  0.00    -0.044 A 
ATOM     22  C   UNL A   1      33.436  22.928  22.465  1.00  0.00     0.004 A 
ATOM     23  C   UNL A   1      30.977  23.064  23.861  1.00  0.00     0.004 A 
ATOM     24  C   UNL A   1      32.970  21.832  23.198  1.00  0.00     0.000 A 
ATOM     25  C   UNL A   1      31.754  21.906  23.904  1.00  0.00     0.000 A 
ENDBRANCH  17  18
ENDBRANCH   8  17
ENDBRANCH   5   8
ENDBRANCH   3   4
ENDBRANCH   2   3
ENDBRANCH   1   2
BRANCH   1  26
ATOM     26  C   UNL A   1      34.058  29.966  27.052  1.00  0.00     0.116 C 
BRANCH  26  27
ATOM     27  N   UNL A   1      34.894  31.136  27.308  1.00  0.00    -0.352 N 
ATOM     28  C   UNL A   1      35.960  31.247  28.167  1.00  0.00     0.251 C 
ATOM     29  H   UNL A   1      34.665  31.948  26.801  1.00  0.00     0.163 HD
ATOM     30  O   UNL A   1      36.140  32.339  28.730  1.00  0.00    -0.269 OA
BRANCH  28  31
ATOM     31  C   UNL A   1      36.915  30.138  28.319  1.00  0.00     0.039 A 
ATOM     32  C   UNL A   1      36.951  29.330  29.463  1.00  0.00     0.014 A 
ATOM     33  C   UNL A   1      37.934  30.045  27.379  1.00  0.00     0.014 A 
ATOM     34  C   UNL A   1      38.087  28.560  29.708  1.00  0.00     0.010 A 
ATOM     35  C   UNL A   1      38.903  29.106  27.485  1.00  0.00     0.010 A 
ATOM     36  C   UNL A   1      39.080  28.534  28.735  1.00  0.00    -0.014 A 
BRANCH  36  37
ATOM     37  C   UNL A   1      40.436  28.067  28.896  1.00  0.00     0.031 A 
ATOM     38  C   UNL A   1      40.732  26.663  28.666  1.00  0.00     0.074 A 
ATOM     39  C   UNL A   1      41.376  29.039  28.942  1.00  0.00     0.049 A 
ATOM     40  N   UNL A   1      41.831  26.102  29.011  1.00  0.00    -0.248 NA
ATOM     41  C   UNL A   1      39.777  25.764  28.033  1.00  0.00     0.031 C 
ATOM     42  C   UNL A   1      42.773  29.007  28.538  1.00  0.00     0.029 A 
ATOM     43  N   UNL A   1      41.219  30.345  29.377  1.00  0.00    -0.354 N 
ATOM     44  C   UNL A   1      41.866  24.885  28.370  1.00  0.00     0.074 A 
ATOM     45  C   UNL A   1      40.516  24.658  27.916  1.00  0.00     0.031 C 
ATOM     46  C   UNL A   1      43.380  30.133  28.969  1.00  0.00     0.029 A 
ATOM     47  C   UNL A   1      42.437  30.834  29.829  1.00  0.00     0.049 A 
ATOM     48  H   UNL A   1      40.373  30.848  29.367  1.00  0.00     0.167 HD
ATOM     49  C   UNL A   1      43.087  24.332  28.126  1.00  0.00     0.034 A 
ATOM     50  C   UNL A   1      42.597  31.042  31.176  1.00  0.00     0.034 A 
ATOM     51  C   UNL A   1      44.148  25.205  28.670  1.00  0.00     0.049 A 
ATOM     52  C   UNL A   1      43.552  30.038  31.800  1.00  0.00     0.074 A 
ATOM     53  C   UNL A   1      44.955  26.171  28.086  1.00  0.00     0.029 A 
ATOM     54  N   UNL A   1      44.225  25.418  30.043  1.00  0.00    -0.354 N 
ATOM     55  N   UNL A   1      43.994  28.967  31.199  1.00  0.00    -0.248 NA
ATOM     56  C   UNL A   1      44.103  30.178  33.143  1.00  0.00     0.031 C 
ATOM     57  C   UNL A   1      45.456  27.012  29.120  1.00  0.00     0.029 A 
ATOM     58  C   UNL A   1      44.985  26.544  30.336  1.00  0.00     0.049 A 
ATOM     59  H   UNL A   1      43.796  24.845  30.720  1.00  0.00     0.167 HD
ATOM     60  C   UNL A   1      44.757  28.219  32.054  1.00  0.00     0.074 A 
ATOM     61  C   UNL A   1      44.862  29.071  33.231  1.00  0.00     0.031 C 
ATOM     62  C   UNL A   1      45.186  26.955  31.729  1.00  0.00     0.034 A 
BRANCH  49  63
ATOM     63  C   UNL A   1      43.359  23.213  27.132  1.00  0.00     0.023 A 
ATOM     64  C   UNL A   1      44.194  23.528  26.036  1.00  0.00     0.012 A 
ATOM     65  C   UNL A   1      42.847  21.893  27.154  1.00  0.00     0.148 A 
ATOM     66  C   UNL A   1      44.442  22.630  24.992  1.00  0.00     0.002 A 
ATOM     67  C   UNL A   1      43.053  21.009  26.088  1.00  0.00     0.091 A 
ATOM     68  F   UNL A   1      42.220  21.436  28.238  1.00  0.00    -0.205 F 
ATOM     69  C   UNL A   1      43.850  21.378  25.004  1.00  0.00     0.022 A 
BRANCH  67  70
ATOM     70  S   UNL A   1      42.290  19.375  26.013  1.00  0.00     0.127 S 
ATOM     71  O   UNL A   1      42.974  18.769  24.868  1.00  0.00    -0.237 OA
ATOM     72  O   UNL A   1      42.649  18.801  27.307  1.00  0.00    -0.237 OA
ATOM     73  O   UNL A   1      40.864  19.596  25.802  1.00  0.00    -0.744 OA
ENDBRANCH  67  70
ENDBRANCH  49  63
BRANCH  50  74
ATOM     74  C   UNL A   1      41.324  31.547  31.814  1.00  0.00     0.023 A 
ATOM     75  C   UNL A   1      40.750  32.710  31.239  1.00  0.00     0.012 A 
ATOM     76  C   UNL A   1      40.495  30.690  32.559  1.00  0.00     0.148 A 
ATOM     77  C   UNL A   1      39.363  32.873  31.198  1.00  0.00     0.002 A 
ATOM     78  C   UNL A   1      39.111  30.880  32.538  1.00  0.00     0.091 A 
ATOM     79  F   UNL A   1      41.049  29.672  33.230  1.00  0.00    -0.205 F 
ATOM     80  C   UNL A   1      38.540  31.928  31.803  1.00  0.00     0.022 A 
BRANCH  78  81
ATOM     81  S   UNL A   1      38.020  29.724  33.381  1.00  0.00     0.127 S 
ATOM     82  O   UNL A   1      38.218  30.101  34.780  1.00  0.00    -0.237 OA
ATOM     83  O   UNL A   1      36.697  30.057  32.850  1.00  0.00    -0.237 OA
ATOM     84  O   UNL A   1      38.504  28.411  32.987  1.00  0.00    -0.744 OA
ENDBRANCH  78  81
ENDBRANCH  50  74
BRANCH  62  85
ATOM     85  C   UNL A   1      45.839  25.966  32.687  1.00  0.00     0.023 A 
ATOM     86  C   UNL A   1      47.232  25.858  32.838  1.00  0.00     0.012 A 
ATOM     87  C   UNL A   1      45.054  25.179  33.574  1.00  0.00     0.148 A 
ATOM     88  C   UNL A   1      47.821  24.977  33.750  1.00  0.00     0.002 A 
ATOM     89  C   UNL A   1      45.641  24.411  34.575  1.00  0.00     0.091 A 
ATOM     90  F   UNL A   1      43.721  25.135  33.440  1.00  0.00    -0.205 F 
ATOM     91  C   UNL A   1      47.025  24.273  34.639  1.00  0.00     0.022 A 
BRANCH  89  92
ATOM     92  S   UNL A   1      44.664  23.697  35.905  1.00  0.00     0.127 S 
ATOM     93  O   UNL A   1      43.714  22.868  35.167  1.00  0.00    -0.237 OA
ATOM     94  O   UNL A   1      45.672  22.947  36.658  1.00  0.00    -0.237 OA
ATOM     95  O   UNL A   1      44.101  24.830  36.627  1.00  0.00    -0.744 OA
ENDBRANCH  89  92
ENDBRANCH  62  85
ENDBRANCH  36  37
ENDBRANCH  28  31
ENDBRANCH  26  27
ENDBRANCH   1  26
TORSDOF 18
ENDMDL
MODEL 3
REMARK VINA RESULT:     -12.4      3.984      9.193
REMARK SMILES Cc1ccccc1C[C@H](C[C@@H]1Cc2ccccc21)C(=O)NCCCCNC(=O)c1ccc(-c2c3nc(c(-c4cccc(S(=O)(=O)[O-])c4F)c4ccc([nH]4)c(-c4cccc(S(=O)(=O)[O-])c4F)c4nc(c(-c5cccc(S(=O)(=O)[O-])c5F)c5ccc2[nH]5)C=C4)C=C3)cc1
REMARK SMILES IDX 24 1 23 2 22 3 21 4 19 5 20 6 9 8 8 9 7 10 1 11 2 12 3 13
REMARK SMILES IDX 4 14 6 15 5 16 10 17 11 18 12 19 18 20 13 21 17 22 14 23
REMARK SMILES IDX 16 24 15 25 25 26 26 27 27 28 28 30 29 31 30 32 91 33 31 34
REMARK SMILES IDX 90 35 32 36 33 37 34 38 84 39 35 40 89 41 83 42 85 43 36 44
REMARK SMILES IDX 88 45 82 46 81 47 37 49 69 50 49 51 68 52 50 53 53 54 67 55
REMARK SMILES IDX 86 56 51 57 52 58 66 60 87 61 54 62 38 63 39 64 47 65 40 66
REMARK SMILES IDX 42 67 48 68 41 69 43 70 44 71 45 72 46 73 70 74 71 75 79 76
REMARK SMILES IDX 72 77 74 78 80 79 73 80 75 81 76 82 77 83 78 84 55 85 56 86
REMARK SMILES IDX 64 87 57 88 59 89 65 90 58 91 60 92 61 93 62 94 63 95
REMARK H PARENT 21 7 26 29 85 48 53 59
REMARK Flexibility Score: inf
ROOT
ATOM      1  C   UNL A   1      37.897  21.084  25.361  1.00  0.00     0.023 C 
ENDROOT
BRANCH   1   2
ATOM      2  C   UNL A   1      36.545  21.169  24.640  1.00  0.00     0.023 C 
BRANCH   2   3
ATOM      3  C   UNL A   1      35.312  20.909  25.500  1.00  0.00     0.116 C 
BRANCH   3   4
ATOM      4  N   UNL A   1      34.260  20.186  24.817  1.00  0.00    -0.356 N 
ATOM      5  C   UNL A   1      33.204  20.631  24.080  1.00  0.00     0.223 C 
ATOM      6  O   UNL A   1      32.525  19.765  23.516  1.00  0.00    -0.275 OA
ATOM      7  H   UNL A   1      34.318  19.207  24.899  1.00  0.00     0.163 HD
BRANCH   5   8
ATOM      8  C   UNL A   1      32.818  22.114  23.935  1.00  0.00     0.083 C 
BRANCH   8   9
ATOM      9  C   UNL A   1      31.360  22.527  24.296  1.00  0.00     0.049 C 
BRANCH   9  10
ATOM     10  C   UNL A   1      30.857  23.947  24.490  1.00  0.00    -0.044 A 
ATOM     11  C   UNL A   1      31.598  23.900  26.957  1.00  0.00     0.044 C 
ATOM     12  C   UNL A   1      30.966  24.566  25.763  1.00  0.00    -0.048 A 
ATOM     13  C   UNL A   1      30.460  25.866  25.960  1.00  0.00     0.004 A 
ATOM     14  C   UNL A   1      29.912  26.588  24.907  1.00  0.00     0.000 A 
ATOM     15  C   UNL A   1      30.363  24.727  23.437  1.00  0.00     0.004 A 
ATOM     16  C   UNL A   1      29.885  26.024  23.641  1.00  0.00     0.000 A 
ENDBRANCH   9  10
ENDBRANCH   8   9
BRANCH   8  17
ATOM     17  C   UNL A   1      33.541  22.921  22.824  1.00  0.00     0.022 C 
BRANCH  17  18
ATOM     18  C   UNL A   1      34.558  23.980  23.287  1.00  0.00     0.025 C 
ATOM     19  C   UNL A   1      34.789  24.369  24.806  1.00  0.00     0.044 C 
ATOM     20  C   UNL A   1      34.035  25.396  23.135  1.00  0.00    -0.041 A 
ATOM     21  C   UNL A   1      34.123  25.670  24.477  1.00  0.00    -0.044 A 
ATOM     22  C   UNL A   1      33.560  26.323  22.236  1.00  0.00     0.004 A 
ATOM     23  C   UNL A   1      33.700  26.865  25.010  1.00  0.00     0.004 A 
ATOM     24  C   UNL A   1      33.148  27.559  22.743  1.00  0.00     0.000 A 
ATOM     25  C   UNL A   1      33.204  27.823  24.124  1.00  0.00     0.000 A 
ENDBRANCH  17  18
ENDBRANCH   8  17
ENDBRANCH   5   8
ENDBRANCH   3   4
ENDBRANCH   2   3
ENDBRANCH   1   2
BRANCH   1  26
ATOM     26  C   UNL A   1      38.398  22.403  25.926  1.00  0.00     0.116 C 
BRANCH  26  27
ATOM     27  N   UNL A   1      39.674  22.237  26.617  1.00  0.00    -0.352 N 
ATOM     28  C   UNL A   1      40.652  23.176  26.832  1.00  0.00     0.251 C 
ATOM     29  H   UNL A   1      39.856  21.338  26.973  1.00  0.00     0.163 HD
ATOM     30  O   UNL A   1      41.834  22.794  26.834  1.00  0.00    -0.269 OA
BRANCH  28  31
ATOM     31  C   UNL A   1      40.294  24.564  27.163  1.00  0.00     0.039 A 
ATOM     32  C   UNL A   1      40.587  25.638  26.312  1.00  0.00     0.014 A 
ATOM     33  C   UNL A   1      39.843  24.814  28.454  1.00  0.00     0.014 A 
ATOM     34  C   UNL A   1      40.565  26.933  26.828  1.00  0.00     0.010 A 
ATOM     35  C   UNL A   1      39.567  26.072  28.870  1.00  0.00     0.010 A 
ATOM     36  C   UNL A   1      40.127  27.106  28.136  1.00  0.00    -0.014 A 
BRANCH  36  37
ATOM     37  C   UNL A   1      40.302  28.279  28.959  1.00  0.00     0.031 A 
ATOM     38  C   UNL A   1      39.365  29.382  28.827  1.00  0.00     0.074 A 
ATOM     39  C   UNL A   1      41.143  28.123  30.009  1.00  0.00     0.049 A 
ATOM     40  N   UNL A   1      39.563  30.547  29.320  1.00  0.00    -0.248 NA
ATOM     41  C   UNL A   1      38.114  29.251  28.093  1.00  0.00     0.031 C 
ATOM     42  C   UNL A   1      41.152  28.787  31.303  1.00  0.00     0.029 A 
ATOM     43  N   UNL A   1      42.212  27.250  30.110  1.00  0.00    -0.354 N 
ATOM     44  C   UNL A   1      38.359  31.207  29.260  1.00  0.00     0.074 A 
ATOM     45  C   UNL A   1      37.548  30.431  28.354  1.00  0.00     0.031 C 
ATOM     46  C   UNL A   1      42.298  28.477  31.945  1.00  0.00     0.029 A 
ATOM     47  C   UNL A   1      43.145  27.759  31.003  1.00  0.00     0.049 A 
ATOM     48  H   UNL A   1      42.298  26.398  29.623  1.00  0.00     0.167 HD
ATOM     49  C   UNL A   1      38.139  32.211  30.153  1.00  0.00     0.034 A 
ATOM     50  C   UNL A   1      44.342  28.214  30.508  1.00  0.00     0.034 A 
ATOM     51  C   UNL A   1      39.332  32.387  31.009  1.00  0.00     0.049 A 
ATOM     52  C   UNL A   1      44.457  29.728  30.592  1.00  0.00     0.074 A 
ATOM     53  C   UNL A   1      39.652  31.919  32.274  1.00  0.00     0.029 A 
ATOM     54  N   UNL A   1      40.531  32.802  30.437  1.00  0.00    -0.354 N 
ATOM     55  N   UNL A   1      43.467  30.529  30.880  1.00  0.00    -0.248 NA
ATOM     56  C   UNL A   1      45.704  30.453  30.383  1.00  0.00     0.031 C 
ATOM     57  C   UNL A   1      41.067  31.988  32.426  1.00  0.00     0.029 A 
ATOM     58  C   UNL A   1      41.608  32.526  31.270  1.00  0.00     0.049 A 
ATOM     59  H   UNL A   1      40.607  33.234  29.554  1.00  0.00     0.167 HD
ATOM     60  C   UNL A   1      43.865  31.835  30.784  1.00  0.00     0.074 A 
ATOM     61  C   UNL A   1      45.300  31.724  30.554  1.00  0.00     0.031 C 
ATOM     62  C   UNL A   1      42.970  32.874  30.854  1.00  0.00     0.034 A 
BRANCH  49  63
ATOM     63  C   UNL A   1      36.779  32.800  30.494  1.00  0.00     0.023 A 
ATOM     64  C   UNL A   1      36.279  32.535  31.789  1.00  0.00     0.012 A 
ATOM     65  C   UNL A   1      35.930  33.561  29.653  1.00  0.00     0.148 A 
ATOM     66  C   UNL A   1      34.999  32.922  32.200  1.00  0.00     0.002 A 
ATOM     67  C   UNL A   1      34.632  33.907  30.042  1.00  0.00     0.091 A 
ATOM     68  F   UNL A   1      36.387  34.034  28.493  1.00  0.00    -0.205 F 
ATOM     69  C   UNL A   1      34.163  33.587  31.317  1.00  0.00     0.022 A 
BRANCH  67  70
ATOM     70  S   UNL A   1      33.471  34.742  28.940  1.00  0.00     0.127 S 
ATOM     71  O   UNL A   1      32.390  35.113  29.856  1.00  0.00    -0.237 OA
ATOM     72  O   UNL A   1      34.261  35.868  28.448  1.00  0.00    -0.237 OA
ATOM     73  O   UNL A   1      33.084  33.762  27.932  1.00  0.00    -0.744 OA
ENDBRANCH  67  70
ENDBRANCH  49  63
BRANCH  50  74
ATOM     74  C   UNL A   1      44.822  27.367  29.353  1.00  0.00     0.023 A 
ATOM     75  C   UNL A   1      44.988  25.983  29.615  1.00  0.00     0.012 A 
ATOM     76  C   UNL A   1      44.634  27.779  28.022  1.00  0.00     0.148 A 
ATOM     77  C   UNL A   1      44.723  25.035  28.622  1.00  0.00     0.002 A 
ATOM     78  C   UNL A   1      44.403  26.822  27.031  1.00  0.00     0.091 A 
ATOM     79  F   UNL A   1      44.625  29.088  27.742  1.00  0.00    -0.205 F 
ATOM     80  C   UNL A   1      44.378  25.455  27.342  1.00  0.00     0.022 A 
BRANCH  78  81
ATOM     81  S   UNL A   1      44.036  27.328  25.344  1.00  0.00     0.127 S 
ATOM     82  O   UNL A   1      45.359  27.721  24.862  1.00  0.00    -0.237 OA
ATOM     83  O   UNL A   1      43.510  26.108  24.730  1.00  0.00    -0.237 OA
ATOM     84  O   UNL A   1      43.054  28.391  25.486  1.00  0.00    -0.744 OA
ENDBRANCH  78  81
ENDBRANCH  50  74
BRANCH  62  85
ATOM     85  C   UNL A   1      43.278  34.332  30.534  1.00  0.00     0.023 A 
ATOM     86  C   UNL A   1      43.634  35.269  31.520  1.00  0.00     0.012 A 
ATOM     87  C   UNL A   1      43.337  34.790  29.189  1.00  0.00     0.148 A 
ATOM     88  C   UNL A   1      43.955  36.595  31.211  1.00  0.00     0.002 A 
ATOM     89  C   UNL A   1      43.792  36.068  28.877  1.00  0.00     0.091 A 
ATOM     90  F   UNL A   1      42.917  34.004  28.188  1.00  0.00    -0.205 F 
ATOM     91  C   UNL A   1      44.062  36.988  29.887  1.00  0.00     0.022 A 
BRANCH  89  92
ATOM     92  S   UNL A   1      44.198  36.533  27.188  1.00  0.00     0.127 S 
ATOM     93  O   UNL A   1      45.166  35.504  26.818  1.00  0.00    -0.237 OA
ATOM     94  O   UNL A   1      42.901  36.419  26.518  1.00  0.00    -0.237 OA
ATOM     95  O   UNL A   1      44.709  37.894  27.271  1.00  0.00    -0.744 OA
ENDBRANCH  89  92
ENDBRANCH  62  85
ENDBRANCH  36  37
ENDBRANCH  28  31
ENDBRANCH  26  27
ENDBRANCH   1  26
TORSDOF 18
ENDMDL
