MODEL 1
REMARK VINA RESULT:     -13.7      0.000      0.000
REMARK SMILES C[NH+]1CCC(C(=O)N2C[C@@H](C(=O)NCCCCNC(=O)c3ccc(-c4c5nc(c(-c6cccc(S(=O)(=O)[O-])c6F)c6ccc([nH]6)c(-c6cccc(S(=O)(=O)[O-])c6F)c6nc(c(-c7cccc(S(=O)(=O)[O-])c7F)c7ccc4[nH]7)C=C6)C=C5)cc3)[C@H](c3ccc4c(c3)OCO4)C2)CC1
REMARK SMILES IDX 16 1 15 2 14 3 13 4 11 5 12 6 10 8 8 9 9 10 94 11 84 12 6 13
REMARK SMILES IDX 7 14 5 15 1 16 2 17 3 18 96 19 4 21 95 22 85 23 86 24 90 25
REMARK SMILES IDX 87 26 89 27 88 28 91 29 93 30 92 31 17 32 18 33 19 34 20 36
REMARK SMILES IDX 21 37 22 38 83 39 23 40 82 41 24 42 25 43 26 44 76 45 27 46
REMARK SMILES IDX 81 47 75 48 77 49 28 50 80 51 74 52 73 53 29 55 61 56 41 57
REMARK SMILES IDX 60 58 42 59 45 60 59 61 78 62 43 63 44 64 58 66 79 67 46 68
REMARK SMILES IDX 30 69 31 70 39 71 32 72 34 73 40 74 33 75 35 76 36 77 37 78
REMARK SMILES IDX 38 79 62 80 63 81 71 82 64 83 66 84 72 85 65 86 67 87 68 88
REMARK SMILES IDX 69 89 70 90 47 91 48 92 56 93 49 94 51 95 57 96 50 97 52 98
REMARK SMILES IDX 53 99 54 100 55 101
REMARK H PARENT 13 7 2 20 18 35 77 54 45 65
REMARK Flexibility Score: inf
ROOT
ATOM      1  C   UNL A   1      31.836  31.821  26.894  1.00  0.00     0.023 C 
ENDROOT
BRANCH   1   2
ATOM      2  C   UNL A   1      32.135  30.321  26.857  1.00  0.00     0.023 C 
BRANCH   2   3
ATOM      3  C   UNL A   1      31.855  29.629  25.527  1.00  0.00     0.116 C 
BRANCH   3   4
ATOM      4  N   UNL A   1      32.979  29.658  24.606  1.00  0.00    -0.356 N 
ATOM      5  C   UNL A   1      33.354  28.746  23.662  1.00  0.00     0.225 C 
ATOM      6  O   UNL A   1      34.253  29.046  22.875  1.00  0.00    -0.275 OA
ATOM      7  H   UNL A   1      33.555  30.454  24.673  1.00  0.00     0.163 HD
BRANCH   5   8
ATOM      8  C   UNL A   1      32.674  27.396  23.605  1.00  0.00     0.107 C 
ATOM      9  N   UNL A   1      32.889  25.151  23.110  1.00  0.00    -0.341 N 
ATOM     10  C   UNL A   1      33.701  26.287  23.492  1.00  0.00     0.133 C 
ATOM     11  C   UNL A   1      31.850  25.606  22.185  1.00  0.00     0.128 C 
ATOM     12  C   UNL A   1      31.823  27.150  22.335  1.00  0.00     0.053 C 
BRANCH   9  13
ATOM     13  C   UNL A   1      32.977  23.831  23.468  1.00  0.00     0.226 C 
ATOM     14  O   UNL A   1      31.965  23.119  23.439  1.00  0.00    -0.275 OA
BRANCH  13  15
ATOM     15  C   UNL A   1      34.217  23.289  24.194  1.00  0.00     0.090 C 
ATOM     16  C   UNL A   1      37.755  21.020  25.105  1.00  0.00     0.332 C 
ATOM     17  N   UNL A   1      36.475  21.495  24.587  1.00  0.00    -0.337 N 
ATOM     18  C   UNL A   1      36.651  22.714  23.793  1.00  0.00     0.262 C 
ATOM     19  C   UNL A   1      35.509  21.709  25.675  1.00  0.00     0.262 C 
ATOM     20  H   UNL A   1      36.098  20.771  23.974  1.00  0.00     0.347 HD
ATOM     21  C   UNL A   1      35.330  23.126  23.149  1.00  0.00     0.075 C 
ATOM     22  C   UNL A   1      34.138  22.051  25.083  1.00  0.00     0.075 C 
ENDBRANCH  13  15
ENDBRANCH   9  13
BRANCH  12  23
ATOM     23  C   UNL A   1      30.479  27.841  22.460  1.00  0.00    -0.038 A 
ATOM     24  C   UNL A   1      29.393  27.281  23.171  1.00  0.00     0.008 A 
ATOM     25  C   UNL A   1      30.386  29.174  22.009  1.00  0.00     0.054 A 
ATOM     26  C   UNL A   1      28.257  28.043  23.473  1.00  0.00     0.051 A 
ATOM     27  C   UNL A   1      29.277  29.911  22.365  1.00  0.00     0.166 A 
ATOM     28  C   UNL A   1      28.247  29.364  23.088  1.00  0.00     0.165 A 
ATOM     29  O   UNL A   1      29.114  31.246  22.157  1.00  0.00    -0.454 OA
ATOM     30  O   UNL A   1      27.299  30.283  23.413  1.00  0.00    -0.454 OA
ATOM     31  C   UNL A   1      27.940  31.497  22.960  1.00  0.00     0.468 C 
ENDBRANCH  12  23
ENDBRANCH   5   8
ENDBRANCH   3   4
ENDBRANCH   2   3
ENDBRANCH   1   2
BRANCH   1  32
ATOM     32  C   UNL A   1      32.963  32.729  27.384  1.00  0.00     0.116 C 
BRANCH  32  33
ATOM     33  N   UNL A   1      32.524  34.058  27.784  1.00  0.00    -0.352 N 
ATOM     34  C   UNL A   1      33.082  34.912  28.707  1.00  0.00     0.251 C 
ATOM     35  H   UNL A   1      31.716  34.392  27.331  1.00  0.00     0.163 HD
ATOM     36  O   UNL A   1      32.562  36.007  28.919  1.00  0.00    -0.269 OA
BRANCH  34  37
ATOM     37  C   UNL A   1      34.281  34.506  29.473  1.00  0.00     0.039 A 
ATOM     38  C   UNL A   1      34.107  34.004  30.766  1.00  0.00     0.014 A 
ATOM     39  C   UNL A   1      35.562  34.590  28.921  1.00  0.00     0.014 A 
ATOM     40  C   UNL A   1      35.204  33.500  31.470  1.00  0.00     0.010 A 
ATOM     41  C   UNL A   1      36.646  34.035  29.601  1.00  0.00     0.010 A 
ATOM     42  C   UNL A   1      36.476  33.469  30.875  1.00  0.00    -0.014 A 
BRANCH  42  43
ATOM     43  C   UNL A   1      37.614  32.783  31.538  1.00  0.00     0.031 A 
ATOM     44  C   UNL A   1      38.294  31.609  30.891  1.00  0.00     0.074 A 
ATOM     45  C   UNL A   1      37.967  33.154  32.786  1.00  0.00     0.049 A 
ATOM     46  N   UNL A   1      39.271  30.870  31.348  1.00  0.00    -0.248 NA
ATOM     47  C   UNL A   1      37.793  31.195  29.571  1.00  0.00     0.031 C 
ATOM     48  C   UNL A   1      37.319  34.211  33.565  1.00  0.00     0.029 A 
ATOM     49  N   UNL A   1      38.929  32.661  33.632  1.00  0.00    -0.354 N 
ATOM     50  C   UNL A   1      39.480  29.883  30.392  1.00  0.00     0.074 A 
ATOM     51  C   UNL A   1      38.512  30.105  29.340  1.00  0.00     0.031 C 
ATOM     52  C   UNL A   1      37.892  34.279  34.776  1.00  0.00     0.029 A 
ATOM     53  C   UNL A   1      38.932  33.260  34.871  1.00  0.00     0.049 A 
ATOM     54  H   UNL A   1      39.557  31.947  33.377  1.00  0.00     0.167 HD
ATOM     55  C   UNL A   1      40.411  28.898  30.379  1.00  0.00     0.034 A 
ATOM     56  C   UNL A   1      39.681  33.014  35.965  1.00  0.00     0.034 A 
ATOM     57  C   UNL A   1      41.400  28.706  31.407  1.00  0.00     0.049 A 
ATOM     58  C   UNL A   1      40.751  31.961  35.899  1.00  0.00     0.074 A 
ATOM     59  C   UNL A   1      42.456  27.812  31.427  1.00  0.00     0.029 A 
ATOM     60  N   UNL A   1      41.448  29.407  32.602  1.00  0.00    -0.354 N 
ATOM     61  N   UNL A   1      41.067  31.168  34.904  1.00  0.00    -0.248 NA
ATOM     62  C   UNL A   1      41.597  31.794  37.091  1.00  0.00     0.031 C 
ATOM     63  C   UNL A   1      43.131  27.958  32.644  1.00  0.00     0.029 A 
ATOM     64  C   UNL A   1      42.506  28.957  33.374  1.00  0.00     0.049 A 
ATOM     65  H   UNL A   1      40.822  30.120  32.864  1.00  0.00     0.167 HD
ATOM     66  C   UNL A   1      42.162  30.429  35.336  1.00  0.00     0.074 A 
ATOM     67  C   UNL A   1      42.472  30.886  36.675  1.00  0.00     0.031 C 
ATOM     68  C   UNL A   1      42.839  29.450  34.686  1.00  0.00     0.034 A 
BRANCH  55  69
ATOM     69  C   UNL A   1      40.437  27.979  29.186  1.00  0.00     0.023 A 
ATOM     70  C   UNL A   1      39.477  26.952  29.081  1.00  0.00     0.012 A 
ATOM     71  C   UNL A   1      41.370  28.161  28.147  1.00  0.00     0.148 A 
ATOM     72  C   UNL A   1      39.467  26.098  27.980  1.00  0.00     0.002 A 
ATOM     73  C   UNL A   1      41.327  27.332  27.032  1.00  0.00     0.091 A 
ATOM     74  F   UNL A   1      42.290  29.128  28.274  1.00  0.00    -0.205 F 
ATOM     75  C   UNL A   1      40.386  26.294  26.952  1.00  0.00     0.022 A 
BRANCH  73  76
ATOM     76  S   UNL A   1      42.421  27.556  25.624  1.00  0.00     0.127 S 
ATOM     77  O   UNL A   1      42.058  26.417  24.783  1.00  0.00    -0.237 OA
ATOM     78  O   UNL A   1      41.995  28.857  25.103  1.00  0.00    -0.237 OA
ATOM     79  O   UNL A   1      43.773  27.538  26.164  1.00  0.00    -0.744 OA
ENDBRANCH  73  76
ENDBRANCH  55  69
BRANCH  56  80
ATOM     80  C   UNL A   1      39.481  33.836  37.191  1.00  0.00     0.023 A 
ATOM     81  C   UNL A   1      39.925  35.172  37.210  1.00  0.00     0.012 A 
ATOM     82  C   UNL A   1      38.804  33.321  38.314  1.00  0.00     0.148 A 
ATOM     83  C   UNL A   1      39.720  35.974  38.334  1.00  0.00     0.002 A 
ATOM     84  C   UNL A   1      38.554  34.140  39.408  1.00  0.00     0.091 A 
ATOM     85  F   UNL A   1      38.399  32.043  38.280  1.00  0.00    -0.205 F 
ATOM     86  C   UNL A   1      39.025  35.463  39.427  1.00  0.00     0.022 A 
BRANCH  84  87
ATOM     87  S   UNL A   1      37.545  33.610  40.797  1.00  0.00     0.127 S 
ATOM     88  O   UNL A   1      36.361  33.085  40.123  1.00  0.00    -0.237 OA
ATOM     89  O   UNL A   1      38.398  32.599  41.422  1.00  0.00    -0.237 OA
ATOM     90  O   UNL A   1      37.339  34.802  41.608  1.00  0.00    -0.744 OA
ENDBRANCH  84  87
ENDBRANCH  56  80
BRANCH  68  91
ATOM     91  C   UNL A   1      44.001  28.810  35.400  1.00  0.00     0.023 A 
ATOM     92  C   UNL A   1      45.299  29.325  35.220  1.00  0.00     0.012 A 
ATOM     93  C   UNL A   1      43.796  27.752  36.307  1.00  0.00     0.148 A 
ATOM     94  C   UNL A   1      46.381  28.780  35.912  1.00  0.00     0.002 A 
ATOM     95  C   UNL A   1      44.872  27.243  37.028  1.00  0.00     0.091 A 
ATOM     96  F   UNL A   1      42.557  27.260  36.449  1.00  0.00    -0.205 F 
ATOM     97  C   UNL A   1      46.166  27.749  36.823  1.00  0.00     0.022 A 
BRANCH  95  98
ATOM     98  S   UNL A   1      44.670  25.980  38.289  1.00  0.00     0.127 S 
ATOM     99  O   UNL A   1      46.046  25.795  38.748  1.00  0.00    -0.237 OA
ATOM    100  O   UNL A   1      43.790  26.640  39.254  1.00  0.00    -0.237 OA
ATOM    101  O   UNL A   1      44.073  24.835  37.615  1.00  0.00    -0.744 OA
ENDBRANCH  95  98
ENDBRANCH  68  91
ENDBRANCH  42  43
ENDBRANCH  34  37
ENDBRANCH  32  33
ENDBRANCH   1  32
TORSDOF 17
ENDMDL
MODEL 2
REMARK VINA RESULT:     -13.6      1.593      1.968
REMARK SMILES C[NH+]1CCC(C(=O)N2C[C@@H](C(=O)NCCCCNC(=O)c3ccc(-c4c5nc(c(-c6cccc(S(=O)(=O)[O-])c6F)c6ccc([nH]6)c(-c6cccc(S(=O)(=O)[O-])c6F)c6nc(c(-c7cccc(S(=O)(=O)[O-])c7F)c7ccc4[nH]7)C=C6)C=C5)cc3)[C@H](c3ccc4c(c3)OCO4)C2)CC1
REMARK SMILES IDX 16 1 15 2 14 3 13 4 11 5 12 6 10 8 8 9 9 10 94 11 84 12 6 13
REMARK SMILES IDX 7 14 5 15 1 16 2 17 3 18 96 19 4 21 95 22 85 23 86 24 90 25
REMARK SMILES IDX 87 26 89 27 88 28 91 29 93 30 92 31 17 32 18 33 19 34 20 36
REMARK SMILES IDX 21 37 22 38 83 39 23 40 82 41 24 42 25 43 26 44 76 45 27 46
REMARK SMILES IDX 81 47 75 48 77 49 28 50 80 51 74 52 73 53 29 55 61 56 41 57
REMARK SMILES IDX 60 58 42 59 45 60 59 61 78 62 43 63 44 64 58 66 79 67 46 68
REMARK SMILES IDX 30 69 31 70 39 71 32 72 34 73 40 74 33 75 35 76 36 77 37 78
REMARK SMILES IDX 38 79 62 80 63 81 71 82 64 83 66 84 72 85 65 86 67 87 68 88
REMARK SMILES IDX 69 89 70 90 47 91 48 92 56 93 49 94 51 95 57 96 50 97 52 98
REMARK SMILES IDX 53 99 54 100 55 101
REMARK H PARENT 13 7 2 20 18 35 77 54 45 65
REMARK Flexibility Score: inf
ROOT
ATOM      1  C   UNL A   1      31.057  32.183  26.138  1.00  0.00     0.023 C 
ENDROOT
BRANCH   1   2
ATOM      2  C   UNL A   1      30.965  30.793  25.505  1.00  0.00     0.023 C 
BRANCH   2   3
ATOM      3  C   UNL A   1      32.157  29.876  25.760  1.00  0.00     0.116 C 
BRANCH   3   4
ATOM      4  N   UNL A   1      33.096  29.819  24.652  1.00  0.00    -0.356 N 
ATOM      5  C   UNL A   1      33.297  28.830  23.732  1.00  0.00     0.225 C 
ATOM      6  O   UNL A   1      34.038  29.057  22.775  1.00  0.00    -0.275 OA
ATOM      7  H   UNL A   1      33.672  30.611  24.550  1.00  0.00     0.163 HD
BRANCH   5   8
ATOM      8  C   UNL A   1      32.621  27.488  23.907  1.00  0.00     0.107 C 
ATOM      9  N   UNL A   1      32.845  25.193  23.810  1.00  0.00    -0.341 N 
ATOM     10  C   UNL A   1      33.652  26.381  23.992  1.00  0.00     0.133 C 
ATOM     11  C   UNL A   1      31.810  25.476  22.816  1.00  0.00     0.128 C 
ATOM     12  C   UNL A   1      31.777  27.022  22.695  1.00  0.00     0.053 C 
BRANCH   9  13
ATOM     13  C   UNL A   1      32.936  23.955  24.392  1.00  0.00     0.226 C 
ATOM     14  O   UNL A   1      32.137  23.635  25.282  1.00  0.00    -0.275 OA
BRANCH  13  15
ATOM     15  C   UNL A   1      34.180  23.076  24.194  1.00  0.00     0.090 C 
ATOM     16  C   UNL A   1      37.622  20.623  24.991  1.00  0.00     0.332 C 
ATOM     17  N   UNL A   1      36.531  21.593  25.056  1.00  0.00    -0.337 N 
ATOM     18  C   UNL A   1      35.229  20.921  25.011  1.00  0.00     0.262 C 
ATOM     19  C   UNL A   1      36.645  22.592  23.983  1.00  0.00     0.262 C 
ATOM     20  H   UNL A   1      36.602  22.084  25.947  1.00  0.00     0.347 HD
ATOM     21  C   UNL A   1      34.102  21.929  25.212  1.00  0.00     0.075 C 
ATOM     22  C   UNL A   1      35.583  23.678  24.179  1.00  0.00     0.075 C 
ENDBRANCH  13  15
ENDBRANCH   9  13
BRANCH  12  23
ATOM     23  C   UNL A   1      30.430  27.719  22.692  1.00  0.00    -0.038 A 
ATOM     24  C   UNL A   1      29.287  27.179  23.326  1.00  0.00     0.008 A 
ATOM     25  C   UNL A   1      30.380  29.041  22.202  1.00  0.00     0.054 A 
ATOM     26  C   UNL A   1      28.134  27.951  23.515  1.00  0.00     0.051 A 
ATOM     27  C   UNL A   1      29.248  29.789  22.447  1.00  0.00     0.166 A 
ATOM     28  C   UNL A   1      28.161  29.262  23.097  1.00  0.00     0.165 A 
ATOM     29  O   UNL A   1      29.108  31.118  22.193  1.00  0.00    -0.454 OA
ATOM     30  O   UNL A   1      27.193  30.191  23.320  1.00  0.00    -0.454 OA
ATOM     31  C   UNL A   1      27.874  31.392  22.891  1.00  0.00     0.468 C 
ENDBRANCH  12  23
ENDBRANCH   5   8
ENDBRANCH   3   4
ENDBRANCH   2   3
ENDBRANCH   1   2
BRANCH   1  32
ATOM     32  C   UNL A   1      32.359  32.518  26.863  1.00  0.00     0.116 C 
BRANCH  32  33
ATOM     33  N   UNL A   1      32.362  33.822  27.508  1.00  0.00    -0.352 N 
ATOM     34  C   UNL A   1      33.287  34.358  28.375  1.00  0.00     0.251 C 
ATOM     35  H   UNL A   1      31.596  34.403  27.294  1.00  0.00     0.163 HD
ATOM     36  O   UNL A   1      33.116  35.489  28.828  1.00  0.00    -0.269 OA
BRANCH  34  37
ATOM     37  C   UNL A   1      34.465  33.567  28.793  1.00  0.00     0.039 A 
ATOM     38  C   UNL A   1      35.738  34.115  28.603  1.00  0.00     0.014 A 
ATOM     39  C   UNL A   1      34.326  32.312  29.392  1.00  0.00     0.014 A 
ATOM     40  C   UNL A   1      36.863  33.449  29.095  1.00  0.00     0.010 A 
ATOM     41  C   UNL A   1      35.443  31.676  29.933  1.00  0.00     0.010 A 
ATOM     42  C   UNL A   1      36.720  32.246  29.806  1.00  0.00    -0.014 A 
BRANCH  42  43
ATOM     43  C   UNL A   1      37.883  31.615  30.483  1.00  0.00     0.031 A 
ATOM     44  C   UNL A   1      38.663  30.516  29.819  1.00  0.00     0.074 A 
ATOM     45  C   UNL A   1      38.170  31.965  31.754  1.00  0.00     0.049 A 
ATOM     46  N   UNL A   1      39.675  29.830  30.283  1.00  0.00    -0.248 NA
ATOM     47  C   UNL A   1      38.233  30.117  28.469  1.00  0.00     0.031 C 
ATOM     48  C   UNL A   1      37.426  32.946  32.546  1.00  0.00     0.029 A 
ATOM     49  N   UNL A   1      39.138  31.509  32.615  1.00  0.00    -0.354 N 
ATOM     50  C   UNL A   1      39.983  28.895  29.302  1.00  0.00     0.074 A 
ATOM     51  C   UNL A   1      39.034  29.088  28.226  1.00  0.00     0.031 C 
ATOM     52  C   UNL A   1      37.955  33.009  33.778  1.00  0.00     0.029 A 
ATOM     53  C   UNL A   1      39.060  32.062  33.873  1.00  0.00     0.049 A 
ATOM     54  H   UNL A   1      39.822  30.849  32.357  1.00  0.00     0.167 HD
ATOM     55  C   UNL A   1      40.980  27.978  29.287  1.00  0.00     0.034 A 
ATOM     56  C   UNL A   1      39.790  31.828  34.981  1.00  0.00     0.034 A 
ATOM     57  C   UNL A   1      41.948  27.817  30.340  1.00  0.00     0.049 A 
ATOM     58  C   UNL A   1      40.933  30.854  34.916  1.00  0.00     0.074 A 
ATOM     59  C   UNL A   1      43.063  26.998  30.365  1.00  0.00     0.029 A 
ATOM     60  N   UNL A   1      41.910  28.476  31.559  1.00  0.00    -0.354 N 
ATOM     61  N   UNL A   1      41.334  30.122  33.905  1.00  0.00    -0.248 NA
ATOM     62  C   UNL A   1      41.752  30.703  36.129  1.00  0.00     0.031 C 
ATOM     63  C   UNL A   1      43.687  27.146  31.608  1.00  0.00     0.029 A 
ATOM     64  C   UNL A   1      42.972  28.072  32.351  1.00  0.00     0.049 A 
ATOM     65  H   UNL A   1      41.227  29.134  31.824  1.00  0.00     0.167 HD
ATOM     66  C   UNL A   1      42.465  29.445  34.348  1.00  0.00     0.074 A 
ATOM     67  C   UNL A   1      42.700  29.874  35.712  1.00  0.00     0.031 C 
ATOM     68  C   UNL A   1      43.228  28.539  33.689  1.00  0.00     0.034 A 
BRANCH  55  69
ATOM     69  C   UNL A   1      41.108  27.107  28.064  1.00  0.00     0.023 A 
ATOM     70  C   UNL A   1      41.779  27.602  26.928  1.00  0.00     0.012 A 
ATOM     71  C   UNL A   1      40.617  25.787  28.056  1.00  0.00     0.148 A 
ATOM     72  C   UNL A   1      41.927  26.812  25.789  1.00  0.00     0.002 A 
ATOM     73  C   UNL A   1      40.805  24.991  26.931  1.00  0.00     0.091 A 
ATOM     74  F   UNL A   1      39.961  25.340  29.136  1.00  0.00    -0.205 F 
ATOM     75  C   UNL A   1      41.449  25.505  25.795  1.00  0.00     0.022 A 
BRANCH  73  76
ATOM     76  S   UNL A   1      40.291  23.270  26.874  1.00  0.00     0.127 S 
ATOM     77  O   UNL A   1      38.867  23.397  26.572  1.00  0.00    -0.237 OA
ATOM     78  O   UNL A   1      41.102  22.740  25.775  1.00  0.00    -0.237 OA
ATOM     79  O   UNL A   1      40.613  22.715  28.180  1.00  0.00    -0.744 OA
ENDBRANCH  73  76
ENDBRANCH  55  69
BRANCH  56  80
ATOM     80  C   UNL A   1      39.495  32.589  36.228  1.00  0.00     0.023 A 
ATOM     81  C   UNL A   1      40.091  33.850  36.428  1.00  0.00     0.012 A 
ATOM     82  C   UNL A   1      38.586  32.099  37.186  1.00  0.00     0.148 A 
ATOM     83  C   UNL A   1      39.805  34.598  37.571  1.00  0.00     0.002 A 
ATOM     84  C   UNL A   1      38.263  32.873  38.294  1.00  0.00     0.091 A 
ATOM     85  F   UNL A   1      38.039  30.892  36.982  1.00  0.00    -0.205 F 
ATOM     86  C   UNL A   1      38.883  34.116  38.496  1.00  0.00     0.022 A 
BRANCH  84  87
ATOM     87  S   UNL A   1      36.984  32.395  39.462  1.00  0.00     0.127 S 
ATOM     88  O   UNL A   1      35.806  32.322  38.601  1.00  0.00    -0.237 OA
ATOM     89  O   UNL A   1      37.479  31.105  39.941  1.00  0.00    -0.237 OA
ATOM     90  O   UNL A   1      36.967  33.443  40.474  1.00  0.00    -0.744 OA
ENDBRANCH  84  87
ENDBRANCH  56  80
BRANCH  68  91
ATOM     91  C   UNL A   1      44.410  27.956  34.419  1.00  0.00     0.023 A 
ATOM     92  C   UNL A   1      45.643  28.635  34.406  1.00  0.00     0.012 A 
ATOM     93  C   UNL A   1      44.277  26.778  35.181  1.00  0.00     0.148 A 
ATOM     94  C   UNL A   1      46.735  28.138  35.118  1.00  0.00     0.002 A 
ATOM     95  C   UNL A   1      45.356  26.313  35.925  1.00  0.00     0.091 A 
ATOM     96  F   UNL A   1      43.102  26.132  35.164  1.00  0.00    -0.205 F 
ATOM     97  C   UNL A   1      46.588  26.986  35.886  1.00  0.00     0.022 A 
BRANCH  95  98
ATOM     98  S   UNL A   1      45.228  24.890  37.015  1.00  0.00     0.127 S 
ATOM     99  O   UNL A   1      46.554  24.865  37.630  1.00  0.00    -0.237 OA
ATOM    100  O   UNL A   1      44.145  25.284  37.917  1.00  0.00    -0.237 OA
ATOM    101  O   UNL A   1      44.913  23.757  36.156  1.00  0.00    -0.744 OA
ENDBRANCH  95  98
ENDBRANCH  68  91
ENDBRANCH  42  43
ENDBRANCH  34  37
ENDBRANCH  32  33
ENDBRANCH   1  32
TORSDOF 17
ENDMDL
MODEL 3
REMARK VINA RESULT:     -13.3      6.278     11.819
REMARK SMILES C[NH+]1CCC(C(=O)N2C[C@@H](C(=O)NCCCCNC(=O)c3ccc(-c4c5nc(c(-c6cccc(S(=O)(=O)[O-])c6F)c6ccc([nH]6)c(-c6cccc(S(=O)(=O)[O-])c6F)c6nc(c(-c7cccc(S(=O)(=O)[O-])c7F)c7ccc4[nH]7)C=C6)C=C5)cc3)[C@H](c3ccc4c(c3)OCO4)C2)CC1
REMARK SMILES IDX 16 1 15 2 14 3 13 4 11 5 12 6 10 8 8 9 9 10 94 11 84 12 6 13
REMARK SMILES IDX 7 14 5 15 1 16 2 17 3 18 96 19 4 21 95 22 85 23 86 24 90 25
REMARK SMILES IDX 87 26 89 27 88 28 91 29 93 30 92 31 17 32 18 33 19 34 20 36
REMARK SMILES IDX 21 37 22 38 83 39 23 40 82 41 24 42 25 43 26 44 76 45 27 46
REMARK SMILES IDX 81 47 75 48 77 49 28 50 80 51 74 52 73 53 29 55 61 56 41 57
REMARK SMILES IDX 60 58 42 59 45 60 59 61 78 62 43 63 44 64 58 66 79 67 46 68
REMARK SMILES IDX 30 69 31 70 39 71 32 72 34 73 40 74 33 75 35 76 36 77 37 78
REMARK SMILES IDX 38 79 62 80 63 81 71 82 64 83 66 84 72 85 65 86 67 87 68 88
REMARK SMILES IDX 69 89 70 90 47 91 48 92 56 93 49 94 51 95 57 96 50 97 52 98
REMARK SMILES IDX 53 99 54 100 55 101
REMARK H PARENT 13 7 2 20 18 35 77 54 45 65
REMARK Flexibility Score: inf
ROOT
ATOM      1  C   UNL A   1      37.611  20.531  24.828  1.00  0.00     0.023 C 
ENDROOT
BRANCH   1   2
ATOM      2  C   UNL A   1      37.018  21.821  24.258  1.00  0.00     0.023 C 
BRANCH   2   3
ATOM      3  C   UNL A   1      36.570  22.849  25.291  1.00  0.00     0.116 C 
BRANCH   3   4
ATOM      4  N   UNL A   1      35.867  22.270  26.423  1.00  0.00    -0.356 N 
ATOM      5  C   UNL A   1      34.529  22.076  26.610  1.00  0.00     0.225 C 
ATOM      6  O   UNL A   1      34.158  21.417  27.582  1.00  0.00    -0.275 OA
ATOM      7  H   UNL A   1      36.442  21.973  27.165  1.00  0.00     0.163 HD
BRANCH   5   8
ATOM      8  C   UNL A   1      33.537  22.674  25.636  1.00  0.00     0.107 C 
ATOM      9  N   UNL A   1      31.994  24.345  25.243  1.00  0.00    -0.341 N 
ATOM     10  C   UNL A   1      33.162  24.081  26.056  1.00  0.00     0.133 C 
ATOM     11  C   UNL A   1      31.200  23.120  25.150  1.00  0.00     0.128 C 
ATOM     12  C   UNL A   1      32.150  21.985  25.616  1.00  0.00     0.053 C 
BRANCH   9  13
ATOM     13  C   UNL A   1      31.580  25.495  24.624  1.00  0.00     0.226 C 
ATOM     14  O   UNL A   1      31.570  25.557  23.387  1.00  0.00    -0.275 OA
BRANCH  13  15
ATOM     15  C   UNL A   1      31.422  26.805  25.409  1.00  0.00     0.090 C 
ATOM     16  C   UNL A   1      32.063  30.801  26.866  1.00  0.00     0.332 C 
ATOM     17  N   UNL A   1      32.209  29.462  26.301  1.00  0.00    -0.337 N 
ATOM     18  C   UNL A   1      31.406  29.317  25.083  1.00  0.00     0.262 C 
ATOM     19  C   UNL A   1      31.860  28.429  27.288  1.00  0.00     0.262 C 
ATOM     20  H   UNL A   1      33.189  29.334  26.049  1.00  0.00     0.347 HD
ATOM     21  C   UNL A   1      31.667  27.963  24.430  1.00  0.00     0.075 C 
ATOM     22  C   UNL A   1      32.177  27.044  26.714  1.00  0.00     0.075 C 
ENDBRANCH  13  15
ENDBRANCH   9  13
BRANCH  12  23
ATOM     23  C   UNL A   1      32.207  20.709  24.800  1.00  0.00    -0.038 A 
ATOM     24  C   UNL A   1      32.140  20.699  23.388  1.00  0.00     0.008 A 
ATOM     25  C   UNL A   1      32.533  19.515  25.477  1.00  0.00     0.054 A 
ATOM     26  C   UNL A   1      32.440  19.541  22.658  1.00  0.00     0.051 A 
ATOM     27  C   UNL A   1      32.869  18.407  24.729  1.00  0.00     0.166 A 
ATOM     28  C   UNL A   1      32.835  18.424  23.358  1.00  0.00     0.165 A 
ATOM     29  O   UNL A   1      33.365  17.240  25.223  1.00  0.00    -0.454 OA
ATOM     30  O   UNL A   1      33.293  17.263  22.816  1.00  0.00    -0.454 OA
ATOM     31  C   UNL A   1      33.777  16.591  24.000  1.00  0.00     0.468 C 
ENDBRANCH  12  23
ENDBRANCH   5   8
ENDBRANCH   3   4
ENDBRANCH   2   3
ENDBRANCH   1   2
BRANCH   1  32
ATOM     32  C   UNL A   1      38.743  20.689  25.842  1.00  0.00     0.116 C 
BRANCH  32  33
ATOM     33  N   UNL A   1      39.708  19.601  25.830  1.00  0.00    -0.352 N 
ATOM     34  C   UNL A   1      41.055  19.634  26.111  1.00  0.00     0.251 C 
ATOM     35  H   UNL A   1      39.348  18.717  25.590  1.00  0.00     0.163 HD
ATOM     36  O   UNL A   1      41.719  18.601  26.044  1.00  0.00    -0.269 OA
BRANCH  34  37
ATOM     37  C   UNL A   1      41.715  20.913  26.456  1.00  0.00     0.039 A 
ATOM     38  C   UNL A   1      42.148  21.742  25.416  1.00  0.00     0.014 A 
ATOM     39  C   UNL A   1      41.883  21.312  27.785  1.00  0.00     0.014 A 
ATOM     40  C   UNL A   1      42.665  23.007  25.704  1.00  0.00     0.010 A 
ATOM     41  C   UNL A   1      42.346  22.597  28.068  1.00  0.00     0.010 A 
ATOM     42  C   UNL A   1      42.725  23.464  27.031  1.00  0.00    -0.014 A 
BRANCH  42  43
ATOM     43  C   UNL A   1      43.108  24.865  27.341  1.00  0.00     0.031 A 
ATOM     44  C   UNL A   1      42.114  25.828  27.927  1.00  0.00     0.074 A 
ATOM     45  C   UNL A   1      44.335  25.303  26.988  1.00  0.00     0.049 A 
ATOM     46  N   UNL A   1      42.269  27.093  28.219  1.00  0.00    -0.248 NA
ATOM     47  C   UNL A   1      40.764  25.308  28.197  1.00  0.00     0.031 C 
ATOM     48  C   UNL A   1      45.356  24.496  26.319  1.00  0.00     0.029 A 
ATOM     49  N   UNL A   1      44.915  26.542  27.107  1.00  0.00    -0.354 N 
ATOM     50  C   UNL A   1      41.031  27.533  28.671  1.00  0.00     0.074 A 
ATOM     51  C   UNL A   1      40.130  26.403  28.594  1.00  0.00     0.031 C 
ATOM     52  C   UNL A   1      46.432  25.262  26.076  1.00  0.00     0.029 A 
ATOM     53  C   UNL A   1      46.172  26.617  26.551  1.00  0.00     0.049 A 
ATOM     54  H   UNL A   1      44.475  27.304  27.548  1.00  0.00     0.167 HD
ATOM     55  C   UNL A   1      40.682  28.759  29.133  1.00  0.00     0.034 A 
ATOM     56  C   UNL A   1      47.018  27.658  26.428  1.00  0.00     0.034 A 
ATOM     57  C   UNL A   1      41.591  29.869  29.249  1.00  0.00     0.049 A 
ATOM     58  C   UNL A   1      46.633  28.989  27.010  1.00  0.00     0.074 A 
ATOM     59  C   UNL A   1      41.363  31.111  29.813  1.00  0.00     0.029 A 
ATOM     60  N   UNL A   1      42.895  29.877  28.779  1.00  0.00    -0.354 N 
ATOM     61  N   UNL A   1      45.523  29.332  27.619  1.00  0.00    -0.248 NA
ATOM     62  C   UNL A   1      47.629  30.069  26.927  1.00  0.00     0.031 C 
ATOM     63  C   UNL A   1      42.524  31.879  29.665  1.00  0.00     0.029 A 
ATOM     64  C   UNL A   1      43.482  31.107  29.027  1.00  0.00     0.049 A 
ATOM     65  H   UNL A   1      43.340  29.120  28.335  1.00  0.00     0.167 HD
ATOM     66  C   UNL A   1      45.696  30.652  28.016  1.00  0.00     0.074 A 
ATOM     67  C   UNL A   1      47.028  31.042  27.600  1.00  0.00     0.031 C 
ATOM     68  C   UNL A   1      44.824  31.472  28.653  1.00  0.00     0.034 A 
BRANCH  55  69
ATOM     69  C   UNL A   1      39.263  28.950  29.601  1.00  0.00     0.023 A 
ATOM     70  C   UNL A   1      38.902  28.545  30.902  1.00  0.00     0.012 A 
ATOM     71  C   UNL A   1      38.304  29.577  28.782  1.00  0.00     0.148 A 
ATOM     72  C   UNL A   1      37.601  28.725  31.367  1.00  0.00     0.002 A 
ATOM     73  C   UNL A   1      37.019  29.791  29.268  1.00  0.00     0.091 A 
ATOM     74  F   UNL A   1      38.659  29.934  27.539  1.00  0.00    -0.205 F 
ATOM     75  C   UNL A   1      36.663  29.356  30.555  1.00  0.00     0.022 A 
BRANCH  73  76
ATOM     76  S   UNL A   1      35.766  30.664  28.322  1.00  0.00     0.127 S 
ATOM     77  O   UNL A   1      35.322  29.627  27.393  1.00  0.00    -0.237 OA
ATOM     78  O   UNL A   1      34.788  31.016  29.353  1.00  0.00    -0.237 OA
ATOM     79  O   UNL A   1      36.443  31.803  27.720  1.00  0.00    -0.744 OA
ENDBRANCH  73  76
ENDBRANCH  55  69
BRANCH  56  80
ATOM     80  C   UNL A   1      48.345  27.454  25.782  1.00  0.00     0.023 A 
ATOM     81  C   UNL A   1      49.446  27.064  26.568  1.00  0.00     0.012 A 
ATOM     82  C   UNL A   1      48.507  27.587  24.389  1.00  0.00     0.148 A 
ATOM     83  C   UNL A   1      50.692  26.834  25.982  1.00  0.00     0.002 A 
ATOM     84  C   UNL A   1      49.736  27.302  23.804  1.00  0.00     0.091 A 
ATOM     85  F   UNL A   1      47.449  27.970  23.660  1.00  0.00    -0.205 F 
ATOM     86  C   UNL A   1      50.834  26.940  24.601  1.00  0.00     0.022 A 
BRANCH  84  87
ATOM     87  S   UNL A   1      49.971  27.275  22.023  1.00  0.00     0.127 S 
ATOM     88  O   UNL A   1      51.355  26.823  21.912  1.00  0.00    -0.237 OA
ATOM     89  O   UNL A   1      48.967  26.299  21.600  1.00  0.00    -0.237 OA
ATOM     90  O   UNL A   1      49.709  28.635  21.574  1.00  0.00    -0.744 OA
ENDBRANCH  84  87
ENDBRANCH  56  80
BRANCH  68  91
ATOM     91  C   UNL A   1      45.280  32.874  28.965  1.00  0.00     0.023 A 
ATOM     92  C   UNL A   1      45.977  33.132  30.161  1.00  0.00     0.012 A 
ATOM     93  C   UNL A   1      45.087  33.917  28.038  1.00  0.00     0.148 A 
ATOM     94  C   UNL A   1      46.452  34.412  30.443  1.00  0.00     0.002 A 
ATOM     95  C   UNL A   1      45.604  35.181  28.305  1.00  0.00     0.091 A 
ATOM     96  F   UNL A   1      44.402  33.659  26.915  1.00  0.00    -0.205 F 
ATOM     97  C   UNL A   1      46.278  35.432  29.512  1.00  0.00     0.022 A 
BRANCH  95  98
ATOM     98  S   UNL A   1      45.506  36.528  27.120  1.00  0.00     0.127 S 
ATOM     99  O   UNL A   1      46.260  37.579  27.800  1.00  0.00    -0.237 OA
ATOM    100  O   UNL A   1      46.172  35.961  25.947  1.00  0.00    -0.237 OA
ATOM    101  O   UNL A   1      44.086  36.794  26.935  1.00  0.00    -0.744 OA
ENDBRANCH  95  98
ENDBRANCH  68  91
ENDBRANCH  42  43
ENDBRANCH  34  37
ENDBRANCH  32  33
ENDBRANCH   1  32
TORSDOF 17
ENDMDL
