MODEL 1
REMARK VINA RESULT:     -11.9      0.000      0.000
REMARK SMILES C[C@H](CNC(=O)N1C[C@H]2CCCC[N@@H+]2C[C@@H]1C)C(=O)NCCCCNC(=O)c1ccc(-c2c3nc(c(-c4cccc(S(=O)(=O)[O-])c4F)c4ccc([nH]4)c(-c4cccc(S(=O)(=O)[O-])c4F)c4nc(c(-c5cccc(S(=O)(=O)[O-])c5F)c5ccc2[nH]5)C=C4)C=C3)cc1
REMARK SMILES IDX 22 1 21 2 20 3 18 4 19 5 2 7 1 8 3 9 4 10 5 11 6 13 7 14
REMARK SMILES IDX 8 15 16 16 9 17 15 18 17 19 10 20 14 21 11 22 13 23 12 25
REMARK SMILES IDX 23 26 24 27 25 28 26 29 27 31 28 32 29 33 90 34 30 35 89 36
REMARK SMILES IDX 31 37 32 38 33 39 83 40 34 41 88 42 82 43 84 44 35 45 87 46
REMARK SMILES IDX 81 47 80 48 36 50 68 51 48 52 67 53 49 54 52 55 66 56 85 57
REMARK SMILES IDX 50 58 51 59 65 61 86 62 53 63 37 64 38 65 46 66 39 67 41 68
REMARK SMILES IDX 47 69 40 70 42 71 43 72 44 73 45 74 69 75 70 76 78 77 71 78
REMARK SMILES IDX 73 79 79 80 72 81 74 82 75 83 76 84 77 85 54 86 55 87 63 88
REMARK SMILES IDX 56 89 58 90 64 91 57 92 59 93 60 94 61 95 62 96
REMARK H PARENT 20 6 4 12 14 24 25 30 84 49 52 60
REMARK Flexibility Score: inf
ROOT
ATOM      1  C   UNL A   1      34.474  21.240  24.758  1.00  0.00     0.023 C 
ENDROOT
BRANCH   1   2
ATOM      2  C   UNL A   1      33.331  22.144  24.306  1.00  0.00     0.116 C 
BRANCH   2   3
ATOM      3  N   UNL A   1      32.171  22.015  25.167  1.00  0.00    -0.356 N 
ATOM      4  C   UNL A   1      31.290  22.946  25.616  1.00  0.00     0.224 C 
ATOM      5  O   UNL A   1      30.400  22.567  26.384  1.00  0.00    -0.275 OA
ATOM      6  H   UNL A   1      31.991  21.099  25.479  1.00  0.00     0.163 HD
BRANCH   4   7
ATOM      7  C   UNL A   1      31.367  24.418  25.229  1.00  0.00     0.094 C 
ATOM      8  C   UNL A   1      31.454  25.391  26.402  1.00  0.00     0.020 C 
BRANCH   7   9
ATOM      9  C   UNL A   1      30.416  24.810  24.088  1.00  0.00     0.130 C 
BRANCH   9  10
ATOM     10  N   UNL A   1      31.001  25.174  22.807  1.00  0.00    -0.337 N 
ATOM     11  C   UNL A   1      31.366  26.380  22.292  1.00  0.00     0.318 C 
ATOM     12  H   UNL A   1      31.160  24.412  22.204  1.00  0.00     0.165 HD
ATOM     13  O   UNL A   1      31.589  26.489  21.091  1.00  0.00    -0.249 OA
BRANCH  11  14
ATOM     14  N   UNL A   1      31.446  27.430  23.163  1.00  0.00    -0.311 N 
ATOM     15  C   UNL A   1      32.774  27.707  23.689  1.00  0.00     0.186 C 
ATOM     16  C   UNL A   1      30.634  28.647  22.971  1.00  0.00     0.139 C 
ATOM     17  C   UNL A   1      32.651  28.378  25.053  1.00  0.00     0.203 C 
ATOM     18  C   UNL A   1      30.705  29.580  24.229  1.00  0.00     0.287 C 
ATOM     19  C   UNL A   1      29.151  28.340  22.704  1.00  0.00     0.037 C 
ATOM     20  C   UNL A   1      34.031  28.478  25.705  1.00  0.00     0.067 C 
ATOM     21  N   UNL A   1      32.028  29.711  24.894  1.00  0.00    -0.329 N 
ATOM     22  C   UNL A   1      33.917  29.143  27.069  1.00  0.00     0.012 C 
ATOM     23  C   UNL A   1      31.876  30.368  26.202  1.00  0.00     0.262 C 
ATOM     24  H   UNL A   1      32.635  30.287  24.312  1.00  0.00     0.348 HD
ATOM     25  C   UNL A   1      33.213  30.489  26.938  1.00  0.00     0.062 C 
ENDBRANCH  11  14
ENDBRANCH   9  10
ENDBRANCH   7   9
ENDBRANCH   4   7
ENDBRANCH   2   3
ENDBRANCH   1   2
BRANCH   1  26
ATOM     26  C   UNL A   1      35.868  21.751  24.448  1.00  0.00     0.023 C 
BRANCH  26  27
ATOM     27  C   UNL A   1      36.778  21.862  25.659  1.00  0.00     0.116 C 
BRANCH  27  28
ATOM     28  N   UNL A   1      37.865  20.886  25.669  1.00  0.00    -0.352 N 
ATOM     29  C   UNL A   1      39.169  21.059  26.073  1.00  0.00     0.251 C 
ATOM     30  H   UNL A   1      37.635  19.986  25.344  1.00  0.00     0.163 HD
ATOM     31  O   UNL A   1      39.995  20.162  25.940  1.00  0.00    -0.269 OA
BRANCH  29  32
ATOM     32  C   UNL A   1      39.563  22.365  26.633  1.00  0.00     0.039 A 
ATOM     33  C   UNL A   1      40.558  22.417  27.610  1.00  0.00     0.014 A 
ATOM     34  C   UNL A   1      39.022  23.537  26.100  1.00  0.00     0.014 A 
ATOM     35  C   UNL A   1      41.074  23.655  27.991  1.00  0.00     0.010 A 
ATOM     36  C   UNL A   1      39.616  24.753  26.397  1.00  0.00     0.010 A 
ATOM     37  C   UNL A   1      40.641  24.829  27.353  1.00  0.00    -0.014 A 
BRANCH  37  38
ATOM     38  C   UNL A   1      41.229  26.154  27.665  1.00  0.00     0.031 A 
ATOM     39  C   UNL A   1      42.632  26.468  27.213  1.00  0.00     0.074 A 
ATOM     40  C   UNL A   1      40.555  27.024  28.442  1.00  0.00     0.049 A 
ATOM     41  N   UNL A   1      43.364  27.519  27.468  1.00  0.00    -0.248 NA
ATOM     42  C   UNL A   1      43.319  25.442  26.409  1.00  0.00     0.031 C 
ATOM     43  C   UNL A   1      39.229  26.794  29.024  1.00  0.00     0.029 A 
ATOM     44  N   UNL A   1      40.905  28.267  28.905  1.00  0.00    -0.354 N 
ATOM     45  C   UNL A   1      44.607  27.258  26.904  1.00  0.00     0.074 A 
ATOM     46  C   UNL A   1      44.546  25.933  26.332  1.00  0.00     0.031 C 
ATOM     47  C   UNL A   1      38.874  27.865  29.751  1.00  0.00     0.029 A 
ATOM     48  C   UNL A   1      39.954  28.846  29.714  1.00  0.00     0.049 A 
ATOM     49  H   UNL A   1      41.756  28.705  28.679  1.00  0.00     0.167 HD
ATOM     50  C   UNL A   1      45.691  28.065  26.831  1.00  0.00     0.034 A 
ATOM     51  C   UNL A   1      39.955  30.034  30.351  1.00  0.00     0.034 A 
ATOM     52  C   UNL A   1      45.718  29.411  27.331  1.00  0.00     0.049 A 
ATOM     53  C   UNL A   1      41.141  30.945  30.185  1.00  0.00     0.074 A 
ATOM     54  C   UNL A   1      46.721  30.354  27.207  1.00  0.00     0.029 A 
ATOM     55  N   UNL A   1      44.689  30.007  28.044  1.00  0.00    -0.354 N 
ATOM     56  N   UNL A   1      42.243  30.749  29.501  1.00  0.00    -0.248 NA
ATOM     57  C   UNL A   1      41.069  32.257  30.844  1.00  0.00     0.031 C 
ATOM     58  C   UNL A   1      46.303  31.520  27.858  1.00  0.00     0.029 A 
ATOM     59  C   UNL A   1      45.033  31.305  28.372  1.00  0.00     0.049 A 
ATOM     60  H   UNL A   1      43.840  29.570  28.283  1.00  0.00     0.167 HD
ATOM     61  C   UNL A   1      42.978  31.922  29.616  1.00  0.00     0.074 A 
ATOM     62  C   UNL A   1      42.187  32.833  30.419  1.00  0.00     0.031 C 
ATOM     63  C   UNL A   1      44.204  32.216  29.119  1.00  0.00     0.034 A 
BRANCH  50  64
ATOM     64  C   UNL A   1      46.910  27.535  26.124  1.00  0.00     0.023 A 
ATOM     65  C   UNL A   1      47.082  27.791  24.748  1.00  0.00     0.012 A 
ATOM     66  C   UNL A   1      47.903  26.823  26.824  1.00  0.00     0.148 A 
ATOM     67  C   UNL A   1      48.204  27.316  24.071  1.00  0.00     0.002 A 
ATOM     68  C   UNL A   1      49.041  26.393  26.151  1.00  0.00     0.091 A 
ATOM     69  F   UNL A   1      47.712  26.567  28.125  1.00  0.00    -0.205 F 
ATOM     70  C   UNL A   1      49.187  26.627  24.774  1.00  0.00     0.022 A 
BRANCH  68  71
ATOM     71  S   UNL A   1      50.404  25.567  26.983  1.00  0.00     0.127 S 
ATOM     72  O   UNL A   1      51.334  25.348  25.876  1.00  0.00    -0.237 OA
ATOM     73  O   UNL A   1      50.833  26.579  27.949  1.00  0.00    -0.237 OA
ATOM     74  O   UNL A   1      49.840  24.362  27.576  1.00  0.00    -0.744 OA
ENDBRANCH  68  71
ENDBRANCH  50  64
BRANCH  51  75
ATOM     75  C   UNL A   1      38.759  30.466  31.129  1.00  0.00     0.023 A 
ATOM     76  C   UNL A   1      38.700  30.184  32.509  1.00  0.00     0.012 A 
ATOM     77  C   UNL A   1      37.700  31.173  30.529  1.00  0.00     0.148 A 
ATOM     78  C   UNL A   1      37.595  30.566  33.269  1.00  0.00     0.002 A 
ATOM     79  C   UNL A   1      36.624  31.598  31.303  1.00  0.00     0.091 A 
ATOM     80  F   UNL A   1      37.767  31.424  29.214  1.00  0.00    -0.205 F 
ATOM     81  C   UNL A   1      36.563  31.281  32.669  1.00  0.00     0.022 A 
BRANCH  79  82
ATOM     82  S   UNL A   1      35.312  32.632  30.643  1.00  0.00     0.127 S 
ATOM     83  O   UNL A   1      34.360  32.650  31.749  1.00  0.00    -0.237 OA
ATOM     84  O   UNL A   1      36.010  33.897  30.408  1.00  0.00    -0.237 OA
ATOM     85  O   UNL A   1      34.863  31.963  29.428  1.00  0.00    -0.744 OA
ENDBRANCH  79  82
ENDBRANCH  51  75
BRANCH  63  86
ATOM     86  C   UNL A   1      44.759  33.589  29.391  1.00  0.00     0.023 A 
ATOM     87  C   UNL A   1      45.480  33.827  30.576  1.00  0.00     0.012 A 
ATOM     88  C   UNL A   1      44.642  34.613  28.431  1.00  0.00     0.148 A 
ATOM     89  C   UNL A   1      46.052  35.075  30.817  1.00  0.00     0.002 A 
ATOM     90  C   UNL A   1      45.255  35.839  28.656  1.00  0.00     0.091 A 
ATOM     91  F   UNL A   1      43.935  34.370  27.318  1.00  0.00    -0.205 F 
ATOM     92  C   UNL A   1      45.951  36.076  29.852  1.00  0.00     0.022 A 
BRANCH  90  93
ATOM     93  S   UNL A   1      45.261  37.149  27.426  1.00  0.00     0.127 S 
ATOM     94  O   UNL A   1      43.833  37.313  27.159  1.00  0.00    -0.237 OA
ATOM     95  O   UNL A   1      45.876  38.258  28.155  1.00  0.00    -0.237 OA
ATOM     96  O   UNL A   1      46.054  36.647  26.312  1.00  0.00    -0.744 OA
ENDBRANCH  90  93
ENDBRANCH  63  86
ENDBRANCH  37  38
ENDBRANCH  29  32
ENDBRANCH  27  28
ENDBRANCH  26  27
ENDBRANCH   1  26
TORSDOF 17
ENDMDL
MODEL 2
REMARK VINA RESULT:     -11.8      4.668     10.368
REMARK SMILES C[C@H](CNC(=O)N1C[C@H]2CCCC[N@@H+]2C[C@@H]1C)C(=O)NCCCCNC(=O)c1ccc(-c2c3nc(c(-c4cccc(S(=O)(=O)[O-])c4F)c4ccc([nH]4)c(-c4cccc(S(=O)(=O)[O-])c4F)c4nc(c(-c5cccc(S(=O)(=O)[O-])c5F)c5ccc2[nH]5)C=C4)C=C3)cc1
REMARK SMILES IDX 22 1 21 2 20 3 18 4 19 5 2 7 1 8 3 9 4 10 5 11 6 13 7 14
REMARK SMILES IDX 8 15 16 16 9 17 15 18 17 19 10 20 14 21 11 22 13 23 12 25
REMARK SMILES IDX 23 26 24 27 25 28 26 29 27 31 28 32 29 33 90 34 30 35 89 36
REMARK SMILES IDX 31 37 32 38 33 39 83 40 34 41 88 42 82 43 84 44 35 45 87 46
REMARK SMILES IDX 81 47 80 48 36 50 68 51 48 52 67 53 49 54 52 55 66 56 85 57
REMARK SMILES IDX 50 58 51 59 65 61 86 62 53 63 37 64 38 65 46 66 39 67 41 68
REMARK SMILES IDX 47 69 40 70 42 71 43 72 44 73 45 74 69 75 70 76 78 77 71 78
REMARK SMILES IDX 73 79 79 80 72 81 74 82 75 83 76 84 77 85 54 86 55 87 63 88
REMARK SMILES IDX 56 89 58 90 64 91 57 92 59 93 60 94 61 95 62 96
REMARK H PARENT 20 6 4 12 14 24 25 30 84 49 52 60
REMARK Flexibility Score: inf
ROOT
ATOM      1  C   UNL A   1      31.385  27.749  25.134  1.00  0.00     0.023 C 
ENDROOT
BRANCH   1   2
ATOM      2  C   UNL A   1      32.167  26.474  24.832  1.00  0.00     0.116 C 
BRANCH   2   3
ATOM      3  N   UNL A   1      32.941  26.594  23.611  1.00  0.00    -0.356 N 
ATOM      4  C   UNL A   1      33.089  25.739  22.566  1.00  0.00     0.224 C 
ATOM      5  O   UNL A   1      33.852  26.077  21.656  1.00  0.00    -0.275 OA
ATOM      6  H   UNL A   1      33.443  27.435  23.524  1.00  0.00     0.163 HD
BRANCH   4   7
ATOM      7  C   UNL A   1      32.375  24.396  22.484  1.00  0.00     0.094 C 
ATOM      8  C   UNL A   1      30.987  24.362  23.119  1.00  0.00     0.020 C 
BRANCH   7   9
ATOM      9  C   UNL A   1      33.285  23.191  22.769  1.00  0.00     0.130 C 
BRANCH   9  10
ATOM     10  N   UNL A   1      34.450  23.402  23.613  1.00  0.00    -0.337 N 
ATOM     11  C   UNL A   1      34.872  22.773  24.744  1.00  0.00     0.318 C 
ATOM     12  H   UNL A   1      35.040  24.132  23.313  1.00  0.00     0.165 HD
ATOM     13  O   UNL A   1      35.738  23.288  25.444  1.00  0.00    -0.249 OA
BRANCH  11  14
ATOM     14  N   UNL A   1      34.275  21.584  25.054  1.00  0.00    -0.311 N 
ATOM     15  C   UNL A   1      35.115  20.405  24.904  1.00  0.00     0.186 C 
ATOM     16  C   UNL A   1      33.319  21.475  26.173  1.00  0.00     0.139 C 
ATOM     17  C   UNL A   1      34.239  19.189  24.623  1.00  0.00     0.203 C 
ATOM     18  C   UNL A   1      32.582  20.091  26.157  1.00  0.00     0.287 C 
ATOM     19  C   UNL A   1      32.244  22.574  26.149  1.00  0.00     0.037 C 
ATOM     20  C   UNL A   1      35.118  17.994  24.253  1.00  0.00     0.067 C 
ATOM     21  N   UNL A   1      33.399  18.900  25.807  1.00  0.00    -0.329 N 
ATOM     22  C   UNL A   1      34.252  16.776  23.967  1.00  0.00     0.012 C 
ATOM     23  C   UNL A   1      32.526  17.744  25.549  1.00  0.00     0.262 C 
ATOM     24  H   UNL A   1      34.009  18.675  26.592  1.00  0.00     0.348 HD
ATOM     25  C   UNL A   1      33.327  16.502  25.148  1.00  0.00     0.062 C 
ENDBRANCH  11  14
ENDBRANCH   9  10
ENDBRANCH   7   9
ENDBRANCH   4   7
ENDBRANCH   2   3
ENDBRANCH   1   2
BRANCH   1  26
ATOM     26  C   UNL A   1      31.949  28.609  26.249  1.00  0.00     0.023 C 
BRANCH  26  27
ATOM     27  C   UNL A   1      32.880  29.713  25.778  1.00  0.00     0.116 C 
BRANCH  27  28
ATOM     28  N   UNL A   1      32.562  31.027  26.332  1.00  0.00    -0.352 N 
ATOM     29  C   UNL A   1      33.282  31.773  27.236  1.00  0.00     0.251 C 
ATOM     30  H   UNL A   1      31.723  31.432  26.017  1.00  0.00     0.163 HD
ATOM     31  O   UNL A   1      32.840  32.829  27.677  1.00  0.00    -0.269 OA
BRANCH  29  32
ATOM     32  C   UNL A   1      34.582  31.253  27.698  1.00  0.00     0.039 A 
ATOM     33  C   UNL A   1      35.628  32.146  27.937  1.00  0.00     0.014 A 
ATOM     34  C   UNL A   1      34.717  29.896  28.000  1.00  0.00     0.014 A 
ATOM     35  C   UNL A   1      36.786  31.686  28.564  1.00  0.00     0.010 A 
ATOM     36  C   UNL A   1      35.818  29.470  28.724  1.00  0.00     0.010 A 
ATOM     37  C   UNL A   1      36.870  30.355  29.006  1.00  0.00    -0.014 A 
BRANCH  37  38
ATOM     38  C   UNL A   1      38.045  29.851  29.757  1.00  0.00     0.031 A 
ATOM     39  C   UNL A   1      38.290  30.334  31.162  1.00  0.00     0.074 A 
ATOM     40  C   UNL A   1      38.945  29.056  29.144  1.00  0.00     0.049 A 
ATOM     41  N   UNL A   1      39.305  30.098  31.950  1.00  0.00    -0.248 NA
ATOM     42  C   UNL A   1      37.283  31.241  31.741  1.00  0.00     0.031 C 
ATOM     43  C   UNL A   1      38.870  28.600  27.753  1.00  0.00     0.029 A 
ATOM     44  N   UNL A   1      40.119  28.514  29.604  1.00  0.00    -0.354 N 
ATOM     45  C   UNL A   1      39.086  30.865  33.087  1.00  0.00     0.074 A 
ATOM     46  C   UNL A   1      37.865  31.608  32.872  1.00  0.00     0.031 C 
ATOM     47  C   UNL A   1      39.941  27.838  27.480  1.00  0.00     0.029 A 
ATOM     48  C   UNL A   1      40.794  27.772  28.662  1.00  0.00     0.049 A 
ATOM     49  H   UNL A   1      40.447  28.643  30.523  1.00  0.00     0.167 HD
ATOM     50  C   UNL A   1      39.812  30.917  34.228  1.00  0.00     0.034 A 
ATOM     51  C   UNL A   1      41.966  27.113  28.745  1.00  0.00     0.034 A 
ATOM     52  C   UNL A   1      40.979  30.115  34.467  1.00  0.00     0.049 A 
ATOM     53  C   UNL A   1      42.712  27.121  30.053  1.00  0.00     0.074 A 
ATOM     54  C   UNL A   1      41.722  30.002  35.627  1.00  0.00     0.029 A 
ATOM     55  N   UNL A   1      41.569  29.282  33.528  1.00  0.00    -0.354 N 
ATOM     56  N   UNL A   1      42.397  27.717  31.178  1.00  0.00    -0.248 NA
ATOM     57  C   UNL A   1      43.952  26.336  30.116  1.00  0.00     0.031 C 
ATOM     58  C   UNL A   1      42.771  29.108  35.385  1.00  0.00     0.029 A 
ATOM     59  C   UNL A   1      42.669  28.654  34.080  1.00  0.00     0.049 A 
ATOM     60  H   UNL A   1      41.251  29.158  32.604  1.00  0.00     0.167 HD
ATOM     61  C   UNL A   1      43.377  27.350  32.092  1.00  0.00     0.074 A 
ATOM     62  C   UNL A   1      44.286  26.462  31.394  1.00  0.00     0.031 C 
ATOM     63  C   UNL A   1      43.525  27.725  33.386  1.00  0.00     0.034 A 
BRANCH  50  64
ATOM     64  C   UNL A   1      39.321  31.819  35.329  1.00  0.00     0.023 A 
ATOM     65  C   UNL A   1      38.378  31.333  36.257  1.00  0.00     0.012 A 
ATOM     66  C   UNL A   1      39.820  33.128  35.472  1.00  0.00     0.148 A 
ATOM     67  C   UNL A   1      37.910  32.146  37.288  1.00  0.00     0.002 A 
ATOM     68  C   UNL A   1      39.384  33.917  36.530  1.00  0.00     0.091 A 
ATOM     69  F   UNL A   1      40.697  33.583  34.566  1.00  0.00    -0.205 F 
ATOM     70  C   UNL A   1      38.421  33.433  37.431  1.00  0.00     0.022 A 
BRANCH  68  71
ATOM     71  S   UNL A   1      40.040  35.559  36.848  1.00  0.00     0.127 S 
ATOM     72  O   UNL A   1      39.595  36.289  35.661  1.00  0.00    -0.237 OA
ATOM     73  O   UNL A   1      39.351  35.931  38.085  1.00  0.00    -0.237 OA
ATOM     74  O   UNL A   1      41.481  35.397  36.981  1.00  0.00    -0.744 OA
ENDBRANCH  68  71
ENDBRANCH  50  64
BRANCH  51  75
ATOM     75  C   UNL A   1      42.462  26.318  27.585  1.00  0.00     0.023 A 
ATOM     76  C   UNL A   1      43.332  26.927  26.659  1.00  0.00     0.012 A 
ATOM     77  C   UNL A   1      42.107  24.968  27.405  1.00  0.00     0.148 A 
ATOM     78  C   UNL A   1      43.812  26.218  25.558  1.00  0.00     0.002 A 
ATOM     79  C   UNL A   1      42.629  24.251  26.334  1.00  0.00     0.091 A 
ATOM     80  F   UNL A   1      41.268  24.408  28.290  1.00  0.00    -0.205 F 
ATOM     81  C   UNL A   1      43.469  24.879  25.400  1.00  0.00     0.022 A 
BRANCH  79  82
ATOM     82  S   UNL A   1      42.343  22.490  26.122  1.00  0.00     0.127 S 
ATOM     83  O   UNL A   1      43.016  22.228  24.854  1.00  0.00    -0.237 OA
ATOM     84  O   UNL A   1      43.006  21.930  27.300  1.00  0.00    -0.237 OA
ATOM     85  O   UNL A   1      40.894  22.329  26.119  1.00  0.00    -0.744 OA
ENDBRANCH  79  82
ENDBRANCH  51  75
BRANCH  63  86
ATOM     86  C   UNL A   1      44.687  27.154  34.152  1.00  0.00     0.023 A 
ATOM     87  C   UNL A   1      45.916  27.840  34.170  1.00  0.00     0.012 A 
ATOM     88  C   UNL A   1      44.533  25.986  34.924  1.00  0.00     0.148 A 
ATOM     89  C   UNL A   1      46.985  27.357  34.923  1.00  0.00     0.002 A 
ATOM     90  C   UNL A   1      45.587  25.537  35.709  1.00  0.00     0.091 A 
ATOM     91  F   UNL A   1      43.360  25.338  34.878  1.00  0.00    -0.205 F 
ATOM     92  C   UNL A   1      46.817  26.214  35.702  1.00  0.00     0.022 A 
BRANCH  90  93
ATOM     93  S   UNL A   1      45.427  24.132  36.819  1.00  0.00     0.127 S 
ATOM     94  O   UNL A   1      46.810  23.928  37.242  1.00  0.00    -0.237 OA
ATOM     95  O   UNL A   1      44.542  24.657  37.860  1.00  0.00    -0.237 OA
ATOM     96  O   UNL A   1      44.849  23.058  36.023  1.00  0.00    -0.744 OA
ENDBRANCH  90  93
ENDBRANCH  63  86
ENDBRANCH  37  38
ENDBRANCH  29  32
ENDBRANCH  27  28
ENDBRANCH  26  27
ENDBRANCH   1  26
TORSDOF 17
ENDMDL
MODEL 3
REMARK VINA RESULT:     -11.8      5.360      9.025
REMARK SMILES C[C@H](CNC(=O)N1C[C@H]2CCCC[N@@H+]2C[C@@H]1C)C(=O)NCCCCNC(=O)c1ccc(-c2c3nc(c(-c4cccc(S(=O)(=O)[O-])c4F)c4ccc([nH]4)c(-c4cccc(S(=O)(=O)[O-])c4F)c4nc(c(-c5cccc(S(=O)(=O)[O-])c5F)c5ccc2[nH]5)C=C4)C=C3)cc1
REMARK SMILES IDX 22 1 21 2 20 3 18 4 19 5 2 7 1 8 3 9 4 10 5 11 6 13 7 14
REMARK SMILES IDX 8 15 16 16 9 17 15 18 17 19 10 20 14 21 11 22 13 23 12 25
REMARK SMILES IDX 23 26 24 27 25 28 26 29 27 31 28 32 29 33 90 34 30 35 89 36
REMARK SMILES IDX 31 37 32 38 33 39 83 40 34 41 88 42 82 43 84 44 35 45 87 46
REMARK SMILES IDX 81 47 80 48 36 50 68 51 48 52 67 53 49 54 52 55 66 56 85 57
REMARK SMILES IDX 50 58 51 59 65 61 86 62 53 63 37 64 38 65 46 66 39 67 41 68
REMARK SMILES IDX 47 69 40 70 42 71 43 72 44 73 45 74 69 75 70 76 78 77 71 78
REMARK SMILES IDX 73 79 79 80 72 81 74 82 75 83 76 84 77 85 54 86 55 87 63 88
REMARK SMILES IDX 56 89 58 90 64 91 57 92 59 93 60 94 61 95 62 96
REMARK H PARENT 20 6 4 12 14 24 25 30 84 49 52 60
REMARK Flexibility Score: inf
ROOT
ATOM      1  C   UNL A   1      32.531  29.995  26.788  1.00  0.00     0.023 C 
ENDROOT
BRANCH   1   2
ATOM      2  C   UNL A   1      32.610  29.438  25.369  1.00  0.00     0.116 C 
BRANCH   2   3
ATOM      3  N   UNL A   1      31.408  28.709  25.010  1.00  0.00    -0.356 N 
ATOM      4  C   UNL A   1      31.246  27.469  24.482  1.00  0.00     0.224 C 
ATOM      5  O   UNL A   1      30.094  27.101  24.232  1.00  0.00    -0.275 OA
ATOM      6  H   UNL A   1      30.569  29.195  25.176  1.00  0.00     0.163 HD
BRANCH   4   7
ATOM      7  C   UNL A   1      32.412  26.536  24.178  1.00  0.00     0.094 C 
ATOM      8  C   UNL A   1      33.174  26.852  22.893  1.00  0.00     0.020 C 
BRANCH   7   9
ATOM      9  C   UNL A   1      32.106  25.054  24.443  1.00  0.00     0.130 C 
BRANCH   9  10
ATOM     10  N   UNL A   1      31.691  24.672  25.783  1.00  0.00    -0.337 N 
ATOM     11  C   UNL A   1      32.055  23.629  26.578  1.00  0.00     0.318 C 
ATOM     12  H   UNL A   1      31.027  25.276  26.188  1.00  0.00     0.165 HD
ATOM     13  O   UNL A   1      31.381  23.347  27.564  1.00  0.00    -0.249 OA
BRANCH  11  14
ATOM     14  N   UNL A   1      33.167  22.925  26.210  1.00  0.00    -0.311 N 
ATOM     15  C   UNL A   1      34.411  23.351  26.833  1.00  0.00     0.186 C 
ATOM     16  C   UNL A   1      33.108  21.470  25.972  1.00  0.00     0.139 C 
ATOM     17  C   UNL A   1      35.582  23.003  25.919  1.00  0.00     0.203 C 
ATOM     18  C   UNL A   1      34.432  20.949  25.313  1.00  0.00     0.287 C 
ATOM     19  C   UNL A   1      31.942  21.061  25.057  1.00  0.00     0.037 C 
ATOM     20  C   UNL A   1      36.865  23.635  26.462  1.00  0.00     0.067 C 
ATOM     21  N   UNL A   1      35.705  21.532  25.811  1.00  0.00    -0.329 N 
ATOM     22  C   UNL A   1      38.038  23.296  25.555  1.00  0.00     0.012 C 
ATOM     23  C   UNL A   1      36.814  21.172  24.914  1.00  0.00     0.262 C 
ATOM     24  H   UNL A   1      35.902  21.152  26.737  1.00  0.00     0.348 HD
ATOM     25  C   UNL A   1      38.140  21.785  25.372  1.00  0.00     0.062 C 
ENDBRANCH  11  14
ENDBRANCH   9  10
ENDBRANCH   7   9
ENDBRANCH   4   7
ENDBRANCH   2   3
ENDBRANCH   1   2
BRANCH   1  26
ATOM     26  C   UNL A   1      32.117  31.451  26.892  1.00  0.00     0.023 C 
BRANCH  26  27
ATOM     27  C   UNL A   1      33.199  32.373  27.425  1.00  0.00     0.116 C 
BRANCH  27  28
ATOM     28  N   UNL A   1      32.751  33.748  27.632  1.00  0.00    -0.352 N 
ATOM     29  C   UNL A   1      33.194  34.664  28.557  1.00  0.00     0.251 C 
ATOM     30  H   UNL A   1      32.037  34.060  27.031  1.00  0.00     0.163 HD
ATOM     31  O   UNL A   1      32.656  35.762  28.667  1.00  0.00    -0.269 OA
BRANCH  29  32
ATOM     32  C   UNL A   1      34.308  34.283  29.445  1.00  0.00     0.039 A 
ATOM     33  C   UNL A   1      34.042  33.531  30.590  1.00  0.00     0.014 A 
ATOM     34  C   UNL A   1      35.621  34.577  29.072  1.00  0.00     0.014 A 
ATOM     35  C   UNL A   1      35.106  32.998  31.318  1.00  0.00     0.010 A 
ATOM     36  C   UNL A   1      36.669  33.952  29.729  1.00  0.00     0.010 A 
ATOM     37  C   UNL A   1      36.426  33.165  30.865  1.00  0.00    -0.014 A 
BRANCH  37  38
ATOM     38  C   UNL A   1      37.577  32.538  31.558  1.00  0.00     0.031 A 
ATOM     39  C   UNL A   1      38.314  31.403  30.896  1.00  0.00     0.074 A 
ATOM     40  C   UNL A   1      37.887  32.907  32.817  1.00  0.00     0.049 A 
ATOM     41  N   UNL A   1      39.275  30.656  31.370  1.00  0.00    -0.248 NA
ATOM     42  C   UNL A   1      37.880  31.028  29.538  1.00  0.00     0.031 C 
ATOM     43  C   UNL A   1      37.184  33.925  33.602  1.00  0.00     0.029 A 
ATOM     44  N   UNL A   1      38.857  32.445  33.671  1.00  0.00    -0.354 N 
ATOM     45  C   UNL A   1      39.521  29.696  30.396  1.00  0.00     0.074 A 
ATOM     46  C   UNL A   1      38.580  29.925  29.324  1.00  0.00     0.031 C 
ATOM     47  C   UNL A   1      37.754  34.020  34.814  1.00  0.00     0.029 A 
ATOM     48  C   UNL A   1      38.843  33.054  34.905  1.00  0.00     0.049 A 
ATOM     49  H   UNL A   1      39.503  31.746  33.424  1.00  0.00     0.167 HD
ATOM     50  C   UNL A   1      40.472  28.733  30.376  1.00  0.00     0.034 A 
ATOM     51  C   UNL A   1      39.623  32.853  35.987  1.00  0.00     0.034 A 
ATOM     52  C   UNL A   1      41.455  28.563  31.409  1.00  0.00     0.049 A 
ATOM     53  C   UNL A   1      40.726  31.832  35.906  1.00  0.00     0.074 A 
ATOM     54  C   UNL A   1      42.533  27.698  31.435  1.00  0.00     0.029 A 
ATOM     55  N   UNL A   1      41.483  29.278  32.596  1.00  0.00    -0.354 N 
ATOM     56  N   UNL A   1      41.053  31.049  34.906  1.00  0.00    -0.248 NA
ATOM     57  C   UNL A   1      41.592  31.694  37.085  1.00  0.00     0.031 C 
ATOM     58  C   UNL A   1      43.208  27.882  32.647  1.00  0.00     0.029 A 
ATOM     59  C   UNL A   1      42.558  28.872  33.365  1.00  0.00     0.049 A 
ATOM     60  H   UNL A   1      40.833  29.971  32.854  1.00  0.00     0.167 HD
ATOM     61  C   UNL A   1      42.182  30.352  35.321  1.00  0.00     0.074 A 
ATOM     62  C   UNL A   1      42.495  30.823  36.655  1.00  0.00     0.031 C 
ATOM     63  C   UNL A   1      42.888  29.398  34.666  1.00  0.00     0.034 A 
BRANCH  50  64
ATOM     64  C   UNL A   1      40.536  27.840  29.166  1.00  0.00     0.023 A 
ATOM     65  C   UNL A   1      39.639  26.758  29.052  1.00  0.00     0.012 A 
ATOM     66  C   UNL A   1      41.449  28.093  28.124  1.00  0.00     0.148 A 
ATOM     67  C   UNL A   1      39.674  25.919  27.939  1.00  0.00     0.002 A 
ATOM     68  C   UNL A   1      41.446  27.280  26.996  1.00  0.00     0.091 A 
ATOM     69  F   UNL A   1      42.311  29.111  28.259  1.00  0.00    -0.205 F 
ATOM     70  C   UNL A   1      40.569  26.187  26.908  1.00  0.00     0.022 A 
BRANCH  68  71
ATOM     71  S   UNL A   1      42.505  27.588  25.577  1.00  0.00     0.127 S 
ATOM     72  O   UNL A   1      42.240  26.410  24.752  1.00  0.00    -0.237 OA
ATOM     73  O   UNL A   1      41.956  28.837  25.049  1.00  0.00    -0.237 OA
ATOM     74  O   UNL A   1      43.859  27.693  26.103  1.00  0.00    -0.744 OA
ENDBRANCH  68  71
ENDBRANCH  50  64
BRANCH  51  75
ATOM     75  C   UNL A   1      39.446  33.696  37.203  1.00  0.00     0.023 A 
ATOM     76  C   UNL A   1      39.974  35.003  37.215  1.00  0.00     0.012 A 
ATOM     77  C   UNL A   1      38.743  33.232  38.331  1.00  0.00     0.148 A 
ATOM     78  C   UNL A   1      39.835  35.819  38.337  1.00  0.00     0.002 A 
ATOM     79  C   UNL A   1      38.562  34.069  39.428  1.00  0.00     0.091 A 
ATOM     80  F   UNL A   1      38.257  31.982  38.308  1.00  0.00    -0.205 F 
ATOM     81  C   UNL A   1      39.122  35.357  39.439  1.00  0.00     0.022 A 
BRANCH  79  82
ATOM     82  S   UNL A   1      37.551  33.604  40.838  1.00  0.00     0.127 S 
ATOM     83  O   UNL A   1      38.396  32.612  41.497  1.00  0.00    -0.237 OA
ATOM     84  O   UNL A   1      37.421  34.875  41.551  1.00  0.00    -0.237 OA
ATOM     85  O   UNL A   1      36.304  33.104  40.275  1.00  0.00    -0.744 OA
ENDBRANCH  79  82
ENDBRANCH  51  75
BRANCH  63  86
ATOM     86  C   UNL A   1      44.091  28.819  35.359  1.00  0.00     0.023 A 
ATOM     87  C   UNL A   1      45.363  29.378  35.131  1.00  0.00     0.012 A 
ATOM     88  C   UNL A   1      43.947  27.781  36.301  1.00  0.00     0.148 A 
ATOM     89  C   UNL A   1      46.480  28.893  35.810  1.00  0.00     0.002 A 
ATOM     90  C   UNL A   1      45.056  27.336  37.008  1.00  0.00     0.091 A 
ATOM     91  F   UNL A   1      42.730  27.251  36.488  1.00  0.00    -0.205 F 
ATOM     92  C   UNL A   1      46.325  27.883  36.757  1.00  0.00     0.022 A 
BRANCH  90  93
ATOM     93  S   UNL A   1      44.932  26.110  38.316  1.00  0.00     0.127 S 
ATOM     94  O   UNL A   1      44.423  24.950  37.589  1.00  0.00    -0.237 OA
ATOM     95  O   UNL A   1      46.320  25.989  38.763  1.00  0.00    -0.237 OA
ATOM     96  O   UNL A   1      44.028  26.676  39.308  1.00  0.00    -0.744 OA
ENDBRANCH  90  93
ENDBRANCH  63  86
ENDBRANCH  37  38
ENDBRANCH  29  32
ENDBRANCH  27  28
ENDBRANCH  26  27
ENDBRANCH   1  26
TORSDOF 17
ENDMDL
