MODEL 1
REMARK VINA RESULT:     -11.2      0.000      0.000
REMARK SMILES COc1ncccc1COc1cc(C)sc1C(=O)NCCCCNC(=O)c1ccc(-c2c3nc(c(-c4cccc(S(=O)(=O)[O-])c4F)c4ccc([nH]4)c(-c4cccc(S(=O)(=O)[O-])c4F)c4nc(c(-c5cccc(S(=O)(=O)[O-])c5F)c5ccc2[nH]5)C=C4)C=C3)cc1
REMARK SMILES IDX 21 1 20 2 19 3 17 4 18 5 16 7 11 8 12 9 13 10 15 11 14 12
REMARK SMILES IDX 10 13 9 14 8 15 3 16 4 17 5 18 7 19 6 20 2 21 1 22 22 23
REMARK SMILES IDX 23 24 24 25 25 26 26 28 27 29 28 30 89 31 29 32 88 33 30 34
REMARK SMILES IDX 31 35 32 36 82 37 33 38 87 39 81 40 83 41 34 42 86 43 80 44
REMARK SMILES IDX 79 45 35 47 67 48 47 49 66 50 48 51 51 52 65 53 84 54 49 55
REMARK SMILES IDX 50 56 64 58 85 59 52 60 36 61 37 62 45 63 38 64 40 65 46 66
REMARK SMILES IDX 39 67 41 68 42 69 43 70 44 71 68 72 69 73 77 74 70 75 72 76
REMARK SMILES IDX 78 77 71 78 73 79 74 80 75 81 76 82 53 83 54 84 62 85 55 86
REMARK SMILES IDX 57 87 63 88 56 89 58 90 59 91 60 92 61 93
REMARK H PARENT 19 6 24 27 83 46 51 57
REMARK Flexibility Score: inf
ROOT
ATOM      1  C   UNL A   1      32.781  29.612  26.302  1.00  0.00     0.023 C 
ENDROOT
BRANCH   1   2
ATOM      2  C   UNL A   1      32.858  28.428  27.268  1.00  0.00     0.116 C 
BRANCH   2   3
ATOM      3  N   UNL A   1      31.683  27.596  27.160  1.00  0.00    -0.351 N 
ATOM      4  C   UNL A   1      31.316  26.608  26.279  1.00  0.00     0.265 C 
ATOM      5  O   UNL A   1      30.227  26.086  26.557  1.00  0.00    -0.268 OA
ATOM      6  H   UNL A   1      31.010  27.771  27.858  1.00  0.00     0.163 HD
BRANCH   4   7
ATOM      7  C   UNL A   1      32.120  26.168  25.137  1.00  0.00     0.134 A 
ATOM      8  C   UNL A   1      33.364  25.576  24.952  1.00  0.00     0.143 A 
ATOM      9  C   UNL A   1      33.650  25.311  23.577  1.00  0.00     0.062 A 
ATOM     10  C   UNL A   1      32.691  25.795  22.723  1.00  0.00     0.006 A 
ATOM     11  S   UNL A   1      31.413  26.509  23.580  1.00  0.00    -0.132 S 
ATOM     12  C   UNL A   1      32.673  25.741  21.236  1.00  0.00     0.056 C 
BRANCH   8  13
ATOM     13  O   UNL A   1      34.157  25.194  25.981  1.00  0.00    -0.487 OA
BRANCH  13  14
ATOM     14  C   UNL A   1      34.175  23.789  26.277  1.00  0.00     0.271 C 
BRANCH  14  15
ATOM     15  C   UNL A   1      35.507  23.132  26.047  1.00  0.00     0.052 A 
ATOM     16  C   UNL A   1      35.625  21.763  25.827  1.00  0.00     0.219 A 
ATOM     17  N   UNL A   1      36.782  21.140  25.511  1.00  0.00    -0.222 NA
ATOM     18  C   UNL A   1      37.882  21.919  25.428  1.00  0.00     0.115 A 
ATOM     19  C   UNL A   1      36.677  23.897  25.986  1.00  0.00     0.014 A 
ATOM     20  C   UNL A   1      37.883  23.285  25.666  1.00  0.00     0.021 A 
BRANCH  16  21
ATOM     21  O   UNL A   1      34.515  20.974  26.007  1.00  0.00    -0.481 OA
ATOM     22  C   UNL A   1      34.066  20.459  24.758  1.00  0.00     0.280 C 
ENDBRANCH  16  21
ENDBRANCH  14  15
ENDBRANCH  13  14
ENDBRANCH   8  13
ENDBRANCH   4   7
ENDBRANCH   2   3
ENDBRANCH   1   2
BRANCH   1  23
ATOM     23  C   UNL A   1      32.190  30.891  26.890  1.00  0.00     0.023 C 
BRANCH  23  24
ATOM     24  C   UNL A   1      33.225  31.869  27.437  1.00  0.00     0.116 C 
BRANCH  24  25
ATOM     25  N   UNL A   1      32.731  33.236  27.559  1.00  0.00    -0.352 N 
ATOM     26  C   UNL A   1      33.180  34.228  28.402  1.00  0.00     0.251 C 
ATOM     27  H   UNL A   1      31.984  33.480  26.966  1.00  0.00     0.163 HD
ATOM     28  O   UNL A   1      32.615  35.312  28.453  1.00  0.00    -0.269 OA
BRANCH  26  29
ATOM     29  C   UNL A   1      34.328  33.938  29.286  1.00  0.00     0.039 A 
ATOM     30  C   UNL A   1      34.110  33.203  30.453  1.00  0.00     0.014 A 
ATOM     31  C   UNL A   1      35.619  34.312  28.909  1.00  0.00     0.014 A 
ATOM     32  C   UNL A   1      35.205  32.758  31.196  1.00  0.00     0.010 A 
ATOM     33  C   UNL A   1      36.708  33.810  29.612  1.00  0.00     0.010 A 
ATOM     34  C   UNL A   1      36.511  33.015  30.752  1.00  0.00    -0.014 A 
BRANCH  34  35
ATOM     35  C   UNL A   1      37.692  32.422  31.428  1.00  0.00     0.031 A 
ATOM     36  C   UNL A   1      38.423  31.271  30.799  1.00  0.00     0.074 A 
ATOM     37  C   UNL A   1      38.023  32.840  32.666  1.00  0.00     0.049 A 
ATOM     38  N   UNL A   1      39.412  30.563  31.279  1.00  0.00    -0.248 NA
ATOM     39  C   UNL A   1      37.964  30.836  29.468  1.00  0.00     0.031 C 
ATOM     40  C   UNL A   1      37.326  33.886  33.421  1.00  0.00     0.029 A 
ATOM     41  N   UNL A   1      39.005  32.414  33.523  1.00  0.00    -0.354 N 
ATOM     42  C   UNL A   1      39.666  29.578  30.334  1.00  0.00     0.074 A 
ATOM     43  C   UNL A   1      38.710  29.760  29.264  1.00  0.00     0.031 C 
ATOM     44  C   UNL A   1      37.901  34.015  34.628  1.00  0.00     0.029 A 
ATOM     45  C   UNL A   1      38.989  33.049  34.744  1.00  0.00     0.049 A 
ATOM     46  H   UNL A   1      39.661  31.717  33.288  1.00  0.00     0.167 HD
ATOM     47  C   UNL A   1      40.629  28.626  30.342  1.00  0.00     0.034 A 
ATOM     48  C   UNL A   1      39.759  32.870  35.835  1.00  0.00     0.034 A 
ATOM     49  C   UNL A   1      41.616  28.490  31.377  1.00  0.00     0.049 A 
ATOM     50  C   UNL A   1      40.861  31.847  35.790  1.00  0.00     0.074 A 
ATOM     51  C   UNL A   1      42.703  27.635  31.420  1.00  0.00     0.029 A 
ATOM     52  N   UNL A   1      41.636  29.223  32.552  1.00  0.00    -0.354 N 
ATOM     53  N   UNL A   1      41.203  31.047  34.809  1.00  0.00    -0.248 NA
ATOM     54  C   UNL A   1      41.706  31.725  36.988  1.00  0.00     0.031 C 
ATOM     55  C   UNL A   1      43.377  27.847  32.628  1.00  0.00     0.029 A 
ATOM     56  C   UNL A   1      42.712  28.838  33.333  1.00  0.00     0.049 A 
ATOM     57  H   UNL A   1      40.982  29.918  32.796  1.00  0.00     0.167 HD
ATOM     58  C   UNL A   1      42.316  30.348  35.259  1.00  0.00     0.074 A 
ATOM     59  C   UNL A   1      42.607  30.835  36.592  1.00  0.00     0.031 C 
ATOM     60  C   UNL A   1      43.022  29.374  34.633  1.00  0.00     0.034 A 
BRANCH  47  61
ATOM     61  C   UNL A   1      40.709  27.705  29.155  1.00  0.00     0.023 A 
ATOM     62  C   UNL A   1      39.839  26.597  29.085  1.00  0.00     0.012 A 
ATOM     63  C   UNL A   1      41.589  27.962  28.088  1.00  0.00     0.148 A 
ATOM     64  C   UNL A   1      39.865  25.742  27.985  1.00  0.00     0.002 A 
ATOM     65  C   UNL A   1      41.583  27.127  26.976  1.00  0.00     0.091 A 
ATOM     66  F   UNL A   1      42.425  29.006  28.184  1.00  0.00    -0.205 F 
ATOM     67  C   UNL A   1      40.728  26.013  26.927  1.00  0.00     0.022 A 
BRANCH  65  68
ATOM     68  S   UNL A   1      42.607  27.432  25.532  1.00  0.00     0.127 S 
ATOM     69  O   UNL A   1      42.067  28.703  25.051  1.00  0.00    -0.237 OA
ATOM     70  O   UNL A   1      43.947  27.523  26.115  1.00  0.00    -0.237 OA
ATOM     71  O   UNL A   1      42.406  26.291  24.651  1.00  0.00    -0.744 OA
ENDBRANCH  65  68
ENDBRANCH  47  61
BRANCH  48  72
ATOM     72  C   UNL A   1      39.564  33.734  37.033  1.00  0.00     0.023 A 
ATOM     73  C   UNL A   1      40.001  35.072  36.992  1.00  0.00     0.012 A 
ATOM     74  C   UNL A   1      38.920  33.257  38.191  1.00  0.00     0.148 A 
ATOM     75  C   UNL A   1      39.827  35.912  38.093  1.00  0.00     0.002 A 
ATOM     76  C   UNL A   1      38.704  34.115  39.265  1.00  0.00     0.091 A 
ATOM     77  F   UNL A   1      38.526  31.977  38.219  1.00  0.00    -0.205 F 
ATOM     78  C   UNL A   1      39.169  35.437  39.223  1.00  0.00     0.022 A 
BRANCH  76  79
ATOM     79  S   UNL A   1      37.747  33.619  40.703  1.00  0.00     0.127 S 
ATOM     80  O   UNL A   1      38.635  32.646  41.334  1.00  0.00    -0.237 OA
ATOM     81  O   UNL A   1      37.603  34.882  41.428  1.00  0.00    -0.237 OA
ATOM     82  O   UNL A   1      36.497  33.094  40.170  1.00  0.00    -0.744 OA
ENDBRANCH  76  79
ENDBRANCH  48  72
BRANCH  60  83
ATOM     83  C   UNL A   1      44.190  28.775  35.369  1.00  0.00     0.023 A 
ATOM     84  C   UNL A   1      45.476  29.318  35.186  1.00  0.00     0.012 A 
ATOM     85  C   UNL A   1      44.001  27.738  36.304  1.00  0.00     0.148 A 
ATOM     86  C   UNL A   1      46.562  28.826  35.906  1.00  0.00     0.002 A 
ATOM     87  C   UNL A   1      45.081  27.280  37.050  1.00  0.00     0.091 A 
ATOM     88  F   UNL A   1      42.772  27.221  36.448  1.00  0.00    -0.205 F 
ATOM     89  C   UNL A   1      46.363  27.816  36.846  1.00  0.00     0.022 A 
BRANCH  87  90
ATOM     90  S   UNL A   1      44.900  26.048  38.345  1.00  0.00     0.127 S 
ATOM     91  O   UNL A   1      44.457  24.880  37.586  1.00  0.00    -0.237 OA
ATOM     92  O   UNL A   1      46.260  25.951  38.877  1.00  0.00    -0.237 OA
ATOM     93  O   UNL A   1      43.926  26.595  39.281  1.00  0.00    -0.744 OA
ENDBRANCH  87  90
ENDBRANCH  60  83
ENDBRANCH  34  35
ENDBRANCH  26  29
ENDBRANCH  24  25
ENDBRANCH  23  24
ENDBRANCH   1  23
TORSDOF 18
ENDMDL
MODEL 2
REMARK VINA RESULT:     -11.2      1.627      3.403
REMARK SMILES COc1ncccc1COc1cc(C)sc1C(=O)NCCCCNC(=O)c1ccc(-c2c3nc(c(-c4cccc(S(=O)(=O)[O-])c4F)c4ccc([nH]4)c(-c4cccc(S(=O)(=O)[O-])c4F)c4nc(c(-c5cccc(S(=O)(=O)[O-])c5F)c5ccc2[nH]5)C=C4)C=C3)cc1
REMARK SMILES IDX 21 1 20 2 19 3 17 4 18 5 16 7 11 8 12 9 13 10 15 11 14 12
REMARK SMILES IDX 10 13 9 14 8 15 3 16 4 17 5 18 7 19 6 20 2 21 1 22 22 23
REMARK SMILES IDX 23 24 24 25 25 26 26 28 27 29 28 30 89 31 29 32 88 33 30 34
REMARK SMILES IDX 31 35 32 36 82 37 33 38 87 39 81 40 83 41 34 42 86 43 80 44
REMARK SMILES IDX 79 45 35 47 67 48 47 49 66 50 48 51 51 52 65 53 84 54 49 55
REMARK SMILES IDX 50 56 64 58 85 59 52 60 36 61 37 62 45 63 38 64 40 65 46 66
REMARK SMILES IDX 39 67 41 68 42 69 43 70 44 71 68 72 69 73 77 74 70 75 72 76
REMARK SMILES IDX 78 77 71 78 73 79 74 80 75 81 76 82 53 83 54 84 62 85 55 86
REMARK SMILES IDX 57 87 63 88 56 89 58 90 59 91 60 92 61 93
REMARK H PARENT 19 6 24 27 83 46 51 57
REMARK Flexibility Score: inf
ROOT
ATOM      1  C   UNL A   1      32.858  29.898  26.184  1.00  0.00     0.023 C 
ENDROOT
BRANCH   1   2
ATOM      2  C   UNL A   1      33.166  28.744  27.140  1.00  0.00     0.116 C 
BRANCH   2   3
ATOM      3  N   UNL A   1      32.067  27.808  27.193  1.00  0.00    -0.351 N 
ATOM      4  C   UNL A   1      31.764  26.683  26.466  1.00  0.00     0.265 C 
ATOM      5  O   UNL A   1      30.736  26.114  26.855  1.00  0.00    -0.268 OA
ATOM      6  H   UNL A   1      31.403  28.019  27.888  1.00  0.00     0.163 HD
BRANCH   4   7
ATOM      7  C   UNL A   1      32.571  26.162  25.361  1.00  0.00     0.134 A 
ATOM      8  C   UNL A   1      32.873  26.556  24.063  1.00  0.00     0.143 A 
ATOM      9  C   UNL A   1      33.783  25.666  23.413  1.00  0.00     0.062 A 
ATOM     10  C   UNL A   1      34.080  24.555  24.162  1.00  0.00     0.006 A 
ATOM     11  S   UNL A   1      33.316  24.616  25.675  1.00  0.00    -0.132 S 
ATOM     12  C   UNL A   1      34.950  23.405  23.795  1.00  0.00     0.056 C 
BRANCH   8  13
ATOM     13  O   UNL A   1      32.434  27.720  23.527  1.00  0.00    -0.487 OA
BRANCH  13  14
ATOM     14  C   UNL A   1      31.481  27.603  22.458  1.00  0.00     0.271 C 
BRANCH  14  15
ATOM     15  C   UNL A   1      30.051  27.760  22.894  1.00  0.00     0.052 A 
ATOM     16  C   UNL A   1      29.305  28.891  22.578  1.00  0.00     0.219 A 
ATOM     17  N   UNL A   1      27.990  29.037  22.853  1.00  0.00    -0.222 NA
ATOM     18  C   UNL A   1      27.392  28.009  23.492  1.00  0.00     0.115 A 
ATOM     19  C   UNL A   1      29.402  26.733  23.587  1.00  0.00     0.014 A 
ATOM     20  C   UNL A   1      28.050  26.854  23.887  1.00  0.00     0.021 A 
BRANCH  16  21
ATOM     21  O   UNL A   1      29.952  29.964  22.012  1.00  0.00    -0.481 OA
ATOM     22  C   UNL A   1      29.007  30.933  21.570  1.00  0.00     0.280 C 
ENDBRANCH  16  21
ENDBRANCH  14  15
ENDBRANCH  13  14
ENDBRANCH   8  13
ENDBRANCH   4   7
ENDBRANCH   2   3
ENDBRANCH   1   2
BRANCH   1  23
ATOM     23  C   UNL A   1      32.234  31.130  26.836  1.00  0.00     0.023 C 
BRANCH  23  24
ATOM     24  C   UNL A   1      33.243  32.110  27.424  1.00  0.00     0.116 C 
BRANCH  24  25
ATOM     25  N   UNL A   1      32.715  33.459  27.599  1.00  0.00    -0.352 N 
ATOM     26  C   UNL A   1      33.147  34.433  28.472  1.00  0.00     0.251 C 
ATOM     27  H   UNL A   1      31.956  33.704  27.022  1.00  0.00     0.163 HD
ATOM     28  O   UNL A   1      32.555  35.499  28.566  1.00  0.00    -0.269 OA
BRANCH  26  29
ATOM     29  C   UNL A   1      34.312  34.143  29.334  1.00  0.00     0.039 A 
ATOM     30  C   UNL A   1      34.100  33.510  30.560  1.00  0.00     0.014 A 
ATOM     31  C   UNL A   1      35.606  34.411  28.884  1.00  0.00     0.014 A 
ATOM     32  C   UNL A   1      35.197  33.058  31.296  1.00  0.00     0.010 A 
ATOM     33  C   UNL A   1      36.692  33.900  29.583  1.00  0.00     0.010 A 
ATOM     34  C   UNL A   1      36.497  33.205  30.787  1.00  0.00    -0.014 A 
BRANCH  34  35
ATOM     35  C   UNL A   1      37.669  32.595  31.464  1.00  0.00     0.031 A 
ATOM     36  C   UNL A   1      38.396  31.447  30.826  1.00  0.00     0.074 A 
ATOM     37  C   UNL A   1      37.994  32.997  32.709  1.00  0.00     0.049 A 
ATOM     38  N   UNL A   1      39.377  30.726  31.304  1.00  0.00    -0.248 NA
ATOM     39  C   UNL A   1      37.943  31.030  29.488  1.00  0.00     0.031 C 
ATOM     40  C   UNL A   1      37.300  34.039  33.471  1.00  0.00     0.029 A 
ATOM     41  N   UNL A   1      38.968  32.553  33.567  1.00  0.00    -0.354 N 
ATOM     42  C   UNL A   1      39.630  29.749  30.350  1.00  0.00     0.074 A 
ATOM     43  C   UNL A   1      38.683  29.951  29.275  1.00  0.00     0.031 C 
ATOM     44  C   UNL A   1      37.868  34.150  34.683  1.00  0.00     0.029 A 
ATOM     45  C   UNL A   1      38.949  33.175  34.795  1.00  0.00     0.049 A 
ATOM     46  H   UNL A   1      39.621  31.855  33.328  1.00  0.00     0.167 HD
ATOM     47  C   UNL A   1      40.586  28.791  30.353  1.00  0.00     0.034 A 
ATOM     48  C   UNL A   1      39.710  32.978  35.889  1.00  0.00     0.034 A 
ATOM     49  C   UNL A   1      41.565  28.636  31.393  1.00  0.00     0.049 A 
ATOM     50  C   UNL A   1      40.805  31.947  35.839  1.00  0.00     0.074 A 
ATOM     51  C   UNL A   1      42.646  27.773  31.433  1.00  0.00     0.029 A 
ATOM     52  N   UNL A   1      41.582  29.355  32.576  1.00  0.00    -0.354 N 
ATOM     53  N   UNL A   1      41.148  31.156  34.851  1.00  0.00    -0.248 NA
ATOM     54  C   UNL A   1      41.641  31.805  37.041  1.00  0.00     0.031 C 
ATOM     55  C   UNL A   1      43.313  27.966  32.648  1.00  0.00     0.029 A 
ATOM     56  C   UNL A   1      42.651  28.953  33.360  1.00  0.00     0.049 A 
ATOM     57  H   UNL A   1      40.931  30.052  32.824  1.00  0.00     0.167 HD
ATOM     58  C   UNL A   1      42.253  30.443  35.300  1.00  0.00     0.074 A 
ATOM     59  C   UNL A   1      42.538  30.914  36.641  1.00  0.00     0.031 C 
ATOM     60  C   UNL A   1      42.956  29.472  34.668  1.00  0.00     0.034 A 
BRANCH  47  61
ATOM     61  C   UNL A   1      40.667  27.883  29.156  1.00  0.00     0.023 A 
ATOM     62  C   UNL A   1      39.801  26.773  29.076  1.00  0.00     0.012 A 
ATOM     63  C   UNL A   1      41.545  28.155  28.090  1.00  0.00     0.148 A 
ATOM     64  C   UNL A   1      39.828  25.930  27.966  1.00  0.00     0.002 A 
ATOM     65  C   UNL A   1      41.539  27.332  26.970  1.00  0.00     0.091 A 
ATOM     66  F   UNL A   1      42.377  29.201  28.197  1.00  0.00    -0.205 F 
ATOM     67  C   UNL A   1      40.688  26.216  26.910  1.00  0.00     0.022 A 
BRANCH  65  68
ATOM     68  S   UNL A   1      42.560  27.656  25.527  1.00  0.00     0.127 S 
ATOM     69  O   UNL A   1      41.995  28.915  25.044  1.00  0.00    -0.237 OA
ATOM     70  O   UNL A   1      43.896  27.774  26.112  1.00  0.00    -0.237 OA
ATOM     71  O   UNL A   1      42.383  26.511  24.646  1.00  0.00    -0.744 OA
ENDBRANCH  65  68
ENDBRANCH  47  61
BRANCH  48  72
ATOM     72  C   UNL A   1      39.513  33.830  37.095  1.00  0.00     0.023 A 
ATOM     73  C   UNL A   1      39.978  35.158  37.080  1.00  0.00     0.012 A 
ATOM     74  C   UNL A   1      38.841  33.350  38.236  1.00  0.00     0.148 A 
ATOM     75  C   UNL A   1      39.803  35.987  38.189  1.00  0.00     0.002 A 
ATOM     76  C   UNL A   1      38.625  34.197  39.319  1.00  0.00     0.091 A 
ATOM     77  F   UNL A   1      38.420  32.077  38.241  1.00  0.00    -0.205 F 
ATOM     78  C   UNL A   1      39.118  35.511  39.303  1.00  0.00     0.022 A 
BRANCH  76  79
ATOM     79  S   UNL A   1      37.635  33.702  40.734  1.00  0.00     0.127 S 
ATOM     80  O   UNL A   1      36.445  33.153  40.091  1.00  0.00    -0.237 OA
ATOM     81  O   UNL A   1      38.498  32.713  41.383  1.00  0.00    -0.237 OA
ATOM     82  O   UNL A   1      37.440  34.919  41.511  1.00  0.00    -0.744 OA
ENDBRANCH  76  79
ENDBRANCH  48  72
BRANCH  60  83
ATOM     83  C   UNL A   1      44.115  28.856  35.404  1.00  0.00     0.023 A 
ATOM     84  C   UNL A   1      45.397  29.422  35.274  1.00  0.00     0.012 A 
ATOM     85  C   UNL A   1      43.918  27.778  36.290  1.00  0.00     0.148 A 
ATOM     86  C   UNL A   1      46.473  28.912  35.998  1.00  0.00     0.002 A 
ATOM     87  C   UNL A   1      44.986  27.302  37.040  1.00  0.00     0.091 A 
ATOM     88  F   UNL A   1      42.693  27.241  36.383  1.00  0.00    -0.205 F 
ATOM     89  C   UNL A   1      46.266  27.861  36.890  1.00  0.00     0.022 A 
BRANCH  87  90
ATOM     90  S   UNL A   1      44.793  26.013  38.278  1.00  0.00     0.127 S 
ATOM     91  O   UNL A   1      46.120  25.985  38.889  1.00  0.00    -0.237 OA
ATOM     92  O   UNL A   1      43.737  26.557  39.133  1.00  0.00    -0.237 OA
ATOM     93  O   UNL A   1      44.414  24.812  37.545  1.00  0.00    -0.744 OA
ENDBRANCH  87  90
ENDBRANCH  60  83
ENDBRANCH  34  35
ENDBRANCH  26  29
ENDBRANCH  24  25
ENDBRANCH  23  24
ENDBRANCH   1  23
TORSDOF 18
ENDMDL
MODEL 3
REMARK VINA RESULT:     -11.1      2.552      8.331
REMARK SMILES COc1ncccc1COc1cc(C)sc1C(=O)NCCCCNC(=O)c1ccc(-c2c3nc(c(-c4cccc(S(=O)(=O)[O-])c4F)c4ccc([nH]4)c(-c4cccc(S(=O)(=O)[O-])c4F)c4nc(c(-c5cccc(S(=O)(=O)[O-])c5F)c5ccc2[nH]5)C=C4)C=C3)cc1
REMARK SMILES IDX 21 1 20 2 19 3 17 4 18 5 16 7 11 8 12 9 13 10 15 11 14 12
REMARK SMILES IDX 10 13 9 14 8 15 3 16 4 17 5 18 7 19 6 20 2 21 1 22 22 23
REMARK SMILES IDX 23 24 24 25 25 26 26 28 27 29 28 30 89 31 29 32 88 33 30 34
REMARK SMILES IDX 31 35 32 36 82 37 33 38 87 39 81 40 83 41 34 42 86 43 80 44
REMARK SMILES IDX 79 45 35 47 67 48 47 49 66 50 48 51 51 52 65 53 84 54 49 55
REMARK SMILES IDX 50 56 64 58 85 59 52 60 36 61 37 62 45 63 38 64 40 65 46 66
REMARK SMILES IDX 39 67 41 68 42 69 43 70 44 71 68 72 69 73 77 74 70 75 72 76
REMARK SMILES IDX 78 77 71 78 73 79 74 80 75 81 76 82 53 83 54 84 62 85 55 86
REMARK SMILES IDX 57 87 63 88 56 89 58 90 59 91 60 92 61 93
REMARK H PARENT 19 6 24 27 83 46 51 57
REMARK Flexibility Score: inf
ROOT
ATOM      1  C   UNL A   1      31.606  27.889  25.965  1.00  0.00     0.023 C 
ENDROOT
BRANCH   1   2
ATOM      2  C   UNL A   1      32.486  26.724  26.422  1.00  0.00     0.116 C 
BRANCH   2   3
ATOM      3  N   UNL A   1      31.680  25.613  26.871  1.00  0.00    -0.351 N 
ATOM      4  C   UNL A   1      31.747  24.260  26.646  1.00  0.00     0.265 C 
ATOM      5  O   UNL A   1      30.885  23.618  27.261  1.00  0.00    -0.268 OA
ATOM      6  H   UNL A   1      30.933  25.878  27.456  1.00  0.00     0.163 HD
BRANCH   4   7
ATOM      7  C   UNL A   1      32.745  23.604  25.797  1.00  0.00     0.134 A 
ATOM      8  C   UNL A   1      33.299  23.825  24.542  1.00  0.00     0.143 A 
ATOM      9  C   UNL A   1      34.304  22.866  24.205  1.00  0.00     0.062 A 
ATOM     10  C   UNL A   1      34.433  21.869  25.139  1.00  0.00     0.006 A 
ATOM     11  S   UNL A   1      33.391  22.123  26.454  1.00  0.00    -0.132 S 
ATOM     12  C   UNL A   1      35.340  20.690  25.105  1.00  0.00     0.056 C 
BRANCH   8  13
ATOM     13  O   UNL A   1      32.990  24.902  23.781  1.00  0.00    -0.487 OA
BRANCH  13  14
ATOM     14  C   UNL A   1      31.833  24.769  22.939  1.00  0.00     0.271 C 
BRANCH  14  15
ATOM     15  C   UNL A   1      30.867  25.916  23.043  1.00  0.00     0.052 A 
ATOM     16  C   UNL A   1      31.092  27.129  22.400  1.00  0.00     0.219 A 
ATOM     17  N   UNL A   1      30.209  28.152  22.374  1.00  0.00    -0.222 NA
ATOM     18  C   UNL A   1      29.050  27.962  23.038  1.00  0.00     0.115 A 
ATOM     19  C   UNL A   1      29.667  25.774  23.749  1.00  0.00     0.014 A 
ATOM     20  C   UNL A   1      28.740  26.809  23.743  1.00  0.00     0.021 A 
BRANCH  16  21
ATOM     21  O   UNL A   1      32.315  27.338  21.809  1.00  0.00    -0.481 OA
ATOM     22  C   UNL A   1      33.083  28.261  22.575  1.00  0.00     0.280 C 
ENDBRANCH  16  21
ENDBRANCH  14  15
ENDBRANCH  13  14
ENDBRANCH   8  13
ENDBRANCH   4   7
ENDBRANCH   2   3
ENDBRANCH   1   2
BRANCH   1  23
ATOM     23  C   UNL A   1      31.750  29.170  26.784  1.00  0.00     0.023 C 
BRANCH  23  24
ATOM     24  C   UNL A   1      32.938  30.040  26.388  1.00  0.00     0.116 C 
BRANCH  24  25
ATOM     25  N   UNL A   1      32.789  31.441  26.766  1.00  0.00    -0.352 N 
ATOM     26  C   UNL A   1      33.644  32.211  27.522  1.00  0.00     0.251 C 
ATOM     27  H   UNL A   1      31.976  31.892  26.442  1.00  0.00     0.163 HD
ATOM     28  O   UNL A   1      33.352  33.358  27.829  1.00  0.00    -0.269 OA
BRANCH  26  29
ATOM     29  C   UNL A   1      34.904  31.605  28.001  1.00  0.00     0.039 A 
ATOM     30  C   UNL A   1      36.029  32.418  28.149  1.00  0.00     0.014 A 
ATOM     31  C   UNL A   1      34.937  30.264  28.390  1.00  0.00     0.014 A 
ATOM     32  C   UNL A   1      37.166  31.908  28.778  1.00  0.00     0.010 A 
ATOM     33  C   UNL A   1      36.043  29.780  29.078  1.00  0.00     0.010 A 
ATOM     34  C   UNL A   1      37.161  30.601  29.292  1.00  0.00    -0.014 A 
BRANCH  34  35
ATOM     35  C   UNL A   1      38.290  30.084  30.105  1.00  0.00     0.031 A 
ATOM     36  C   UNL A   1      38.527  30.613  31.490  1.00  0.00     0.074 A 
ATOM     37  C   UNL A   1      39.170  29.230  29.545  1.00  0.00     0.049 A 
ATOM     38  N   UNL A   1      39.511  30.354  32.312  1.00  0.00    -0.248 NA
ATOM     39  C   UNL A   1      37.551  31.586  32.010  1.00  0.00     0.031 C 
ATOM     40  C   UNL A   1      39.098  28.719  28.173  1.00  0.00     0.029 A 
ATOM     41  N   UNL A   1      40.318  28.670  30.046  1.00  0.00    -0.354 N 
ATOM     42  C   UNL A   1      39.296  31.159  33.424  1.00  0.00     0.074 A 
ATOM     43  C   UNL A   1      38.105  31.935  33.162  1.00  0.00     0.031 C 
ATOM     44  C   UNL A   1      40.156  27.925  27.943  1.00  0.00     0.029 A 
ATOM     45  C   UNL A   1      40.994  27.888  29.138  1.00  0.00     0.049 A 
ATOM     46  H   UNL A   1      40.629  28.814  30.969  1.00  0.00     0.167 HD
ATOM     47  C   UNL A   1      40.009  31.221  34.573  1.00  0.00     0.034 A 
ATOM     48  C   UNL A   1      42.160  27.221  29.251  1.00  0.00     0.034 A 
ATOM     49  C   UNL A   1      41.155  30.401  34.854  1.00  0.00     0.049 A 
ATOM     50  C   UNL A   1      42.896  27.261  30.562  1.00  0.00     0.074 A 
ATOM     51  C   UNL A   1      41.874  30.305  36.032  1.00  0.00     0.029 A 
ATOM     52  N   UNL A   1      41.751  29.538  33.949  1.00  0.00    -0.354 N 
ATOM     53  N   UNL A   1      42.576  27.886  31.669  1.00  0.00    -0.248 NA
ATOM     54  C   UNL A   1      44.138  26.477  30.652  1.00  0.00     0.031 C 
ATOM     55  C   UNL A   1      42.913  29.388  35.835  1.00  0.00     0.029 A 
ATOM     56  C   UNL A   1      42.835  28.909  34.537  1.00  0.00     0.049 A 
ATOM     57  H   UNL A   1      41.447  29.393  33.023  1.00  0.00     0.167 HD
ATOM     58  C   UNL A   1      43.557  27.550  32.594  1.00  0.00     0.074 A 
ATOM     59  C   UNL A   1      44.471  26.646  31.925  1.00  0.00     0.031 C 
ATOM     60  C   UNL A   1      43.701  27.968  33.875  1.00  0.00     0.034 A 
BRANCH  47  61
ATOM     61  C   UNL A   1      39.523  32.158  35.646  1.00  0.00     0.023 A 
ATOM     62  C   UNL A   1      38.613  31.683  36.612  1.00  0.00     0.012 A 
ATOM     63  C   UNL A   1      40.006  33.476  35.738  1.00  0.00     0.148 A 
ATOM     64  C   UNL A   1      38.167  32.516  37.637  1.00  0.00     0.002 A 
ATOM     65  C   UNL A   1      39.587  34.289  36.785  1.00  0.00     0.091 A 
ATOM     66  F   UNL A   1      40.852  33.917  34.795  1.00  0.00    -0.205 F 
ATOM     67  C   UNL A   1      38.662  33.813  37.729  1.00  0.00     0.022 A 
BRANCH  65  68
ATOM     68  S   UNL A   1      40.220  35.953  37.031  1.00  0.00     0.127 S 
ATOM     69  O   UNL A   1      39.711  36.640  35.845  1.00  0.00    -0.237 OA
ATOM     70  O   UNL A   1      39.578  36.347  38.285  1.00  0.00    -0.237 OA
ATOM     71  O   UNL A   1      41.668  35.822  37.106  1.00  0.00    -0.744 OA
ENDBRANCH  65  68
ENDBRANCH  47  61
BRANCH  48  72
ATOM     72  C   UNL A   1      42.659  26.397  28.115  1.00  0.00     0.023 A 
ATOM     73  C   UNL A   1      43.657  26.922  27.273  1.00  0.00     0.012 A 
ATOM     74  C   UNL A   1      42.183  25.092  27.884  1.00  0.00     0.148 A 
ATOM     75  C   UNL A   1      44.153  26.175  26.204  1.00  0.00     0.002 A 
ATOM     76  C   UNL A   1      42.718  24.333  26.849  1.00  0.00     0.091 A 
ATOM     77  F   UNL A   1      41.220  24.614  28.685  1.00  0.00    -0.205 F 
ATOM     78  C   UNL A   1      43.693  24.878  25.999  1.00  0.00     0.022 A 
BRANCH  76  79
ATOM     79  S   UNL A   1      42.275  22.609  26.602  1.00  0.00     0.127 S 
ATOM     80  O   UNL A   1      43.117  22.242  25.467  1.00  0.00    -0.237 OA
ATOM     81  O   UNL A   1      42.663  22.006  27.878  1.00  0.00    -0.237 OA
ATOM     82  O   UNL A   1      40.839  22.613  26.359  1.00  0.00    -0.744 OA
ENDBRANCH  76  79
ENDBRANCH  48  72
BRANCH  60  83
ATOM     83  C   UNL A   1      44.879  27.446  34.653  1.00  0.00     0.023 A 
ATOM     84  C   UNL A   1      46.085  28.172  34.652  1.00  0.00     0.012 A 
ATOM     85  C   UNL A   1      44.763  26.292  35.453  1.00  0.00     0.148 A 
ATOM     86  C   UNL A   1      47.168  27.746  35.418  1.00  0.00     0.002 A 
ATOM     87  C   UNL A   1      45.833  25.897  36.247  1.00  0.00     0.091 A 
ATOM     88  F   UNL A   1      43.612  25.604  35.424  1.00  0.00    -0.205 F 
ATOM     89  C   UNL A   1      47.039  26.617  36.225  1.00  0.00     0.022 A 
BRANCH  87  90
ATOM     90  S   UNL A   1      45.725  24.509  37.385  1.00  0.00     0.127 S 
ATOM     91  O   UNL A   1      47.061  24.504  37.976  1.00  0.00    -0.237 OA
ATOM     92  O   UNL A   1      44.657  24.931  38.292  1.00  0.00    -0.237 OA
ATOM     93  O   UNL A   1      45.395  23.349  36.566  1.00  0.00    -0.744 OA
ENDBRANCH  87  90
ENDBRANCH  60  83
ENDBRANCH  34  35
ENDBRANCH  26  29
ENDBRANCH  24  25
ENDBRANCH  23  24
ENDBRANCH   1  23
TORSDOF 18
ENDMDL
