MODEL 1
REMARK VINA RESULT:      -7.4      0.000      0.000
REMARK SMILES CC(C)OC(=O)c1cccc(-c2ccc([C@H]3[NH2+][C@H](C(=O)NCCCCNC(=O)c4ccc(-c5c6nc(c(-c7cccc(S(=O)(=O)[O-])c7F)c7ccc([nH]7)c(-c7cccc(S(=O)(=O)[O-])c7F)c7nc(c(-c8cccc(S(=O)(=O)[O-])c8F)c8ccc5[nH]8)C=C7)C=C6)cc4)C(C)(C)S3)o2)c1
REMARK SMILES IDX 22 1 21 2 19 3 20 4 18 6 16 7 17 8 95 9 92 12 93 13 94 14
REMARK SMILES IDX 15 15 12 16 13 17 96 18 14 19 11 20 7 21 8 22 97 23 9 24
REMARK SMILES IDX 10 25 5 26 6 27 4 28 2 29 1 30 3 31 23 32 24 33 25 34 26 35
REMARK SMILES IDX 27 36 28 38 29 39 30 40 91 41 31 42 90 43 32 44 33 45 34 46
REMARK SMILES IDX 84 47 35 48 89 49 83 50 85 51 36 52 88 53 82 54 81 55 37 57
REMARK SMILES IDX 69 58 49 59 68 60 50 61 53 62 67 63 86 64 51 65 52 66 66 68
REMARK SMILES IDX 87 69 54 70 38 71 39 72 47 73 40 74 42 75 48 76 41 77 43 78
REMARK SMILES IDX 44 79 45 80 46 81 70 82 71 83 79 84 72 85 74 86 80 87 73 88
REMARK SMILES IDX 75 89 76 90 77 91 78 92 55 93 56 94 64 95 57 96 59 97 65 98
REMARK SMILES IDX 58 99 60 100 61 101 62 102 63 103
REMARK H PARENT 21 5 17 10 17 11 26 37 85 56 53 67
REMARK Flexibility Score: inf
ROOT
ATOM      1  C   UNL A   1      44.909  25.668  33.465  1.00  0.00     0.116 C 
ENDROOT
BRANCH   1   2
ATOM      2  N   UNL A   1      45.777  25.475  32.325  1.00  0.00    -0.351 N 
ATOM      3  C   UNL A   1      45.739  25.900  31.038  1.00  0.00     0.279 C 
ATOM      4  O   UNL A   1      46.806  25.769  30.416  1.00  0.00    -0.268 OA
ATOM      5  H   UNL A   1      46.562  24.915  32.525  1.00  0.00     0.163 HD
BRANCH   3   6
ATOM      6  C   UNL A   1      44.494  26.421  30.255  1.00  0.00     0.289 C 
ATOM      7  C   UNL A   1      45.233  28.273  28.914  1.00  0.00     0.311 C 
ATOM      8  N   UNL A   1      44.577  27.908  30.173  1.00  0.00    -0.317 N 
ATOM      9  S   UNL A   1      44.875  26.955  27.692  1.00  0.00    -0.078 SA
ATOM     10  H   UNL A   1      43.639  28.306  30.201  1.00  0.00     0.348 HD
ATOM     11  H   UNL A   1      45.114  28.270  30.962  1.00  0.00     0.348 HD
ATOM     12  C   UNL A   1      44.012  25.878  28.896  1.00  0.00     0.078 C 
ATOM     13  C   UNL A   1      42.509  26.169  28.668  1.00  0.00     0.030 C 
ATOM     14  C   UNL A   1      44.207  24.372  28.689  1.00  0.00     0.030 C 
BRANCH   7  15
ATOM     15  C   UNL A   1      44.721  29.594  28.422  1.00  0.00     0.172 A 
ATOM     16  C   UNL A   1      44.912  31.558  27.444  1.00  0.00     0.134 A 
ATOM     17  C   UNL A   1      43.620  31.481  27.922  1.00  0.00     0.051 A 
ATOM     18  O   UNL A   1      45.589  30.407  27.736  1.00  0.00    -0.454 OA
ATOM     19  C   UNL A   1      43.494  30.223  28.541  1.00  0.00     0.054 A 
BRANCH  16  20
ATOM     20  C   UNL A   1      45.615  32.602  26.713  1.00  0.00     0.018 A 
ATOM     21  C   UNL A   1      47.722  33.691  26.159  1.00  0.00     0.060 A 
ATOM     22  C   UNL A   1      47.027  34.771  25.610  1.00  0.00     0.016 A 
ATOM     23  C   UNL A   1      47.019  32.611  26.706  1.00  0.00     0.027 A 
ATOM     24  C   UNL A   1      45.631  34.749  25.571  1.00  0.00     0.002 A 
ATOM     25  C   UNL A   1      44.929  33.667  26.115  1.00  0.00     0.012 A 
BRANCH  21  26
ATOM     26  C   UNL A   1      49.200  33.748  26.232  1.00  0.00     0.338 C 
ATOM     27  O   UNL A   1      49.918  33.736  25.248  1.00  0.00    -0.246 OA
BRANCH  26  28
ATOM     28  O   UNL A   1      49.583  33.797  27.530  1.00  0.00    -0.459 OA
BRANCH  28  29
ATOM     29  C   UNL A   1      49.619  35.063  28.225  1.00  0.00     0.170 C 
ATOM     30  C   UNL A   1      49.589  34.928  29.744  1.00  0.00     0.052 C 
ATOM     31  C   UNL A   1      50.773  35.925  27.726  1.00  0.00     0.052 C 
ENDBRANCH  28  29
ENDBRANCH  26  28
ENDBRANCH  21  26
ENDBRANCH  16  20
ENDBRANCH   7  15
ENDBRANCH   3   6
ENDBRANCH   1   2
BRANCH   1  32
ATOM     32  C   UNL A   1      45.611  25.491  34.804  1.00  0.00     0.023 C 
BRANCH  32  33
ATOM     33  C   UNL A   1      44.931  24.515  35.760  1.00  0.00     0.023 C 
BRANCH  33  34
ATOM     34  C   UNL A   1      44.355  25.127  37.035  1.00  0.00     0.116 C 
BRANCH  34  35
ATOM     35  N   UNL A   1      43.014  24.662  37.369  1.00  0.00    -0.352 N 
ATOM     36  C   UNL A   1      41.813  25.220  36.997  1.00  0.00     0.251 C 
ATOM     37  H   UNL A   1      42.962  23.853  37.929  1.00  0.00     0.163 HD
ATOM     38  O   UNL A   1      40.753  24.757  37.405  1.00  0.00    -0.269 OA
BRANCH  36  39
ATOM     39  C   UNL A   1      41.826  26.413  36.128  1.00  0.00     0.039 A 
ATOM     40  C   UNL A   1      42.111  27.659  36.690  1.00  0.00     0.014 A 
ATOM     41  C   UNL A   1      41.627  26.283  34.751  1.00  0.00     0.014 A 
ATOM     42  C   UNL A   1      42.255  28.771  35.858  1.00  0.00     0.010 A 
ATOM     43  C   UNL A   1      41.849  27.374  33.920  1.00  0.00     0.010 A 
ATOM     44  C   UNL A   1      42.151  28.631  34.465  1.00  0.00    -0.014 A 
BRANCH  44  45
ATOM     45  C   UNL A   1      42.325  29.791  33.556  1.00  0.00     0.031 A 
ATOM     46  C   UNL A   1      41.112  30.481  32.993  1.00  0.00     0.074 A 
ATOM     47  C   UNL A   1      43.561  30.167  33.171  1.00  0.00     0.049 A 
ATOM     48  N   UNL A   1      41.047  31.472  32.142  1.00  0.00    -0.248 NA
ATOM     49  C   UNL A   1      39.797  29.965  33.411  1.00  0.00     0.031 C 
ATOM     50  C   UNL A   1      44.810  29.517  33.575  1.00  0.00     0.029 A 
ATOM     51  N   UNL A   1      43.967  31.174  32.332  1.00  0.00    -0.354 N 
ATOM     52  C   UNL A   1      39.695  31.666  31.890  1.00  0.00     0.074 A 
ATOM     53  C   UNL A   1      38.974  30.664  32.644  1.00  0.00     0.031 C 
ATOM     54  C   UNL A   1      45.842  30.148  32.991  1.00  0.00     0.029 A 
ATOM     55  C   UNL A   1      45.331  31.236  32.161  1.00  0.00     0.049 A 
ATOM     56  H   UNL A   1      43.342  31.795  31.895  1.00  0.00     0.167 HD
ATOM     57  C   UNL A   1      39.099  32.618  31.134  1.00  0.00     0.034 A 
ATOM     58  C   UNL A   1      46.080  32.082  31.428  1.00  0.00     0.034 A 
ATOM     59  C   UNL A   1      39.816  33.656  30.446  1.00  0.00     0.049 A 
ATOM     60  C   UNL A   1      45.397  33.191  30.673  1.00  0.00     0.074 A 
ATOM     61  C   UNL A   1      39.308  34.722  29.727  1.00  0.00     0.029 A 
ATOM     62  N   UNL A   1      41.197  33.763  30.404  1.00  0.00    -0.354 N 
ATOM     63  N   UNL A   1      44.116  33.458  30.578  1.00  0.00    -0.248 NA
ATOM     64  C   UNL A   1      46.261  34.144  29.962  1.00  0.00     0.031 C 
ATOM     65  C   UNL A   1      40.386  35.477  29.249  1.00  0.00     0.029 A 
ATOM     66  C   UNL A   1      41.562  34.885  29.681  1.00  0.00     0.049 A 
ATOM     67  H   UNL A   1      41.826  33.134  30.827  1.00  0.00     0.167 HD
ATOM     68  C   UNL A   1      44.024  34.631  29.839  1.00  0.00     0.074 A 
ATOM     69  C   UNL A   1      45.380  35.033  29.524  1.00  0.00     0.031 C 
ATOM     70  C   UNL A   1      42.918  35.308  29.444  1.00  0.00     0.034 A 
BRANCH  57  71
ATOM     71  C   UNL A   1      37.594  32.622  31.078  1.00  0.00     0.023 A 
ATOM     72  C   UNL A   1      36.943  32.011  29.986  1.00  0.00     0.012 A 
ATOM     73  C   UNL A   1      36.825  33.192  32.110  1.00  0.00     0.148 A 
ATOM     74  C   UNL A   1      35.551  32.003  29.902  1.00  0.00     0.002 A 
ATOM     75  C   UNL A   1      35.437  33.141  32.041  1.00  0.00     0.091 A 
ATOM     76  F   UNL A   1      37.461  33.790  33.128  1.00  0.00    -0.205 F 
ATOM     77  C   UNL A   1      34.800  32.558  30.933  1.00  0.00     0.022 A 
BRANCH  75  78
ATOM     78  S   UNL A   1      34.381  33.760  33.355  1.00  0.00     0.127 S 
ATOM     79  O   UNL A   1      35.176  33.453  34.543  1.00  0.00    -0.237 OA
ATOM     80  O   UNL A   1      34.289  35.184  33.034  1.00  0.00    -0.237 OA
ATOM     81  O   UNL A   1      33.126  33.031  33.234  1.00  0.00    -0.744 OA
ENDBRANCH  75  78
ENDBRANCH  57  71
BRANCH  58  82
ATOM     82  C   UNL A   1      47.568  31.982  31.461  1.00  0.00     0.023 A 
ATOM     83  C   UNL A   1      48.274  32.632  32.492  1.00  0.00     0.012 A 
ATOM     84  C   UNL A   1      48.281  31.232  30.507  1.00  0.00     0.148 A 
ATOM     85  C   UNL A   1      49.666  32.566  32.554  1.00  0.00     0.002 A 
ATOM     86  C   UNL A   1      49.666  31.129  30.604  1.00  0.00     0.091 A 
ATOM     87  F   UNL A   1      47.594  30.630  29.527  1.00  0.00    -0.205 F 
ATOM     88  C   UNL A   1      50.361  31.809  31.616  1.00  0.00     0.022 A 
BRANCH  86  89
ATOM     89  S   UNL A   1      50.628  30.074  29.514  1.00  0.00     0.127 S 
ATOM     90  O   UNL A   1      50.153  28.744  29.886  1.00  0.00    -0.237 OA
ATOM     91  O   UNL A   1      50.202  30.532  28.191  1.00  0.00    -0.237 OA
ATOM     92  O   UNL A   1      52.022  30.363  29.824  1.00  0.00    -0.744 OA
ENDBRANCH  86  89
ENDBRANCH  58  82
BRANCH  70  93
ATOM     93  C   UNL A   1      43.116  36.584  28.670  1.00  0.00     0.023 A 
ATOM     94  C   UNL A   1      42.920  36.594  27.276  1.00  0.00     0.012 A 
ATOM     95  C   UNL A   1      43.410  37.789  29.339  1.00  0.00     0.148 A 
ATOM     96  C   UNL A   1      43.040  37.781  26.554  1.00  0.00     0.002 A 
ATOM     97  C   UNL A   1      43.482  38.975  28.619  1.00  0.00     0.091 A 
ATOM     98  F   UNL A   1      43.614  37.754  30.664  1.00  0.00    -0.205 F 
ATOM     99  C   UNL A   1      43.308  38.972  27.226  1.00  0.00     0.022 A 
BRANCH  97 100
ATOM    100  S   UNL A   1      43.727  40.564  29.423  1.00  0.00     0.127 S 
ATOM    101  O   UNL A   1      43.868  41.460  28.278  1.00  0.00    -0.237 OA
ATOM    102  O   UNL A   1      42.483  40.729  30.177  1.00  0.00    -0.237 OA
ATOM    103  O   UNL A   1      44.913  40.407  30.254  1.00  0.00    -0.744 OA
ENDBRANCH  97 100
ENDBRANCH  70  93
ENDBRANCH  44  45
ENDBRANCH  36  39
ENDBRANCH  34  35
ENDBRANCH  33  34
ENDBRANCH  32  33
ENDBRANCH   1  32
TORSDOF 19
ENDMDL
MODEL 2
REMARK VINA RESULT:      -7.3      5.947     13.335
REMARK SMILES CC(C)OC(=O)c1cccc(-c2ccc([C@H]3[NH2+][C@H](C(=O)NCCCCNC(=O)c4ccc(-c5c6nc(c(-c7cccc(S(=O)(=O)[O-])c7F)c7ccc([nH]7)c(-c7cccc(S(=O)(=O)[O-])c7F)c7nc(c(-c8cccc(S(=O)(=O)[O-])c8F)c8ccc5[nH]8)C=C7)C=C6)cc4)C(C)(C)S3)o2)c1
REMARK SMILES IDX 22 1 21 2 19 3 20 4 18 6 16 7 17 8 95 9 92 12 93 13 94 14
REMARK SMILES IDX 15 15 12 16 13 17 96 18 14 19 11 20 7 21 8 22 97 23 9 24
REMARK SMILES IDX 10 25 5 26 6 27 4 28 2 29 1 30 3 31 23 32 24 33 25 34 26 35
REMARK SMILES IDX 27 36 28 38 29 39 30 40 91 41 31 42 90 43 32 44 33 45 34 46
REMARK SMILES IDX 84 47 35 48 89 49 83 50 85 51 36 52 88 53 82 54 81 55 37 57
REMARK SMILES IDX 69 58 49 59 68 60 50 61 53 62 67 63 86 64 51 65 52 66 66 68
REMARK SMILES IDX 87 69 54 70 38 71 39 72 47 73 40 74 42 75 48 76 41 77 43 78
REMARK SMILES IDX 44 79 45 80 46 81 70 82 71 83 79 84 72 85 74 86 80 87 73 88
REMARK SMILES IDX 75 89 76 90 77 91 78 92 55 93 56 94 64 95 57 96 59 97 65 98
REMARK SMILES IDX 58 99 60 100 61 101 62 102 63 103
REMARK H PARENT 21 5 17 10 17 11 26 37 85 56 53 67
REMARK Flexibility Score: inf
ROOT
ATOM      1  C   UNL A   1      46.035  25.239  39.860  1.00  0.00     0.116 C 
ENDROOT
BRANCH   1   2
ATOM      2  N   UNL A   1      45.717  24.413  38.717  1.00  0.00    -0.351 N 
ATOM      3  C   UNL A   1      46.102  23.174  38.322  1.00  0.00     0.279 C 
ATOM      4  O   UNL A   1      45.404  22.675  37.424  1.00  0.00    -0.268 OA
ATOM      5  H   UNL A   1      45.089  24.842  38.091  1.00  0.00     0.163 HD
BRANCH   3   6
ATOM      6  C   UNL A   1      47.360  22.383  38.796  1.00  0.00     0.289 C 
ATOM      7  C   UNL A   1      46.601  20.220  39.515  1.00  0.00     0.311 C 
ATOM      8  N   UNL A   1      46.981  21.558  39.979  1.00  0.00    -0.317 N 
ATOM      9  S   UNL A   1      47.532  19.874  37.975  1.00  0.00    -0.078 SA
ATOM     10  H   UNL A   1      47.773  21.489  40.617  1.00  0.00     0.348 HD
ATOM     11  H   UNL A   1      46.198  21.992  40.468  1.00  0.00     0.348 HD
ATOM     12  C   UNL A   1      48.275  21.546  37.882  1.00  0.00     0.078 C 
ATOM     13  C   UNL A   1      49.687  21.376  38.492  1.00  0.00     0.030 C 
ATOM     14  C   UNL A   1      48.470  22.102  36.466  1.00  0.00     0.030 C 
BRANCH   7  15
ATOM     15  C   UNL A   1      46.923  19.195  40.561  1.00  0.00     0.172 A 
ATOM     16  C   UNL A   1      46.447  17.526  41.918  1.00  0.00     0.134 A 
ATOM     17  C   UNL A   1      47.754  17.882  42.175  1.00  0.00     0.051 A 
ATOM     18  O   UNL A   1      45.934  18.315  40.927  1.00  0.00    -0.454 OA
ATOM     19  C   UNL A   1      48.062  18.943  41.304  1.00  0.00     0.054 A 
BRANCH  16  20
ATOM     20  C   UNL A   1      45.591  16.498  42.491  1.00  0.00     0.018 A 
ATOM     21  C   UNL A   1      43.448  15.340  42.486  1.00  0.00     0.060 A 
ATOM     22  C   UNL A   1      43.743  14.774  43.728  1.00  0.00     0.016 A 
ATOM     23  C   UNL A   1      44.368  16.197  41.870  1.00  0.00     0.027 A 
ATOM     24  C   UNL A   1      44.976  15.031  44.331  1.00  0.00     0.002 A 
ATOM     25  C   UNL A   1      45.897  15.885  43.713  1.00  0.00     0.012 A 
BRANCH  21  26
ATOM     26  C   UNL A   1      42.119  15.092  41.880  1.00  0.00     0.338 C 
ATOM     27  O   UNL A   1      41.711  15.688  40.899  1.00  0.00    -0.246 OA
BRANCH  26  28
ATOM     28  O   UNL A   1      41.472  14.141  42.594  1.00  0.00    -0.459 OA
BRANCH  28  29
ATOM     29  C   UNL A   1      41.241  12.837  42.017  1.00  0.00     0.170 C 
ATOM     30  C   UNL A   1      41.556  12.764  40.527  1.00  0.00     0.052 C 
ATOM     31  C   UNL A   1      41.938  11.751  42.828  1.00  0.00     0.052 C 
ENDBRANCH  28  29
ENDBRANCH  26  28
ENDBRANCH  21  26
ENDBRANCH  16  20
ENDBRANCH   7  15
ENDBRANCH   3   6
ENDBRANCH   1   2
BRANCH   1  32
ATOM     32  C   UNL A   1      47.116  26.275  39.583  1.00  0.00     0.023 C 
BRANCH  32  33
ATOM     33  C   UNL A   1      46.594  27.658  39.201  1.00  0.00     0.023 C 
BRANCH  33  34
ATOM     34  C   UNL A   1      47.370  28.379  38.101  1.00  0.00     0.116 C 
BRANCH  34  35
ATOM     35  N   UNL A   1      48.371  27.555  37.434  1.00  0.00    -0.352 N 
ATOM     36  C   UNL A   1      48.326  27.048  36.156  1.00  0.00     0.251 C 
ATOM     37  H   UNL A   1      49.173  27.335  37.961  1.00  0.00     0.163 HD
ATOM     38  O   UNL A   1      49.217  26.313  35.742  1.00  0.00    -0.269 OA
BRANCH  36  39
ATOM     39  C   UNL A   1      47.165  27.373  35.305  1.00  0.00     0.039 A 
ATOM     40  C   UNL A   1      46.019  26.581  35.389  1.00  0.00     0.014 A 
ATOM     41  C   UNL A   1      47.190  28.502  34.481  1.00  0.00     0.014 A 
ATOM     42  C   UNL A   1      44.872  26.956  34.688  1.00  0.00     0.010 A 
ATOM     43  C   UNL A   1      46.025  28.916  33.850  1.00  0.00     0.010 A 
ATOM     44  C   UNL A   1      44.858  28.141  33.934  1.00  0.00    -0.014 A 
BRANCH  44  45
ATOM     45  C   UNL A   1      43.645  28.576  33.200  1.00  0.00     0.031 A 
ATOM     46  C   UNL A   1      43.463  28.175  31.760  1.00  0.00     0.074 A 
ATOM     47  C   UNL A   1      42.755  29.398  33.793  1.00  0.00     0.049 A 
ATOM     48  N   UNL A   1      42.508  28.497  30.928  1.00  0.00    -0.248 NA
ATOM     49  C   UNL A   1      44.515  27.333  31.166  1.00  0.00     0.031 C 
ATOM     50  C   UNL A   1      42.869  29.930  35.153  1.00  0.00     0.029 A 
ATOM     51  N   UNL A   1      41.591  29.947  33.318  1.00  0.00    -0.354 N 
ATOM     52  C   UNL A   1      42.865  27.937  29.708  1.00  0.00     0.074 A 
ATOM     53  C   UNL A   1      44.145  27.292  29.896  1.00  0.00     0.031 C 
ATOM     54  C   UNL A   1      41.813  30.722  35.404  1.00  0.00     0.029 A 
ATOM     55  C   UNL A   1      40.956  30.766  34.223  1.00  0.00     0.049 A 
ATOM     56  H   UNL A   1      41.243  29.771  32.415  1.00  0.00     0.167 HD
ATOM     57  C   UNL A   1      42.172  27.923  28.545  1.00  0.00     0.034 A 
ATOM     58  C   UNL A   1      39.807  31.460  34.113  1.00  0.00     0.034 A 
ATOM     59  C   UNL A   1      40.867  28.502  28.385  1.00  0.00     0.049 A 
ATOM     60  C   UNL A   1      39.008  31.349  32.841  1.00  0.00     0.074 A 
ATOM     61  C   UNL A   1      40.039  28.467  27.278  1.00  0.00     0.029 A 
ATOM     62  N   UNL A   1      40.196  29.213  29.367  1.00  0.00    -0.354 N 
ATOM     63  N   UNL A   1      39.285  30.678  31.749  1.00  0.00    -0.248 NA
ATOM     64  C   UNL A   1      37.717  32.050  32.801  1.00  0.00     0.031 C 
ATOM     65  C   UNL A   1      38.863  29.158  27.594  1.00  0.00     0.029 A 
ATOM     66  C   UNL A   1      38.957  29.612  28.899  1.00  0.00     0.049 A 
ATOM     67  H   UNL A   1      40.549  29.405  30.267  1.00  0.00     0.167 HD
ATOM     68  C   UNL A   1      38.187  30.837  30.913  1.00  0.00     0.074 A 
ATOM     69  C   UNL A   1      37.232  31.656  31.631  1.00  0.00     0.031 C 
ATOM     70  C   UNL A   1      37.990  30.362  29.658  1.00  0.00     0.034 A 
BRANCH  57  71
ATOM     71  C   UNL A   1      42.784  27.191  27.380  1.00  0.00     0.023 A 
ATOM     72  C   UNL A   1      43.616  27.893  26.483  1.00  0.00     0.012 A 
ATOM     73  C   UNL A   1      42.570  25.812  27.189  1.00  0.00     0.148 A 
ATOM     74  C   UNL A   1      44.192  27.246  25.391  1.00  0.00     0.002 A 
ATOM     75  C   UNL A   1      43.185  25.164  26.123  1.00  0.00     0.091 A 
ATOM     76  F   UNL A   1      41.758  25.166  28.036  1.00  0.00    -0.205 F 
ATOM     77  C   UNL A   1      43.985  25.881  25.218  1.00  0.00     0.022 A 
BRANCH  75  78
ATOM     78  S   UNL A   1      43.043  23.393  25.857  1.00  0.00     0.127 S 
ATOM     79  O   UNL A   1      43.447  23.271  24.458  1.00  0.00    -0.237 OA
ATOM     80  O   UNL A   1      44.006  22.857  26.819  1.00  0.00    -0.237 OA
ATOM     81  O   UNL A   1      41.654  23.058  26.141  1.00  0.00    -0.744 OA
ENDBRANCH  75  78
ENDBRANCH  57  71
BRANCH  58  82
ATOM     82  C   UNL A   1      39.287  32.233  35.278  1.00  0.00     0.023 A 
ATOM     83  C   UNL A   1      39.438  33.633  35.293  1.00  0.00     0.012 A 
ATOM     84  C   UNL A   1      38.625  31.602  36.348  1.00  0.00     0.148 A 
ATOM     85  C   UNL A   1      38.970  34.389  36.368  1.00  0.00     0.002 A 
ATOM     86  C   UNL A   1      38.116  32.367  37.393  1.00  0.00     0.091 A 
ATOM     87  F   UNL A   1      38.500  30.268  36.322  1.00  0.00    -0.205 F 
ATOM     88  C   UNL A   1      38.302  33.758  37.413  1.00  0.00     0.022 A 
BRANCH  86  89
ATOM     89  S   UNL A   1      37.133  31.652  38.717  1.00  0.00     0.127 S 
ATOM     90  O   UNL A   1      38.020  31.808  39.866  1.00  0.00    -0.237 OA
ATOM     91  O   UNL A   1      35.955  32.521  38.725  1.00  0.00    -0.237 OA
ATOM     92  O   UNL A   1      36.861  30.282  38.302  1.00  0.00    -0.744 OA
ENDBRANCH  86  89
ENDBRANCH  58  82
BRANCH  70  93
ATOM     93  C   UNL A   1      36.676  30.666  28.991  1.00  0.00     0.023 A 
ATOM     94  C   UNL A   1      35.828  29.610  28.605  1.00  0.00     0.012 A 
ATOM     95  C   UNL A   1      36.245  31.997  28.829  1.00  0.00     0.148 A 
ATOM     96  C   UNL A   1      34.581  29.876  28.040  1.00  0.00     0.002 A 
ATOM     97  C   UNL A   1      34.982  32.253  28.309  1.00  0.00     0.091 A 
ATOM     98  F   UNL A   1      37.077  32.988  29.184  1.00  0.00    -0.205 F 
ATOM     99  C   UNL A   1      34.153  31.195  27.905  1.00  0.00     0.022 A 
BRANCH  97 100
ATOM    100  S   UNL A   1      34.320  33.920  28.193  1.00  0.00     0.127 S 
ATOM    101  O   UNL A   1      34.550  34.428  29.544  1.00  0.00    -0.237 OA
ATOM    102  O   UNL A   1      35.167  34.523  27.163  1.00  0.00    -0.237 OA
ATOM    103  O   UNL A   1      32.925  33.765  27.805  1.00  0.00    -0.744 OA
ENDBRANCH  97 100
ENDBRANCH  70  93
ENDBRANCH  44  45
ENDBRANCH  36  39
ENDBRANCH  34  35
ENDBRANCH  33  34
ENDBRANCH  32  33
ENDBRANCH   1  32
TORSDOF 19
ENDMDL
MODEL 3
REMARK VINA RESULT:      -7.2      3.509      9.920
REMARK SMILES CC(C)OC(=O)c1cccc(-c2ccc([C@H]3[NH2+][C@H](C(=O)NCCCCNC(=O)c4ccc(-c5c6nc(c(-c7cccc(S(=O)(=O)[O-])c7F)c7ccc([nH]7)c(-c7cccc(S(=O)(=O)[O-])c7F)c7nc(c(-c8cccc(S(=O)(=O)[O-])c8F)c8ccc5[nH]8)C=C7)C=C6)cc4)C(C)(C)S3)o2)c1
REMARK SMILES IDX 22 1 21 2 19 3 20 4 18 6 16 7 17 8 95 9 92 12 93 13 94 14
REMARK SMILES IDX 15 15 12 16 13 17 96 18 14 19 11 20 7 21 8 22 97 23 9 24
REMARK SMILES IDX 10 25 5 26 6 27 4 28 2 29 1 30 3 31 23 32 24 33 25 34 26 35
REMARK SMILES IDX 27 36 28 38 29 39 30 40 91 41 31 42 90 43 32 44 33 45 34 46
REMARK SMILES IDX 84 47 35 48 89 49 83 50 85 51 36 52 88 53 82 54 81 55 37 57
REMARK SMILES IDX 69 58 49 59 68 60 50 61 53 62 67 63 86 64 51 65 52 66 66 68
REMARK SMILES IDX 87 69 54 70 38 71 39 72 47 73 40 74 42 75 48 76 41 77 43 78
REMARK SMILES IDX 44 79 45 80 46 81 70 82 71 83 79 84 72 85 74 86 80 87 73 88
REMARK SMILES IDX 75 89 76 90 77 91 78 92 55 93 56 94 64 95 57 96 59 97 65 98
REMARK SMILES IDX 58 99 60 100 61 101 62 102 63 103
REMARK H PARENT 21 5 17 10 17 11 26 37 85 56 53 67
REMARK Flexibility Score: inf
ROOT
ATOM      1  C   UNL A   1      45.016  23.752  24.984  1.00  0.00     0.116 C 
ENDROOT
BRANCH   1   2
ATOM      2  N   UNL A   1      44.012  24.753  24.700  1.00  0.00    -0.351 N 
ATOM      3  C   UNL A   1      43.060  25.362  25.450  1.00  0.00     0.279 C 
ATOM      4  O   UNL A   1      42.564  26.377  24.935  1.00  0.00    -0.268 OA
ATOM      5  H   UNL A   1      44.021  25.057  23.764  1.00  0.00     0.163 HD
BRANCH   3   6
ATOM      6  C   UNL A   1      42.469  24.865  26.805  1.00  0.00     0.289 C 
ATOM      7  C   UNL A   1      40.513  26.189  27.246  1.00  0.00     0.311 C 
ATOM      8  N   UNL A   1      41.940  26.044  27.550  1.00  0.00    -0.317 N 
ATOM      9  S   UNL A   1      39.846  24.525  26.873  1.00  0.00    -0.078 SA
ATOM     10  H   UNL A   1      42.066  25.902  28.551  1.00  0.00     0.348 HD
ATOM     11  H   UNL A   1      42.443  26.886  27.269  1.00  0.00     0.348 HD
ATOM     12  C   UNL A   1      41.477  23.696  26.963  1.00  0.00     0.078 C 
ATOM     13  C   UNL A   1      41.528  23.095  28.388  1.00  0.00     0.030 C 
ATOM     14  C   UNL A   1      41.679  22.532  25.986  1.00  0.00     0.030 C 
BRANCH   7  15
ATOM     15  C   UNL A   1      39.790  26.791  28.414  1.00  0.00     0.172 A 
ATOM     16  C   UNL A   1      39.002  28.462  29.615  1.00  0.00     0.134 A 
ATOM     17  C   UNL A   1      38.737  27.309  30.323  1.00  0.00     0.051 A 
ATOM     18  O   UNL A   1      39.636  28.156  28.443  1.00  0.00    -0.454 OA
ATOM     19  C   UNL A   1      39.233  26.240  29.554  1.00  0.00     0.054 A 
BRANCH  16  20
ATOM     20  C   UNL A   1      38.717  29.861  29.898  1.00  0.00     0.018 A 
ATOM     21  C   UNL A   1      37.064  31.603  30.304  1.00  0.00     0.060 A 
ATOM     22  C   UNL A   1      38.041  32.583  30.116  1.00  0.00     0.016 A 
ATOM     23  C   UNL A   1      37.402  30.248  30.196  1.00  0.00     0.027 A 
ATOM     24  C   UNL A   1      39.362  32.206  29.864  1.00  0.00     0.002 A 
ATOM     25  C   UNL A   1      39.699  30.851  29.761  1.00  0.00     0.012 A 
BRANCH  21  26
ATOM     26  C   UNL A   1      35.661  32.019  30.528  1.00  0.00     0.338 C 
ATOM     27  O   UNL A   1      34.914  32.362  29.629  1.00  0.00    -0.246 OA
BRANCH  26  28
ATOM     28  O   UNL A   1      35.384  31.967  31.853  1.00  0.00    -0.459 OA
BRANCH  28  29
ATOM     29  C   UNL A   1      35.354  33.183  32.633  1.00  0.00     0.170 C 
ATOM     30  C   UNL A   1      35.738  34.427  31.839  1.00  0.00     0.052 C 
ATOM     31  C   UNL A   1      34.024  33.327  33.364  1.00  0.00     0.052 C 
ENDBRANCH  28  29
ENDBRANCH  26  28
ENDBRANCH  21  26
ENDBRANCH  16  20
ENDBRANCH   7  15
ENDBRANCH   3   6
ENDBRANCH   1   2
BRANCH   1  32
ATOM     32  C   UNL A   1      46.443  24.269  24.867  1.00  0.00     0.023 C 
BRANCH  32  33
ATOM     33  C   UNL A   1      47.187  24.403  26.194  1.00  0.00     0.023 C 
BRANCH  33  34
ATOM     34  C   UNL A   1      48.512  25.160  26.140  1.00  0.00     0.116 C 
BRANCH  34  35
ATOM     35  N   UNL A   1      48.682  25.987  24.952  1.00  0.00    -0.352 N 
ATOM     36  C   UNL A   1      48.188  27.252  24.730  1.00  0.00     0.251 C 
ATOM     37  H   UNL A   1      49.212  25.593  24.221  1.00  0.00     0.163 HD
ATOM     38  O   UNL A   1      48.357  27.810  23.651  1.00  0.00    -0.269 OA
BRANCH  36  39
ATOM     39  C   UNL A   1      47.416  27.909  25.802  1.00  0.00     0.039 A 
ATOM     40  C   UNL A   1      46.024  27.795  25.803  1.00  0.00     0.014 A 
ATOM     41  C   UNL A   1      48.076  28.573  26.840  1.00  0.00     0.014 A 
ATOM     42  C   UNL A   1      45.295  28.300  26.882  1.00  0.00     0.010 A 
ATOM     43  C   UNL A   1      47.355  29.002  27.947  1.00  0.00     0.010 A 
ATOM     44  C   UNL A   1      45.958  28.883  27.974  1.00  0.00    -0.014 A 
BRANCH  44  45
ATOM     45  C   UNL A   1      45.209  29.404  29.144  1.00  0.00     0.031 A 
ATOM     46  C   UNL A   1      44.991  28.519  30.341  1.00  0.00     0.074 A 
ATOM     47  C   UNL A   1      44.654  30.632  29.097  1.00  0.00     0.049 A 
ATOM     48  N   UNL A   1      44.319  28.762  31.436  1.00  0.00    -0.248 NA
ATOM     49  C   UNL A   1      45.573  27.167  30.285  1.00  0.00     0.031 C 
ATOM     50  C   UNL A   1      44.716  31.548  27.955  1.00  0.00     0.029 A 
ATOM     51  N   UNL A   1      43.907  31.311  30.026  1.00  0.00    -0.354 N 
ATOM     52  C   UNL A   1      44.359  27.586  32.174  1.00  0.00     0.074 A 
ATOM     53  C   UNL A   1      45.084  26.615  31.385  1.00  0.00     0.031 C 
ATOM     54  C   UNL A   1      44.043  32.671  28.256  1.00  0.00     0.029 A 
ATOM     55  C   UNL A   1      43.491  32.552  29.602  1.00  0.00     0.049 A 
ATOM     56  H   UNL A   1      43.690  30.945  30.913  1.00  0.00     0.167 HD
ATOM     57  C   UNL A   1      43.874  27.344  33.414  1.00  0.00     0.034 A 
ATOM     58  C   UNL A   1      42.757  33.488  30.235  1.00  0.00     0.034 A 
ATOM     59  C   UNL A   1      43.219  28.335  34.223  1.00  0.00     0.049 A 
ATOM     60  C   UNL A   1      42.313  33.231  31.650  1.00  0.00     0.074 A 
ATOM     61  C   UNL A   1      42.769  28.222  35.526  1.00  0.00     0.029 A 
ATOM     62  N   UNL A   1      42.931  29.624  33.807  1.00  0.00    -0.354 N 
ATOM     63  N   UNL A   1      42.502  32.167  32.394  1.00  0.00    -0.248 NA
ATOM     64  C   UNL A   1      41.595  34.318  32.332  1.00  0.00     0.031 C 
ATOM     65  C   UNL A   1      42.209  29.450  35.899  1.00  0.00     0.029 A 
ATOM     66  C   UNL A   1      42.321  30.326  34.832  1.00  0.00     0.049 A 
ATOM     67  H   UNL A   1      43.132  29.989  32.914  1.00  0.00     0.167 HD
ATOM     68  C   UNL A   1      41.970  32.473  33.641  1.00  0.00     0.074 A 
ATOM     69  C   UNL A   1      41.464  33.828  33.557  1.00  0.00     0.031 C 
ATOM     70  C   UNL A   1      41.893  31.699  34.751  1.00  0.00     0.034 A 
BRANCH  57  71
ATOM     71  C   UNL A   1      44.106  25.975  33.997  1.00  0.00     0.023 A 
ATOM     72  C   UNL A   1      43.120  24.979  33.835  1.00  0.00     0.012 A 
ATOM     73  C   UNL A   1      45.301  25.659  34.670  1.00  0.00     0.148 A 
ATOM     74  C   UNL A   1      43.301  23.705  34.368  1.00  0.00     0.002 A 
ATOM     75  C   UNL A   1      45.494  24.372  35.160  1.00  0.00     0.091 A 
ATOM     76  F   UNL A   1      46.217  26.624  34.837  1.00  0.00    -0.205 F 
ATOM     77  C   UNL A   1      44.491  23.398  35.021  1.00  0.00     0.022 A 
BRANCH  75  78
ATOM     78  S   UNL A   1      47.024  23.857  35.949  1.00  0.00     0.127 S 
ATOM     79  O   UNL A   1      48.018  24.256  34.953  1.00  0.00    -0.237 OA
ATOM     80  O   UNL A   1      47.029  24.662  37.170  1.00  0.00    -0.237 OA
ATOM     81  O   UNL A   1      46.896  22.423  36.169  1.00  0.00    -0.744 OA
ENDBRANCH  75  78
ENDBRANCH  57  71
BRANCH  58  82
ATOM     82  C   UNL A   1      42.493  34.800  29.576  1.00  0.00     0.023 A 
ATOM     83  C   UNL A   1      41.325  34.955  28.804  1.00  0.00     0.012 A 
ATOM     84  C   UNL A   1      43.366  35.893  29.728  1.00  0.00     0.148 A 
ATOM     85  C   UNL A   1      41.047  36.166  28.168  1.00  0.00     0.002 A 
ATOM     86  C   UNL A   1      43.057  37.113  29.133  1.00  0.00     0.091 A 
ATOM     87  F   UNL A   1      44.478  35.724  30.456  1.00  0.00    -0.205 F 
ATOM     88  C   UNL A   1      41.907  37.245  28.339  1.00  0.00     0.022 A 
BRANCH  86  89
ATOM     89  S   UNL A   1      44.042  38.591  29.402  1.00  0.00     0.127 S 
ATOM     90  O   UNL A   1      43.893  38.793  30.841  1.00  0.00    -0.237 OA
ATOM     91  O   UNL A   1      45.372  38.152  28.976  1.00  0.00    -0.237 OA
ATOM     92  O   UNL A   1      43.450  39.613  28.550  1.00  0.00    -0.744 OA
ENDBRANCH  86  89
ENDBRANCH  58  82
BRANCH  70  93
ATOM     93  C   UNL A   1      41.287  32.306  35.989  1.00  0.00     0.023 A 
ATOM     94  C   UNL A   1      42.046  33.194  36.775  1.00  0.00     0.012 A 
ATOM     95  C   UNL A   1      39.940  32.061  36.319  1.00  0.00     0.148 A 
ATOM     96  C   UNL A   1      41.479  33.810  37.890  1.00  0.00     0.002 A 
ATOM     97  C   UNL A   1      39.369  32.715  37.405  1.00  0.00     0.091 A 
ATOM     98  F   UNL A   1      39.242  31.195  35.570  1.00  0.00    -0.205 F 
ATOM     99  C   UNL A   1      40.139  33.582  38.197  1.00  0.00     0.022 A 
BRANCH  97 100
ATOM    100  S   UNL A   1      37.626  32.549  37.807  1.00  0.00     0.127 S 
ATOM    101  O   UNL A   1      37.511  33.391  38.995  1.00  0.00    -0.237 OA
ATOM    102  O   UNL A   1      36.975  33.089  36.612  1.00  0.00    -0.237 OA
ATOM    103  O   UNL A   1      37.403  31.124  38.018  1.00  0.00    -0.744 OA
ENDBRANCH  97 100
ENDBRANCH  70  93
ENDBRANCH  44  45
ENDBRANCH  36  39
ENDBRANCH  34  35
ENDBRANCH  33  34
ENDBRANCH  32  33
ENDBRANCH   1  32
TORSDOF 19
ENDMDL
