MODEL 1
REMARK VINA RESULT:     -12.6      0.000      0.000
REMARK SMILES CC(C)Oc1ccc([C@@H]2CC(=O)Nc3c(C(=O)NCCCCNC(=O)c4ccc(-c5c6nc(c(-c7cccc(S(=O)(=O)[O-])c7F)c7ccc([nH]7)c(-c7cccc(S(=O)(=O)[O-])c7F)c7nc(c(-c8cccc(S(=O)(=O)[O-])c8F)c8ccc5[nH]8)C=C7)C=C6)cc4)nsc32)cc1
REMARK SMILES IDX 20 1 19 2 18 3 16 4 17 5 15 7 9 8 10 9 91 10 11 11 14 12
REMARK SMILES IDX 90 13 12 14 13 15 89 16 8 18 5 19 6 20 93 21 7 22 92 23 4 24
REMARK SMILES IDX 2 25 1 26 3 27 21 28 22 29 23 30 24 31 25 33 26 34 27 35
REMARK SMILES IDX 88 36 28 37 87 38 29 39 30 40 31 41 81 42 32 43 86 44 80 45
REMARK SMILES IDX 82 46 33 47 85 48 79 49 78 50 34 52 66 53 46 54 65 55 47 56
REMARK SMILES IDX 50 57 64 58 83 59 48 60 49 61 63 63 84 64 51 65 35 66 36 67
REMARK SMILES IDX 44 68 37 69 39 70 45 71 38 72 40 73 41 74 42 75 43 76 67 77
REMARK SMILES IDX 68 78 76 79 69 80 71 81 77 82 70 83 72 84 73 85 74 86 75 87
REMARK SMILES IDX 52 88 53 89 61 90 54 91 56 92 62 93 55 94 57 95 58 96 59 97
REMARK SMILES IDX 60 98
REMARK H PARENT 18 6 13 17 23 32 82 51 50 62
REMARK Flexibility Score: inf
ROOT
ATOM      1  C   UNL A   1      32.217  30.164  25.627  1.00  0.00     0.023 C 
ENDROOT
BRANCH   1   2
ATOM      2  C   UNL A   1      31.356  28.919  25.442  1.00  0.00     0.116 C 
BRANCH   2   3
ATOM      3  N   UNL A   1      30.864  28.653  24.104  1.00  0.00    -0.351 N 
ATOM      4  C   UNL A   1      31.073  27.551  23.281  1.00  0.00     0.273 C 
ATOM      5  O   UNL A   1      30.578  27.599  22.155  1.00  0.00    -0.267 OA
ATOM      6  H   UNL A   1      30.293  29.358  23.721  1.00  0.00     0.163 HD
BRANCH   4   7
ATOM      7  C   UNL A   1      31.936  26.427  23.717  1.00  0.00     0.165 A 
ATOM      8  C   UNL A   1      32.867  23.640  26.069  1.00  0.00     0.073 C 
ATOM      9  C   UNL A   1      31.609  23.637  26.959  1.00  0.00     0.114 C 
ATOM     10  C   UNL A   1      32.775  24.682  25.009  1.00  0.00     0.058 A 
ATOM     11  C   UNL A   1      30.374  24.348  26.427  1.00  0.00     0.225 C 
ATOM     12  C   UNL A   1      31.638  25.357  24.644  1.00  0.00     0.089 A 
ATOM     13  S   UNL A   1      34.060  25.216  24.045  1.00  0.00    -0.038 S 
ATOM     14  O   UNL A   1      29.334  24.382  27.086  1.00  0.00    -0.275 OA
ATOM     15  N   UNL A   1      30.442  25.033  25.248  1.00  0.00    -0.323 N 
ATOM     16  N   UNL A   1      33.207  26.405  23.276  1.00  0.00    -0.185 NA
ATOM     17  H   UNL A   1      29.603  25.305  24.810  1.00  0.00     0.170 HD
BRANCH   8  18
ATOM     18  C   UNL A   1      33.130  22.253  25.514  1.00  0.00    -0.039 A 
ATOM     19  C   UNL A   1      33.610  19.688  24.499  1.00  0.00     0.119 A 
ATOM     20  C   UNL A   1      32.440  20.363  24.154  1.00  0.00     0.047 A 
ATOM     21  C   UNL A   1      34.571  20.317  25.283  1.00  0.00     0.047 A 
ATOM     22  C   UNL A   1      32.196  21.640  24.663  1.00  0.00     0.008 A 
ATOM     23  C   UNL A   1      34.323  21.580  25.810  1.00  0.00     0.008 A 
BRANCH  19  24
ATOM     24  O   UNL A   1      33.792  18.436  23.986  1.00  0.00    -0.491 OA
BRANCH  24  25
ATOM     25  C   UNL A   1      33.762  17.351  24.935  1.00  0.00     0.167 C 
ATOM     26  C   UNL A   1      32.352  16.843  25.226  1.00  0.00     0.052 C 
ATOM     27  C   UNL A   1      34.737  16.215  24.618  1.00  0.00     0.052 C 
ENDBRANCH  24  25
ENDBRANCH  19  24
ENDBRANCH   8  18
ENDBRANCH   4   7
ENDBRANCH   2   3
ENDBRANCH   1   2
BRANCH   1  28
ATOM     28  C   UNL A   1      31.661  31.281  26.511  1.00  0.00     0.023 C 
BRANCH  28  29
ATOM     29  C   UNL A   1      32.693  32.102  27.275  1.00  0.00     0.116 C 
BRANCH  29  30
ATOM     30  N   UNL A   1      32.315  33.497  27.494  1.00  0.00    -0.352 N 
ATOM     31  C   UNL A   1      32.932  34.385  28.358  1.00  0.00     0.251 C 
ATOM     32  H   UNL A   1      31.549  33.837  26.977  1.00  0.00     0.163 HD
ATOM     33  O   UNL A   1      32.378  35.421  28.715  1.00  0.00    -0.269 OA
BRANCH  31  34
ATOM     34  C   UNL A   1      34.277  34.041  28.856  1.00  0.00     0.039 A 
ATOM     35  C   UNL A   1      34.446  33.377  30.075  1.00  0.00     0.014 A 
ATOM     36  C   UNL A   1      35.363  34.303  28.023  1.00  0.00     0.014 A 
ATOM     37  C   UNL A   1      35.706  32.880  30.401  1.00  0.00     0.010 A 
ATOM     38  C   UNL A   1      36.580  33.719  28.296  1.00  0.00     0.010 A 
ATOM     39  C   UNL A   1      36.766  33.023  29.491  1.00  0.00    -0.014 A 
BRANCH  39  40
ATOM     40  C   UNL A   1      38.027  32.309  29.714  1.00  0.00     0.031 A 
ATOM     41  C   UNL A   1      38.071  30.908  29.197  1.00  0.00     0.074 A 
ATOM     42  C   UNL A   1      39.159  32.927  30.115  1.00  0.00     0.049 A 
ATOM     43  N   UNL A   1      38.258  29.817  29.867  1.00  0.00    -0.248 NA
ATOM     44  C   UNL A   1      37.771  30.684  27.774  1.00  0.00     0.031 C 
ATOM     45  C   UNL A   1      39.356  34.365  30.336  1.00  0.00     0.029 A 
ATOM     46  N   UNL A   1      40.421  32.424  30.244  1.00  0.00    -0.354 N 
ATOM     47  C   UNL A   1      38.328  28.794  28.918  1.00  0.00     0.074 A 
ATOM     48  C   UNL A   1      37.840  29.355  27.687  1.00  0.00     0.031 C 
ATOM     49  C   UNL A   1      40.675  34.647  30.294  1.00  0.00     0.029 A 
ATOM     50  C   UNL A   1      41.413  33.400  30.226  1.00  0.00     0.049 A 
ATOM     51  H   UNL A   1      40.612  31.463  30.341  1.00  0.00     0.167 HD
ATOM     52  C   UNL A   1      39.010  27.640  29.161  1.00  0.00     0.034 A 
ATOM     53  C   UNL A   1      42.747  33.211  30.114  1.00  0.00     0.034 A 
ATOM     54  C   UNL A   1      39.312  27.490  30.560  1.00  0.00     0.049 A 
ATOM     55  C   UNL A   1      43.031  31.816  30.509  1.00  0.00     0.074 A 
ATOM     56  C   UNL A   1      38.585  27.406  31.728  1.00  0.00     0.029 A 
ATOM     57  N   UNL A   1      40.606  27.759  30.933  1.00  0.00    -0.354 N 
ATOM     58  N   UNL A   1      42.869  31.363  31.721  1.00  0.00    -0.248 NA
ATOM     59  C   UNL A   1      43.152  30.805  29.473  1.00  0.00     0.031 C 
ATOM     60  C   UNL A   1      39.381  28.071  32.707  1.00  0.00     0.029 A 
ATOM     61  C   UNL A   1      40.568  28.478  32.095  1.00  0.00     0.049 A 
ATOM     62  H   UNL A   1      41.417  27.484  30.448  1.00  0.00     0.167 HD
ATOM     63  C   UNL A   1      42.406  30.068  31.541  1.00  0.00     0.074 A 
ATOM     64  C   UNL A   1      42.753  29.734  30.163  1.00  0.00     0.031 C 
ATOM     65  C   UNL A   1      41.526  29.513  32.427  1.00  0.00     0.034 A 
BRANCH  52  66
ATOM     66  C   UNL A   1      39.754  26.817  28.123  1.00  0.00     0.023 A 
ATOM     67  C   UNL A   1      39.562  25.414  28.150  1.00  0.00     0.012 A 
ATOM     68  C   UNL A   1      40.830  27.292  27.339  1.00  0.00     0.148 A 
ATOM     69  C   UNL A   1      40.432  24.534  27.494  1.00  0.00     0.002 A 
ATOM     70  C   UNL A   1      41.640  26.418  26.621  1.00  0.00     0.091 A 
ATOM     71  F   UNL A   1      41.173  28.582  27.381  1.00  0.00    -0.205 F 
ATOM     72  C   UNL A   1      41.470  25.037  26.724  1.00  0.00     0.022 A 
BRANCH  70  73
ATOM     73  S   UNL A   1      42.960  27.022  25.560  1.00  0.00     0.127 S 
ATOM     74  O   UNL A   1      43.875  27.605  26.536  1.00  0.00    -0.237 OA
ATOM     75  O   UNL A   1      43.429  25.787  24.929  1.00  0.00    -0.237 OA
ATOM     76  O   UNL A   1      42.318  27.952  24.639  1.00  0.00    -0.744 OA
ENDBRANCH  70  73
ENDBRANCH  52  66
BRANCH  53  77
ATOM     77  C   UNL A   1      43.777  34.084  29.513  1.00  0.00     0.023 A 
ATOM     78  C   UNL A   1      44.602  34.868  30.341  1.00  0.00     0.012 A 
ATOM     79  C   UNL A   1      44.126  33.953  28.150  1.00  0.00     0.148 A 
ATOM     80  C   UNL A   1      45.759  35.475  29.837  1.00  0.00     0.002 A 
ATOM     81  C   UNL A   1      45.271  34.566  27.652  1.00  0.00     0.091 A 
ATOM     82  F   UNL A   1      43.384  33.156  27.369  1.00  0.00    -0.205 F 
ATOM     83  C   UNL A   1      46.098  35.318  28.496  1.00  0.00     0.022 A 
BRANCH  81  84
ATOM     84  S   UNL A   1      45.776  34.395  25.935  1.00  0.00     0.127 S 
ATOM     85  O   UNL A   1      46.605  35.586  25.743  1.00  0.00    -0.237 OA
ATOM     86  O   UNL A   1      46.512  33.135  25.964  1.00  0.00    -0.237 OA
ATOM     87  O   UNL A   1      44.542  34.396  25.158  1.00  0.00    -0.744 OA
ENDBRANCH  81  84
ENDBRANCH  53  77
BRANCH  65  88
ATOM     88  C   UNL A   1      41.330  30.198  33.756  1.00  0.00     0.023 A 
ATOM     89  C   UNL A   1      42.232  30.041  34.828  1.00  0.00     0.012 A 
ATOM     90  C   UNL A   1      40.305  31.154  33.868  1.00  0.00     0.148 A 
ATOM     91  C   UNL A   1      42.099  30.797  35.995  1.00  0.00     0.002 A 
ATOM     92  C   UNL A   1      40.206  31.939  35.009  1.00  0.00     0.091 A 
ATOM     93  F   UNL A   1      39.456  31.297  32.838  1.00  0.00    -0.205 F 
ATOM     94  C   UNL A   1      41.094  31.757  36.080  1.00  0.00     0.022 A 
BRANCH  92  95
ATOM     95  S   UNL A   1      39.018  33.280  35.120  1.00  0.00     0.127 S 
ATOM     96  O   UNL A   1      39.348  34.080  33.942  1.00  0.00    -0.237 OA
ATOM     97  O   UNL A   1      37.737  32.576  35.041  1.00  0.00    -0.237 OA
ATOM     98  O   UNL A   1      39.262  33.921  36.406  1.00  0.00    -0.744 OA
ENDBRANCH  92  95
ENDBRANCH  65  88
ENDBRANCH  39  40
ENDBRANCH  31  34
ENDBRANCH  29  30
ENDBRANCH  28  29
ENDBRANCH   1  28
TORSDOF 17
ENDMDL
MODEL 2
REMARK VINA RESULT:     -12.5      4.316      9.775
REMARK SMILES CC(C)Oc1ccc([C@@H]2CC(=O)Nc3c(C(=O)NCCCCNC(=O)c4ccc(-c5c6nc(c(-c7cccc(S(=O)(=O)[O-])c7F)c7ccc([nH]7)c(-c7cccc(S(=O)(=O)[O-])c7F)c7nc(c(-c8cccc(S(=O)(=O)[O-])c8F)c8ccc5[nH]8)C=C7)C=C6)cc4)nsc32)cc1
REMARK SMILES IDX 20 1 19 2 18 3 16 4 17 5 15 7 9 8 10 9 91 10 11 11 14 12
REMARK SMILES IDX 90 13 12 14 13 15 89 16 8 18 5 19 6 20 93 21 7 22 92 23 4 24
REMARK SMILES IDX 2 25 1 26 3 27 21 28 22 29 23 30 24 31 25 33 26 34 27 35
REMARK SMILES IDX 88 36 28 37 87 38 29 39 30 40 31 41 81 42 32 43 86 44 80 45
REMARK SMILES IDX 82 46 33 47 85 48 79 49 78 50 34 52 66 53 46 54 65 55 47 56
REMARK SMILES IDX 50 57 64 58 83 59 48 60 49 61 63 63 84 64 51 65 35 66 36 67
REMARK SMILES IDX 44 68 37 69 39 70 45 71 38 72 40 73 41 74 42 75 43 76 67 77
REMARK SMILES IDX 68 78 76 79 69 80 71 81 77 82 70 83 72 84 73 85 74 86 75 87
REMARK SMILES IDX 52 88 53 89 61 90 54 91 56 92 62 93 55 94 57 95 58 96 59 97
REMARK SMILES IDX 60 98
REMARK H PARENT 18 6 13 17 23 32 82 51 50 62
REMARK Flexibility Score: inf
ROOT
ATOM      1  C   UNL A   1      36.580  21.443  24.808  1.00  0.00     0.023 C 
ENDROOT
BRANCH   1   2
ATOM      2  C   UNL A   1      35.555  21.542  25.932  1.00  0.00     0.116 C 
BRANCH   2   3
ATOM      3  N   UNL A   1      34.308  20.826  25.749  1.00  0.00    -0.351 N 
ATOM      4  C   UNL A   1      33.031  21.314  25.492  1.00  0.00     0.273 C 
ATOM      5  O   UNL A   1      32.123  20.485  25.433  1.00  0.00    -0.267 OA
ATOM      6  H   UNL A   1      34.375  19.846  25.816  1.00  0.00     0.163 HD
BRANCH   4   7
ATOM      7  C   UNL A   1      32.776  22.771  25.395  1.00  0.00     0.165 A 
ATOM      8  C   UNL A   1      32.873  26.072  23.589  1.00  0.00     0.073 C 
ATOM      9  C   UNL A   1      33.306  25.579  22.195  1.00  0.00     0.114 C 
ATOM     10  C   UNL A   1      32.749  24.939  24.548  1.00  0.00     0.058 A 
ATOM     11  C   UNL A   1      33.156  24.094  21.900  1.00  0.00     0.225 C 
ATOM     12  C   UNL A   1      32.715  23.608  24.216  1.00  0.00     0.089 A 
ATOM     13  S   UNL A   1      32.609  25.087  26.228  1.00  0.00    -0.038 S 
ATOM     14  O   UNL A   1      33.481  23.634  20.805  1.00  0.00    -0.275 OA
ATOM     15  N   UNL A   1      32.740  23.247  22.886  1.00  0.00    -0.323 N 
ATOM     16  N   UNL A   1      32.661  23.465  26.542  1.00  0.00    -0.185 NA
ATOM     17  H   UNL A   1      32.443  22.341  22.637  1.00  0.00     0.170 HD
BRANCH   8  18
ATOM     18  C   UNL A   1      31.608  26.904  23.490  1.00  0.00    -0.039 A 
ATOM     19  C   UNL A   1      29.275  28.441  23.319  1.00  0.00     0.119 A 
ATOM     20  C   UNL A   1      30.520  29.055  23.192  1.00  0.00     0.047 A 
ATOM     21  C   UNL A   1      29.189  27.060  23.453  1.00  0.00     0.047 A 
ATOM     22  C   UNL A   1      31.685  28.292  23.283  1.00  0.00     0.008 A 
ATOM     23  C   UNL A   1      30.347  26.298  23.565  1.00  0.00     0.008 A 
BRANCH  19  24
ATOM     24  O   UNL A   1      28.167  29.236  23.239  1.00  0.00    -0.491 OA
BRANCH  24  25
ATOM     25  C   UNL A   1      28.367  30.551  22.683  1.00  0.00     0.167 C 
ATOM     26  C   UNL A   1      28.062  30.628  21.189  1.00  0.00     0.052 C 
ATOM     27  C   UNL A   1      27.694  31.674  23.475  1.00  0.00     0.052 C 
ENDBRANCH  24  25
ENDBRANCH  19  24
ENDBRANCH   8  18
ENDBRANCH   4   7
ENDBRANCH   2   3
ENDBRANCH   1   2
BRANCH   1  28
ATOM     28  C   UNL A   1      37.563  20.272  24.851  1.00  0.00     0.023 C 
BRANCH  28  29
ATOM     29  C   UNL A   1      38.829  20.494  25.671  1.00  0.00     0.116 C 
BRANCH  29  30
ATOM     30  N   UNL A   1      39.726  19.341  25.724  1.00  0.00    -0.352 N 
ATOM     31  C   UNL A   1      41.089  19.377  25.960  1.00  0.00     0.251 C 
ATOM     32  H   UNL A   1      39.321  18.456  25.579  1.00  0.00     0.163 HD
ATOM     33  O   UNL A   1      41.812  18.424  25.683  1.00  0.00    -0.269 OA
BRANCH  31  34
ATOM     34  C   UNL A   1      41.657  20.608  26.541  1.00  0.00     0.039 A 
ATOM     35  C   UNL A   1      41.996  21.697  25.732  1.00  0.00     0.014 A 
ATOM     36  C   UNL A   1      41.743  20.689  27.929  1.00  0.00     0.014 A 
ATOM     37  C   UNL A   1      42.320  22.909  26.337  1.00  0.00     0.010 A 
ATOM     38  C   UNL A   1      41.958  21.914  28.523  1.00  0.00     0.010 A 
ATOM     39  C   UNL A   1      42.266  23.025  27.735  1.00  0.00    -0.014 A 
BRANCH  39  40
ATOM     40  C   UNL A   1      42.376  24.341  28.369  1.00  0.00     0.031 A 
ATOM     41  C   UNL A   1      41.207  25.250  28.168  1.00  0.00     0.074 A 
ATOM     42  C   UNL A   1      43.326  24.639  29.282  1.00  0.00     0.049 A 
ATOM     43  N   UNL A   1      41.190  26.410  27.596  1.00  0.00    -0.248 NA
ATOM     44  C   UNL A   1      39.876  24.764  28.563  1.00  0.00     0.031 C 
ATOM     45  C   UNL A   1      44.342  23.735  29.835  1.00  0.00     0.029 A 
ATOM     46  N   UNL A   1      43.478  25.765  30.038  1.00  0.00    -0.354 N 
ATOM     47  C   UNL A   1      39.892  26.899  27.764  1.00  0.00     0.074 A 
ATOM     48  C   UNL A   1      39.095  25.780  28.191  1.00  0.00     0.031 C 
ATOM     49  C   UNL A   1      44.803  24.239  30.999  1.00  0.00     0.029 A 
ATOM     50  C   UNL A   1      44.255  25.569  31.176  1.00  0.00     0.049 A 
ATOM     51  H   UNL A   1      43.077  26.632  29.801  1.00  0.00     0.167 HD
ATOM     52  C   UNL A   1      39.626  28.235  27.775  1.00  0.00     0.034 A 
ATOM     53  C   UNL A   1      44.405  26.415  32.221  1.00  0.00     0.034 A 
ATOM     54  C   UNL A   1      40.735  28.996  27.262  1.00  0.00     0.049 A 
ATOM     55  C   UNL A   1      44.026  27.765  31.756  1.00  0.00     0.074 A 
ATOM     56  C   UNL A   1      41.430  29.057  26.073  1.00  0.00     0.029 A 
ATOM     57  N   UNL A   1      41.512  29.638  28.194  1.00  0.00    -0.354 N 
ATOM     58  N   UNL A   1      44.700  28.434  30.862  1.00  0.00    -0.248 NA
ATOM     59  C   UNL A   1      42.679  28.242  32.012  1.00  0.00     0.031 C 
ATOM     60  C   UNL A   1      42.779  29.332  26.449  1.00  0.00     0.029 A 
ATOM     61  C   UNL A   1      42.821  29.471  27.837  1.00  0.00     0.049 A 
ATOM     62  H   UNL A   1      41.184  30.131  28.980  1.00  0.00     0.167 HD
ATOM     63  C   UNL A   1      43.727  29.097  30.129  1.00  0.00     0.074 A 
ATOM     64  C   UNL A   1      42.537  29.069  30.974  1.00  0.00     0.031 C 
ATOM     65  C   UNL A   1      43.899  29.333  28.794  1.00  0.00     0.034 A 
BRANCH  52  66
ATOM     66  C   UNL A   1      38.541  28.915  28.592  1.00  0.00     0.023 A 
ATOM     67  C   UNL A   1      37.691  29.822  27.912  1.00  0.00     0.012 A 
ATOM     68  C   UNL A   1      38.496  28.945  30.004  1.00  0.00     0.148 A 
ATOM     69  C   UNL A   1      36.899  30.750  28.597  1.00  0.00     0.002 A 
ATOM     70  C   UNL A   1      37.643  29.813  30.680  1.00  0.00     0.091 A 
ATOM     71  F   UNL A   1      39.371  28.234  30.719  1.00  0.00    -0.205 F 
ATOM     72  C   UNL A   1      36.871  30.743  29.984  1.00  0.00     0.022 A 
BRANCH  70  73
ATOM     73  S   UNL A   1      37.524  29.800  32.474  1.00  0.00     0.127 S 
ATOM     74  O   UNL A   1      38.809  30.379  32.856  1.00  0.00    -0.237 OA
ATOM     75  O   UNL A   1      36.362  30.660  32.705  1.00  0.00    -0.237 OA
ATOM     76  O   UNL A   1      37.311  28.404  32.836  1.00  0.00    -0.744 OA
ENDBRANCH  70  73
ENDBRANCH  52  66
BRANCH  53  77
ATOM     77  C   UNL A   1      44.672  26.119  33.644  1.00  0.00     0.023 A 
ATOM     78  C   UNL A   1      43.598  25.913  34.532  1.00  0.00     0.012 A 
ATOM     79  C   UNL A   1      45.973  25.778  34.076  1.00  0.00     0.148 A 
ATOM     80  C   UNL A   1      43.809  25.354  35.798  1.00  0.00     0.002 A 
ATOM     81  C   UNL A   1      46.178  25.232  35.339  1.00  0.00     0.091 A 
ATOM     82  F   UNL A   1      46.992  25.908  33.216  1.00  0.00    -0.205 F 
ATOM     83  C   UNL A   1      45.096  25.005  36.199  1.00  0.00     0.022 A 
BRANCH  81  84
ATOM     84  S   UNL A   1      47.810  24.746  35.917  1.00  0.00     0.127 S 
ATOM     85  O   UNL A   1      47.531  24.320  37.290  1.00  0.00    -0.237 OA
ATOM     86  O   UNL A   1      48.145  23.665  34.996  1.00  0.00    -0.237 OA
ATOM     87  O   UNL A   1      48.635  25.945  35.822  1.00  0.00    -0.744 OA
ENDBRANCH  81  84
ENDBRANCH  53  77
BRANCH  65  88
ATOM     88  C   UNL A   1      45.282  29.161  28.217  1.00  0.00     0.023 A 
ATOM     89  C   UNL A   1      46.280  30.151  28.336  1.00  0.00     0.012 A 
ATOM     90  C   UNL A   1      45.633  27.906  27.690  1.00  0.00     0.148 A 
ATOM     91  C   UNL A   1      47.589  29.905  27.914  1.00  0.00     0.002 A 
ATOM     92  C   UNL A   1      46.946  27.648  27.319  1.00  0.00     0.091 A 
ATOM     93  F   UNL A   1      44.675  26.972  27.587  1.00  0.00    -0.205 F 
ATOM     94  C   UNL A   1      47.926  28.647  27.419  1.00  0.00     0.022 A 
BRANCH  92  95
ATOM     95  S   UNL A   1      47.466  26.010  26.801  1.00  0.00     0.127 S 
ATOM     96  O   UNL A   1      46.703  25.821  25.570  1.00  0.00    -0.237 OA
ATOM     97  O   UNL A   1      48.907  26.182  26.608  1.00  0.00    -0.237 OA
ATOM     98  O   UNL A   1      47.120  25.118  27.901  1.00  0.00    -0.744 OA
ENDBRANCH  92  95
ENDBRANCH  65  88
ENDBRANCH  39  40
ENDBRANCH  31  34
ENDBRANCH  29  30
ENDBRANCH  28  29
ENDBRANCH   1  28
TORSDOF 17
ENDMDL
MODEL 3
REMARK VINA RESULT:     -12.1      3.237      7.184
REMARK SMILES CC(C)Oc1ccc([C@@H]2CC(=O)Nc3c(C(=O)NCCCCNC(=O)c4ccc(-c5c6nc(c(-c7cccc(S(=O)(=O)[O-])c7F)c7ccc([nH]7)c(-c7cccc(S(=O)(=O)[O-])c7F)c7nc(c(-c8cccc(S(=O)(=O)[O-])c8F)c8ccc5[nH]8)C=C7)C=C6)cc4)nsc32)cc1
REMARK SMILES IDX 20 1 19 2 18 3 16 4 17 5 15 7 9 8 10 9 91 10 11 11 14 12
REMARK SMILES IDX 90 13 12 14 13 15 89 16 8 18 5 19 6 20 93 21 7 22 92 23 4 24
REMARK SMILES IDX 2 25 1 26 3 27 21 28 22 29 23 30 24 31 25 33 26 34 27 35
REMARK SMILES IDX 88 36 28 37 87 38 29 39 30 40 31 41 81 42 32 43 86 44 80 45
REMARK SMILES IDX 82 46 33 47 85 48 79 49 78 50 34 52 66 53 46 54 65 55 47 56
REMARK SMILES IDX 50 57 64 58 83 59 48 60 49 61 63 63 84 64 51 65 35 66 36 67
REMARK SMILES IDX 44 68 37 69 39 70 45 71 38 72 40 73 41 74 42 75 43 76 67 77
REMARK SMILES IDX 68 78 76 79 69 80 71 81 77 82 70 83 72 84 73 85 74 86 75 87
REMARK SMILES IDX 52 88 53 89 61 90 54 91 56 92 62 93 55 94 57 95 58 96 59 97
REMARK SMILES IDX 60 98
REMARK H PARENT 18 6 13 17 23 32 82 51 50 62
REMARK Flexibility Score: inf
ROOT
ATOM      1  C   UNL A   1      32.515  29.503  25.549  1.00  0.00     0.023 C 
ENDROOT
BRANCH   1   2
ATOM      2  C   UNL A   1      31.296  28.600  25.395  1.00  0.00     0.116 C 
BRANCH   2   3
ATOM      3  N   UNL A   1      30.911  28.240  24.044  1.00  0.00    -0.351 N 
ATOM      4  C   UNL A   1      31.287  27.144  23.273  1.00  0.00     0.273 C 
ATOM      5  O   UNL A   1      30.853  27.102  22.122  1.00  0.00    -0.267 OA
ATOM      6  H   UNL A   1      30.289  28.865  23.606  1.00  0.00     0.163 HD
BRANCH   4   7
ATOM      7  C   UNL A   1      32.242  26.137  23.794  1.00  0.00     0.165 A 
ATOM      8  C   UNL A   1      33.340  23.542  26.290  1.00  0.00     0.073 C 
ATOM      9  C   UNL A   1      32.041  23.424  27.110  1.00  0.00     0.114 C 
ATOM     10  C   UNL A   1      33.194  24.536  25.191  1.00  0.00     0.058 A 
ATOM     11  C   UNL A   1      30.768  23.976  26.488  1.00  0.00     0.225 C 
ATOM     12  C   UNL A   1      32.012  25.068  24.741  1.00  0.00     0.089 A 
ATOM     13  S   UNL A   1      34.465  25.183  24.278  1.00  0.00    -0.038 S 
ATOM     14  O   UNL A   1      29.694  23.912  27.089  1.00  0.00    -0.275 OA
ATOM     15  N   UNL A   1      30.826  24.629  25.291  1.00  0.00    -0.323 N 
ATOM     16  N   UNL A   1      33.531  26.245  23.423  1.00  0.00    -0.185 NA
ATOM     17  H   UNL A   1      29.989  24.792  24.800  1.00  0.00     0.170 HD
BRANCH   8  18
ATOM     18  C   UNL A   1      33.786  22.178  25.799  1.00  0.00    -0.039 A 
ATOM     19  C   UNL A   1      34.610  19.657  24.904  1.00  0.00     0.119 A 
ATOM     20  C   UNL A   1      33.252  19.925  25.067  1.00  0.00     0.047 A 
ATOM     21  C   UNL A   1      35.548  20.662  25.112  1.00  0.00     0.047 A 
ATOM     22  C   UNL A   1      32.839  21.180  25.518  1.00  0.00     0.008 A 
ATOM     23  C   UNL A   1      35.143  21.906  25.582  1.00  0.00     0.008 A 
BRANCH  19  24
ATOM     24  O   UNL A   1      34.961  18.409  24.475  1.00  0.00    -0.491 OA
BRANCH  24  25
ATOM     25  C   UNL A   1      33.876  17.487  24.245  1.00  0.00     0.167 C 
ATOM     26  C   UNL A   1      33.883  16.885  22.842  1.00  0.00     0.052 C 
ATOM     27  C   UNL A   1      33.715  16.425  25.335  1.00  0.00     0.052 C 
ENDBRANCH  24  25
ENDBRANCH  19  24
ENDBRANCH   8  18
ENDBRANCH   4   7
ENDBRANCH   2   3
ENDBRANCH   1   2
BRANCH   1  28
ATOM     28  C   UNL A   1      32.542  30.452  26.747  1.00  0.00     0.023 C 
BRANCH  28  29
ATOM     29  C   UNL A   1      33.921  30.770  27.315  1.00  0.00     0.116 C 
BRANCH  29  30
ATOM     30  N   UNL A   1      33.906  31.637  28.492  1.00  0.00    -0.352 N 
ATOM     31  C   UNL A   1      34.876  31.692  29.478  1.00  0.00     0.251 C 
ATOM     32  H   UNL A   1      33.133  32.238  28.592  1.00  0.00     0.163 HD
ATOM     33  O   UNL A   1      34.648  32.202  30.572  1.00  0.00    -0.269 OA
BRANCH  31  34
ATOM     34  C   UNL A   1      36.194  31.101  29.183  1.00  0.00     0.039 A 
ATOM     35  C   UNL A   1      37.321  31.909  28.999  1.00  0.00     0.014 A 
ATOM     36  C   UNL A   1      36.300  29.712  29.202  1.00  0.00     0.014 A 
ATOM     37  C   UNL A   1      38.576  31.308  28.941  1.00  0.00     0.010 A 
ATOM     38  C   UNL A   1      37.548  29.130  29.252  1.00  0.00     0.010 A 
ATOM     39  C   UNL A   1      38.691  29.918  29.103  1.00  0.00    -0.014 A 
BRANCH  39  40
ATOM     40  C   UNL A   1      40.010  29.303  29.276  1.00  0.00     0.031 A 
ATOM     41  C   UNL A   1      40.456  29.129  30.692  1.00  0.00     0.074 A 
ATOM     42  C   UNL A   1      40.674  28.696  28.269  1.00  0.00     0.049 A 
ATOM     43  N   UNL A   1      41.498  29.636  31.267  1.00  0.00    -0.248 NA
ATOM     44  C   UNL A   1      39.580  28.380  31.607  1.00  0.00     0.031 C 
ATOM     45  C   UNL A   1      40.206  28.489  26.893  1.00  0.00     0.029 A 
ATOM     46  N   UNL A   1      41.837  27.983  28.306  1.00  0.00    -0.354 N 
ATOM     47  C   UNL A   1      41.533  29.084  32.550  1.00  0.00     0.074 A 
ATOM     48  C   UNL A   1      40.245  28.478  32.760  1.00  0.00     0.031 C 
ATOM     49  C   UNL A   1      40.919  27.495  26.324  1.00  0.00     0.029 A 
ATOM     50  C   UNL A   1      41.997  27.126  27.220  1.00  0.00     0.049 A 
ATOM     51  H   UNL A   1      42.499  28.067  29.029  1.00  0.00     0.167 HD
ATOM     52  C   UNL A   1      42.699  28.955  33.242  1.00  0.00     0.034 A 
ATOM     53  C   UNL A   1      42.917  26.144  27.080  1.00  0.00     0.034 A 
ATOM     54  C   UNL A   1      43.750  29.745  32.654  1.00  0.00     0.049 A 
ATOM     55  C   UNL A   1      44.023  26.439  28.013  1.00  0.00     0.074 A 
ATOM     56  C   UNL A   1      43.955  31.082  32.388  1.00  0.00     0.029 A 
ATOM     57  N   UNL A   1      44.681  29.060  31.914  1.00  0.00    -0.354 N 
ATOM     58  N   UNL A   1      44.814  27.468  27.891  1.00  0.00    -0.248 NA
ATOM     59  C   UNL A   1      44.038  25.788  29.311  1.00  0.00     0.031 C 
ATOM     60  C   UNL A   1      44.693  31.106  31.167  1.00  0.00     0.029 A 
ATOM     61  C   UNL A   1      44.938  29.785  30.785  1.00  0.00     0.049 A 
ATOM     62  H   UNL A   1      45.090  28.197  32.154  1.00  0.00     0.167 HD
ATOM     63  C   UNL A   1      45.056  27.868  29.197  1.00  0.00     0.074 A 
ATOM     64  C   UNL A   1      44.692  26.715  30.015  1.00  0.00     0.031 C 
ATOM     65  C   UNL A   1      45.240  29.188  29.501  1.00  0.00     0.034 A 
BRANCH  52  66
ATOM     66  C   UNL A   1      43.032  27.839  34.216  1.00  0.00     0.023 A 
ATOM     67  C   UNL A   1      43.197  28.195  35.577  1.00  0.00     0.012 A 
ATOM     68  C   UNL A   1      43.474  26.550  33.842  1.00  0.00     0.148 A 
ATOM     69  C   UNL A   1      43.828  27.347  36.494  1.00  0.00     0.002 A 
ATOM     70  C   UNL A   1      44.026  25.678  34.777  1.00  0.00     0.091 A 
ATOM     71  F   UNL A   1      43.497  26.194  32.556  1.00  0.00    -0.205 F 
ATOM     72  C   UNL A   1      44.240  26.084  36.095  1.00  0.00     0.022 A 
BRANCH  70  73
ATOM     73  S   UNL A   1      44.518  24.010  34.324  1.00  0.00     0.127 S 
ATOM     74  O   UNL A   1      45.538  24.270  33.313  1.00  0.00    -0.237 OA
ATOM     75  O   UNL A   1      45.022  23.488  35.596  1.00  0.00    -0.237 OA
ATOM     76  O   UNL A   1      43.298  23.361  33.859  1.00  0.00    -0.744 OA
ENDBRANCH  70  73
ENDBRANCH  52  66
BRANCH  53  77
ATOM     77  C   UNL A   1      42.830  24.869  26.337  1.00  0.00     0.023 A 
ATOM     78  C   UNL A   1      43.871  24.492  25.468  1.00  0.00     0.012 A 
ATOM     79  C   UNL A   1      41.858  23.903  26.678  1.00  0.00     0.148 A 
ATOM     80  C   UNL A   1      43.961  23.183  24.979  1.00  0.00     0.002 A 
ATOM     81  C   UNL A   1      41.946  22.606  26.181  1.00  0.00     0.091 A 
ATOM     82  F   UNL A   1      40.901  24.233  27.556  1.00  0.00    -0.205 F 
ATOM     83  C   UNL A   1      43.005  22.238  25.341  1.00  0.00     0.022 A 
BRANCH  81  84
ATOM     84  S   UNL A   1      40.755  21.332  26.618  1.00  0.00     0.127 S 
ATOM     85  O   UNL A   1      40.685  21.470  28.074  1.00  0.00    -0.237 OA
ATOM     86  O   UNL A   1      39.563  21.779  25.902  1.00  0.00    -0.237 OA
ATOM     87  O   UNL A   1      41.338  20.075  26.165  1.00  0.00    -0.744 OA
ENDBRANCH  81  84
ENDBRANCH  53  77
BRANCH  65  88
ATOM     88  C   UNL A   1      45.502  30.146  28.366  1.00  0.00     0.023 A 
ATOM     89  C   UNL A   1      44.461  30.779  27.655  1.00  0.00     0.012 A 
ATOM     90  C   UNL A   1      46.828  30.544  28.123  1.00  0.00     0.148 A 
ATOM     91  C   UNL A   1      44.737  31.765  26.705  1.00  0.00     0.002 A 
ATOM     92  C   UNL A   1      47.095  31.560  27.215  1.00  0.00     0.091 A 
ATOM     93  F   UNL A   1      47.808  29.937  28.810  1.00  0.00    -0.205 F 
ATOM     94  C   UNL A   1      46.054  32.167  26.495  1.00  0.00     0.022 A 
BRANCH  92  95
ATOM     95  S   UNL A   1      48.754  32.209  27.001  1.00  0.00     0.127 S 
ATOM     96  O   UNL A   1      48.554  33.232  25.976  1.00  0.00    -0.237 OA
ATOM     97  O   UNL A   1      49.064  32.731  28.334  1.00  0.00    -0.237 OA
ATOM     98  O   UNL A   1      49.578  31.073  26.606  1.00  0.00    -0.744 OA
ENDBRANCH  92  95
ENDBRANCH  65  88
ENDBRANCH  39  40
ENDBRANCH  31  34
ENDBRANCH  29  30
ENDBRANCH  28  29
ENDBRANCH   1  28
TORSDOF 17
ENDMDL
