MODEL 1
REMARK VINA RESULT:     -10.3      0.000      0.000
REMARK SMILES CCCC[C@@H](Sc1nc(OCCC2CCCCC2)cc(OCCC2CCCCC2)n1)C(=O)NCCCCNC(=O)c1ccc(-c2c3nc(c(-c4cccc(S(=O)(=O)[O-])c4F)c4ccc([nH]4)c(-c4cccc(S(=O)(=O)[O-])c4F)c4nc(c(-c5cccc(S(=O)(=O)[O-])c5F)c5ccc2[nH]5)C=C4)C=C3)cc1
REMARK SMILES IDX 34 1 33 2 31 3 32 4 5 6 4 7 3 8 2 9 1 10 6 11 7 12 8 13
REMARK SMILES IDX 30 14 9 15 20 16 19 17 10 18 11 19 12 20 13 21 14 22 18 23
REMARK SMILES IDX 15 24 17 25 16 26 21 27 22 28 23 29 24 30 25 31 29 32 26 33
REMARK SMILES IDX 28 34 27 35 35 36 36 37 37 38 38 39 39 40 40 42 41 43 42 44
REMARK SMILES IDX 103 45 43 46 102 47 44 48 45 49 46 50 96 51 47 52 101 53
REMARK SMILES IDX 95 54 97 55 48 56 100 57 94 58 93 59 49 61 81 62 61 63 80 64
REMARK SMILES IDX 62 65 65 66 79 67 98 68 63 69 64 70 78 72 99 73 66 74 50 75
REMARK SMILES IDX 51 76 59 77 52 78 54 79 60 80 53 81 55 82 56 83 57 84 58 85
REMARK SMILES IDX 82 86 83 87 91 88 84 89 86 90 92 91 85 92 87 93 88 94 89 95
REMARK SMILES IDX 90 96 67 97 68 98 76 99 69 100 71 101 77 102 70 103 72 104
REMARK SMILES IDX 73 105 74 106 75 107
REMARK H PARENT 33 5 38 41 97 60 65 71
REMARK Flexibility Score: inf
ROOT
ATOM      1  C   UNL A   1      31.969  30.472  25.895  1.00  0.00     0.116 C 
ENDROOT
BRANCH   1   2
ATOM      2  N   UNL A   1      32.929  29.989  24.910  1.00  0.00    -0.355 N 
ATOM      3  C   UNL A   1      33.086  28.747  24.348  1.00  0.00     0.233 C 
ATOM      4  O   UNL A   1      33.970  28.602  23.500  1.00  0.00    -0.274 OA
ATOM      5  H   UNL A   1      33.570  30.667  24.596  1.00  0.00     0.163 HD
BRANCH   3   6
ATOM      6  C   UNL A   1      32.179  27.561  24.750  1.00  0.00     0.144 C 
BRANCH   6   7
ATOM      7  C   UNL A   1      31.640  26.951  23.428  1.00  0.00     0.025 C 
BRANCH   7   8
ATOM      8  C   UNL A   1      30.226  27.202  22.912  1.00  0.00     0.001 C 
BRANCH   8   9
ATOM      9  C   UNL A   1      29.639  28.592  23.127  1.00  0.00    -0.003 C 
ATOM     10  C   UNL A   1      30.147  29.604  22.118  1.00  0.00     0.004 C 
ENDBRANCH   8   9
ENDBRANCH   7   8
ENDBRANCH   6   7
BRANCH   6  11
ATOM     11  S   UNL A   1      33.229  26.678  26.015  1.00  0.00    -0.073 SA
BRANCH  11  12
ATOM     12  C   UNL A   1      33.664  25.140  25.276  1.00  0.00     0.195 A 
ATOM     13  N   UNL A   1      32.881  24.093  25.606  1.00  0.00    -0.187 NA
ATOM     14  N   UNL A   1      34.911  25.040  24.829  1.00  0.00    -0.187 NA
ATOM     15  C   UNL A   1      33.494  22.914  25.739  1.00  0.00     0.221 A 
ATOM     16  C   UNL A   1      35.494  23.866  25.016  1.00  0.00     0.221 A 
ATOM     17  C   UNL A   1      34.849  22.828  25.623  1.00  0.00     0.136 A 
BRANCH  15  18
ATOM     18  O   UNL A   1      32.670  21.845  25.985  1.00  0.00    -0.477 OA
BRANCH  18  19
ATOM     19  C   UNL A   1      33.184  20.513  25.862  1.00  0.00     0.231 C 
BRANCH  19  20
ATOM     20  C   UNL A   1      33.030  19.849  24.470  1.00  0.00     0.045 C 
BRANCH  20  21
ATOM     21  C   UNL A   1      32.995  18.311  24.452  1.00  0.00    -0.008 C 
ATOM     22  C   UNL A   1      34.287  17.662  23.931  1.00  0.00     0.004 C 
ATOM     23  C   UNL A   1      32.657  17.723  25.824  1.00  0.00     0.004 C 
ATOM     24  C   UNL A   1      34.117  16.143  23.801  1.00  0.00     0.000 C 
ATOM     25  C   UNL A   1      32.381  16.229  25.691  1.00  0.00     0.000 C 
ATOM     26  C   UNL A   1      33.553  15.479  25.058  1.00  0.00     0.000 C 
ENDBRANCH  20  21
ENDBRANCH  19  20
ENDBRANCH  18  19
ENDBRANCH  15  18
BRANCH  16  27
ATOM     27  O   UNL A   1      36.851  23.826  24.813  1.00  0.00    -0.477 OA
BRANCH  27  28
ATOM     28  C   UNL A   1      37.571  23.168  25.863  1.00  0.00     0.231 C 
BRANCH  28  29
ATOM     29  C   UNL A   1      38.465  24.188  26.614  1.00  0.00     0.045 C 
BRANCH  29  30
ATOM     30  C   UNL A   1      39.684  23.532  27.285  1.00  0.00    -0.008 C 
ATOM     31  C   UNL A   1      40.014  22.169  26.682  1.00  0.00     0.004 C 
ATOM     32  C   UNL A   1      40.998  24.316  27.257  1.00  0.00     0.004 C 
ATOM     33  C   UNL A   1      40.813  21.397  27.724  1.00  0.00     0.000 C 
ATOM     34  C   UNL A   1      42.064  23.588  28.108  1.00  0.00     0.000 C 
ATOM     35  C   UNL A   1      42.167  22.069  27.881  1.00  0.00     0.000 C 
ENDBRANCH  29  30
ENDBRANCH  28  29
ENDBRANCH  27  28
ENDBRANCH  16  27
ENDBRANCH  11  12
ENDBRANCH   6  11
ENDBRANCH   3   6
ENDBRANCH   1   2
BRANCH   1  36
ATOM     36  C   UNL A   1      32.595  30.581  27.288  1.00  0.00     0.023 C 
BRANCH  36  37
ATOM     37  C   UNL A   1      34.120  30.520  27.288  1.00  0.00     0.023 C 
BRANCH  37  38
ATOM     38  C   UNL A   1      34.804  31.806  27.732  1.00  0.00     0.116 C 
BRANCH  38  39
ATOM     39  N   UNL A   1      33.863  32.872  28.058  1.00  0.00    -0.352 N 
ATOM     40  C   UNL A   1      33.831  33.646  29.193  1.00  0.00     0.251 C 
ATOM     41  H   UNL A   1      33.169  33.060  27.384  1.00  0.00     0.163 HD
ATOM     42  O   UNL A   1      32.904  34.426  29.400  1.00  0.00    -0.269 OA
BRANCH  40  43
ATOM     43  C   UNL A   1      34.920  33.492  30.176  1.00  0.00     0.039 A 
ATOM     44  C   UNL A   1      34.833  32.485  31.139  1.00  0.00     0.014 A 
ATOM     45  C   UNL A   1      36.066  34.285  30.071  1.00  0.00     0.014 A 
ATOM     46  C   UNL A   1      35.933  32.224  31.956  1.00  0.00     0.010 A 
ATOM     47  C   UNL A   1      37.186  33.966  30.827  1.00  0.00     0.010 A 
ATOM     48  C   UNL A   1      37.132  32.935  31.778  1.00  0.00    -0.014 A 
BRANCH  48  49
ATOM     49  C   UNL A   1      38.351  32.622  32.565  1.00  0.00     0.031 A 
ATOM     50  C   UNL A   1      39.423  31.755  31.964  1.00  0.00     0.074 A 
ATOM     51  C   UNL A   1      38.441  33.020  33.850  1.00  0.00     0.049 A 
ATOM     52  N   UNL A   1      40.502  31.272  32.521  1.00  0.00    -0.248 NA
ATOM     53  C   UNL A   1      39.241  31.349  30.560  1.00  0.00     0.031 C 
ATOM     54  C   UNL A   1      37.434  33.804  34.568  1.00  0.00     0.029 A 
ATOM     55  N   UNL A   1      39.412  32.787  34.792  1.00  0.00    -0.354 N 
ATOM     56  C   UNL A   1      41.101  30.474  31.555  1.00  0.00     0.074 A 
ATOM     57  C   UNL A   1      40.251  30.510  30.387  1.00  0.00     0.031 C 
ATOM     58  C   UNL A   1      37.836  33.983  35.836  1.00  0.00     0.029 A 
ATOM     59  C   UNL A   1      39.109  33.297  36.035  1.00  0.00     0.049 A 
ATOM     60  H   UNL A   1      40.246  32.301  34.599  1.00  0.00     0.167 HD
ATOM     61  C   UNL A   1      42.269  29.792  31.624  1.00  0.00     0.034 A 
ATOM     62  C   UNL A   1      39.771  33.205  37.205  1.00  0.00     0.034 A 
ATOM     63  C   UNL A   1      43.131  29.794  32.773  1.00  0.00     0.049 A 
ATOM     64  C   UNL A   1      41.082  32.464  37.247  1.00  0.00     0.074 A 
ATOM     65  C   UNL A   1      44.379  29.213  32.912  1.00  0.00     0.029 A 
ATOM     66  N   UNL A   1      42.833  30.398  33.985  1.00  0.00    -0.354 N 
ATOM     67  N   UNL A   1      41.709  31.845  36.277  1.00  0.00    -0.248 NA
ATOM     68  C   UNL A   1      41.791  32.436  38.535  1.00  0.00     0.031 C 
ATOM     69  C   UNL A   1      44.822  29.438  34.218  1.00  0.00     0.029 A 
ATOM     70  C   UNL A   1      43.867  30.192  34.881  1.00  0.00     0.049 A 
ATOM     71  H   UNL A   1      42.008  30.899  34.179  1.00  0.00     0.167 HD
ATOM     72  C   UNL A   1      42.904  31.390  36.825  1.00  0.00     0.074 A 
ATOM     73  C   UNL A   1      42.918  31.817  38.209  1.00  0.00     0.031 C 
ATOM     74  C   UNL A   1      43.894  30.676  36.238  1.00  0.00     0.034 A 
BRANCH  61  75
ATOM     75  C   UNL A   1      42.704  29.020  30.406  1.00  0.00     0.023 A 
ATOM     76  C   UNL A   1      42.313  27.673  30.256  1.00  0.00     0.012 A 
ATOM     77  C   UNL A   1      43.447  29.642  29.385  1.00  0.00     0.148 A 
ATOM     78  C   UNL A   1      42.685  26.946  29.127  1.00  0.00     0.002 A 
ATOM     79  C   UNL A   1      43.773  28.925  28.240  1.00  0.00     0.091 A 
ATOM     80  F   UNL A   1      43.827  30.916  29.555  1.00  0.00    -0.205 F 
ATOM     81  C   UNL A   1      43.405  27.575  28.115  1.00  0.00     0.022 A 
BRANCH  79  82
ATOM     82  S   UNL A   1      44.624  29.666  26.842  1.00  0.00     0.127 S 
ATOM     83  O   UNL A   1      44.668  28.551  25.898  1.00  0.00    -0.237 OA
ATOM     84  O   UNL A   1      43.712  30.747  26.466  1.00  0.00    -0.237 OA
ATOM     85  O   UNL A   1      45.916  30.109  27.347  1.00  0.00    -0.744 OA
ENDBRANCH  79  82
ENDBRANCH  61  75
BRANCH  62  86
ATOM     86  C   UNL A   1      39.233  33.876  38.423  1.00  0.00     0.023 A 
ATOM     87  C   UNL A   1      39.591  35.211  38.694  1.00  0.00     0.012 A 
ATOM     88  C   UNL A   1      38.356  33.210  39.300  1.00  0.00     0.148 A 
ATOM     89  C   UNL A   1      39.113  35.859  39.834  1.00  0.00     0.002 A 
ATOM     90  C   UNL A   1      37.838  33.879  40.403  1.00  0.00     0.091 A 
ATOM     91  F   UNL A   1      38.033  31.937  39.030  1.00  0.00    -0.205 F 
ATOM     92  C   UNL A   1      38.231  35.198  40.682  1.00  0.00     0.022 A 
BRANCH  90  93
ATOM     93  S   UNL A   1      36.597  33.153  41.479  1.00  0.00     0.127 S 
ATOM     94  O   UNL A   1      37.405  32.270  42.316  1.00  0.00    -0.237 OA
ATOM     95  O   UNL A   1      36.064  34.333  42.161  1.00  0.00    -0.237 OA
ATOM     96  O   UNL A   1      35.647  32.492  40.594  1.00  0.00    -0.744 OA
ENDBRANCH  90  93
ENDBRANCH  62  86
BRANCH  74  97
ATOM     97  C   UNL A   1      45.112  30.346  37.060  1.00  0.00     0.023 A 
ATOM     98  C   UNL A   1      46.182  31.259  37.135  1.00  0.00     0.012 A 
ATOM     99  C   UNL A   1      45.144  29.174  37.842  1.00  0.00     0.148 A 
ATOM    100  C   UNL A   1      47.275  31.000  37.960  1.00  0.00     0.002 A 
ATOM    101  C   UNL A   1      46.212  28.948  38.701  1.00  0.00     0.091 A 
ATOM    102  F   UNL A   1      44.121  28.313  37.743  1.00  0.00    -0.205 F 
ATOM    103  C   UNL A   1      47.284  29.854  38.752  1.00  0.00     0.022 A 
BRANCH 101 104
ATOM    104  S   UNL A   1      46.262  27.554  39.833  1.00  0.00     0.127 S 
ATOM    105  O   UNL A   1      45.093  27.812  40.673  1.00  0.00    -0.237 OA
ATOM    106  O   UNL A   1      46.121  26.415  38.925  1.00  0.00    -0.237 OA
ATOM    107  O   UNL A   1      47.546  27.631  40.516  1.00  0.00    -0.744 OA
ENDBRANCH 101 104
ENDBRANCH  74  97
ENDBRANCH  48  49
ENDBRANCH  40  43
ENDBRANCH  38  39
ENDBRANCH  37  38
ENDBRANCH  36  37
ENDBRANCH   1  36
TORSDOF 27
ENDMDL
MODEL 2
REMARK VINA RESULT:      -9.8      2.390      7.158
REMARK SMILES CCCC[C@@H](Sc1nc(OCCC2CCCCC2)cc(OCCC2CCCCC2)n1)C(=O)NCCCCNC(=O)c1ccc(-c2c3nc(c(-c4cccc(S(=O)(=O)[O-])c4F)c4ccc([nH]4)c(-c4cccc(S(=O)(=O)[O-])c4F)c4nc(c(-c5cccc(S(=O)(=O)[O-])c5F)c5ccc2[nH]5)C=C4)C=C3)cc1
REMARK SMILES IDX 34 1 33 2 31 3 32 4 5 6 4 7 3 8 2 9 1 10 6 11 7 12 8 13
REMARK SMILES IDX 30 14 9 15 20 16 19 17 10 18 11 19 12 20 13 21 14 22 18 23
REMARK SMILES IDX 15 24 17 25 16 26 21 27 22 28 23 29 24 30 25 31 29 32 26 33
REMARK SMILES IDX 28 34 27 35 35 36 36 37 37 38 38 39 39 40 40 42 41 43 42 44
REMARK SMILES IDX 103 45 43 46 102 47 44 48 45 49 46 50 96 51 47 52 101 53
REMARK SMILES IDX 95 54 97 55 48 56 100 57 94 58 93 59 49 61 81 62 61 63 80 64
REMARK SMILES IDX 62 65 65 66 79 67 98 68 63 69 64 70 78 72 99 73 66 74 50 75
REMARK SMILES IDX 51 76 59 77 52 78 54 79 60 80 53 81 55 82 56 83 57 84 58 85
REMARK SMILES IDX 82 86 83 87 91 88 84 89 86 90 92 91 85 92 87 93 88 94 89 95
REMARK SMILES IDX 90 96 67 97 68 98 76 99 69 100 71 101 77 102 70 103 72 104
REMARK SMILES IDX 73 105 74 106 75 107
REMARK H PARENT 33 5 38 41 97 60 65 71
REMARK Flexibility Score: inf
ROOT
ATOM      1  C   UNL A   1      32.931  30.525  26.946  1.00  0.00     0.116 C 
ENDROOT
BRANCH   1   2
ATOM      2  N   UNL A   1      33.672  29.920  25.846  1.00  0.00    -0.355 N 
ATOM      3  C   UNL A   1      33.324  28.916  24.977  1.00  0.00     0.233 C 
ATOM      4  O   UNL A   1      34.131  28.604  24.099  1.00  0.00    -0.274 OA
ATOM      5  H   UNL A   1      34.571  30.295  25.703  1.00  0.00     0.163 HD
BRANCH   3   6
ATOM      6  C   UNL A   1      31.957  28.200  25.081  1.00  0.00     0.144 C 
BRANCH   6   7
ATOM      7  C   UNL A   1      31.446  28.016  23.626  1.00  0.00     0.025 C 
BRANCH   7   8
ATOM      8  C   UNL A   1      29.965  27.915  23.272  1.00  0.00     0.001 C 
BRANCH   8   9
ATOM      9  C   UNL A   1      29.368  29.035  22.429  1.00  0.00    -0.003 C 
ATOM     10  C   UNL A   1      27.996  29.463  22.913  1.00  0.00     0.004 C 
ENDBRANCH   8   9
ENDBRANCH   7   8
ENDBRANCH   6   7
BRANCH   6  11
ATOM     11  S   UNL A   1      32.326  26.831  26.293  1.00  0.00    -0.073 SA
BRANCH  11  12
ATOM     12  C   UNL A   1      33.104  25.563  25.351  1.00  0.00     0.195 A 
ATOM     13  N   UNL A   1      32.289  24.588  24.899  1.00  0.00    -0.187 NA
ATOM     14  N   UNL A   1      34.415  25.434  25.517  1.00  0.00    -0.187 NA
ATOM     15  C   UNL A   1      32.798  23.354  24.878  1.00  0.00     0.221 A 
ATOM     16  C   UNL A   1      34.873  24.191  25.528  1.00  0.00     0.221 A 
ATOM     17  C   UNL A   1      34.046  23.118  25.370  1.00  0.00     0.136 A 
BRANCH  15  18
ATOM     18  O   UNL A   1      31.987  22.391  24.331  1.00  0.00    -0.477 OA
BRANCH  18  19
ATOM     19  C   UNL A   1      32.504  21.073  24.113  1.00  0.00     0.231 C 
BRANCH  19  20
ATOM     20  C   UNL A   1      32.228  20.038  25.233  1.00  0.00     0.045 C 
BRANCH  20  21
ATOM     21  C   UNL A   1      33.056  18.743  25.180  1.00  0.00    -0.008 C 
ATOM     22  C   UNL A   1      32.286  17.529  24.637  1.00  0.00     0.004 C 
ATOM     23  C   UNL A   1      34.350  18.915  24.380  1.00  0.00     0.004 C 
ATOM     24  C   UNL A   1      33.128  16.253  24.758  1.00  0.00     0.000 C 
ATOM     25  C   UNL A   1      35.245  17.696  24.578  1.00  0.00     0.000 C 
ATOM     26  C   UNL A   1      34.542  16.394  24.192  1.00  0.00     0.000 C 
ENDBRANCH  20  21
ENDBRANCH  19  20
ENDBRANCH  18  19
ENDBRANCH  15  18
BRANCH  16  27
ATOM     27  O   UNL A   1      36.163  24.026  25.966  1.00  0.00    -0.477 OA
BRANCH  27  28
ATOM     28  C   UNL A   1      37.069  23.604  24.939  1.00  0.00     0.231 C 
BRANCH  28  29
ATOM     29  C   UNL A   1      37.339  22.082  25.059  1.00  0.00     0.045 C 
BRANCH  29  30
ATOM     30  C   UNL A   1      38.516  21.757  25.995  1.00  0.00    -0.008 C 
ATOM     31  C   UNL A   1      39.467  20.726  25.394  1.00  0.00     0.004 C 
ATOM     32  C   UNL A   1      39.406  22.927  26.424  1.00  0.00     0.004 C 
ATOM     33  C   UNL A   1      40.222  20.083  26.550  1.00  0.00     0.000 C 
ATOM     34  C   UNL A   1      40.429  22.450  27.480  1.00  0.00     0.000 C 
ATOM     35  C   UNL A   1      41.145  21.127  27.157  1.00  0.00     0.000 C 
ENDBRANCH  29  30
ENDBRANCH  28  29
ENDBRANCH  27  28
ENDBRANCH  16  27
ENDBRANCH  11  12
ENDBRANCH   6  11
ENDBRANCH   3   6
ENDBRANCH   1   2
BRANCH   1  36
ATOM     36  C   UNL A   1      33.796  31.509  27.737  1.00  0.00     0.023 C 
BRANCH  36  37
ATOM     37  C   UNL A   1      33.183  32.900  27.875  1.00  0.00     0.023 C 
BRANCH  37  38
ATOM     38  C   UNL A   1      34.047  33.900  28.631  1.00  0.00     0.116 C 
BRANCH  38  39
ATOM     39  N   UNL A   1      33.280  34.758  29.527  1.00  0.00    -0.352 N 
ATOM     40  C   UNL A   1      33.434  34.905  30.885  1.00  0.00     0.251 C 
ATOM     41  H   UNL A   1      32.568  35.295  29.110  1.00  0.00     0.163 HD
ATOM     42  O   UNL A   1      32.635  35.566  31.543  1.00  0.00    -0.269 OA
BRANCH  40  43
ATOM     43  C   UNL A   1      34.564  34.220  31.540  1.00  0.00     0.039 A 
ATOM     44  C   UNL A   1      34.361  32.963  32.113  1.00  0.00     0.014 A 
ATOM     45  C   UNL A   1      35.841  34.786  31.491  1.00  0.00     0.014 A 
ATOM     46  C   UNL A   1      35.459  32.238  32.577  1.00  0.00     0.010 A 
ATOM     47  C   UNL A   1      36.938  34.027  31.876  1.00  0.00     0.010 A 
ATOM     48  C   UNL A   1      36.760  32.747  32.424  1.00  0.00    -0.014 A 
BRANCH  48  49
ATOM     49  C   UNL A   1      37.957  31.964  32.821  1.00  0.00     0.031 A 
ATOM     50  C   UNL A   1      38.682  32.307  34.094  1.00  0.00     0.074 A 
ATOM     51  C   UNL A   1      38.453  31.028  31.988  1.00  0.00     0.049 A 
ATOM     52  N   UNL A   1      39.804  31.826  34.558  1.00  0.00    -0.248 NA
ATOM     53  C   UNL A   1      38.082  33.353  34.940  1.00  0.00     0.031 C 
ATOM     54  C   UNL A   1      37.881  30.656  30.692  1.00  0.00     0.029 A 
ATOM     55  N   UNL A   1      39.575  30.244  32.091  1.00  0.00    -0.354 N 
ATOM     56  C   UNL A   1      40.068  32.538  35.721  1.00  0.00     0.074 A 
ATOM     57  C   UNL A   1      39.006  33.506  35.877  1.00  0.00     0.031 C 
ATOM     58  C   UNL A   1      38.656  29.721  30.120  1.00  0.00     0.029 A 
ATOM     59  C   UNL A   1      39.799  29.453  30.986  1.00  0.00     0.049 A 
ATOM     60  H   UNL A   1      40.165  30.247  32.879  1.00  0.00     0.167 HD
ATOM     61  C   UNL A   1      41.089  32.382  36.597  1.00  0.00     0.034 A 
ATOM     62  C   UNL A   1      40.820  28.621  30.697  1.00  0.00     0.034 A 
ATOM     63  C   UNL A   1      42.118  31.390  36.459  1.00  0.00     0.049 A 
ATOM     64  C   UNL A   1      41.928  28.446  31.701  1.00  0.00     0.074 A 
ATOM     65  C   UNL A   1      43.143  31.088  37.338  1.00  0.00     0.029 A 
ATOM     66  N   UNL A   1      42.261  30.544  35.371  1.00  0.00    -0.354 N 
ATOM     67  N   UNL A   1      42.077  29.018  32.871  1.00  0.00    -0.248 NA
ATOM     68  C   UNL A   1      42.992  27.490  31.361  1.00  0.00     0.031 C 
ATOM     69  C   UNL A   1      43.925  30.081  36.767  1.00  0.00     0.029 A 
ATOM     70  C   UNL A   1      43.366  29.729  35.549  1.00  0.00     0.049 A 
ATOM     71  H   UNL A   1      41.666  30.525  34.587  1.00  0.00     0.167 HD
ATOM     72  C   UNL A   1      43.226  28.461  33.424  1.00  0.00     0.074 A 
ATOM     73  C   UNL A   1      43.726  27.497  32.466  1.00  0.00     0.031 C 
ATOM     74  C   UNL A   1      43.816  28.731  34.613  1.00  0.00     0.034 A 
BRANCH  61  75
ATOM     75  C   UNL A   1      41.119  33.279  37.806  1.00  0.00     0.023 A 
ATOM     76  C   UNL A   1      40.315  32.973  38.924  1.00  0.00     0.012 A 
ATOM     77  C   UNL A   1      41.984  34.389  37.861  1.00  0.00     0.148 A 
ATOM     78  C   UNL A   1      40.343  33.777  40.062  1.00  0.00     0.002 A 
ATOM     79  C   UNL A   1      42.043  35.157  39.018  1.00  0.00     0.091 A 
ATOM     80  F   UNL A   1      42.725  34.677  36.782  1.00  0.00    -0.205 F 
ATOM     81  C   UNL A   1      41.214  34.861  40.113  1.00  0.00     0.022 A 
BRANCH  79  82
ATOM     82  S   UNL A   1      43.192  36.523  39.216  1.00  0.00     0.127 S 
ATOM     83  O   UNL A   1      42.936  36.926  40.598  1.00  0.00    -0.237 OA
ATOM     84  O   UNL A   1      44.483  35.872  39.000  1.00  0.00    -0.237 OA
ATOM     85  O   UNL A   1      42.829  37.504  38.203  1.00  0.00    -0.744 OA
ENDBRANCH  79  82
ENDBRANCH  61  75
BRANCH  62  86
ATOM     86  C   UNL A   1      40.816  27.850  29.421  1.00  0.00     0.023 A 
ATOM     87  C   UNL A   1      39.907  26.786  29.257  1.00  0.00     0.012 A 
ATOM     88  C   UNL A   1      41.689  28.175  28.364  1.00  0.00     0.148 A 
ATOM     89  C   UNL A   1      39.890  26.039  28.078  1.00  0.00     0.002 A 
ATOM     90  C   UNL A   1      41.629  27.463  27.172  1.00  0.00     0.091 A 
ATOM     91  F   UNL A   1      42.552  29.185  28.542  1.00  0.00    -0.205 F 
ATOM     92  C   UNL A   1      40.743  26.382  27.035  1.00  0.00     0.022 A 
BRANCH  90  93
ATOM     93  S   UNL A   1      42.596  27.913  25.728  1.00  0.00     0.127 S 
ATOM     94  O   UNL A   1      42.227  26.864  24.781  1.00  0.00    -0.237 OA
ATOM     95  O   UNL A   1      42.066  29.241  25.414  1.00  0.00    -0.237 OA
ATOM     96  O   UNL A   1      43.985  27.910  26.167  1.00  0.00    -0.744 OA
ENDBRANCH  90  93
ENDBRANCH  62  86
BRANCH  74  97
ATOM     97  C   UNL A   1      45.044  27.943  34.987  1.00  0.00     0.023 A 
ATOM     98  C   UNL A   1      46.325  28.464  34.723  1.00  0.00     0.012 A 
ATOM     99  C   UNL A   1      44.921  26.732  35.698  1.00  0.00     0.148 A 
ATOM    100  C   UNL A   1      47.466  27.781  35.142  1.00  0.00     0.002 A 
ATOM    101  C   UNL A   1      46.060  26.084  36.157  1.00  0.00     0.091 A 
ATOM    102  F   UNL A   1      43.691  26.248  35.924  1.00  0.00    -0.205 F 
ATOM    103  C   UNL A   1      47.334  26.600  35.869  1.00  0.00     0.022 A 
BRANCH 101 104
ATOM    104  S   UNL A   1      45.985  24.615  37.188  1.00  0.00     0.127 S 
ATOM    105  O   UNL A   1      47.260  24.687  37.901  1.00  0.00    -0.237 OA
ATOM    106  O   UNL A   1      44.807  24.880  38.016  1.00  0.00    -0.237 OA
ATOM    107  O   UNL A   1      45.845  23.486  36.278  1.00  0.00    -0.744 OA
ENDBRANCH 101 104
ENDBRANCH  74  97
ENDBRANCH  48  49
ENDBRANCH  40  43
ENDBRANCH  38  39
ENDBRANCH  37  38
ENDBRANCH  36  37
ENDBRANCH   1  36
TORSDOF 27
ENDMDL
MODEL 3
REMARK VINA RESULT:      -9.8      2.275      3.063
REMARK SMILES CCCC[C@@H](Sc1nc(OCCC2CCCCC2)cc(OCCC2CCCCC2)n1)C(=O)NCCCCNC(=O)c1ccc(-c2c3nc(c(-c4cccc(S(=O)(=O)[O-])c4F)c4ccc([nH]4)c(-c4cccc(S(=O)(=O)[O-])c4F)c4nc(c(-c5cccc(S(=O)(=O)[O-])c5F)c5ccc2[nH]5)C=C4)C=C3)cc1
REMARK SMILES IDX 34 1 33 2 31 3 32 4 5 6 4 7 3 8 2 9 1 10 6 11 7 12 8 13
REMARK SMILES IDX 30 14 9 15 20 16 19 17 10 18 11 19 12 20 13 21 14 22 18 23
REMARK SMILES IDX 15 24 17 25 16 26 21 27 22 28 23 29 24 30 25 31 29 32 26 33
REMARK SMILES IDX 28 34 27 35 35 36 36 37 37 38 38 39 39 40 40 42 41 43 42 44
REMARK SMILES IDX 103 45 43 46 102 47 44 48 45 49 46 50 96 51 47 52 101 53
REMARK SMILES IDX 95 54 97 55 48 56 100 57 94 58 93 59 49 61 81 62 61 63 80 64
REMARK SMILES IDX 62 65 65 66 79 67 98 68 63 69 64 70 78 72 99 73 66 74 50 75
REMARK SMILES IDX 51 76 59 77 52 78 54 79 60 80 53 81 55 82 56 83 57 84 58 85
REMARK SMILES IDX 82 86 83 87 91 88 84 89 86 90 92 91 85 92 87 93 88 94 89 95
REMARK SMILES IDX 90 96 67 97 68 98 76 99 69 100 71 101 77 102 70 103 72 104
REMARK SMILES IDX 73 105 74 106 75 107
REMARK H PARENT 33 5 38 41 97 60 65 71
REMARK Flexibility Score: inf
ROOT
ATOM      1  C   UNL A   1      31.201  30.790  25.306  1.00  0.00     0.116 C 
ENDROOT
BRANCH   1   2
ATOM      2  N   UNL A   1      32.163  29.789  24.865  1.00  0.00    -0.355 N 
ATOM      3  C   UNL A   1      32.055  28.424  24.769  1.00  0.00     0.233 C 
ATOM      4  O   UNL A   1      33.020  27.795  24.328  1.00  0.00    -0.274 OA
ATOM      5  H   UNL A   1      33.036  30.152  24.590  1.00  0.00     0.163 HD
BRANCH   3   6
ATOM      6  C   UNL A   1      30.759  27.688  25.186  1.00  0.00     0.144 C 
BRANCH   6   7
ATOM      7  C   UNL A   1      30.158  27.087  23.887  1.00  0.00     0.025 C 
BRANCH   7   8
ATOM      8  C   UNL A   1      29.457  27.932  22.827  1.00  0.00     0.001 C 
BRANCH   8   9
ATOM      9  C   UNL A   1      28.050  28.424  23.141  1.00  0.00    -0.003 C 
ATOM     10  C   UNL A   1      27.848  29.884  22.788  1.00  0.00     0.004 C 
ENDBRANCH   8   9
ENDBRANCH   7   8
ENDBRANCH   6   7
BRANCH   6  11
ATOM     11  S   UNL A   1      31.324  26.724  26.680  1.00  0.00    -0.073 SA
BRANCH  11  12
ATOM     12  C   UNL A   1      31.197  25.029  26.223  1.00  0.00     0.195 A 
ATOM     13  N   UNL A   1      31.704  24.145  27.107  1.00  0.00    -0.187 NA
ATOM     14  N   UNL A   1      31.021  24.785  24.929  1.00  0.00    -0.187 NA
ATOM     15  C   UNL A   1      32.306  23.071  26.592  1.00  0.00     0.221 A 
ATOM     16  C   UNL A   1      31.667  23.732  24.451  1.00  0.00     0.221 A 
ATOM     17  C   UNL A   1      32.454  22.948  25.243  1.00  0.00     0.136 A 
BRANCH  15  18
ATOM     18  O   UNL A   1      32.736  22.141  27.505  1.00  0.00    -0.477 OA
BRANCH  18  19
ATOM     19  C   UNL A   1      33.126  20.837  27.056  1.00  0.00     0.231 C 
BRANCH  19  20
ATOM     20  C   UNL A   1      33.640  20.746  25.597  1.00  0.00     0.045 C 
BRANCH  20  21
ATOM     21  C   UNL A   1      33.506  19.374  24.915  1.00  0.00    -0.008 C 
ATOM     22  C   UNL A   1      32.787  19.418  23.557  1.00  0.00     0.004 C 
ATOM     23  C   UNL A   1      34.858  18.677  24.742  1.00  0.00     0.004 C 
ATOM     24  C   UNL A   1      32.559  18.001  23.016  1.00  0.00     0.000 C 
ATOM     25  C   UNL A   1      34.642  17.232  24.307  1.00  0.00     0.000 C 
ATOM     26  C   UNL A   1      33.818  17.131  23.023  1.00  0.00     0.000 C 
ENDBRANCH  20  21
ENDBRANCH  19  20
ENDBRANCH  18  19
ENDBRANCH  15  18
BRANCH  16  27
ATOM     27  O   UNL A   1      31.720  23.624  23.084  1.00  0.00    -0.477 OA
BRANCH  27  28
ATOM     28  C   UNL A   1      32.906  22.981  22.602  1.00  0.00     0.231 C 
BRANCH  28  29
ATOM     29  C   UNL A   1      34.132  23.911  22.796  1.00  0.00     0.045 C 
BRANCH  29  30
ATOM     30  C   UNL A   1      35.135  23.368  23.827  1.00  0.00    -0.008 C 
ATOM     31  C   UNL A   1      36.419  22.862  23.176  1.00  0.00     0.004 C 
ATOM     32  C   UNL A   1      35.592  24.330  24.927  1.00  0.00     0.004 C 
ATOM     33  C   UNL A   1      37.060  21.880  24.147  1.00  0.00     0.000 C 
ATOM     34  C   UNL A   1      36.465  23.577  25.957  1.00  0.00     0.000 C 
ATOM     35  C   UNL A   1      37.543  22.655  25.361  1.00  0.00     0.000 C 
ENDBRANCH  29  30
ENDBRANCH  28  29
ENDBRANCH  27  28
ENDBRANCH  16  27
ENDBRANCH  11  12
ENDBRANCH   6  11
ENDBRANCH   3   6
ENDBRANCH   1   2
BRANCH   1  36
ATOM     36  C   UNL A   1      31.474  31.242  26.743  1.00  0.00     0.023 C 
BRANCH  36  37
ATOM     37  C   UNL A   1      32.842  30.822  27.275  1.00  0.00     0.023 C 
BRANCH  37  38
ATOM     38  C   UNL A   1      33.850  31.957  27.393  1.00  0.00     0.116 C 
BRANCH  38  39
ATOM     39  N   UNL A   1      33.241  33.227  27.772  1.00  0.00    -0.352 N 
ATOM     40  C   UNL A   1      33.558  34.022  28.848  1.00  0.00     0.251 C 
ATOM     41  H   UNL A   1      32.519  33.553  27.188  1.00  0.00     0.163 HD
ATOM     42  O   UNL A   1      32.879  35.006  29.127  1.00  0.00    -0.269 OA
BRANCH  40  43
ATOM     43  C   UNL A   1      34.714  33.643  29.682  1.00  0.00     0.039 A 
ATOM     44  C   UNL A   1      34.537  32.723  30.717  1.00  0.00     0.014 A 
ATOM     45  C   UNL A   1      35.986  34.128  29.366  1.00  0.00     0.014 A 
ATOM     46  C   UNL A   1      35.655  32.231  31.393  1.00  0.00     0.010 A 
ATOM     47  C   UNL A   1      37.099  33.575  29.984  1.00  0.00     0.010 A 
ATOM     48  C   UNL A   1      36.947  32.623  31.003  1.00  0.00    -0.014 A 
BRANCH  48  49
ATOM     49  C   UNL A   1      38.161  32.050  31.638  1.00  0.00     0.031 A 
ATOM     50  C   UNL A   1      38.919  30.954  30.940  1.00  0.00     0.074 A 
ATOM     51  C   UNL A   1      38.514  32.435  32.880  1.00  0.00     0.049 A 
ATOM     52  N   UNL A   1      39.928  30.247  31.372  1.00  0.00    -0.248 NA
ATOM     53  C   UNL A   1      38.460  30.582  29.591  1.00  0.00     0.031 C 
ATOM     54  C   UNL A   1      37.815  33.437  33.689  1.00  0.00     0.029 A 
ATOM     55  N   UNL A   1      39.528  32.000  33.697  1.00  0.00    -0.354 N 
ATOM     56  C   UNL A   1      40.195  29.320  30.373  1.00  0.00     0.074 A 
ATOM     57  C   UNL A   1      39.223  29.533  29.325  1.00  0.00     0.031 C 
ATOM     58  C   UNL A   1      38.418  33.538  34.884  1.00  0.00     0.029 A 
ATOM     59  C   UNL A   1      39.520  32.582  34.945  1.00  0.00     0.049 A 
ATOM     60  H   UNL A   1      40.197  31.334  33.418  1.00  0.00     0.167 HD
ATOM     61  C   UNL A   1      41.179  28.391  30.318  1.00  0.00     0.034 A 
ATOM     62  C   UNL A   1      40.299  32.358  36.021  1.00  0.00     0.034 A 
ATOM     63  C   UNL A   1      42.169  28.213  31.344  1.00  0.00     0.049 A 
ATOM     64  C   UNL A   1      41.404  31.339  35.925  1.00  0.00     0.074 A 
ATOM     65  C   UNL A   1      43.263  27.365  31.343  1.00  0.00     0.029 A 
ATOM     66  N   UNL A   1      42.183  28.884  32.556  1.00  0.00    -0.354 N 
ATOM     67  N   UNL A   1      41.738  30.579  34.909  1.00  0.00    -0.248 NA
ATOM     68  C   UNL A   1      42.259  31.167  37.109  1.00  0.00     0.031 C 
ATOM     69  C   UNL A   1      43.920  27.500  32.569  1.00  0.00     0.029 A 
ATOM     70  C   UNL A   1      43.258  28.460  33.318  1.00  0.00     0.049 A 
ATOM     71  H   UNL A   1      41.526  29.562  32.834  1.00  0.00     0.167 HD
ATOM     72  C   UNL A   1      42.864  29.872  35.316  1.00  0.00     0.074 A 
ATOM     73  C   UNL A   1      43.163  30.303  36.666  1.00  0.00     0.031 C 
ATOM     74  C   UNL A   1      43.579  28.943  34.636  1.00  0.00     0.034 A 
BRANCH  61  75
ATOM     75  C   UNL A   1      41.259  27.524  29.089  1.00  0.00     0.023 A 
ATOM     76  C   UNL A   1      40.380  26.430  28.948  1.00  0.00     0.012 A 
ATOM     77  C   UNL A   1      42.160  27.825  28.051  1.00  0.00     0.148 A 
ATOM     78  C   UNL A   1      40.422  25.628  27.809  1.00  0.00     0.002 A 
ATOM     79  C   UNL A   1      42.162  27.051  26.897  1.00  0.00     0.091 A 
ATOM     80  F   UNL A   1      43.002  28.856  28.212  1.00  0.00    -0.205 F 
ATOM     81  C   UNL A   1      41.304  25.945  26.780  1.00  0.00     0.022 A 
BRANCH  79  82
ATOM     82  S   UNL A   1      43.200  27.425  25.479  1.00  0.00     0.127 S 
ATOM     83  O   UNL A   1      42.273  28.158  24.619  1.00  0.00    -0.237 OA
ATOM     84  O   UNL A   1      44.253  28.244  26.079  1.00  0.00    -0.237 OA
ATOM     85  O   UNL A   1      43.650  26.141  24.960  1.00  0.00    -0.744 OA
ENDBRANCH  79  82
ENDBRANCH  61  75
BRANCH  62  86
ATOM     86  C   UNL A   1      40.098  33.150  37.268  1.00  0.00     0.023 A 
ATOM     87  C   UNL A   1      39.055  32.802  38.149  1.00  0.00     0.012 A 
ATOM     88  C   UNL A   1      40.943  34.227  37.598  1.00  0.00     0.148 A 
ATOM     89  C   UNL A   1      38.835  33.534  39.317  1.00  0.00     0.002 A 
ATOM     90  C   UNL A   1      40.754  34.917  38.790  1.00  0.00     0.091 A 
ATOM     91  F   UNL A   1      41.925  34.548  36.743  1.00  0.00    -0.205 F 
ATOM     92  C   UNL A   1      39.688  34.583  39.641  1.00  0.00     0.022 A 
BRANCH  90  93
ATOM     93  S   UNL A   1      41.879  36.197  39.354  1.00  0.00     0.127 S 
ATOM     94  O   UNL A   1      41.365  36.479  40.692  1.00  0.00    -0.237 OA
ATOM     95  O   UNL A   1      43.166  35.502  39.322  1.00  0.00    -0.237 OA
ATOM     96  O   UNL A   1      41.758  37.281  38.388  1.00  0.00    -0.744 OA
ENDBRANCH  90  93
ENDBRANCH  62  86
BRANCH  74  97
ATOM     97  C   UNL A   1      44.793  28.357  35.306  1.00  0.00     0.023 A 
ATOM     98  C   UNL A   1      46.044  28.992  35.183  1.00  0.00     0.012 A 
ATOM     99  C   UNL A   1      44.667  27.231  36.144  1.00  0.00     0.148 A 
ATOM    100  C   UNL A   1      47.156  28.503  35.869  1.00  0.00     0.002 A 
ATOM    101  C   UNL A   1      45.767  26.781  36.864  1.00  0.00     0.091 A 
ATOM    102  F   UNL A   1      43.470  26.633  36.233  1.00  0.00    -0.205 F 
ATOM    103  C   UNL A   1      47.014  27.408  36.718  1.00  0.00     0.022 A 
BRANCH 101 104
ATOM    104  S   UNL A   1      45.656  25.444  38.058  1.00  0.00     0.127 S 
ATOM    105  O   UNL A   1      45.271  24.317  37.208  1.00  0.00    -0.237 OA
ATOM    106  O   UNL A   1      47.024  25.378  38.575  1.00  0.00    -0.237 OA
ATOM    107  O   UNL A   1      44.657  25.854  39.036  1.00  0.00    -0.744 OA
ENDBRANCH 101 104
ENDBRANCH  74  97
ENDBRANCH  48  49
ENDBRANCH  40  43
ENDBRANCH  38  39
ENDBRANCH  37  38
ENDBRANCH  36  37
ENDBRANCH   1  36
TORSDOF 27
ENDMDL
