MODEL 1
REMARK VINA RESULT:     -13.5      0.000      0.000
REMARK SMILES CCn1ncc(NC(=O)[C@@H]2CCCC[C@@H]2C(=O)NCCCCNC(=O)c2ccc(-c3c4nc(c(-c5cccc(S(=O)(=O)[O-])c5F)c5ccc([nH]5)c(-c5cccc(S(=O)(=O)[O-])c5F)c5nc(c(-c6cccc(S(=O)(=O)[O-])c6F)c6ccc3[nH]6)C=C5)C=C4)cc2)c1C(=O)Nc1cnn(C)c1C
REMARK SMILES IDX 20 1 19 2 18 3 16 4 17 5 15 7 10 8 11 9 12 10 14 11 13 12
REMARK SMILES IDX 8 13 7 14 9 16 6 17 3 18 4 19 89 20 5 21 2 22 1 23 90 24
REMARK SMILES IDX 91 25 92 26 93 28 94 29 98 30 95 31 96 32 99 33 97 34 21 35
REMARK SMILES IDX 22 36 23 37 24 38 25 40 26 41 27 42 88 43 28 44 87 45 29 46
REMARK SMILES IDX 30 47 31 48 81 49 32 50 86 51 80 52 82 53 33 54 85 55 79 56
REMARK SMILES IDX 78 57 34 59 66 60 46 61 65 62 47 63 50 64 64 65 83 66 48 67
REMARK SMILES IDX 49 68 63 70 84 71 51 72 35 73 36 74 44 75 37 76 39 77 45 78
REMARK SMILES IDX 38 79 40 80 41 81 42 82 43 83 67 84 68 85 76 86 69 87 71 88
REMARK SMILES IDX 77 89 70 90 72 91 73 92 74 93 75 94 52 95 53 96 61 97 54 98
REMARK SMILES IDX 56 99 62 100 55 101 57 102 58 103 59 104 60 105
REMARK H PARENT 18 6 7 15 92 27 23 39 82 58 50 69
REMARK Flexibility Score: inf
ROOT
ATOM      1  C   UNL A   1      37.108  20.775  24.563  1.00  0.00     0.023 C 
ENDROOT
BRANCH   1   2
ATOM      2  C   UNL A   1      36.715  21.730  25.691  1.00  0.00     0.116 C 
BRANCH   2   3
ATOM      3  N   UNL A   1      35.508  21.292  26.348  1.00  0.00    -0.356 N 
ATOM      4  C   UNL A   1      34.346  21.964  26.553  1.00  0.00     0.223 C 
ATOM      5  O   UNL A   1      33.694  21.628  27.543  1.00  0.00    -0.275 OA
ATOM      6  H   UNL A   1      35.529  20.372  26.698  1.00  0.00     0.163 HD
BRANCH   4   7
ATOM      7  C   UNL A   1      33.897  23.089  25.603  1.00  0.00     0.091 C 
ATOM      8  C   UNL A   1      32.341  23.198  25.599  1.00  0.00     0.091 C 
ATOM      9  C   UNL A   1      31.756  21.838  25.176  1.00  0.00     0.014 C 
ATOM     10  C   UNL A   1      32.197  21.538  23.752  1.00  0.00     0.001 C 
ATOM     11  C   UNL A   1      34.295  22.871  24.121  1.00  0.00     0.014 C 
ATOM     12  C   UNL A   1      33.700  21.589  23.546  1.00  0.00     0.001 C 
BRANCH   8  13
ATOM     13  C   UNL A   1      31.751  23.867  26.834  1.00  0.00     0.228 C 
ATOM     14  N   UNL A   1      31.614  25.226  26.931  1.00  0.00    -0.322 N 
ATOM     15  H   UNL A   1      31.185  25.520  27.767  1.00  0.00     0.170 HD
ATOM     16  O   UNL A   1      31.420  23.204  27.825  1.00  0.00    -0.274 OA
BRANCH  14  17
ATOM     17  C   UNL A   1      31.961  26.273  26.087  1.00  0.00     0.092 A 
ATOM     18  N   UNL A   1      31.981  28.140  25.008  1.00  0.00    -0.258 N 
ATOM     19  N   UNL A   1      33.283  27.975  25.361  1.00  0.00    -0.178 NA
ATOM     20  C   UNL A   1      31.297  26.929  25.037  1.00  0.00     0.150 A 
ATOM     21  C   UNL A   1      33.229  26.895  26.136  1.00  0.00     0.162 A 
BRANCH  18  22
ATOM     22  C   UNL A   1      31.455  29.495  25.143  1.00  0.00     0.142 C 
ATOM     23  C   UNL A   1      31.789  30.108  26.492  1.00  0.00     0.029 C 
ENDBRANCH  18  22
BRANCH  20  24
ATOM     24  C   UNL A   1      30.190  26.427  24.230  1.00  0.00     0.276 C 
ATOM     25  O   UNL A   1      29.928  25.219  24.208  1.00  0.00    -0.267 OA
ATOM     26  N   UNL A   1      29.262  27.240  23.618  1.00  0.00    -0.318 N 
ATOM     27  H   UNL A   1      28.327  26.956  23.738  1.00  0.00     0.170 HD
BRANCH  26  28
ATOM     28  C   UNL A   1      29.417  28.378  22.869  1.00  0.00     0.082 A 
ATOM     29  C   UNL A   1      30.478  28.764  22.032  1.00  0.00     0.161 A 
ATOM     30  C   UNL A   1      28.480  29.391  22.756  1.00  0.00     0.059 A 
ATOM     31  N   UNL A   1      30.283  29.971  21.494  1.00  0.00    -0.179 NA
ATOM     32  N   UNL A   1      29.139  30.393  22.080  1.00  0.00    -0.271 N 
ATOM     33  C   UNL A   1      27.147  29.608  23.383  1.00  0.00     0.068 C 
ATOM     34  C   UNL A   1      28.817  31.803  22.058  1.00  0.00     0.174 C 
ENDBRANCH  26  28
ENDBRANCH  20  24
ENDBRANCH  14  17
ENDBRANCH   8  13
ENDBRANCH   4   7
ENDBRANCH   2   3
ENDBRANCH   1   2
BRANCH   1  35
ATOM     35  C   UNL A   1      38.065  19.638  24.942  1.00  0.00     0.023 C 
BRANCH  35  36
ATOM     36  C   UNL A   1      39.217  20.070  25.830  1.00  0.00     0.116 C 
BRANCH  36  37
ATOM     37  N   UNL A   1      40.306  19.090  25.868  1.00  0.00    -0.352 N 
ATOM     38  C   UNL A   1      41.663  19.339  26.016  1.00  0.00     0.251 C 
ATOM     39  H   UNL A   1      40.044  18.145  25.778  1.00  0.00     0.163 HD
ATOM     40  O   UNL A   1      42.501  18.513  25.722  1.00  0.00    -0.269 OA
BRANCH  38  41
ATOM     41  C   UNL A   1      42.045  20.648  26.575  1.00  0.00     0.039 A 
ATOM     42  C   UNL A   1      42.650  21.644  25.803  1.00  0.00     0.014 A 
ATOM     43  C   UNL A   1      41.694  20.874  27.900  1.00  0.00     0.014 A 
ATOM     44  C   UNL A   1      42.837  22.902  26.371  1.00  0.00     0.010 A 
ATOM     45  C   UNL A   1      41.678  22.152  28.371  1.00  0.00     0.010 A 
ATOM     46  C   UNL A   1      42.339  23.146  27.658  1.00  0.00    -0.014 A 
BRANCH  46  47
ATOM     47  C   UNL A   1      42.426  24.452  28.294  1.00  0.00     0.031 A 
ATOM     48  C   UNL A   1      41.259  25.344  28.063  1.00  0.00     0.074 A 
ATOM     49  C   UNL A   1      43.361  24.699  29.240  1.00  0.00     0.049 A 
ATOM     50  N   UNL A   1      41.232  26.466  27.421  1.00  0.00    -0.248 NA
ATOM     51  C   UNL A   1      39.929  24.869  28.482  1.00  0.00     0.031 C 
ATOM     52  C   UNL A   1      44.356  23.766  29.800  1.00  0.00     0.029 A 
ATOM     53  N   UNL A   1      43.505  25.788  30.036  1.00  0.00    -0.354 N 
ATOM     54  C   UNL A   1      39.937  26.958  27.580  1.00  0.00     0.074 A 
ATOM     55  C   UNL A   1      39.141  25.846  28.029  1.00  0.00     0.031 C 
ATOM     56  C   UNL A   1      44.776  24.221  31.000  1.00  0.00     0.029 A 
ATOM     57  C   UNL A   1      44.248  25.556  31.190  1.00  0.00     0.049 A 
ATOM     58  H   UNL A   1      43.118  26.666  29.816  1.00  0.00     0.167 HD
ATOM     59  C   UNL A   1      39.687  28.297  27.603  1.00  0.00     0.034 A 
ATOM     60  C   UNL A   1      44.380  26.393  32.247  1.00  0.00     0.034 A 
ATOM     61  C   UNL A   1      40.817  29.048  27.110  1.00  0.00     0.049 A 
ATOM     62  C   UNL A   1      44.021  27.746  31.766  1.00  0.00     0.074 A 
ATOM     63  C   UNL A   1      41.540  29.074  25.935  1.00  0.00     0.029 A 
ATOM     64  N   UNL A   1      41.608  29.661  28.051  1.00  0.00    -0.354 N 
ATOM     65  N   UNL A   1      44.705  28.388  30.858  1.00  0.00    -0.248 NA
ATOM     66  C   UNL A   1      42.653  28.192  31.957  1.00  0.00     0.031 C 
ATOM     67  C   UNL A   1      42.897  29.241  26.349  1.00  0.00     0.029 A 
ATOM     68  C   UNL A   1      42.911  29.380  27.739  1.00  0.00     0.049 A 
ATOM     69  H   UNL A   1      41.295  30.204  28.810  1.00  0.00     0.167 HD
ATOM     70  C   UNL A   1      43.737  28.985  30.060  1.00  0.00     0.074 A 
ATOM     71  C   UNL A   1      42.507  28.926  30.850  1.00  0.00     0.031 C 
ATOM     72  C   UNL A   1      43.953  29.198  28.727  1.00  0.00     0.034 A 
BRANCH  59  73
ATOM     73  C   UNL A   1      38.607  28.973  28.426  1.00  0.00     0.023 A 
ATOM     74  C   UNL A   1      37.776  29.902  27.756  1.00  0.00     0.012 A 
ATOM     75  C   UNL A   1      38.550  28.975  29.838  1.00  0.00     0.148 A 
ATOM     76  C   UNL A   1      36.991  30.827  28.453  1.00  0.00     0.002 A 
ATOM     77  C   UNL A   1      37.709  29.845  30.526  1.00  0.00     0.091 A 
ATOM     78  F   UNL A   1      39.404  28.237  30.549  1.00  0.00    -0.205 F 
ATOM     79  C   UNL A   1      36.954  30.797  29.841  1.00  0.00     0.022 A 
BRANCH  77  80
ATOM     80  S   UNL A   1      37.599  29.818  32.320  1.00  0.00     0.127 S 
ATOM     81  O   UNL A   1      37.339  28.404  32.573  1.00  0.00    -0.237 OA
ATOM     82  O   UNL A   1      38.930  30.286  32.709  1.00  0.00    -0.237 OA
ATOM     83  O   UNL A   1      36.522  30.743  32.654  1.00  0.00    -0.744 OA
ENDBRANCH  77  80
ENDBRANCH  59  73
BRANCH  60  84
ATOM     84  C   UNL A   1      44.540  26.082  33.685  1.00  0.00     0.023 A 
ATOM     85  C   UNL A   1      45.824  26.055  34.260  1.00  0.00     0.012 A 
ATOM     86  C   UNL A   1      43.424  26.088  34.550  1.00  0.00     0.148 A 
ATOM     87  C   UNL A   1      45.993  26.071  35.651  1.00  0.00     0.002 A 
ATOM     88  C   UNL A   1      43.599  26.097  35.934  1.00  0.00     0.091 A 
ATOM     89  F   UNL A   1      42.198  26.179  34.017  1.00  0.00    -0.205 F 
ATOM     90  C   UNL A   1      44.882  26.101  36.489  1.00  0.00     0.022 A 
BRANCH  88  91
ATOM     91  S   UNL A   1      42.205  26.130  37.062  1.00  0.00     0.127 S 
ATOM     92  O   UNL A   1      41.583  24.822  36.842  1.00  0.00    -0.237 OA
ATOM     93  O   UNL A   1      42.851  26.292  38.359  1.00  0.00    -0.237 OA
ATOM     94  O   UNL A   1      41.390  27.246  36.608  1.00  0.00    -0.744 OA
ENDBRANCH  88  91
ENDBRANCH  60  84
BRANCH  72  95
ATOM     95  C   UNL A   1      45.349  28.979  28.187  1.00  0.00     0.023 A 
ATOM     96  C   UNL A   1      46.381  29.928  28.353  1.00  0.00     0.012 A 
ATOM     97  C   UNL A   1      45.671  27.717  27.665  1.00  0.00     0.148 A 
ATOM     98  C   UNL A   1      47.698  29.631  27.987  1.00  0.00     0.002 A 
ATOM     99  C   UNL A   1      46.987  27.410  27.341  1.00  0.00     0.091 A 
ATOM    100  F   UNL A   1      44.682  26.822  27.522  1.00  0.00    -0.205 F 
ATOM    101  C   UNL A   1      48.004  28.367  27.491  1.00  0.00     0.022 A 
BRANCH  99 102
ATOM    102  S   UNL A   1      47.463  25.762  26.817  1.00  0.00     0.127 S 
ATOM    103  O   UNL A   1      48.905  25.907  26.629  1.00  0.00    -0.237 OA
ATOM    104  O   UNL A   1      47.075  24.942  27.966  1.00  0.00    -0.237 OA
ATOM    105  O   UNL A   1      46.696  25.490  25.608  1.00  0.00    -0.744 OA
ENDBRANCH  99 102
ENDBRANCH  72  95
ENDBRANCH  46  47
ENDBRANCH  38  41
ENDBRANCH  36  37
ENDBRANCH  35  36
ENDBRANCH   1  35
TORSDOF 19
ENDMDL
MODEL 2
REMARK VINA RESULT:     -13.3      3.919      9.754
REMARK SMILES CCn1ncc(NC(=O)[C@@H]2CCCC[C@@H]2C(=O)NCCCCNC(=O)c2ccc(-c3c4nc(c(-c5cccc(S(=O)(=O)[O-])c5F)c5ccc([nH]5)c(-c5cccc(S(=O)(=O)[O-])c5F)c5nc(c(-c6cccc(S(=O)(=O)[O-])c6F)c6ccc3[nH]6)C=C5)C=C4)cc2)c1C(=O)Nc1cnn(C)c1C
REMARK SMILES IDX 20 1 19 2 18 3 16 4 17 5 15 7 10 8 11 9 12 10 14 11 13 12
REMARK SMILES IDX 8 13 7 14 9 16 6 17 3 18 4 19 89 20 5 21 2 22 1 23 90 24
REMARK SMILES IDX 91 25 92 26 93 28 94 29 98 30 95 31 96 32 99 33 97 34 21 35
REMARK SMILES IDX 22 36 23 37 24 38 25 40 26 41 27 42 88 43 28 44 87 45 29 46
REMARK SMILES IDX 30 47 31 48 81 49 32 50 86 51 80 52 82 53 33 54 85 55 79 56
REMARK SMILES IDX 78 57 34 59 66 60 46 61 65 62 47 63 50 64 64 65 83 66 48 67
REMARK SMILES IDX 49 68 63 70 84 71 51 72 35 73 36 74 44 75 37 76 39 77 45 78
REMARK SMILES IDX 38 79 40 80 41 81 42 82 43 83 67 84 68 85 76 86 69 87 71 88
REMARK SMILES IDX 77 89 70 90 72 91 73 92 74 93 75 94 52 95 53 96 61 97 54 98
REMARK SMILES IDX 56 99 62 100 55 101 57 102 58 103 59 104 60 105
REMARK H PARENT 18 6 7 15 92 27 23 39 82 58 50 69
REMARK Flexibility Score: inf
ROOT
ATOM      1  C   UNL A   1      31.465  31.050  26.089  1.00  0.00     0.023 C 
ENDROOT
BRANCH   1   2
ATOM      2  C   UNL A   1      31.950  30.059  27.147  1.00  0.00     0.116 C 
BRANCH   2   3
ATOM      3  N   UNL A   1      33.138  29.368  26.709  1.00  0.00    -0.356 N 
ATOM      4  C   UNL A   1      33.254  28.184  26.054  1.00  0.00     0.223 C 
ATOM      5  O   UNL A   1      34.296  27.557  26.251  1.00  0.00    -0.275 OA
ATOM      6  H   UNL A   1      33.988  29.821  26.914  1.00  0.00     0.163 HD
BRANCH   4   7
ATOM      7  C   UNL A   1      32.131  27.666  25.137  1.00  0.00     0.091 C 
ATOM      8  C   UNL A   1      32.249  26.121  24.967  1.00  0.00     0.091 C 
ATOM      9  C   UNL A   1      33.639  25.797  24.391  1.00  0.00     0.014 C 
ATOM     10  C   UNL A   1      33.752  26.419  23.007  1.00  0.00     0.001 C 
ATOM     11  C   UNL A   1      32.164  28.240  23.699  1.00  0.00     0.014 C 
ATOM     12  C   UNL A   1      33.468  27.910  22.976  1.00  0.00     0.001 C 
BRANCH   8  13
ATOM     13  C   UNL A   1      31.777  25.313  26.170  1.00  0.00     0.228 C 
ATOM     14  N   UNL A   1      32.334  24.107  26.501  1.00  0.00    -0.322 N 
ATOM     15  H   UNL A   1      31.959  23.712  27.321  1.00  0.00     0.170 HD
ATOM     16  O   UNL A   1      30.828  25.697  26.866  1.00  0.00    -0.274 OA
BRANCH  14  17
ATOM     17  C   UNL A   1      33.321  23.329  25.912  1.00  0.00     0.092 A 
ATOM     18  N   UNL A   1      34.778  22.528  24.537  1.00  0.00    -0.258 N 
ATOM     19  N   UNL A   1      35.409  22.444  25.739  1.00  0.00    -0.178 NA
ATOM     20  C   UNL A   1      33.400  22.619  24.702  1.00  0.00     0.150 A 
ATOM     21  C   UNL A   1      34.555  23.063  26.549  1.00  0.00     0.162 A 
BRANCH  18  22
ATOM     22  C   UNL A   1      35.600  22.978  23.419  1.00  0.00     0.142 C 
ATOM     23  C   UNL A   1      37.086  22.864  23.717  1.00  0.00     0.029 C 
ENDBRANCH  18  22
BRANCH  20  24
ATOM     24  C   UNL A   1      32.296  22.134  23.879  1.00  0.00     0.276 C 
ATOM     25  O   UNL A   1      31.480  22.927  23.396  1.00  0.00    -0.267 OA
ATOM     26  N   UNL A   1      32.195  20.838  23.425  1.00  0.00    -0.318 N 
ATOM     27  H   UNL A   1      31.962  20.756  22.472  1.00  0.00     0.170 HD
BRANCH  26  28
ATOM     28  C   UNL A   1      32.363  19.641  24.073  1.00  0.00     0.082 A 
ATOM     29  C   UNL A   1      32.473  19.373  25.448  1.00  0.00     0.161 A 
ATOM     30  C   UNL A   1      32.409  18.402  23.458  1.00  0.00     0.059 A 
ATOM     31  N   UNL A   1      32.666  18.074  25.695  1.00  0.00    -0.179 NA
ATOM     32  N   UNL A   1      32.784  17.536  24.459  1.00  0.00    -0.271 N 
ATOM     33  C   UNL A   1      32.358  17.980  22.031  1.00  0.00     0.068 C 
ATOM     34  C   UNL A   1      33.393  16.231  24.318  1.00  0.00     0.174 C 
ENDBRANCH  26  28
ENDBRANCH  20  24
ENDBRANCH  14  17
ENDBRANCH   8  13
ENDBRANCH   4   7
ENDBRANCH   2   3
ENDBRANCH   1   2
BRANCH   1  35
ATOM     35  C   UNL A   1      31.346  32.512  26.535  1.00  0.00     0.023 C 
BRANCH  35  36
ATOM     36  C   UNL A   1      32.537  33.015  27.330  1.00  0.00     0.116 C 
BRANCH  36  37
ATOM     37  N   UNL A   1      32.359  34.384  27.820  1.00  0.00    -0.352 N 
ATOM     38  C   UNL A   1      33.026  35.000  28.869  1.00  0.00     0.251 C 
ATOM     39  H   UNL A   1      31.688  34.930  27.350  1.00  0.00     0.163 HD
ATOM     40  O   UNL A   1      32.599  36.005  29.397  1.00  0.00    -0.269 OA
BRANCH  38  41
ATOM     41  C   UNL A   1      34.299  34.395  29.299  1.00  0.00     0.039 A 
ATOM     42  C   UNL A   1      34.391  33.559  30.415  1.00  0.00     0.014 A 
ATOM     43  C   UNL A   1      35.397  34.632  28.482  1.00  0.00     0.014 A 
ATOM     44  C   UNL A   1      35.599  32.909  30.660  1.00  0.00     0.010 A 
ATOM     45  C   UNL A   1      36.494  33.832  28.598  1.00  0.00     0.010 A 
ATOM     46  C   UNL A   1      36.643  33.050  29.737  1.00  0.00    -0.014 A 
BRANCH  46  47
ATOM     47  C   UNL A   1      37.909  32.345  29.878  1.00  0.00     0.031 A 
ATOM     48  C   UNL A   1      37.933  30.971  29.310  1.00  0.00     0.074 A 
ATOM     49  C   UNL A   1      39.032  33.009  30.239  1.00  0.00     0.049 A 
ATOM     50  N   UNL A   1      38.073  29.853  29.943  1.00  0.00    -0.248 NA
ATOM     51  C   UNL A   1      37.631  30.807  27.878  1.00  0.00     0.031 C 
ATOM     52  C   UNL A   1      39.194  34.452  30.490  1.00  0.00     0.029 A 
ATOM     53  N   UNL A   1      40.312  32.562  30.282  1.00  0.00    -0.354 N 
ATOM     54  C   UNL A   1      38.134  28.869  28.957  1.00  0.00     0.074 A 
ATOM     55  C   UNL A   1      37.632  29.478  27.754  1.00  0.00     0.031 C 
ATOM     56  C   UNL A   1      40.496  34.788  30.367  1.00  0.00     0.029 A 
ATOM     57  C   UNL A   1      41.270  33.571  30.240  1.00  0.00     0.049 A 
ATOM     58  H   UNL A   1      40.543  31.606  30.338  1.00  0.00     0.167 HD
ATOM     59  C   UNL A   1      38.856  27.728  29.141  1.00  0.00     0.034 A 
ATOM     60  C   UNL A   1      42.604  33.412  30.068  1.00  0.00     0.034 A 
ATOM     61  C   UNL A   1      39.205  27.548  30.529  1.00  0.00     0.049 A 
ATOM     62  C   UNL A   1      42.914  32.007  30.419  1.00  0.00     0.074 A 
ATOM     63  C   UNL A   1      38.503  27.447  31.713  1.00  0.00     0.029 A 
ATOM     64  N   UNL A   1      40.497  27.856  30.885  1.00  0.00    -0.354 N 
ATOM     65  N   UNL A   1      42.762  31.519  31.620  1.00  0.00    -0.248 NA
ATOM     66  C   UNL A   1      42.954  31.033  29.344  1.00  0.00     0.031 C 
ATOM     67  C   UNL A   1      39.281  28.182  32.659  1.00  0.00     0.029 A 
ATOM     68  C   UNL A   1      40.440  28.623  32.017  1.00  0.00     0.049 A 
ATOM     69  H   UNL A   1      41.313  27.574  30.412  1.00  0.00     0.167 HD
ATOM     70  C   UNL A   1      42.229  30.253  31.410  1.00  0.00     0.074 A 
ATOM     71  C   UNL A   1      42.480  29.968  29.997  1.00  0.00     0.031 C 
ATOM     72  C   UNL A   1      41.377  29.686  32.316  1.00  0.00     0.034 A 
BRANCH  59  73
ATOM     73  C   UNL A   1      39.594  26.973  28.052  1.00  0.00     0.023 A 
ATOM     74  C   UNL A   1      39.358  25.580  27.962  1.00  0.00     0.012 A 
ATOM     75  C   UNL A   1      40.696  27.476  27.325  1.00  0.00     0.148 A 
ATOM     76  C   UNL A   1      40.212  24.730  27.251  1.00  0.00     0.002 A 
ATOM     77  C   UNL A   1      41.498  26.638  26.556  1.00  0.00     0.091 A 
ATOM     78  F   UNL A   1      41.076  28.747  27.470  1.00  0.00    -0.205 F 
ATOM     79  C   UNL A   1      41.283  25.259  26.543  1.00  0.00     0.022 A 
BRANCH  77  80
ATOM     80  S   UNL A   1      42.872  27.281  25.592  1.00  0.00     0.127 S 
ATOM     81  O   UNL A   1      43.395  26.062  24.983  1.00  0.00    -0.237 OA
ATOM     82  O   UNL A   1      42.193  28.195  24.673  1.00  0.00    -0.237 OA
ATOM     83  O   UNL A   1      43.742  27.945  26.557  1.00  0.00    -0.744 OA
ENDBRANCH  77  80
ENDBRANCH  59  73
BRANCH  60  84
ATOM     84  C   UNL A   1      43.580  34.290  29.386  1.00  0.00     0.023 A 
ATOM     85  C   UNL A   1      44.322  35.227  30.129  1.00  0.00     0.012 A 
ATOM     86  C   UNL A   1      43.989  34.019  28.061  1.00  0.00     0.148 A 
ATOM     87  C   UNL A   1      45.454  35.848  29.584  1.00  0.00     0.002 A 
ATOM     88  C   UNL A   1      45.112  34.645  27.523  1.00  0.00     0.091 A 
ATOM     89  F   UNL A   1      43.331  33.081  27.365  1.00  0.00    -0.205 F 
ATOM     90  C   UNL A   1      45.855  35.551  28.285  1.00  0.00     0.022 A 
BRANCH  88  91
ATOM     91  S   UNL A   1      45.673  34.307  25.853  1.00  0.00     0.127 S 
ATOM     92  O   UNL A   1      46.103  32.909  25.936  1.00  0.00    -0.237 OA
ATOM     93  O   UNL A   1      44.470  34.533  25.062  1.00  0.00    -0.237 OA
ATOM     94  O   UNL A   1      46.767  35.240  25.636  1.00  0.00    -0.744 OA
ENDBRANCH  88  91
ENDBRANCH  60  84
BRANCH  72  95
ATOM     95  C   UNL A   1      41.205  30.365  33.656  1.00  0.00     0.023 A 
ATOM     96  C   UNL A   1      42.160  30.252  34.690  1.00  0.00     0.012 A 
ATOM     97  C   UNL A   1      40.153  31.281  33.807  1.00  0.00     0.148 A 
ATOM     98  C   UNL A   1      42.054  31.018  35.855  1.00  0.00     0.002 A 
ATOM     99  C   UNL A   1      40.073  32.072  34.947  1.00  0.00     0.091 A 
ATOM    100  F   UNL A   1      39.259  31.386  32.813  1.00  0.00    -0.205 F 
ATOM    101  C   UNL A   1      41.016  31.937  35.979  1.00  0.00     0.022 A 
BRANCH  99 102
ATOM    102  S   UNL A   1      38.835  33.359  35.111  1.00  0.00     0.127 S 
ATOM    103  O   UNL A   1      39.122  34.206  33.954  1.00  0.00    -0.237 OA
ATOM    104  O   UNL A   1      37.584  32.605  35.023  1.00  0.00    -0.237 OA
ATOM    105  O   UNL A   1      39.067  33.974  36.412  1.00  0.00    -0.744 OA
ENDBRANCH  99 102
ENDBRANCH  72  95
ENDBRANCH  46  47
ENDBRANCH  38  41
ENDBRANCH  36  37
ENDBRANCH  35  36
ENDBRANCH   1  35
TORSDOF 19
ENDMDL
MODEL 3
REMARK VINA RESULT:     -13.0      3.044      8.424
REMARK SMILES CCn1ncc(NC(=O)[C@@H]2CCCC[C@@H]2C(=O)NCCCCNC(=O)c2ccc(-c3c4nc(c(-c5cccc(S(=O)(=O)[O-])c5F)c5ccc([nH]5)c(-c5cccc(S(=O)(=O)[O-])c5F)c5nc(c(-c6cccc(S(=O)(=O)[O-])c6F)c6ccc3[nH]6)C=C5)C=C4)cc2)c1C(=O)Nc1cnn(C)c1C
REMARK SMILES IDX 20 1 19 2 18 3 16 4 17 5 15 7 10 8 11 9 12 10 14 11 13 12
REMARK SMILES IDX 8 13 7 14 9 16 6 17 3 18 4 19 89 20 5 21 2 22 1 23 90 24
REMARK SMILES IDX 91 25 92 26 93 28 94 29 98 30 95 31 96 32 99 33 97 34 21 35
REMARK SMILES IDX 22 36 23 37 24 38 25 40 26 41 27 42 88 43 28 44 87 45 29 46
REMARK SMILES IDX 30 47 31 48 81 49 32 50 86 51 80 52 82 53 33 54 85 55 79 56
REMARK SMILES IDX 78 57 34 59 66 60 46 61 65 62 47 63 50 64 64 65 83 66 48 67
REMARK SMILES IDX 49 68 63 70 84 71 51 72 35 73 36 74 44 75 37 76 39 77 45 78
REMARK SMILES IDX 38 79 40 80 41 81 42 82 43 83 67 84 68 85 76 86 69 87 71 88
REMARK SMILES IDX 77 89 70 90 72 91 73 92 74 93 75 94 52 95 53 96 61 97 54 98
REMARK SMILES IDX 56 99 62 100 55 101 57 102 58 103 59 104 60 105
REMARK H PARENT 18 6 7 15 92 27 23 39 82 58 50 69
REMARK Flexibility Score: inf
ROOT
ATOM      1  C   UNL A   1      33.602  29.200  27.390  1.00  0.00     0.023 C 
ENDROOT
BRANCH   1   2
ATOM      2  C   UNL A   1      34.264  28.220  26.420  1.00  0.00     0.116 C 
BRANCH   2   3
ATOM      3  N   UNL A   1      34.176  28.694  25.060  1.00  0.00    -0.356 N 
ATOM      4  C   UNL A   1      33.595  28.111  23.980  1.00  0.00     0.223 C 
ATOM      5  O   UNL A   1      34.079  28.400  22.884  1.00  0.00    -0.275 OA
ATOM      6  H   UNL A   1      34.599  29.567  24.891  1.00  0.00     0.163 HD
BRANCH   4   7
ATOM      7  C   UNL A   1      32.415  27.137  24.139  1.00  0.00     0.091 C 
ATOM      8  C   UNL A   1      31.836  26.765  22.739  1.00  0.00     0.091 C 
ATOM      9  C   UNL A   1      31.404  28.060  22.028  1.00  0.00     0.014 C 
ATOM     10  C   UNL A   1      30.284  28.707  22.828  1.00  0.00     0.001 C 
ATOM     11  C   UNL A   1      31.217  27.708  24.938  1.00  0.00     0.014 C 
ATOM     12  C   UNL A   1      30.631  28.957  24.285  1.00  0.00     0.001 C 
BRANCH   8  13
ATOM     13  C   UNL A   1      32.680  25.772  21.948  1.00  0.00     0.228 C 
ATOM     14  N   UNL A   1      32.852  24.476  22.354  1.00  0.00    -0.322 N 
ATOM     15  H   UNL A   1      33.390  23.936  21.731  1.00  0.00     0.170 HD
ATOM     16  O   UNL A   1      33.290  26.121  20.929  1.00  0.00    -0.274 OA
BRANCH  14  17
ATOM     17  C   UNL A   1      32.420  23.771  23.469  1.00  0.00     0.092 A 
ATOM     18  N   UNL A   1      32.185  23.015  25.476  1.00  0.00    -0.258 N 
ATOM     19  N   UNL A   1      30.902  23.149  25.045  1.00  0.00    -0.178 NA
ATOM     20  C   UNL A   1      33.068  22.945  24.403  1.00  0.00     0.150 A 
ATOM     21  C   UNL A   1      31.063  23.739  23.864  1.00  0.00     0.162 A 
BRANCH  18  22
ATOM     22  C   UNL A   1      32.440  23.440  26.849  1.00  0.00     0.142 C 
ATOM     23  C   UNL A   1      32.938  22.298  27.719  1.00  0.00     0.029 C 
ENDBRANCH  18  22
BRANCH  20  24
ATOM     24  C   UNL A   1      34.331  22.233  24.238  1.00  0.00     0.276 C 
ATOM     25  O   UNL A   1      35.317  22.809  23.764  1.00  0.00    -0.267 OA
ATOM     26  N   UNL A   1      34.576  20.984  24.763  1.00  0.00    -0.318 N 
ATOM     27  H   UNL A   1      35.442  20.896  25.222  1.00  0.00     0.170 HD
BRANCH  26  28
ATOM     28  C   UNL A   1      33.820  19.839  24.754  1.00  0.00     0.082 A 
ATOM     29  C   UNL A   1      32.423  19.687  24.759  1.00  0.00     0.161 A 
ATOM     30  C   UNL A   1      34.325  18.552  24.685  1.00  0.00     0.059 A 
ATOM     31  N   UNL A   1      32.057  18.403  24.785  1.00  0.00    -0.179 NA
ATOM     32  N   UNL A   1      33.232  17.744  24.903  1.00  0.00    -0.271 N 
ATOM     33  C   UNL A   1      35.712  18.011  24.659  1.00  0.00     0.068 C 
ATOM     34  C   UNL A   1      33.225  16.371  25.360  1.00  0.00     0.174 C 
ENDBRANCH  26  28
ENDBRANCH  20  24
ENDBRANCH  14  17
ENDBRANCH   8  13
ENDBRANCH   4   7
ENDBRANCH   2   3
ENDBRANCH   1   2
BRANCH   1  35
ATOM     35  C   UNL A   1      33.805  30.690  27.090  1.00  0.00     0.023 C 
BRANCH  35  36
ATOM     36  C   UNL A   1      35.043  31.287  27.734  1.00  0.00     0.116 C 
BRANCH  36  37
ATOM     37  N   UNL A   1      34.738  32.086  28.923  1.00  0.00    -0.352 N 
ATOM     38  C   UNL A   1      35.246  31.923  30.204  1.00  0.00     0.251 C 
ATOM     39  H   UNL A   1      34.098  32.824  28.800  1.00  0.00     0.163 HD
ATOM     40  O   UNL A   1      34.709  32.415  31.174  1.00  0.00    -0.269 OA
BRANCH  38  41
ATOM     41  C   UNL A   1      36.490  31.144  30.336  1.00  0.00     0.039 A 
ATOM     42  C   UNL A   1      36.516  29.751  30.233  1.00  0.00     0.014 A 
ATOM     43  C   UNL A   1      37.660  31.879  30.484  1.00  0.00     0.014 A 
ATOM     44  C   UNL A   1      37.753  29.109  30.217  1.00  0.00     0.010 A 
ATOM     45  C   UNL A   1      38.857  31.273  30.248  1.00  0.00     0.010 A 
ATOM     46  C   UNL A   1      38.919  29.885  30.218  1.00  0.00    -0.014 A 
BRANCH  46  47
ATOM     47  C   UNL A   1      40.247  29.297  30.125  1.00  0.00     0.031 A 
ATOM     48  C   UNL A   1      40.903  29.011  31.429  1.00  0.00     0.074 A 
ATOM     49  C   UNL A   1      40.701  28.799  28.952  1.00  0.00     0.049 A 
ATOM     50  N   UNL A   1      41.971  29.552  31.916  1.00  0.00    -0.248 NA
ATOM     51  C   UNL A   1      40.215  28.108  32.368  1.00  0.00     0.031 C 
ATOM     52  C   UNL A   1      39.990  28.715  27.664  1.00  0.00     0.029 A 
ATOM     53  N   UNL A   1      41.833  28.093  28.704  1.00  0.00    -0.354 N 
ATOM     54  C   UNL A   1      42.227  28.871  33.105  1.00  0.00     0.074 A 
ATOM     55  C   UNL A   1      41.012  28.176  33.437  1.00  0.00     0.031 C 
ATOM     56  C   UNL A   1      40.567  27.770  26.890  1.00  0.00     0.029 A 
ATOM     57  C   UNL A   1      41.792  27.342  27.533  1.00  0.00     0.049 A 
ATOM     58  H   UNL A   1      42.616  28.111  29.301  1.00  0.00     0.167 HD
ATOM     59  C   UNL A   1      43.500  28.707  33.566  1.00  0.00     0.034 A 
ATOM     60  C   UNL A   1      42.685  26.401  27.144  1.00  0.00     0.034 A 
ATOM     61  C   UNL A   1      44.419  29.588  32.887  1.00  0.00     0.049 A 
ATOM     62  C   UNL A   1      43.928  26.655  27.907  1.00  0.00     0.074 A 
ATOM     63  C   UNL A   1      44.522  30.954  32.712  1.00  0.00     0.029 A 
ATOM     64  N   UNL A   1      45.207  29.025  31.912  1.00  0.00    -0.354 N 
ATOM     65  N   UNL A   1      44.642  27.739  27.775  1.00  0.00    -0.248 NA
ATOM     66  C   UNL A   1      44.128  25.916  29.141  1.00  0.00     0.031 C 
ATOM     67  C   UNL A   1      44.950  31.114  31.359  1.00  0.00     0.029 A 
ATOM     68  C   UNL A   1      45.152  29.843  30.816  1.00  0.00     0.049 A 
ATOM     69  H   UNL A   1      45.718  28.187  31.989  1.00  0.00     0.167 HD
ATOM     70  C   UNL A   1      45.018  28.063  29.072  1.00  0.00     0.074 A 
ATOM     71  C   UNL A   1      44.773  26.848  29.850  1.00  0.00     0.031 C 
ATOM     72  C   UNL A   1      45.206  29.363  29.451  1.00  0.00     0.034 A 
BRANCH  59  73
ATOM     73  C   UNL A   1      44.005  27.498  34.330  1.00  0.00     0.023 A 
ATOM     74  C   UNL A   1      44.098  26.279  33.617  1.00  0.00     0.012 A 
ATOM     75  C   UNL A   1      44.109  27.418  35.737  1.00  0.00     0.148 A 
ATOM     76  C   UNL A   1      44.213  25.048  34.272  1.00  0.00     0.002 A 
ATOM     77  C   UNL A   1      44.301  26.199  36.379  1.00  0.00     0.091 A 
ATOM     78  F   UNL A   1      43.887  28.496  36.492  1.00  0.00    -0.205 F 
ATOM     79  C   UNL A   1      44.318  25.007  35.655  1.00  0.00     0.022 A 
BRANCH  77  80
ATOM     80  S   UNL A   1      44.480  26.099  38.165  1.00  0.00     0.127 S 
ATOM     81  O   UNL A   1      45.509  27.105  38.410  1.00  0.00    -0.237 OA
ATOM     82  O   UNL A   1      43.137  26.458  38.622  1.00  0.00    -0.237 OA
ATOM     83  O   UNL A   1      44.852  24.716  38.439  1.00  0.00    -0.744 OA
ENDBRANCH  77  80
ENDBRANCH  59  73
BRANCH  60  84
ATOM     84  C   UNL A   1      42.474  25.160  26.368  1.00  0.00     0.023 A 
ATOM     85  C   UNL A   1      43.362  24.817  25.333  1.00  0.00     0.012 A 
ATOM     86  C   UNL A   1      41.571  24.173  26.822  1.00  0.00     0.148 A 
ATOM     87  C   UNL A   1      43.377  23.525  24.791  1.00  0.00     0.002 A 
ATOM     88  C   UNL A   1      41.586  22.890  26.275  1.00  0.00     0.091 A 
ATOM     89  F   UNL A   1      40.763  24.466  27.852  1.00  0.00    -0.205 F 
ATOM     90  C   UNL A   1      42.496  22.558  25.267  1.00  0.00     0.022 A 
BRANCH  88  91
ATOM     91  S   UNL A   1      40.471  21.606  26.844  1.00  0.00     0.127 S 
ATOM     92  O   UNL A   1      40.934  20.429  26.105  1.00  0.00    -0.237 OA
ATOM     93  O   UNL A   1      40.733  21.572  28.278  1.00  0.00    -0.237 OA
ATOM     94  O   UNL A   1      39.149  22.062  26.445  1.00  0.00    -0.744 OA
ENDBRANCH  88  91
ENDBRANCH  60  84
BRANCH  72  95
ATOM     95  C   UNL A   1      45.218  30.424  28.374  1.00  0.00     0.023 A 
ATOM     96  C   UNL A   1      44.033  30.989  27.855  1.00  0.00     0.012 A 
ATOM     97  C   UNL A   1      46.450  30.991  28.012  1.00  0.00     0.148 A 
ATOM     98  C   UNL A   1      44.078  32.079  26.979  1.00  0.00     0.002 A 
ATOM     99  C   UNL A   1      46.490  32.101  27.176  1.00  0.00     0.091 A 
ATOM    100  F   UNL A   1      47.567  30.452  28.521  1.00  0.00    -0.205 F 
ATOM    101  C   UNL A   1      45.307  32.643  26.648  1.00  0.00     0.022 A 
BRANCH  99 102
ATOM    102  S   UNL A   1      48.030  32.946  26.814  1.00  0.00     0.127 S 
ATOM    103  O   UNL A   1      47.636  33.844  25.729  1.00  0.00    -0.237 OA
ATOM    104  O   UNL A   1      48.329  33.613  28.082  1.00  0.00    -0.237 OA
ATOM    105  O   UNL A   1      48.982  31.904  26.451  1.00  0.00    -0.744 OA
ENDBRANCH  99 102
ENDBRANCH  72  95
ENDBRANCH  46  47
ENDBRANCH  38  41
ENDBRANCH  36  37
ENDBRANCH  35  36
ENDBRANCH   1  35
TORSDOF 19
ENDMDL
