MODEL 1
REMARK VINA RESULT:     -13.5      0.000      0.000
REMARK SMILES CC(=O)Nc1ccc(/C=C2/CCc3oc(C(=O)NCCCCNC(=O)c4ccc(-c5c6nc(c(-c7cccc(S(=O)(=O)[O-])c7F)c7ccc([nH]7)c(-c7cccc(S(=O)(=O)[O-])c7F)c7nc(c(-c8cccc(S(=O)(=O)[O-])c8F)c8ccc5[nH]8)C=C7)C=C6)cc4)c(C)c3C2=O)cc1
REMARK SMILES IDX 21 1 20 2 19 3 18 4 16 5 17 6 15 8 9 9 10 10 11 11 92 12
REMARK SMILES IDX 12 13 91 14 93 15 13 16 89 17 14 18 90 19 8 20 5 21 6 22
REMARK SMILES IDX 95 23 7 24 94 25 4 26 1 27 2 28 3 29 22 31 23 32 24 33 25 35
REMARK SMILES IDX 26 36 27 37 88 38 28 39 87 40 29 41 30 42 31 43 81 44 32 45
REMARK SMILES IDX 86 46 80 47 82 48 33 49 85 50 79 51 78 52 34 54 66 55 46 56
REMARK SMILES IDX 65 57 47 58 50 59 64 60 83 61 48 62 49 63 63 65 84 66 51 67
REMARK SMILES IDX 35 68 36 69 44 70 37 71 39 72 45 73 38 74 40 75 41 76 42 77
REMARK SMILES IDX 43 78 67 79 68 80 76 81 69 82 71 83 77 84 70 85 72 86 73 87
REMARK SMILES IDX 74 88 75 89 52 90 53 91 61 92 54 93 56 94 62 95 55 96 57 97
REMARK SMILES IDX 58 98 59 99 60 100
REMARK H PARENT 18 7 4 30 23 34 82 53 50 64
REMARK Flexibility Score: inf
ROOT
ATOM      1  C   UNL A   1      38.972  20.928  25.550  1.00  0.00     0.023 C 
ENDROOT
BRANCH   1   2
ATOM      2  C   UNL A   1      37.793  20.649  24.602  1.00  0.00     0.023 C 
BRANCH   2   3
ATOM      3  C   UNL A   1      36.405  20.719  25.247  1.00  0.00     0.116 C 
BRANCH   3   4
ATOM      4  N   UNL A   1      35.530  19.648  24.793  1.00  0.00    -0.349 N 
ATOM      5  C   UNL A   1      34.166  19.581  24.586  1.00  0.00     0.287 C 
ATOM      6  O   UNL A   1      33.736  18.488  24.207  1.00  0.00    -0.266 OA
ATOM      7  H   UNL A   1      36.003  18.808  24.594  1.00  0.00     0.163 HD
BRANCH   5   8
ATOM      8  C   UNL A   1      33.291  20.723  24.824  1.00  0.00     0.195 A 
ATOM      9  C   UNL A   1      30.327  25.696  25.774  1.00  0.00     0.016 C 
ATOM     10  C   UNL A   1      30.583  24.374  25.739  1.00  0.00     0.001 C 
ATOM     11  C   UNL A   1      30.589  23.594  27.055  1.00  0.00     0.048 C 
ATOM     12  C   UNL A   1      30.886  23.540  24.504  1.00  0.00     0.192 C 
ATOM     13  C   UNL A   1      31.946  22.929  27.297  1.00  0.00     0.081 C 
ATOM     14  C   UNL A   1      31.850  22.478  24.780  1.00  0.00     0.067 A 
ATOM     15  O   UNL A   1      30.331  23.697  23.433  1.00  0.00    -0.289 OA
ATOM     16  C   UNL A   1      32.299  22.229  26.052  1.00  0.00     0.116 A 
ATOM     17  C   UNL A   1      32.508  21.503  23.958  1.00  0.00     0.012 A 
ATOM     18  O   UNL A   1      33.124  21.178  26.103  1.00  0.00    -0.455 OA
ATOM     19  C   UNL A   1      32.370  21.379  22.481  1.00  0.00     0.049 C 
BRANCH   9  20
ATOM     20  C   UNL A   1      30.291  26.775  24.770  1.00  0.00    -0.025 A 
ATOM     21  C   UNL A   1      29.916  28.876  22.904  1.00  0.00     0.041 A 
ATOM     22  C   UNL A   1      31.084  28.792  23.663  1.00  0.00     0.027 A 
ATOM     23  C   UNL A   1      28.955  27.882  23.042  1.00  0.00     0.027 A 
ATOM     24  C   UNL A   1      31.251  27.774  24.613  1.00  0.00     0.010 A 
ATOM     25  C   UNL A   1      29.145  26.843  23.959  1.00  0.00     0.010 A 
BRANCH  21  26
ATOM     26  N   UNL A   1      29.799  29.938  21.994  1.00  0.00    -0.326 N 
ATOM     27  C   UNL A   1      28.097  31.314  23.173  1.00  0.00     0.114 C 
ATOM     28  C   UNL A   1      28.906  30.972  21.948  1.00  0.00     0.221 C 
ATOM     29  O   UNL A   1      28.825  31.660  20.929  1.00  0.00    -0.275 OA
ATOM     30  H   UNL A   1      30.468  29.939  21.272  1.00  0.00     0.169 HD
ENDBRANCH  21  26
ENDBRANCH   9  20
ENDBRANCH   5   8
ENDBRANCH   3   4
ENDBRANCH   2   3
ENDBRANCH   1   2
BRANCH   1  31
ATOM     31  C   UNL A   1      39.390  19.749  26.427  1.00  0.00     0.116 C 
BRANCH  31  32
ATOM     32  N   UNL A   1      40.624  19.112  25.973  1.00  0.00    -0.352 N 
ATOM     33  C   UNL A   1      41.863  19.689  25.768  1.00  0.00     0.251 C 
ATOM     34  H   UNL A   1      40.567  18.147  25.789  1.00  0.00     0.163 HD
ATOM     35  O   UNL A   1      42.682  19.146  25.033  1.00  0.00    -0.269 OA
BRANCH  33  36
ATOM     36  C   UNL A   1      42.194  20.962  26.437  1.00  0.00     0.039 A 
ATOM     37  C   UNL A   1      42.546  22.091  25.691  1.00  0.00     0.014 A 
ATOM     38  C   UNL A   1      42.149  21.021  27.829  1.00  0.00     0.014 A 
ATOM     39  C   UNL A   1      42.760  23.300  26.350  1.00  0.00     0.010 A 
ATOM     40  C   UNL A   1      42.242  22.236  28.469  1.00  0.00     0.010 A 
ATOM     41  C   UNL A   1      42.579  23.373  27.741  1.00  0.00    -0.014 A 
BRANCH  41  42
ATOM     42  C   UNL A   1      42.575  24.670  28.417  1.00  0.00     0.031 A 
ATOM     43  C   UNL A   1      41.364  25.492  28.147  1.00  0.00     0.074 A 
ATOM     44  C   UNL A   1      43.457  25.008  29.383  1.00  0.00     0.049 A 
ATOM     45  N   UNL A   1      41.297  26.606  27.497  1.00  0.00    -0.248 NA
ATOM     46  C   UNL A   1      40.050  24.933  28.503  1.00  0.00     0.031 C 
ATOM     47  C   UNL A   1      44.500  24.161  29.972  1.00  0.00     0.029 A 
ATOM     48  N   UNL A   1      43.510  26.131  30.157  1.00  0.00    -0.354 N 
ATOM     49  C   UNL A   1      39.966  27.015  27.589  1.00  0.00     0.074 A 
ATOM     50  C   UNL A   1      39.226  25.853  27.999  1.00  0.00     0.031 C 
ATOM     51  C   UNL A   1      44.891  24.685  31.153  1.00  0.00     0.029 A 
ATOM     52  C   UNL A   1      44.253  25.976  31.326  1.00  0.00     0.049 A 
ATOM     53  H   UNL A   1      43.063  26.973  29.911  1.00  0.00     0.167 HD
ATOM     54  C   UNL A   1      39.638  28.338  27.597  1.00  0.00     0.034 A 
ATOM     55  C   UNL A   1      44.304  26.822  32.384  1.00  0.00     0.034 A 
ATOM     56  C   UNL A   1      40.754  29.144  27.159  1.00  0.00     0.049 A 
ATOM     57  C   UNL A   1      43.840  28.142  31.908  1.00  0.00     0.074 A 
ATOM     58  C   UNL A   1      41.542  29.207  26.029  1.00  0.00     0.029 A 
ATOM     59  N   UNL A   1      41.440  29.818  28.141  1.00  0.00    -0.354 N 
ATOM     60  N   UNL A   1      44.507  28.880  31.066  1.00  0.00    -0.248 NA
ATOM     61  C   UNL A   1      42.436  28.479  32.062  1.00  0.00     0.031 C 
ATOM     62  C   UNL A   1      42.850  29.518  26.507  1.00  0.00     0.029 A 
ATOM     63  C   UNL A   1      42.777  29.697  27.889  1.00  0.00     0.049 A 
ATOM     64  H   UNL A   1      41.036  30.304  28.896  1.00  0.00     0.167 HD
ATOM     65  C   UNL A   1      43.529  29.424  30.248  1.00  0.00     0.074 A 
ATOM     66  C   UNL A   1      42.282  29.263  30.993  1.00  0.00     0.031 C 
ATOM     67  C   UNL A   1      43.782  29.670  28.929  1.00  0.00     0.034 A 
BRANCH  54  68
ATOM     68  C   UNL A   1      38.496  28.967  28.385  1.00  0.00     0.023 A 
ATOM     69  C   UNL A   1      37.620  29.815  27.662  1.00  0.00     0.012 A 
ATOM     70  C   UNL A   1      38.403  29.022  29.794  1.00  0.00     0.148 A 
ATOM     71  C   UNL A   1      36.787  30.740  28.301  1.00  0.00     0.002 A 
ATOM     72  C   UNL A   1      37.519  29.891  30.427  1.00  0.00     0.091 A 
ATOM     73  F   UNL A   1      39.245  28.326  30.557  1.00  0.00    -0.205 F 
ATOM     74  C   UNL A   1      36.739  30.782  29.687  1.00  0.00     0.022 A 
BRANCH  72  75
ATOM     75  S   UNL A   1      37.372  29.955  32.219  1.00  0.00     0.127 S 
ATOM     76  O   UNL A   1      38.667  30.513  32.597  1.00  0.00    -0.237 OA
ATOM     77  O   UNL A   1      36.233  30.855  32.392  1.00  0.00    -0.237 OA
ATOM     78  O   UNL A   1      37.120  28.583  32.645  1.00  0.00    -0.744 OA
ENDBRANCH  72  75
ENDBRANCH  54  68
BRANCH  55  79
ATOM     79  C   UNL A   1      44.554  26.566  33.821  1.00  0.00     0.023 A 
ATOM     80  C   UNL A   1      45.834  26.816  34.360  1.00  0.00     0.012 A 
ATOM     81  C   UNL A   1      43.486  26.355  34.721  1.00  0.00     0.148 A 
ATOM     82  C   UNL A   1      46.035  26.902  35.743  1.00  0.00     0.002 A 
ATOM     83  C   UNL A   1      43.692  26.434  36.096  1.00  0.00     0.091 A 
ATOM     84  F   UNL A   1      42.254  26.177  34.229  1.00  0.00    -0.205 F 
ATOM     85  C   UNL A   1      44.962  26.720  36.611  1.00  0.00     0.022 A 
BRANCH  83  86
ATOM     86  S   UNL A   1      42.347  26.237  37.274  1.00  0.00     0.127 S 
ATOM     87  O   UNL A   1      41.867  24.889  36.965  1.00  0.00    -0.237 OA
ATOM     88  O   UNL A   1      43.046  26.362  38.550  1.00  0.00    -0.237 OA
ATOM     89  O   UNL A   1      41.395  27.296  36.965  1.00  0.00    -0.744 OA
ENDBRANCH  83  86
ENDBRANCH  55  79
BRANCH  67  90
ATOM     90  C   UNL A   1      45.218  29.660  28.465  1.00  0.00     0.023 A 
ATOM     91  C   UNL A   1      46.073  30.772  28.602  1.00  0.00     0.012 A 
ATOM     92  C   UNL A   1      45.758  28.438  28.030  1.00  0.00     0.148 A 
ATOM     93  C   UNL A   1      47.431  30.673  28.288  1.00  0.00     0.002 A 
ATOM     94  C   UNL A   1      47.118  28.329  27.771  1.00  0.00     0.091 A 
ATOM     95  F   UNL A   1      44.931  27.388  27.901  1.00  0.00    -0.205 F 
ATOM     96  C   UNL A   1      47.957  29.447  27.887  1.00  0.00     0.022 A 
BRANCH  94  97
ATOM     97  S   UNL A   1      47.867  26.745  27.387  1.00  0.00     0.127 S 
ATOM     98  O   UNL A   1      47.444  25.925  28.520  1.00  0.00    -0.237 OA
ATOM     99  O   UNL A   1      47.238  26.399  26.112  1.00  0.00    -0.237 OA
ATOM    100  O   UNL A   1      49.300  26.996  27.291  1.00  0.00    -0.744 OA
ENDBRANCH  94  97
ENDBRANCH  67  90
ENDBRANCH  41  42
ENDBRANCH  33  36
ENDBRANCH  31  32
ENDBRANCH   1  31
TORSDOF 16
ENDMDL
MODEL 2
REMARK VINA RESULT:     -13.2      3.510      6.872
REMARK SMILES CC(=O)Nc1ccc(/C=C2/CCc3oc(C(=O)NCCCCNC(=O)c4ccc(-c5c6nc(c(-c7cccc(S(=O)(=O)[O-])c7F)c7ccc([nH]7)c(-c7cccc(S(=O)(=O)[O-])c7F)c7nc(c(-c8cccc(S(=O)(=O)[O-])c8F)c8ccc5[nH]8)C=C7)C=C6)cc4)c(C)c3C2=O)cc1
REMARK SMILES IDX 21 1 20 2 19 3 18 4 16 5 17 6 15 8 9 9 10 10 11 11 92 12
REMARK SMILES IDX 12 13 91 14 93 15 13 16 89 17 14 18 90 19 8 20 5 21 6 22
REMARK SMILES IDX 95 23 7 24 94 25 4 26 1 27 2 28 3 29 22 31 23 32 24 33 25 35
REMARK SMILES IDX 26 36 27 37 88 38 28 39 87 40 29 41 30 42 31 43 81 44 32 45
REMARK SMILES IDX 86 46 80 47 82 48 33 49 85 50 79 51 78 52 34 54 66 55 46 56
REMARK SMILES IDX 65 57 47 58 50 59 64 60 83 61 48 62 49 63 63 65 84 66 51 67
REMARK SMILES IDX 35 68 36 69 44 70 37 71 39 72 45 73 38 74 40 75 41 76 42 77
REMARK SMILES IDX 43 78 67 79 68 80 76 81 69 82 71 83 77 84 70 85 72 86 73 87
REMARK SMILES IDX 74 88 75 89 52 90 53 91 61 92 54 93 56 94 62 95 55 96 57 97
REMARK SMILES IDX 58 98 59 99 60 100
REMARK H PARENT 18 7 4 30 23 34 82 53 50 64
REMARK Flexibility Score: inf
ROOT
ATOM      1  C   UNL A   1      39.902  22.229  26.825  1.00  0.00     0.023 C 
ENDROOT
BRANCH   1   2
ATOM      2  C   UNL A   1      39.055  23.511  26.845  1.00  0.00     0.023 C 
BRANCH   2   3
ATOM      3  C   UNL A   1      37.712  23.420  26.112  1.00  0.00     0.116 C 
BRANCH   3   4
ATOM      4  N   UNL A   1      37.364  22.051  25.765  1.00  0.00    -0.349 N 
ATOM      5  C   UNL A   1      36.168  21.448  25.428  1.00  0.00     0.287 C 
ATOM      6  O   UNL A   1      36.224  20.235  25.207  1.00  0.00    -0.266 OA
ATOM      7  H   UNL A   1      38.131  21.434  25.772  1.00  0.00     0.163 HD
BRANCH   5   8
ATOM      8  C   UNL A   1      34.918  22.196  25.362  1.00  0.00     0.195 A 
ATOM      9  C   UNL A   1      30.217  25.706  25.396  1.00  0.00     0.016 C 
ATOM     10  C   UNL A   1      30.933  24.567  25.326  1.00  0.00     0.001 C 
ATOM     11  C   UNL A   1      30.698  23.487  26.383  1.00  0.00     0.048 C 
ATOM     12  C   UNL A   1      31.991  24.223  24.289  1.00  0.00     0.192 C 
ATOM     13  C   UNL A   1      31.983  23.178  27.154  1.00  0.00     0.081 C 
ATOM     14  C   UNL A   1      33.080  23.431  24.856  1.00  0.00     0.067 A 
ATOM     15  O   UNL A   1      31.899  24.511  23.111  1.00  0.00    -0.289 OA
ATOM     16  C   UNL A   1      33.037  22.973  26.148  1.00  0.00     0.116 A 
ATOM     17  C   UNL A   1      34.322  22.939  24.331  1.00  0.00     0.012 A 
ATOM     18  O   UNL A   1      34.096  22.216  26.455  1.00  0.00    -0.455 OA
ATOM     19  C   UNL A   1      34.845  23.196  22.961  1.00  0.00     0.049 C 
BRANCH   9  20
ATOM     20  C   UNL A   1      30.192  26.968  24.634  1.00  0.00    -0.025 A 
ATOM     21  C   UNL A   1      29.832  29.372  23.175  1.00  0.00     0.041 A 
ATOM     22  C   UNL A   1      30.855  29.251  24.116  1.00  0.00     0.027 A 
ATOM     23  C   UNL A   1      29.017  28.273  22.928  1.00  0.00     0.027 A 
ATOM     24  C   UNL A   1      31.008  28.075  24.865  1.00  0.00     0.010 A 
ATOM     25  C   UNL A   1      29.201  27.086  23.644  1.00  0.00     0.010 A 
BRANCH  21  26
ATOM     26  N   UNL A   1      29.715  30.587  22.484  1.00  0.00    -0.326 N 
ATOM     27  C   UNL A   1      27.673  31.494  23.575  1.00  0.00     0.114 C 
ATOM     28  C   UNL A   1      28.705  31.510  22.477  1.00  0.00     0.221 C 
ATOM     29  O   UNL A   1      28.693  32.390  21.615  1.00  0.00    -0.275 OA
ATOM     30  H   UNL A   1      30.483  30.813  21.912  1.00  0.00     0.169 HD
ENDBRANCH  21  26
ENDBRANCH   9  20
ENDBRANCH   5   8
ENDBRANCH   3   4
ENDBRANCH   2   3
ENDBRANCH   1   2
BRANCH   1  31
ATOM     31  C   UNL A   1      41.305  22.371  27.413  1.00  0.00     0.116 C 
BRANCH  31  32
ATOM     32  N   UNL A   1      42.311  22.712  26.409  1.00  0.00    -0.352 N 
ATOM     33  C   UNL A   1      42.703  23.964  25.977  1.00  0.00     0.251 C 
ATOM     34  H   UNL A   1      42.769  21.950  25.985  1.00  0.00     0.163 HD
ATOM     35  O   UNL A   1      43.251  24.096  24.887  1.00  0.00    -0.269 OA
BRANCH  33  36
ATOM     36  C   UNL A   1      42.459  25.141  26.833  1.00  0.00     0.039 A 
ATOM     37  C   UNL A   1      43.136  25.294  28.047  1.00  0.00     0.014 A 
ATOM     38  C   UNL A   1      41.541  26.100  26.409  1.00  0.00     0.014 A 
ATOM     39  C   UNL A   1      42.950  26.462  28.784  1.00  0.00     0.010 A 
ATOM     40  C   UNL A   1      41.449  27.303  27.073  1.00  0.00     0.010 A 
ATOM     41  C   UNL A   1      42.125  27.479  28.277  1.00  0.00    -0.014 A 
BRANCH  41  42
ATOM     42  C   UNL A   1      42.097  28.794  28.915  1.00  0.00     0.031 A 
ATOM     43  C   UNL A   1      43.166  29.719  28.449  1.00  0.00     0.074 A 
ATOM     44  C   UNL A   1      41.070  29.229  29.677  1.00  0.00     0.049 A 
ATOM     45  N   UNL A   1      44.166  30.174  29.129  1.00  0.00    -0.248 NA
ATOM     46  C   UNL A   1      43.222  30.052  27.017  1.00  0.00     0.031 C 
ATOM     47  C   UNL A   1      39.805  28.536  29.946  1.00  0.00     0.029 A 
ATOM     48  N   UNL A   1      40.868  30.452  30.248  1.00  0.00    -0.354 N 
ATOM     49  C   UNL A   1      44.828  31.057  28.276  1.00  0.00     0.074 A 
ATOM     50  C   UNL A   1      44.353  30.757  26.953  1.00  0.00     0.031 C 
ATOM     51  C   UNL A   1      38.889  29.425  30.386  1.00  0.00     0.029 A 
ATOM     52  C   UNL A   1      39.540  30.706  30.586  1.00  0.00     0.049 A 
ATOM     53  H   UNL A   1      41.596  31.097  30.406  1.00  0.00     0.167 HD
ATOM     54  C   UNL A   1      45.491  32.143  28.768  1.00  0.00     0.034 A 
ATOM     55  C   UNL A   1      38.999  31.893  30.955  1.00  0.00     0.034 A 
ATOM     56  C   UNL A   1      45.686  32.020  30.194  1.00  0.00     0.049 A 
ATOM     57  C   UNL A   1      40.111  32.756  31.407  1.00  0.00     0.074 A 
ATOM     58  C   UNL A   1      46.285  31.103  31.034  1.00  0.00     0.029 A 
ATOM     59  N   UNL A   1      44.864  32.784  30.988  1.00  0.00    -0.354 N 
ATOM     60  N   UNL A   1      40.798  32.536  32.491  1.00  0.00    -0.248 NA
ATOM     61  C   UNL A   1      40.727  33.652  30.444  1.00  0.00     0.031 C 
ATOM     62  C   UNL A   1      45.457  31.070  32.195  1.00  0.00     0.029 A 
ATOM     63  C   UNL A   1      44.442  32.014  32.034  1.00  0.00     0.049 A 
ATOM     64  H   UNL A   1      44.621  33.725  30.828  1.00  0.00     0.167 HD
ATOM     65  C   UNL A   1      42.100  32.856  32.135  1.00  0.00     0.074 A 
ATOM     66  C   UNL A   1      41.972  33.668  30.927  1.00  0.00     0.031 C 
ATOM     67  C   UNL A   1      43.156  32.179  32.675  1.00  0.00     0.034 A 
BRANCH  54  68
ATOM     68  C   UNL A   1      45.598  33.503  28.090  1.00  0.00     0.023 A 
ATOM     69  C   UNL A   1      46.902  34.036  27.943  1.00  0.00     0.012 A 
ATOM     70  C   UNL A   1      44.525  34.396  27.868  1.00  0.00     0.148 A 
ATOM     71  C   UNL A   1      47.125  35.397  27.704  1.00  0.00     0.002 A 
ATOM     72  C   UNL A   1      44.750  35.734  27.556  1.00  0.00     0.091 A 
ATOM     73  F   UNL A   1      43.267  34.006  28.068  1.00  0.00    -0.205 F 
ATOM     74  C   UNL A   1      46.048  36.249  27.514  1.00  0.00     0.022 A 
BRANCH  72  75
ATOM     75  S   UNL A   1      43.396  36.875  27.246  1.00  0.00     0.127 S 
ATOM     76  O   UNL A   1      42.737  36.905  28.549  1.00  0.00    -0.237 OA
ATOM     77  O   UNL A   1      44.114  38.097  26.885  1.00  0.00    -0.237 OA
ATOM     78  O   UNL A   1      42.625  36.291  26.156  1.00  0.00    -0.744 OA
ENDBRANCH  72  75
ENDBRANCH  54  68
BRANCH  55  79
ATOM     79  C   UNL A   1      37.626  32.427  30.797  1.00  0.00     0.023 A 
ATOM     80  C   UNL A   1      36.839  32.008  29.703  1.00  0.00     0.012 A 
ATOM     81  C   UNL A   1      36.985  33.113  31.851  1.00  0.00     0.148 A 
ATOM     82  C   UNL A   1      35.455  32.220  29.683  1.00  0.00     0.002 A 
ATOM     83  C   UNL A   1      35.609  33.329  31.822  1.00  0.00     0.091 A 
ATOM     84  F   UNL A   1      37.704  33.465  32.924  1.00  0.00    -0.205 F 
ATOM     85  C   UNL A   1      34.839  32.872  30.747  1.00  0.00     0.022 A 
BRANCH  83  86
ATOM     86  S   UNL A   1      34.743  34.140  33.174  1.00  0.00     0.127 S 
ATOM     87  O   UNL A   1      35.065  33.270  34.307  1.00  0.00    -0.237 OA
ATOM     88  O   UNL A   1      35.391  35.448  33.201  1.00  0.00    -0.237 OA
ATOM     89  O   UNL A   1      33.335  34.136  32.798  1.00  0.00    -0.744 OA
ENDBRANCH  83  86
ENDBRANCH  55  79
BRANCH  67  90
ATOM     90  C   UNL A   1      42.908  31.328  33.896  1.00  0.00     0.023 A 
ATOM     91  C   UNL A   1      42.837  31.863  35.199  1.00  0.00     0.012 A 
ATOM     92  C   UNL A   1      42.573  29.978  33.697  1.00  0.00     0.148 A 
ATOM     93  C   UNL A   1      42.467  31.061  36.282  1.00  0.00     0.002 A 
ATOM     94  C   UNL A   1      42.153  29.198  34.767  1.00  0.00     0.091 A 
ATOM     95  F   UNL A   1      42.648  29.482  32.452  1.00  0.00    -0.205 F 
ATOM     96  C   UNL A   1      42.109  29.732  36.064  1.00  0.00     0.022 A 
BRANCH  94  97
ATOM     97  S   UNL A   1      41.552  27.527  34.519  1.00  0.00     0.127 S 
ATOM     98  O   UNL A   1      40.433  27.738  33.603  1.00  0.00    -0.237 OA
ATOM     99  O   UNL A   1      42.711  26.859  33.925  1.00  0.00    -0.237 OA
ATOM    100  O   UNL A   1      41.198  27.031  35.843  1.00  0.00    -0.744 OA
ENDBRANCH  94  97
ENDBRANCH  67  90
ENDBRANCH  41  42
ENDBRANCH  33  36
ENDBRANCH  31  32
ENDBRANCH   1  31
TORSDOF 16
ENDMDL
MODEL 3
REMARK VINA RESULT:     -13.2      3.321      7.062
REMARK SMILES CC(=O)Nc1ccc(/C=C2/CCc3oc(C(=O)NCCCCNC(=O)c4ccc(-c5c6nc(c(-c7cccc(S(=O)(=O)[O-])c7F)c7ccc([nH]7)c(-c7cccc(S(=O)(=O)[O-])c7F)c7nc(c(-c8cccc(S(=O)(=O)[O-])c8F)c8ccc5[nH]8)C=C7)C=C6)cc4)c(C)c3C2=O)cc1
REMARK SMILES IDX 21 1 20 2 19 3 18 4 16 5 17 6 15 8 9 9 10 10 11 11 92 12
REMARK SMILES IDX 12 13 91 14 93 15 13 16 89 17 14 18 90 19 8 20 5 21 6 22
REMARK SMILES IDX 95 23 7 24 94 25 4 26 1 27 2 28 3 29 22 31 23 32 24 33 25 35
REMARK SMILES IDX 26 36 27 37 88 38 28 39 87 40 29 41 30 42 31 43 81 44 32 45
REMARK SMILES IDX 86 46 80 47 82 48 33 49 85 50 79 51 78 52 34 54 66 55 46 56
REMARK SMILES IDX 65 57 47 58 50 59 64 60 83 61 48 62 49 63 63 65 84 66 51 67
REMARK SMILES IDX 35 68 36 69 44 70 37 71 39 72 45 73 38 74 40 75 41 76 42 77
REMARK SMILES IDX 43 78 67 79 68 80 76 81 69 82 71 83 77 84 70 85 72 86 73 87
REMARK SMILES IDX 74 88 75 89 52 90 53 91 61 92 54 93 56 94 62 95 55 96 57 97
REMARK SMILES IDX 58 98 59 99 60 100
REMARK H PARENT 18 7 4 30 23 34 82 53 50 64
REMARK Flexibility Score: inf
ROOT
ATOM      1  C   UNL A   1      39.768  21.894  26.519  1.00  0.00     0.023 C 
ENDROOT
BRANCH   1   2
ATOM      2  C   UNL A   1      38.985  23.217  26.520  1.00  0.00     0.023 C 
BRANCH   2   3
ATOM      3  C   UNL A   1      37.602  23.160  25.862  1.00  0.00     0.116 C 
BRANCH   3   4
ATOM      4  N   UNL A   1      37.207  21.801  25.523  1.00  0.00    -0.349 N 
ATOM      5  C   UNL A   1      35.986  21.231  25.219  1.00  0.00     0.287 C 
ATOM      6  O   UNL A   1      36.004  20.018  24.995  1.00  0.00    -0.266 OA
ATOM      7  H   UNL A   1      37.957  21.164  25.507  1.00  0.00     0.163 HD
BRANCH   5   8
ATOM      8  C   UNL A   1      34.755  22.012  25.191  1.00  0.00     0.195 A 
ATOM      9  C   UNL A   1      30.151  25.643  25.379  1.00  0.00     0.016 C 
ATOM     10  C   UNL A   1      30.835  24.486  25.276  1.00  0.00     0.001 C 
ATOM     11  C   UNL A   1      30.593  23.396  26.321  1.00  0.00     0.048 C 
ATOM     12  C   UNL A   1      31.862  24.131  24.211  1.00  0.00     0.192 C 
ATOM     13  C   UNL A   1      31.885  23.042  27.060  1.00  0.00     0.081 C 
ATOM     14  C   UNL A   1      32.940  23.302  24.744  1.00  0.00     0.067 A 
ATOM     15  O   UNL A   1      31.752  24.440  23.040  1.00  0.00    -0.289 OA
ATOM     16  C   UNL A   1      32.912  22.826  26.029  1.00  0.00     0.116 A 
ATOM     17  C   UNL A   1      34.158  22.787  24.185  1.00  0.00     0.012 A 
ATOM     18  O   UNL A   1      33.957  22.037  26.301  1.00  0.00    -0.455 OA
ATOM     19  C   UNL A   1      34.659  23.051  22.808  1.00  0.00     0.049 C 
BRANCH   9  20
ATOM     20  C   UNL A   1      30.143  26.916  24.636  1.00  0.00    -0.025 A 
ATOM     21  C   UNL A   1      29.816  29.352  23.224  1.00  0.00     0.041 A 
ATOM     22  C   UNL A   1      30.859  29.188  24.136  1.00  0.00     0.027 A 
ATOM     23  C   UNL A   1      28.963  28.282  22.981  1.00  0.00     0.027 A 
ATOM     24  C   UNL A   1      30.996  27.995  24.863  1.00  0.00     0.010 A 
ATOM     25  C   UNL A   1      29.130  27.079  23.675  1.00  0.00     0.010 A 
BRANCH  21  26
ATOM     26  N   UNL A   1      29.716  30.581  22.555  1.00  0.00    -0.326 N 
ATOM     27  C   UNL A   1      27.653  31.472  23.618  1.00  0.00     0.114 C 
ATOM     28  C   UNL A   1      28.709  31.506  22.544  1.00  0.00     0.221 C 
ATOM     29  O   UNL A   1      28.718  32.404  21.699  1.00  0.00    -0.275 OA
ATOM     30  H   UNL A   1      30.498  30.816  22.004  1.00  0.00     0.169 HD
ENDBRANCH  21  26
ENDBRANCH   9  20
ENDBRANCH   5   8
ENDBRANCH   3   4
ENDBRANCH   2   3
ENDBRANCH   1   2
BRANCH   1  31
ATOM     31  C   UNL A   1      41.069  21.911  27.320  1.00  0.00     0.116 C 
BRANCH  31  32
ATOM     32  N   UNL A   1      42.236  22.235  26.501  1.00  0.00    -0.352 N 
ATOM     33  C   UNL A   1      42.756  23.479  26.201  1.00  0.00     0.251 C 
ATOM     34  H   UNL A   1      42.714  21.466  26.113  1.00  0.00     0.163 HD
ATOM     35  O   UNL A   1      43.474  23.625  25.216  1.00  0.00    -0.269 OA
BRANCH  33  36
ATOM     36  C   UNL A   1      42.443  24.630  27.070  1.00  0.00     0.039 A 
ATOM     37  C   UNL A   1      43.104  24.805  28.289  1.00  0.00     0.014 A 
ATOM     38  C   UNL A   1      41.475  25.542  26.652  1.00  0.00     0.014 A 
ATOM     39  C   UNL A   1      42.851  25.953  29.038  1.00  0.00     0.010 A 
ATOM     40  C   UNL A   1      41.313  26.730  27.330  1.00  0.00     0.010 A 
ATOM     41  C   UNL A   1      41.973  26.928  28.539  1.00  0.00    -0.014 A 
BRANCH  41  42
ATOM     42  C   UNL A   1      41.869  28.232  29.193  1.00  0.00     0.031 A 
ATOM     43  C   UNL A   1      42.844  29.241  28.696  1.00  0.00     0.074 A 
ATOM     44  C   UNL A   1      40.842  28.580  29.999  1.00  0.00     0.049 A 
ATOM     45  N   UNL A   1      43.832  29.767  29.341  1.00  0.00    -0.248 NA
ATOM     46  C   UNL A   1      42.817  29.589  27.266  1.00  0.00     0.031 C 
ATOM     47  C   UNL A   1      39.646  27.788  30.309  1.00  0.00     0.029 A 
ATOM     48  N   UNL A   1      40.570  29.779  30.591  1.00  0.00    -0.354 N 
ATOM     49  C   UNL A   1      44.390  30.705  28.473  1.00  0.00     0.074 A 
ATOM     50  C   UNL A   1      43.887  30.380  27.167  1.00  0.00     0.031 C 
ATOM     51  C   UNL A   1      38.683  28.600  30.795  1.00  0.00     0.029 A 
ATOM     52  C   UNL A   1      39.240  29.926  30.983  1.00  0.00     0.049 A 
ATOM     53  H   UNL A   1      41.251  30.477  30.728  1.00  0.00     0.167 HD
ATOM     54  C   UNL A   1      44.986  31.835  28.951  1.00  0.00     0.034 A 
ATOM     55  C   UNL A   1      38.625  31.065  31.386  1.00  0.00     0.034 A 
ATOM     56  C   UNL A   1      45.246  31.716  30.367  1.00  0.00     0.049 A 
ATOM     57  C   UNL A   1      39.684  32.007  31.804  1.00  0.00     0.074 A 
ATOM     58  C   UNL A   1      45.947  30.842  31.172  1.00  0.00     0.029 A 
ATOM     59  N   UNL A   1      44.400  32.407  31.201  1.00  0.00    -0.354 N 
ATOM     60  N   UNL A   1      40.428  31.833  32.858  1.00  0.00    -0.248 NA
ATOM     61  C   UNL A   1      40.190  32.956  30.829  1.00  0.00     0.031 C 
ATOM     62  C   UNL A   1      45.171  30.735  32.365  1.00  0.00     0.029 A 
ATOM     63  C   UNL A   1      44.080  31.599  32.254  1.00  0.00     0.049 A 
ATOM     64  H   UNL A   1      44.079  33.328  31.061  1.00  0.00     0.167 HD
ATOM     65  C   UNL A   1      41.686  32.255  32.456  1.00  0.00     0.074 A 
ATOM     66  C   UNL A   1      41.448  33.065  31.263  1.00  0.00     0.031 C 
ATOM     67  C   UNL A   1      42.812  31.658  32.947  1.00  0.00     0.034 A 
BRANCH  54  68
ATOM     68  C   UNL A   1      44.960  33.205  28.285  1.00  0.00     0.023 A 
ATOM     69  C   UNL A   1      43.682  33.730  27.968  1.00  0.00     0.012 A 
ATOM     70  C   UNL A   1      46.069  33.852  27.696  1.00  0.00     0.148 A 
ATOM     71  C   UNL A   1      43.514  34.761  27.036  1.00  0.00     0.002 A 
ATOM     72  C   UNL A   1      45.902  34.927  26.827  1.00  0.00     0.091 A 
ATOM     73  F   UNL A   1      47.302  33.376  27.867  1.00  0.00    -0.205 F 
ATOM     74  C   UNL A   1      44.625  35.358  26.461  1.00  0.00     0.022 A 
BRANCH  72  75
ATOM     75  S   UNL A   1      47.306  35.776  26.090  1.00  0.00     0.127 S 
ATOM     76  O   UNL A   1      47.690  34.843  25.035  1.00  0.00    -0.237 OA
ATOM     77  O   UNL A   1      46.691  37.019  25.627  1.00  0.00    -0.237 OA
ATOM     78  O   UNL A   1      48.272  35.953  27.167  1.00  0.00    -0.744 OA
ENDBRANCH  72  75
ENDBRANCH  54  68
BRANCH  55  79
ATOM     79  C   UNL A   1      37.210  31.491  31.288  1.00  0.00     0.023 A 
ATOM     80  C   UNL A   1      36.542  31.957  32.440  1.00  0.00     0.012 A 
ATOM     81  C   UNL A   1      36.601  31.715  30.034  1.00  0.00     0.148 A 
ATOM     82  C   UNL A   1      35.337  32.663  32.344  1.00  0.00     0.002 A 
ATOM     83  C   UNL A   1      35.398  32.411  29.944  1.00  0.00     0.091 A 
ATOM     84  F   UNL A   1      37.247  31.334  28.925  1.00  0.00    -0.205 F 
ATOM     85  C   UNL A   1      34.770  32.899  31.096  1.00  0.00     0.022 A 
BRANCH  83  86
ATOM     86  S   UNL A   1      34.622  32.774  28.362  1.00  0.00     0.127 S 
ATOM     87  O   UNL A   1      33.654  33.809  28.728  1.00  0.00    -0.237 OA
ATOM     88  O   UNL A   1      35.757  33.247  27.574  1.00  0.00    -0.237 OA
ATOM     89  O   UNL A   1      34.021  31.521  27.922  1.00  0.00    -0.744 OA
ENDBRANCH  83  86
ENDBRANCH  55  79
BRANCH  67  90
ATOM     90  C   UNL A   1      42.679  30.780  34.166  1.00  0.00     0.023 A 
ATOM     91  C   UNL A   1      42.648  31.295  35.479  1.00  0.00     0.012 A 
ATOM     92  C   UNL A   1      42.412  29.415  33.966  1.00  0.00     0.148 A 
ATOM     93  C   UNL A   1      42.383  30.461  36.568  1.00  0.00     0.002 A 
ATOM     94  C   UNL A   1      42.095  28.601  35.045  1.00  0.00     0.091 A 
ATOM     95  F   UNL A   1      42.448  28.938  32.712  1.00  0.00    -0.205 F 
ATOM     96  C   UNL A   1      42.091  29.117  36.350  1.00  0.00     0.022 A 
BRANCH  94  97
ATOM     97  S   UNL A   1      41.579  26.900  34.806  1.00  0.00     0.127 S 
ATOM     98  O   UNL A   1      41.248  26.487  36.167  1.00  0.00    -0.237 OA
ATOM     99  O   UNL A   1      40.428  27.042  33.912  1.00  0.00    -0.237 OA
ATOM    100  O   UNL A   1      42.717  26.220  34.200  1.00  0.00    -0.744 OA
ENDBRANCH  94  97
ENDBRANCH  67  90
ENDBRANCH  41  42
ENDBRANCH  33  36
ENDBRANCH  31  32
ENDBRANCH   1  31
TORSDOF 16
ENDMDL
