MODEL 1
REMARK VINA RESULT:     -11.5      0.000      0.000
REMARK SMILES C[NH2+][C@@]1(C(=O)NCCCCNC(=O)c2ccc(-c3c4nc(c(-c5cccc(S(=O)(=O)[O-])c5F)c5ccc([nH]5)c(-c5cccc(S(=O)(=O)[O-])c5F)c5nc(c(-c6cccc(S(=O)(=O)[O-])c6F)c6ccc3[nH]6)C=C5)C=C4)cc2)CC[C@@H](OC2CCC2)C1
REMARK SMILES IDX 9 1 8 2 7 3 6 4 4 5 5 6 3 8 77 9 85 10 78 11 79 12 2 13 1 14
REMARK SMILES IDX 80 17 81 18 82 19 84 20 83 21 10 22 11 23 12 24 13 26 14 27
REMARK SMILES IDX 15 28 76 29 16 30 75 31 17 32 18 33 19 34 69 35 20 36 74 37
REMARK SMILES IDX 68 38 70 39 21 40 73 41 67 42 66 43 22 45 54 46 34 47 53 48
REMARK SMILES IDX 35 49 38 50 52 51 71 52 36 53 37 54 51 56 72 57 39 58 23 59
REMARK SMILES IDX 24 60 32 61 25 62 27 63 33 64 26 65 28 66 29 67 30 68 31 69
REMARK SMILES IDX 55 70 56 71 64 72 57 73 59 74 65 75 58 76 60 77 61 78 62 79
REMARK SMILES IDX 63 80 40 81 41 82 49 83 42 84 44 85 50 86 43 87 45 88 46 89
REMARK SMILES IDX 47 90 48 91
REMARK H PARENT 6 7 2 15 2 16 11 25 70 44 38 55
REMARK Flexibility Score: inf
ROOT
ATOM      1  C   UNL A   1      31.751  28.890  26.079  1.00  0.00     0.023 C 
ENDROOT
BRANCH   1   2
ATOM      2  C   UNL A   1      32.097  27.643  26.891  1.00  0.00     0.023 C 
BRANCH   2   3
ATOM      3  C   UNL A   1      32.077  26.344  26.089  1.00  0.00     0.116 C 
BRANCH   3   4
ATOM      4  N   UNL A   1      31.381  25.286  26.775  1.00  0.00    -0.351 N 
ATOM      5  C   UNL A   1      31.541  23.934  26.784  1.00  0.00     0.281 C 
ATOM      6  O   UNL A   1      30.677  23.332  27.435  1.00  0.00    -0.268 OA
ATOM      7  H   UNL A   1      30.645  25.602  27.348  1.00  0.00     0.163 HD
BRANCH   5   8
ATOM      8  C   UNL A   1      32.703  23.176  26.007  1.00  0.00     0.177 C 
ATOM      9  C   UNL A   1      32.462  22.969  24.495  1.00  0.00     0.082 C 
ATOM     10  C   UNL A   1      32.900  21.766  26.605  1.00  0.00     0.111 C 
ATOM     11  C   UNL A   1      32.292  21.477  24.213  1.00  0.00     0.039 C 
ATOM     12  C   UNL A   1      32.621  20.747  25.504  1.00  0.00     0.125 C 
BRANCH   8  13
ATOM     13  N   UNL A   1      33.992  23.908  26.220  1.00  0.00    -0.336 N 
ATOM     14  C   UNL A   1      35.134  23.082  26.596  1.00  0.00     0.331 C 
ATOM     15  H   UNL A   1      34.226  24.390  25.352  1.00  0.00     0.346 HD
ATOM     16  H   UNL A   1      33.829  24.533  27.009  1.00  0.00     0.346 HD
ENDBRANCH   8  13
BRANCH  12  17
ATOM     17  O   UNL A   1      33.536  19.666  25.411  1.00  0.00    -0.375 OA
BRANCH  17  18
ATOM     18  C   UNL A   1      33.806  18.842  24.258  1.00  0.00     0.118 C 
ATOM     19  C   UNL A   1      34.806  17.670  24.275  1.00  0.00     0.032 C 
ATOM     20  C   UNL A   1      32.746  17.842  23.745  1.00  0.00     0.032 C 
ATOM     21  C   UNL A   1      33.908  16.961  23.248  1.00  0.00     0.005 C 
ENDBRANCH  17  18
ENDBRANCH  12  17
ENDBRANCH   5   8
ENDBRANCH   3   4
ENDBRANCH   2   3
ENDBRANCH   1   2
BRANCH   1  22
ATOM     22  C   UNL A   1      32.871  29.918  25.954  1.00  0.00     0.116 C 
BRANCH  22  23
ATOM     23  N   UNL A   1      32.556  31.224  26.520  1.00  0.00    -0.352 N 
ATOM     24  C   UNL A   1      33.330  31.962  27.391  1.00  0.00     0.251 C 
ATOM     25  H   UNL A   1      31.697  31.623  26.252  1.00  0.00     0.163 HD
ATOM     26  O   UNL A   1      32.939  33.024  27.848  1.00  0.00    -0.269 OA
BRANCH  24  27
ATOM     27  C   UNL A   1      34.634  31.396  27.794  1.00  0.00     0.039 A 
ATOM     28  C   UNL A   1      35.722  32.255  27.954  1.00  0.00     0.014 A 
ATOM     29  C   UNL A   1      34.722  30.049  28.151  1.00  0.00     0.014 A 
ATOM     30  C   UNL A   1      36.886  31.776  28.557  1.00  0.00     0.010 A 
ATOM     31  C   UNL A   1      35.853  29.596  28.818  1.00  0.00     0.010 A 
ATOM     32  C   UNL A   1      36.941  30.456  29.036  1.00  0.00    -0.014 A 
BRANCH  32  33
ATOM     33  C   UNL A   1      38.115  29.957  29.794  1.00  0.00     0.031 A 
ATOM     34  C   UNL A   1      38.366  30.443  31.194  1.00  0.00     0.074 A 
ATOM     35  C   UNL A   1      39.015  29.161  29.182  1.00  0.00     0.049 A 
ATOM     36  N   UNL A   1      39.374  30.187  31.986  1.00  0.00    -0.248 NA
ATOM     37  C   UNL A   1      37.373  31.367  31.766  1.00  0.00     0.031 C 
ATOM     38  C   UNL A   1      38.939  28.707  27.791  1.00  0.00     0.029 A 
ATOM     39  N   UNL A   1      40.190  28.620  29.641  1.00  0.00    -0.354 N 
ATOM     40  C   UNL A   1      39.162  30.953  33.125  1.00  0.00     0.074 A 
ATOM     41  C   UNL A   1      37.948  31.708  32.910  1.00  0.00     0.031 C 
ATOM     42  C   UNL A   1      40.016  27.954  27.513  1.00  0.00     0.029 A 
ATOM     43  C   UNL A   1      40.869  27.885  28.696  1.00  0.00     0.049 A 
ATOM     44  H   UNL A   1      40.517  28.744  30.562  1.00  0.00     0.167 HD
ATOM     45  C   UNL A   1      39.893  30.997  34.264  1.00  0.00     0.034 A 
ATOM     46  C   UNL A   1      42.044  27.230  28.775  1.00  0.00     0.034 A 
ATOM     47  C   UNL A   1      41.056  30.188  34.503  1.00  0.00     0.049 A 
ATOM     48  C   UNL A   1      42.786  27.219  30.084  1.00  0.00     0.074 A 
ATOM     49  C   UNL A   1      41.797  30.070  35.665  1.00  0.00     0.029 A 
ATOM     50  N   UNL A   1      41.645  29.356  33.564  1.00  0.00    -0.354 N 
ATOM     51  N   UNL A   1      42.472  27.805  31.214  1.00  0.00    -0.248 NA
ATOM     52  C   UNL A   1      44.023  26.425  30.144  1.00  0.00     0.031 C 
ATOM     53  C   UNL A   1      42.840  29.167  35.426  1.00  0.00     0.029 A 
ATOM     54  C   UNL A   1      42.741  28.719  34.118  1.00  0.00     0.049 A 
ATOM     55  H   UNL A   1      41.330  29.236  32.640  1.00  0.00     0.167 HD
ATOM     56  C   UNL A   1      43.450  27.427  32.125  1.00  0.00     0.074 A 
ATOM     57  C   UNL A   1      44.357  26.542  31.422  1.00  0.00     0.031 C 
ATOM     58  C   UNL A   1      43.595  27.793  33.423  1.00  0.00     0.034 A 
BRANCH  45  59
ATOM     59  C   UNL A   1      39.405  31.894  35.369  1.00  0.00     0.023 A 
ATOM     60  C   UNL A   1      38.485  31.390  36.311  1.00  0.00     0.012 A 
ATOM     61  C   UNL A   1      39.885  33.211  35.506  1.00  0.00     0.148 A 
ATOM     62  C   UNL A   1      38.023  32.193  37.353  1.00  0.00     0.002 A 
ATOM     63  C   UNL A   1      39.450  33.991  36.571  1.00  0.00     0.091 A 
ATOM     64  F   UNL A   1      40.738  33.681  34.585  1.00  0.00    -0.205 F 
ATOM     65  C   UNL A   1      38.513  33.488  37.488  1.00  0.00     0.022 A 
BRANCH  63  66
ATOM     66  S   UNL A   1      40.078  35.648  36.872  1.00  0.00     0.127 S 
ATOM     67  O   UNL A   1      39.569  36.372  35.708  1.00  0.00    -0.237 OA
ATOM     68  O   UNL A   1      39.433  35.999  38.137  1.00  0.00    -0.237 OA
ATOM     69  O   UNL A   1      41.526  35.517  36.948  1.00  0.00    -0.744 OA
ENDBRANCH  63  66
ENDBRANCH  45  59
BRANCH  46  70
ATOM     70  C   UNL A   1      42.540  26.451  27.605  1.00  0.00     0.023 A 
ATOM     71  C   UNL A   1      43.427  27.063  26.699  1.00  0.00     0.012 A 
ATOM     72  C   UNL A   1      42.173  25.106  27.404  1.00  0.00     0.148 A 
ATOM     73  C   UNL A   1      43.920  26.361  25.600  1.00  0.00     0.002 A 
ATOM     74  C   UNL A   1      42.707  24.396  26.334  1.00  0.00     0.091 A 
ATOM     75  F   UNL A   1      41.316  24.544  28.268  1.00  0.00    -0.205 F 
ATOM     76  C   UNL A   1      43.570  25.025  25.422  1.00  0.00     0.022 A 
BRANCH  74  77
ATOM     77  S   UNL A   1      42.412  22.638  26.106  1.00  0.00     0.127 S 
ATOM     78  O   UNL A   1      40.954  22.579  26.099  1.00  0.00    -0.237 OA
ATOM     79  O   UNL A   1      43.047  22.387  24.811  1.00  0.00    -0.237 OA
ATOM     80  O   UNL A   1      43.072  21.986  27.229  1.00  0.00    -0.744 OA
ENDBRANCH  74  77
ENDBRANCH  46  70
BRANCH  58  81
ATOM     81  C   UNL A   1      44.762  27.223  34.184  1.00  0.00     0.023 A 
ATOM     82  C   UNL A   1      46.002  27.891  34.157  1.00  0.00     0.012 A 
ATOM     83  C   UNL A   1      44.606  26.084  34.996  1.00  0.00     0.148 A 
ATOM     84  C   UNL A   1      47.076  27.421  34.911  1.00  0.00     0.002 A 
ATOM     85  C   UNL A   1      45.669  25.645  35.779  1.00  0.00     0.091 A 
ATOM     86  F   UNL A   1      43.424  25.449  34.991  1.00  0.00    -0.205 F 
ATOM     87  C   UNL A   1      46.906  26.307  35.730  1.00  0.00     0.022 A 
BRANCH  85  88
ATOM     88  S   UNL A   1      45.505  24.277  36.932  1.00  0.00     0.127 S 
ATOM     89  O   UNL A   1      45.126  23.181  36.042  1.00  0.00    -0.237 OA
ATOM     90  O   UNL A   1      46.855  24.171  37.488  1.00  0.00    -0.237 OA
ATOM     91  O   UNL A   1      44.491  24.688  37.893  1.00  0.00    -0.744 OA
ENDBRANCH  85  88
ENDBRANCH  58  81
ENDBRANCH  32  33
ENDBRANCH  24  27
ENDBRANCH  22  23
ENDBRANCH   1  22
TORSDOF 17
ENDMDL
MODEL 2
REMARK VINA RESULT:     -11.5      2.481      4.091
REMARK SMILES C[NH2+][C@@]1(C(=O)NCCCCNC(=O)c2ccc(-c3c4nc(c(-c5cccc(S(=O)(=O)[O-])c5F)c5ccc([nH]5)c(-c5cccc(S(=O)(=O)[O-])c5F)c5nc(c(-c6cccc(S(=O)(=O)[O-])c6F)c6ccc3[nH]6)C=C5)C=C4)cc2)CC[C@@H](OC2CCC2)C1
REMARK SMILES IDX 9 1 8 2 7 3 6 4 4 5 5 6 3 8 77 9 85 10 78 11 79 12 2 13 1 14
REMARK SMILES IDX 80 17 81 18 82 19 84 20 83 21 10 22 11 23 12 24 13 26 14 27
REMARK SMILES IDX 15 28 76 29 16 30 75 31 17 32 18 33 19 34 69 35 20 36 74 37
REMARK SMILES IDX 68 38 70 39 21 40 73 41 67 42 66 43 22 45 54 46 34 47 53 48
REMARK SMILES IDX 35 49 38 50 52 51 71 52 36 53 37 54 51 56 72 57 39 58 23 59
REMARK SMILES IDX 24 60 32 61 25 62 27 63 33 64 26 65 28 66 29 67 30 68 31 69
REMARK SMILES IDX 55 70 56 71 64 72 57 73 59 74 65 75 58 76 60 77 61 78 62 79
REMARK SMILES IDX 63 80 40 81 41 82 49 83 42 84 44 85 50 86 43 87 45 88 46 89
REMARK SMILES IDX 47 90 48 91
REMARK H PARENT 6 7 2 15 2 16 11 25 70 44 38 55
REMARK Flexibility Score: inf
ROOT
ATOM      1  C   UNL A   1      31.826  29.480  27.060  1.00  0.00     0.023 C 
ENDROOT
BRANCH   1   2
ATOM      2  C   UNL A   1      32.231  28.020  27.255  1.00  0.00     0.023 C 
BRANCH   2   3
ATOM      3  C   UNL A   1      33.369  27.556  26.348  1.00  0.00     0.116 C 
BRANCH   3   4
ATOM      4  N   UNL A   1      33.238  26.172  25.968  1.00  0.00    -0.351 N 
ATOM      5  C   UNL A   1      32.779  25.568  24.838  1.00  0.00     0.281 C 
ATOM      6  O   UNL A   1      32.732  24.333  24.914  1.00  0.00    -0.268 OA
ATOM      7  H   UNL A   1      33.541  25.541  26.661  1.00  0.00     0.163 HD
BRANCH   5   8
ATOM      8  C   UNL A   1      32.305  26.358  23.542  1.00  0.00     0.177 C 
ATOM      9  C   UNL A   1      33.292  27.428  23.022  1.00  0.00     0.082 C 
ATOM     10  C   UNL A   1      30.984  27.101  23.835  1.00  0.00     0.111 C 
ATOM     11  C   UNL A   1      32.672  28.812  23.204  1.00  0.00     0.039 C 
ATOM     12  C   UNL A   1      31.235  28.594  23.648  1.00  0.00     0.125 C 
BRANCH   8  13
ATOM     13  N   UNL A   1      32.003  25.374  22.453  1.00  0.00    -0.336 N 
ATOM     14  C   UNL A   1      32.269  25.833  21.094  1.00  0.00     0.331 C 
ATOM     15  H   UNL A   1      32.568  24.541  22.619  1.00  0.00     0.346 HD
ATOM     16  H   UNL A   1      30.998  25.209  22.500  1.00  0.00     0.346 HD
ENDBRANCH   8  13
BRANCH  12  17
ATOM     17  O   UNL A   1      30.233  29.309  22.942  1.00  0.00    -0.375 OA
BRANCH  17  18
ATOM     18  C   UNL A   1      29.151  30.084  23.498  1.00  0.00     0.118 C 
ATOM     19  C   UNL A   1      29.150  31.625  23.540  1.00  0.00     0.032 C 
ATOM     20  C   UNL A   1      27.794  30.171  22.765  1.00  0.00     0.032 C 
ATOM     21  C   UNL A   1      27.622  31.574  23.379  1.00  0.00     0.005 C 
ENDBRANCH  17  18
ENDBRANCH  12  17
ENDBRANCH   5   8
ENDBRANCH   3   4
ENDBRANCH   2   3
ENDBRANCH   1   2
BRANCH   1  22
ATOM     22  C   UNL A   1      32.928  30.397  26.536  1.00  0.00     0.116 C 
BRANCH  22  23
ATOM     23  N   UNL A   1      32.831  31.777  26.995  1.00  0.00    -0.352 N 
ATOM     24  C   UNL A   1      33.769  32.480  27.722  1.00  0.00     0.251 C 
ATOM     25  H   UNL A   1      32.006  32.261  26.760  1.00  0.00     0.163 HD
ATOM     26  O   UNL A   1      33.556  33.620  28.103  1.00  0.00    -0.269 OA
BRANCH  24  27
ATOM     27  C   UNL A   1      35.025  31.785  28.070  1.00  0.00     0.039 A 
ATOM     28  C   UNL A   1      36.212  32.517  28.114  1.00  0.00     0.014 A 
ATOM     29  C   UNL A   1      34.985  30.454  28.493  1.00  0.00     0.014 A 
ATOM     30  C   UNL A   1      37.353  31.933  28.666  1.00  0.00     0.010 A 
ATOM     31  C   UNL A   1      36.101  29.903  29.109  1.00  0.00     0.010 A 
ATOM     32  C   UNL A   1      37.292  30.639  29.210  1.00  0.00    -0.014 A 
BRANCH  32  33
ATOM     33  C   UNL A   1      38.452  30.042  29.917  1.00  0.00     0.031 A 
ATOM     34  C   UNL A   1      38.814  30.513  31.297  1.00  0.00     0.074 A 
ATOM     35  C   UNL A   1      39.246  29.164  29.272  1.00  0.00     0.049 A 
ATOM     36  N   UNL A   1      39.832  30.174  32.043  1.00  0.00    -0.248 NA
ATOM     37  C   UNL A   1      37.937  31.528  31.906  1.00  0.00     0.031 C 
ATOM     38  C   UNL A   1      39.061  28.708  27.892  1.00  0.00     0.029 A 
ATOM     39  N   UNL A   1      40.388  28.521  29.681  1.00  0.00    -0.354 N 
ATOM     40  C   UNL A   1      39.746  30.964  33.182  1.00  0.00     0.074 A 
ATOM     41  C   UNL A   1      38.596  31.824  33.016  1.00  0.00     0.031 C 
ATOM     42  C   UNL A   1      40.051  27.858  27.571  1.00  0.00     0.029 A 
ATOM     43  C   UNL A   1      40.951  27.722  28.713  1.00  0.00     0.049 A 
ATOM     44  H   UNL A   1      40.769  28.622  30.583  1.00  0.00     0.167 HD
ATOM     45  C   UNL A   1      40.532  30.950  34.284  1.00  0.00     0.034 A 
ATOM     46  C   UNL A   1      42.065  26.963  28.743  1.00  0.00     0.034 A 
ATOM     47  C   UNL A   1      41.628  30.042  34.476  1.00  0.00     0.049 A 
ATOM     48  C   UNL A   1      42.866  26.895  30.015  1.00  0.00     0.074 A 
ATOM     49  C   UNL A   1      42.411  29.866  35.603  1.00  0.00     0.029 A 
ATOM     50  N   UNL A   1      42.093  29.153  33.521  1.00  0.00    -0.354 N 
ATOM     51  N   UNL A   1      42.661  27.515  31.152  1.00  0.00    -0.248 NA
ATOM     52  C   UNL A   1      44.028  25.993  30.025  1.00  0.00     0.031 C 
ATOM     53  C   UNL A   1      43.356  28.870  35.325  1.00  0.00     0.029 A 
ATOM     54  C   UNL A   1      43.153  28.424  34.028  1.00  0.00     0.049 A 
ATOM     55  H   UNL A   1      41.724  29.054  32.614  1.00  0.00     0.167 HD
ATOM     56  C   UNL A   1      43.645  27.057  32.020  1.00  0.00     0.074 A 
ATOM     57  C   UNL A   1      44.433  26.089  31.285  1.00  0.00     0.031 C 
ATOM     58  C   UNL A   1      43.886  27.419  33.304  1.00  0.00     0.034 A 
BRANCH  45  59
ATOM     59  C   UNL A   1      40.182  31.896  35.400  1.00  0.00     0.023 A 
ATOM     60  C   UNL A   1      40.910  33.096  35.542  1.00  0.00     0.012 A 
ATOM     61  C   UNL A   1      39.113  31.628  36.277  1.00  0.00     0.148 A 
ATOM     62  C   UNL A   1      40.602  33.998  36.559  1.00  0.00     0.002 A 
ATOM     63  C   UNL A   1      38.786  32.552  37.262  1.00  0.00     0.091 A 
ATOM     64  F   UNL A   1      38.450  30.471  36.144  1.00  0.00    -0.205 F 
ATOM     65  C   UNL A   1      39.535  33.731  37.412  1.00  0.00     0.022 A 
BRANCH  63  66
ATOM     66  S   UNL A   1      37.384  32.333  38.364  1.00  0.00     0.127 S 
ATOM     67  O   UNL A   1      37.263  30.876  38.401  1.00  0.00    -0.237 OA
ATOM     68  O   UNL A   1      37.867  32.936  39.606  1.00  0.00    -0.237 OA
ATOM     69  O   UNL A   1      36.274  33.041  37.740  1.00  0.00    -0.744 OA
ENDBRANCH  63  66
ENDBRANCH  45  59
BRANCH  46  70
ATOM     70  C   UNL A   1      42.430  26.133  27.561  1.00  0.00     0.023 A 
ATOM     71  C   UNL A   1      43.235  26.695  26.551  1.00  0.00     0.012 A 
ATOM     72  C   UNL A   1      42.024  24.790  27.446  1.00  0.00     0.148 A 
ATOM     73  C   UNL A   1      43.606  25.945  25.435  1.00  0.00     0.002 A 
ATOM     74  C   UNL A   1      42.439  24.032  26.356  1.00  0.00     0.091 A 
ATOM     75  F   UNL A   1      41.246  24.276  28.409  1.00  0.00    -0.205 F 
ATOM     76  C   UNL A   1      43.218  24.611  25.342  1.00  0.00     0.022 A 
BRANCH  74  77
ATOM     77  S   UNL A   1      42.094  22.274  26.223  1.00  0.00     0.127 S 
ATOM     78  O   UNL A   1      42.629  21.768  27.483  1.00  0.00    -0.237 OA
ATOM     79  O   UNL A   1      40.633  22.256  26.121  1.00  0.00    -0.237 OA
ATOM     80  O   UNL A   1      42.780  21.834  25.015  1.00  0.00    -0.744 OA
ENDBRANCH  74  77
ENDBRANCH  46  70
BRANCH  58  81
ATOM     81  C   UNL A   1      45.032  26.752  34.016  1.00  0.00     0.023 A 
ATOM     82  C   UNL A   1      46.324  27.305  33.922  1.00  0.00     0.012 A 
ATOM     83  C   UNL A   1      44.814  25.636  34.847  1.00  0.00     0.148 A 
ATOM     84  C   UNL A   1      47.387  26.745  34.629  1.00  0.00     0.002 A 
ATOM     85  C   UNL A   1      45.870  25.109  35.583  1.00  0.00     0.091 A 
ATOM     86  F   UNL A   1      43.582  25.110  34.905  1.00  0.00    -0.205 F 
ATOM     87  C   UNL A   1      47.158  25.657  35.467  1.00  0.00     0.022 A 
BRANCH  85  88
ATOM     88  S   UNL A   1      45.641  23.769  36.757  1.00  0.00     0.127 S 
ATOM     89  O   UNL A   1      44.687  24.356  37.696  1.00  0.00    -0.237 OA
ATOM     90  O   UNL A   1      45.092  22.704  35.916  1.00  0.00    -0.237 OA
ATOM     91  O   UNL A   1      46.963  23.486  37.298  1.00  0.00    -0.744 OA
ENDBRANCH  85  88
ENDBRANCH  58  81
ENDBRANCH  32  33
ENDBRANCH  24  27
ENDBRANCH  22  23
ENDBRANCH   1  22
TORSDOF 17
ENDMDL
MODEL 3
REMARK VINA RESULT:     -11.4      4.763      9.933
REMARK SMILES C[NH2+][C@@]1(C(=O)NCCCCNC(=O)c2ccc(-c3c4nc(c(-c5cccc(S(=O)(=O)[O-])c5F)c5ccc([nH]5)c(-c5cccc(S(=O)(=O)[O-])c5F)c5nc(c(-c6cccc(S(=O)(=O)[O-])c6F)c6ccc3[nH]6)C=C5)C=C4)cc2)CC[C@@H](OC2CCC2)C1
REMARK SMILES IDX 9 1 8 2 7 3 6 4 4 5 5 6 3 8 77 9 85 10 78 11 79 12 2 13 1 14
REMARK SMILES IDX 80 17 81 18 82 19 84 20 83 21 10 22 11 23 12 24 13 26 14 27
REMARK SMILES IDX 15 28 76 29 16 30 75 31 17 32 18 33 19 34 69 35 20 36 74 37
REMARK SMILES IDX 68 38 70 39 21 40 73 41 67 42 66 43 22 45 54 46 34 47 53 48
REMARK SMILES IDX 35 49 38 50 52 51 71 52 36 53 37 54 51 56 72 57 39 58 23 59
REMARK SMILES IDX 24 60 32 61 25 62 27 63 33 64 26 65 28 66 29 67 30 68 31 69
REMARK SMILES IDX 55 70 56 71 64 72 57 73 59 74 65 75 58 76 60 77 61 78 62 79
REMARK SMILES IDX 63 80 40 81 41 82 49 83 42 84 44 85 50 86 43 87 45 88 46 89
REMARK SMILES IDX 47 90 48 91
REMARK H PARENT 6 7 2 15 2 16 11 25 70 44 38 55
REMARK Flexibility Score: inf
ROOT
ATOM      1  C   UNL A   1      36.939  22.016  23.965  1.00  0.00     0.023 C 
ENDROOT
BRANCH   1   2
ATOM      2  C   UNL A   1      36.053  23.242  23.747  1.00  0.00     0.023 C 
BRANCH   2   3
ATOM      3  C   UNL A   1      35.541  23.886  25.033  1.00  0.00     0.116 C 
BRANCH   3   4
ATOM      4  N   UNL A   1      34.377  24.705  24.811  1.00  0.00    -0.351 N 
ATOM      5  C   UNL A   1      33.047  24.484  24.998  1.00  0.00     0.281 C 
ATOM      6  O   UNL A   1      32.324  25.407  24.600  1.00  0.00    -0.268 OA
ATOM      7  H   UNL A   1      34.584  25.600  24.455  1.00  0.00     0.163 HD
BRANCH   5   8
ATOM      8  C   UNL A   1      32.452  23.153  25.634  1.00  0.00     0.177 C 
ATOM      9  C   UNL A   1      32.896  22.857  27.084  1.00  0.00     0.082 C 
ATOM     10  C   UNL A   1      32.888  21.931  24.796  1.00  0.00     0.111 C 
ATOM     11  C   UNL A   1      33.772  21.605  27.095  1.00  0.00     0.039 C 
ATOM     12  C   UNL A   1      33.710  21.015  25.696  1.00  0.00     0.125 C 
BRANCH   8  13
ATOM     13  N   UNL A   1      30.957  23.202  25.561  1.00  0.00    -0.336 N 
ATOM     14  C   UNL A   1      30.253  22.933  26.810  1.00  0.00     0.331 C 
ATOM     15  H   UNL A   1      30.690  24.135  25.245  1.00  0.00     0.346 HD
ATOM     16  H   UNL A   1      30.685  22.456  24.922  1.00  0.00     0.346 HD
ENDBRANCH   8  13
BRANCH  12  17
ATOM     17  O   UNL A   1      33.423  19.629  25.601  1.00  0.00    -0.375 OA
BRANCH  17  18
ATOM     18  C   UNL A   1      33.548  18.785  24.438  1.00  0.00     0.118 C 
ATOM     19  C   UNL A   1      34.683  17.758  24.258  1.00  0.00     0.032 C 
ATOM     20  C   UNL A   1      32.554  17.626  24.201  1.00  0.00     0.032 C 
ATOM     21  C   UNL A   1      33.691  16.880  23.477  1.00  0.00     0.005 C 
ENDBRANCH  17  18
ENDBRANCH  12  17
ENDBRANCH   5   8
ENDBRANCH   3   4
ENDBRANCH   2   3
ENDBRANCH   1   2
BRANCH   1  22
ATOM     22  C   UNL A   1      37.317  21.737  25.417  1.00  0.00     0.116 C 
BRANCH  22  23
ATOM     23  N   UNL A   1      38.350  20.722  25.585  1.00  0.00    -0.352 N 
ATOM     24  C   UNL A   1      39.575  20.876  26.200  1.00  0.00     0.251 C 
ATOM     25  H   UNL A   1      38.152  19.830  25.220  1.00  0.00     0.163 HD
ATOM     26  O   UNL A   1      40.389  19.967  26.234  1.00  0.00    -0.269 OA
BRANCH  24  27
ATOM     27  C   UNL A   1      39.890  22.200  26.775  1.00  0.00     0.039 A 
ATOM     28  C   UNL A   1      40.865  22.289  27.769  1.00  0.00     0.014 A 
ATOM     29  C   UNL A   1      39.323  23.348  26.218  1.00  0.00     0.014 A 
ATOM     30  C   UNL A   1      41.337  23.546  28.149  1.00  0.00     0.010 A 
ATOM     31  C   UNL A   1      39.848  24.592  26.545  1.00  0.00     0.010 A 
ATOM     32  C   UNL A   1      40.866  24.703  27.506  1.00  0.00    -0.014 A 
BRANCH  32  33
ATOM     33  C   UNL A   1      41.440  26.040  27.798  1.00  0.00     0.031 A 
ATOM     34  C   UNL A   1      42.857  26.350  27.404  1.00  0.00     0.074 A 
ATOM     35  C   UNL A   1      40.728  26.928  28.520  1.00  0.00     0.049 A 
ATOM     36  N   UNL A   1      43.560  27.426  27.642  1.00  0.00    -0.248 NA
ATOM     37  C   UNL A   1      43.592  25.300  26.681  1.00  0.00     0.031 C 
ATOM     38  C   UNL A   1      39.381  26.704  29.053  1.00  0.00     0.029 A 
ATOM     39  N   UNL A   1      41.050  28.188  28.960  1.00  0.00    -0.354 N 
ATOM     40  C   UNL A   1      44.830  27.164  27.141  1.00  0.00     0.074 A 
ATOM     41  C   UNL A   1      44.810  25.817  26.617  1.00  0.00     0.031 C 
ATOM     42  C   UNL A   1      38.993  27.789  29.742  1.00  0.00     0.029 A 
ATOM     43  C   UNL A   1      40.066  28.779  29.718  1.00  0.00     0.049 A 
ATOM     44  H   UNL A   1      41.906  28.629  28.751  1.00  0.00     0.167 HD
ATOM     45  C   UNL A   1      45.905  27.984  27.090  1.00  0.00     0.034 A 
ATOM     46  C   UNL A   1      40.031  29.983  30.323  1.00  0.00     0.034 A 
ATOM     47  C   UNL A   1      45.897  29.347  27.543  1.00  0.00     0.049 A 
ATOM     48  C   UNL A   1      41.207  30.910  30.168  1.00  0.00     0.074 A 
ATOM     49  C   UNL A   1      46.896  30.297  27.428  1.00  0.00     0.029 A 
ATOM     50  N   UNL A   1      44.837  29.956  28.195  1.00  0.00    -0.354 N 
ATOM     51  N   UNL A   1      42.334  30.712  29.530  1.00  0.00    -0.248 NA
ATOM     52  C   UNL A   1      41.090  32.243  30.780  1.00  0.00     0.031 C 
ATOM     53  C   UNL A   1      46.438  31.483  28.015  1.00  0.00     0.029 A 
ATOM     54  C   UNL A   1      45.153  31.270  28.489  1.00  0.00     0.049 A 
ATOM     55  H   UNL A   1      43.983  29.519  28.415  1.00  0.00     0.167 HD
ATOM     56  C   UNL A   1      43.047  31.899  29.636  1.00  0.00     0.074 A 
ATOM     57  C   UNL A   1      42.214  32.822  30.379  1.00  0.00     0.031 C 
ATOM     58  C   UNL A   1      44.288  32.194  29.174  1.00  0.00     0.034 A 
BRANCH  45  59
ATOM     59  C   UNL A   1      47.157  27.450  26.449  1.00  0.00     0.023 A 
ATOM     60  C   UNL A   1      47.430  27.765  25.101  1.00  0.00     0.012 A 
ATOM     61  C   UNL A   1      48.082  26.681  27.181  1.00  0.00     0.148 A 
ATOM     62  C   UNL A   1      48.588  27.294  24.482  1.00  0.00     0.002 A 
ATOM     63  C   UNL A   1      49.253  26.250  26.568  1.00  0.00     0.091 A 
ATOM     64  F   UNL A   1      47.792  26.369  28.452  1.00  0.00    -0.205 F 
ATOM     65  C   UNL A   1      49.502  26.547  25.218  1.00  0.00     0.022 A 
BRANCH  63  66
ATOM     66  S   UNL A   1      50.527  25.343  27.452  1.00  0.00     0.127 S 
ATOM     67  O   UNL A   1      51.456  25.012  26.373  1.00  0.00    -0.237 OA
ATOM     68  O   UNL A   1      51.022  26.344  28.397  1.00  0.00    -0.237 OA
ATOM     69  O   UNL A   1      49.852  24.210  28.071  1.00  0.00    -0.744 OA
ENDBRANCH  63  66
ENDBRANCH  45  59
BRANCH  46  70
ATOM     70  C   UNL A   1      38.803  30.415  31.049  1.00  0.00     0.023 A 
ATOM     71  C   UNL A   1      38.707  30.180  32.434  1.00  0.00     0.012 A 
ATOM     72  C   UNL A   1      37.754  31.086  30.392  1.00  0.00     0.148 A 
ATOM     73  C   UNL A   1      37.577  30.580  33.148  1.00  0.00     0.002 A 
ATOM     74  C   UNL A   1      36.653  31.526  31.118  1.00  0.00     0.091 A 
ATOM     75  F   UNL A   1      37.856  31.288  29.070  1.00  0.00    -0.205 F 
ATOM     76  C   UNL A   1      36.555  31.263  32.493  1.00  0.00     0.022 A 
BRANCH  74  77
ATOM     77  S   UNL A   1      35.355  32.527  30.380  1.00  0.00     0.127 S 
ATOM     78  O   UNL A   1      34.965  31.711  29.234  1.00  0.00    -0.237 OA
ATOM     79  O   UNL A   1      34.367  32.590  31.459  1.00  0.00    -0.237 OA
ATOM     80  O   UNL A   1      35.981  33.805  30.070  1.00  0.00    -0.744 OA
ENDBRANCH  74  77
ENDBRANCH  46  70
BRANCH  58  81
ATOM     81  C   UNL A   1      44.820  33.578  29.432  1.00  0.00     0.023 A 
ATOM     82  C   UNL A   1      45.538  33.836  30.617  1.00  0.00     0.012 A 
ATOM     83  C   UNL A   1      44.690  34.593  28.466  1.00  0.00     0.148 A 
ATOM     84  C   UNL A   1      46.100  35.090  30.845  1.00  0.00     0.002 A 
ATOM     85  C   UNL A   1      45.290  35.829  28.680  1.00  0.00     0.091 A 
ATOM     86  F   UNL A   1      43.984  34.335  27.355  1.00  0.00    -0.205 F 
ATOM     87  C   UNL A   1      45.987  36.082  29.873  1.00  0.00     0.022 A 
BRANCH  85  88
ATOM     88  S   UNL A   1      45.274  37.128  27.439  1.00  0.00     0.127 S 
ATOM     89  O   UNL A   1      46.069  38.169  28.087  1.00  0.00    -0.237 OA
ATOM     90  O   UNL A   1      45.927  36.482  26.299  1.00  0.00    -0.237 OA
ATOM     91  O   UNL A   1      43.870  37.451  27.222  1.00  0.00    -0.744 OA
ENDBRANCH  85  88
ENDBRANCH  58  81
ENDBRANCH  32  33
ENDBRANCH  24  27
ENDBRANCH  22  23
ENDBRANCH   1  22
TORSDOF 17
ENDMDL
