MODEL 1
REMARK VINA RESULT:     -12.4      0.000      0.000
REMARK SMILES NS(=O)(=O)c1ccc(/N=N/c2ccc(O)c(C(=O)NCCCCNC(=O)c3ccc(-c4c5nc(c(-c6cccc(S(=O)(=O)[O-])c6F)c6ccc([nH]6)c(-c6cccc(S(=O)(=O)[O-])c6F)c6nc(c(-c7cccc(S(=O)(=O)[O-])c7F)c7ccc4[nH]7)C=C6)C=C5)cc3)c2)cc1
REMARK SMILES IDX 21 1 20 2 19 3 17 4 18 5 16 7 11 8 12 9 90 10 13 11 14 12
REMARK SMILES IDX 10 13 9 14 8 15 5 16 6 17 92 18 7 19 91 20 2 21 3 22 4 23
REMARK SMILES IDX 1 24 15 27 22 29 23 30 24 31 25 32 26 34 27 35 28 36 89 37
REMARK SMILES IDX 29 38 88 39 30 40 31 41 32 42 82 43 33 44 87 45 81 46 83 47
REMARK SMILES IDX 34 48 86 49 80 50 79 51 35 53 67 54 47 55 66 56 48 57 51 58
REMARK SMILES IDX 65 59 84 60 49 61 50 62 64 64 85 65 52 66 36 67 37 68 45 69
REMARK SMILES IDX 38 70 40 71 46 72 39 73 41 74 42 75 43 76 44 77 68 78 69 79
REMARK SMILES IDX 77 80 70 81 72 82 78 83 71 84 73 85 74 86 75 87 76 88 53 89
REMARK SMILES IDX 54 90 62 91 55 92 57 93 63 94 56 95 58 96 59 97 60 98 61 99
REMARK H PARENT 19 6 1 25 1 26 15 28 24 33 83 52 51 63
REMARK Flexibility Score: inf
ROOT
ATOM      1  C   UNL A   1      32.060  30.483  25.996  1.00  0.00     0.023 C 
ENDROOT
BRANCH   1   2
ATOM      2  C   UNL A   1      33.294  29.591  25.992  1.00  0.00     0.116 C 
BRANCH   2   3
ATOM      3  N   UNL A   1      33.857  29.328  24.675  1.00  0.00    -0.352 N 
ATOM      4  C   UNL A   1      33.374  28.579  23.623  1.00  0.00     0.255 C 
ATOM      5  O   UNL A   1      34.060  28.435  22.611  1.00  0.00    -0.269 OA
ATOM      6  H   UNL A   1      34.728  29.756  24.508  1.00  0.00     0.163 HD
BRANCH   4   7
ATOM      7  C   UNL A   1      32.083  27.848  23.691  1.00  0.00     0.083 A 
ATOM      8  C   UNL A   1      30.871  25.763  24.024  1.00  0.00     0.087 A 
ATOM      9  C   UNL A   1      29.744  26.335  23.427  1.00  0.00     0.034 A 
ATOM     10  C   UNL A   1      31.992  26.574  24.253  1.00  0.00     0.048 A 
ATOM     11  C   UNL A   1      29.761  27.672  23.016  1.00  0.00     0.049 A 
ATOM     12  C   UNL A   1      30.933  28.418  23.132  1.00  0.00     0.128 A 
BRANCH   8  13
ATOM     13  N   UNL A   1      30.892  24.371  24.293  1.00  0.00    -0.151 NA
ATOM     14  N   UNL A   1      32.012  23.907  23.969  1.00  0.00    -0.151 NA
BRANCH  14  15
ATOM     15  C   UNL A   1      32.073  22.508  23.999  1.00  0.00     0.086 A 
ATOM     16  C   UNL A   1      32.541  19.745  24.046  1.00  0.00     0.082 A 
ATOM     17  C   UNL A   1      32.674  20.488  25.220  1.00  0.00     0.024 A 
ATOM     18  C   UNL A   1      32.175  20.369  22.850  1.00  0.00     0.024 A 
ATOM     19  C   UNL A   1      32.443  21.868  25.189  1.00  0.00     0.031 A 
ATOM     20  C   UNL A   1      31.942  21.746  22.831  1.00  0.00     0.031 A 
BRANCH  16  21
ATOM     21  S   UNL A   1      32.890  18.012  24.007  1.00  0.00     0.238 S 
ATOM     22  O   UNL A   1      31.988  17.344  24.914  1.00  0.00    -0.207 OA
ATOM     23  O   UNL A   1      34.324  17.839  24.065  1.00  0.00    -0.207 OA
BRANCH  21  24
ATOM     24  N   UNL A   1      32.428  17.515  22.472  1.00  0.00    -0.225 NA
ATOM     25  H   UNL A   1      32.169  16.528  22.497  1.00  0.00     0.137 HD
ATOM     26  H   UNL A   1      33.204  17.645  21.824  1.00  0.00     0.137 HD
ENDBRANCH  21  24
ENDBRANCH  16  21
ENDBRANCH  14  15
ENDBRANCH   8  13
BRANCH  12  27
ATOM     27  O   UNL A   1      30.889  29.702  22.660  1.00  0.00    -0.507 OA
ATOM     28  H   UNL A   1      31.253  30.400  23.168  1.00  0.00     0.293 HD
ENDBRANCH  12  27
ENDBRANCH   4   7
ENDBRANCH   2   3
ENDBRANCH   1   2
BRANCH   1  29
ATOM     29  C   UNL A   1      31.940  31.478  27.143  1.00  0.00     0.023 C 
BRANCH  29  30
ATOM     30  C   UNL A   1      33.068  32.493  27.275  1.00  0.00     0.116 C 
BRANCH  30  31
ATOM     31  N   UNL A   1      32.622  33.840  27.612  1.00  0.00    -0.352 N 
ATOM     32  C   UNL A   1      33.108  34.711  28.560  1.00  0.00     0.251 C 
ATOM     33  H   UNL A   1      31.861  34.175  27.083  1.00  0.00     0.163 HD
ATOM     34  O   UNL A   1      32.558  35.794  28.738  1.00  0.00    -0.269 OA
BRANCH  32  35
ATOM     35  C   UNL A   1      34.267  34.319  29.393  1.00  0.00     0.039 A 
ATOM     36  C   UNL A   1      34.040  33.635  30.590  1.00  0.00     0.014 A 
ATOM     37  C   UNL A   1      35.573  34.581  28.971  1.00  0.00     0.014 A 
ATOM     38  C   UNL A   1      35.123  33.132  31.316  1.00  0.00     0.010 A 
ATOM     39  C   UNL A   1      36.643  34.005  29.648  1.00  0.00     0.010 A 
ATOM     40  C   UNL A   1      36.432  33.271  30.826  1.00  0.00    -0.014 A 
BRANCH  40  41
ATOM     41  C   UNL A   1      37.589  32.637  31.509  1.00  0.00     0.031 A 
ATOM     42  C   UNL A   1      38.317  31.489  30.865  1.00  0.00     0.074 A 
ATOM     43  C   UNL A   1      37.917  33.020  32.760  1.00  0.00     0.049 A 
ATOM     44  N   UNL A   1      39.300  30.767  31.336  1.00  0.00    -0.248 NA
ATOM     45  C   UNL A   1      37.856  31.074  29.530  1.00  0.00     0.031 C 
ATOM     46  C   UNL A   1      37.228  34.054  33.537  1.00  0.00     0.029 A 
ATOM     47  N   UNL A   1      38.891  32.562  33.612  1.00  0.00    -0.354 N 
ATOM     48  C   UNL A   1      39.545  29.789  30.381  1.00  0.00     0.074 A 
ATOM     49  C   UNL A   1      38.582  29.987  29.319  1.00  0.00     0.031 C 
ATOM     50  C   UNL A   1      37.801  34.151  34.746  1.00  0.00     0.029 A 
ATOM     51  C   UNL A   1      38.879  33.173  34.845  1.00  0.00     0.049 A 
ATOM     52  H   UNL A   1      39.539  31.863  33.363  1.00  0.00     0.167 HD
ATOM     53  C   UNL A   1      40.503  28.831  30.368  1.00  0.00     0.034 A 
ATOM     54  C   UNL A   1      39.644  32.965  35.936  1.00  0.00     0.034 A 
ATOM     55  C   UNL A   1      41.490  28.669  31.401  1.00  0.00     0.049 A 
ATOM     56  C   UNL A   1      40.742  31.939  35.876  1.00  0.00     0.074 A 
ATOM     57  C   UNL A   1      42.571  27.805  31.430  1.00  0.00     0.029 A 
ATOM     58  N   UNL A   1      41.512  29.376  32.593  1.00  0.00    -0.354 N 
ATOM     59  N   UNL A   1      41.076  31.145  34.887  1.00  0.00    -0.248 NA
ATOM     60  C   UNL A   1      41.596  31.807  37.066  1.00  0.00     0.031 C 
ATOM     61  C   UNL A   1      43.233  27.975  32.650  1.00  0.00     0.029 A 
ATOM     62  C   UNL A   1      42.580  28.962  33.371  1.00  0.00     0.049 A 
ATOM     63  H   UNL A   1      40.864  30.072  32.848  1.00  0.00     0.167 HD
ATOM     64  C   UNL A   1      42.194  30.442  35.322  1.00  0.00     0.074 A 
ATOM     65  C   UNL A   1      42.494  30.921  36.656  1.00  0.00     0.031 C 
ATOM     66  C   UNL A   1      42.898  29.478  34.678  1.00  0.00     0.034 A 
BRANCH  53  67
ATOM     67  C   UNL A   1      40.558  27.919  29.171  1.00  0.00     0.023 A 
ATOM     68  C   UNL A   1      39.670  26.825  29.087  1.00  0.00     0.012 A 
ATOM     69  C   UNL A   1      41.459  28.157  28.115  1.00  0.00     0.148 A 
ATOM     70  C   UNL A   1      39.709  25.958  27.996  1.00  0.00     0.002 A 
ATOM     71  C   UNL A   1      41.460  27.315  27.008  1.00  0.00     0.091 A 
ATOM     72  F   UNL A   1      42.312  29.186  28.220  1.00  0.00    -0.205 F 
ATOM     73  C   UNL A   1      40.597  26.209  26.954  1.00  0.00     0.022 A 
BRANCH  71  74
ATOM     74  S   UNL A   1      42.511  27.602  25.579  1.00  0.00     0.127 S 
ATOM     75  O   UNL A   1      41.961  28.853  25.057  1.00  0.00    -0.237 OA
ATOM     76  O   UNL A   1      43.836  27.727  26.189  1.00  0.00    -0.237 OA
ATOM     77  O   UNL A   1      42.346  26.436  24.724  1.00  0.00    -0.744 OA
ENDBRANCH  71  74
ENDBRANCH  53  67
BRANCH  54  78
ATOM     78  C   UNL A   1      39.438  33.804  37.150  1.00  0.00     0.023 A 
ATOM     79  C   UNL A   1      39.853  35.150  37.136  1.00  0.00     0.012 A 
ATOM     80  C   UNL A   1      38.789  33.296  38.291  1.00  0.00     0.148 A 
ATOM     81  C   UNL A   1      39.645  35.969  38.247  1.00  0.00     0.002 A 
ATOM     82  C   UNL A   1      38.536  34.133  39.373  1.00  0.00     0.091 A 
ATOM     83  F   UNL A   1      38.409  32.011  38.286  1.00  0.00    -0.205 F 
ATOM     84  C   UNL A   1      38.978  35.465  39.359  1.00  0.00     0.022 A 
BRANCH  82  85
ATOM     85  S   UNL A   1      37.565  33.611  40.792  1.00  0.00     0.127 S 
ATOM     86  O   UNL A   1      37.419  34.862  41.530  1.00  0.00    -0.237 OA
ATOM     87  O   UNL A   1      36.343  33.123  40.155  1.00  0.00    -0.237 OA
ATOM     88  O   UNL A   1      38.352  32.578  41.451  1.00  0.00    -0.744 OA
ENDBRANCH  82  85
ENDBRANCH  54  78
BRANCH  66  89
ATOM     89  C   UNL A   1      44.087  28.887  35.390  1.00  0.00     0.023 A 
ATOM     90  C   UNL A   1      45.366  29.449  35.204  1.00  0.00     0.012 A 
ATOM     91  C   UNL A   1      43.923  27.828  36.306  1.00  0.00     0.148 A 
ATOM     92  C   UNL A   1      46.468  28.946  35.896  1.00  0.00     0.002 A 
ATOM     93  C   UNL A   1      45.017  27.364  37.027  1.00  0.00     0.091 A 
ATOM     94  F   UNL A   1      42.703  27.294  36.454  1.00  0.00    -0.205 F 
ATOM     95  C   UNL A   1      46.292  27.915  36.815  1.00  0.00     0.022 A 
BRANCH  93  96
ATOM     96  S   UNL A   1      44.866  26.107  38.302  1.00  0.00     0.127 S 
ATOM     97  O   UNL A   1      44.099  26.813  39.327  1.00  0.00    -0.237 OA
ATOM     98  O   UNL A   1      44.129  25.049  37.610  1.00  0.00    -0.237 OA
ATOM     99  O   UNL A   1      46.227  25.749  38.674  1.00  0.00    -0.744 OA
ENDBRANCH  93  96
ENDBRANCH  66  89
ENDBRANCH  40  41
ENDBRANCH  32  35
ENDBRANCH  30  31
ENDBRANCH  29  30
ENDBRANCH   1  29
TORSDOF 19
ENDMDL
MODEL 2
REMARK VINA RESULT:     -12.0      6.058     12.105
REMARK SMILES NS(=O)(=O)c1ccc(/N=N/c2ccc(O)c(C(=O)NCCCCNC(=O)c3ccc(-c4c5nc(c(-c6cccc(S(=O)(=O)[O-])c6F)c6ccc([nH]6)c(-c6cccc(S(=O)(=O)[O-])c6F)c6nc(c(-c7cccc(S(=O)(=O)[O-])c7F)c7ccc4[nH]7)C=C6)C=C5)cc3)c2)cc1
REMARK SMILES IDX 21 1 20 2 19 3 17 4 18 5 16 7 11 8 12 9 90 10 13 11 14 12
REMARK SMILES IDX 10 13 9 14 8 15 5 16 6 17 92 18 7 19 91 20 2 21 3 22 4 23
REMARK SMILES IDX 1 24 15 27 22 29 23 30 24 31 25 32 26 34 27 35 28 36 89 37
REMARK SMILES IDX 29 38 88 39 30 40 31 41 32 42 82 43 33 44 87 45 81 46 83 47
REMARK SMILES IDX 34 48 86 49 80 50 79 51 35 53 67 54 47 55 66 56 48 57 51 58
REMARK SMILES IDX 65 59 84 60 49 61 50 62 64 64 85 65 52 66 36 67 37 68 45 69
REMARK SMILES IDX 38 70 40 71 46 72 39 73 41 74 42 75 43 76 44 77 68 78 69 79
REMARK SMILES IDX 77 80 70 81 72 82 78 83 71 84 73 85 74 86 75 87 76 88 53 89
REMARK SMILES IDX 54 90 62 91 55 92 57 93 63 94 56 95 58 96 59 97 60 98 61 99
REMARK H PARENT 19 6 1 25 1 26 15 28 24 33 83 52 51 63
REMARK Flexibility Score: inf
ROOT
ATOM      1  C   UNL A   1      38.810  22.965  26.446  1.00  0.00     0.023 C 
ENDROOT
BRANCH   1   2
ATOM      2  C   UNL A   1      37.577  23.559  25.776  1.00  0.00     0.116 C 
BRANCH   2   3
ATOM      3  N   UNL A   1      37.527  23.398  24.330  1.00  0.00    -0.352 N 
ATOM      4  C   UNL A   1      36.492  23.017  23.503  1.00  0.00     0.255 C 
ATOM      5  O   UNL A   1      36.696  22.880  22.296  1.00  0.00    -0.269 OA
ATOM      6  H   UNL A   1      38.372  23.596  23.866  1.00  0.00     0.163 HD
BRANCH   4   7
ATOM      7  C   UNL A   1      35.145  22.666  24.019  1.00  0.00     0.083 A 
ATOM      8  C   UNL A   1      32.843  23.314  24.478  1.00  0.00     0.087 A 
ATOM      9  C   UNL A   1      32.718  22.220  25.339  1.00  0.00     0.034 A 
ATOM     10  C   UNL A   1      34.026  23.451  23.737  1.00  0.00     0.048 A 
ATOM     11  C   UNL A   1      33.776  21.318  25.498  1.00  0.00     0.049 A 
ATOM     12  C   UNL A   1      34.989  21.553  24.854  1.00  0.00     0.128 A 
BRANCH   8  13
ATOM     13  N   UNL A   1      31.825  24.300  24.445  1.00  0.00    -0.151 NA
ATOM     14  N   UNL A   1      31.907  24.938  23.368  1.00  0.00    -0.151 NA
BRANCH  14  15
ATOM     15  C   UNL A   1      31.082  26.069  23.319  1.00  0.00     0.086 A 
ATOM     16  C   UNL A   1      29.271  28.177  22.954  1.00  0.00     0.082 A 
ATOM     17  C   UNL A   1      28.869  27.032  23.645  1.00  0.00     0.024 A 
ATOM     18  C   UNL A   1      30.569  28.278  22.446  1.00  0.00     0.024 A 
ATOM     19  C   UNL A   1      29.776  25.982  23.820  1.00  0.00     0.031 A 
ATOM     20  C   UNL A   1      31.469  27.226  22.630  1.00  0.00     0.031 A 
BRANCH  16  21
ATOM     21  S   UNL A   1      28.148  29.506  22.638  1.00  0.00     0.238 S 
ATOM     22  O   UNL A   1      28.158  29.786  21.223  1.00  0.00    -0.207 OA
ATOM     23  O   UNL A   1      28.366  30.527  23.637  1.00  0.00    -0.207 OA
BRANCH  21  24
ATOM     24  N   UNL A   1      26.627  28.869  22.956  1.00  0.00    -0.225 NA
ATOM     25  H   UNL A   1      25.949  29.628  23.030  1.00  0.00     0.137 HD
ATOM     26  H   UNL A   1      26.653  28.350  23.833  1.00  0.00     0.137 HD
ENDBRANCH  21  24
ENDBRANCH  16  21
ENDBRANCH  14  15
ENDBRANCH   8  13
BRANCH  12  27
ATOM     27  O   UNL A   1      35.995  20.657  25.099  1.00  0.00    -0.507 OA
ATOM     28  H   UNL A   1      35.877  19.752  24.890  1.00  0.00     0.293 HD
ENDBRANCH  12  27
ENDBRANCH   4   7
ENDBRANCH   2   3
ENDBRANCH   1   2
BRANCH   1  29
ATOM     29  C   UNL A   1      39.409  21.724  25.798  1.00  0.00     0.023 C 
BRANCH  29  30
ATOM     30  C   UNL A   1      39.480  20.477  26.668  1.00  0.00     0.116 C 
BRANCH  30  31
ATOM     31  N   UNL A   1      40.401  19.458  26.176  1.00  0.00    -0.352 N 
ATOM     32  C   UNL A   1      41.761  19.531  25.980  1.00  0.00     0.251 C 
ATOM     33  H   UNL A   1      39.988  18.593  25.951  1.00  0.00     0.163 HD
ATOM     34  O   UNL A   1      42.363  18.575  25.498  1.00  0.00    -0.269 OA
BRANCH  32  35
ATOM     35  C   UNL A   1      42.487  20.777  26.311  1.00  0.00     0.039 A 
ATOM     36  C   UNL A   1      42.991  21.563  25.272  1.00  0.00     0.014 A 
ATOM     37  C   UNL A   1      42.625  21.194  27.637  1.00  0.00     0.014 A 
ATOM     38  C   UNL A   1      43.550  22.812  25.557  1.00  0.00     0.010 A 
ATOM     39  C   UNL A   1      43.101  22.472  27.910  1.00  0.00     0.010 A 
ATOM     40  C   UNL A   1      43.567  23.298  26.874  1.00  0.00    -0.014 A 
BRANCH  40  41
ATOM     41  C   UNL A   1      44.038  24.671  27.190  1.00  0.00     0.031 A 
ATOM     42  C   UNL A   1      43.083  25.695  27.740  1.00  0.00     0.074 A 
ATOM     43  C   UNL A   1      45.299  25.032  26.878  1.00  0.00     0.049 A 
ATOM     44  N   UNL A   1      43.292  26.957  28.010  1.00  0.00    -0.248 NA
ATOM     45  C   UNL A   1      41.700  25.251  27.986  1.00  0.00     0.031 C 
ATOM     46  C   UNL A   1      46.297  24.164  26.249  1.00  0.00     0.029 A 
ATOM     47  N   UNL A   1      45.948  26.234  27.016  1.00  0.00    -0.354 N 
ATOM     48  C   UNL A   1      42.064  27.468  28.412  1.00  0.00     0.074 A 
ATOM     49  C   UNL A   1      41.106  26.388  28.316  1.00  0.00     0.031 C 
ATOM     50  C   UNL A   1      47.429  24.859  26.057  1.00  0.00     0.029 A 
ATOM     51  C   UNL A   1      47.233  26.228  26.524  1.00  0.00     0.049 A 
ATOM     52  H   UNL A   1      45.534  27.026  27.430  1.00  0.00     0.167 HD
ATOM     53  C   UNL A   1      41.763  28.713  28.854  1.00  0.00     0.034 A 
ATOM     54  C   UNL A   1      48.150  27.214  26.448  1.00  0.00     0.034 A 
ATOM     55  C   UNL A   1      42.727  29.770  28.997  1.00  0.00     0.049 A 
ATOM     56  C   UNL A   1      47.813  28.571  27.002  1.00  0.00     0.074 A 
ATOM     57  C   UNL A   1      42.548  31.030  29.539  1.00  0.00     0.029 A 
ATOM     58  N   UNL A   1      44.048  29.697  28.584  1.00  0.00    -0.354 N 
ATOM     59  N   UNL A   1      46.696  28.984  27.550  1.00  0.00    -0.248 NA
ATOM     60  C   UNL A   1      48.875  29.588  26.966  1.00  0.00     0.031 C 
ATOM     61  C   UNL A   1      43.757  31.727  29.434  1.00  0.00     0.029 A 
ATOM     62  C   UNL A   1      44.696  30.892  28.849  1.00  0.00     0.049 A 
ATOM     63  H   UNL A   1      44.466  28.910  28.165  1.00  0.00     0.167 HD
ATOM     64  C   UNL A   1      46.927  30.295  27.951  1.00  0.00     0.074 A 
ATOM     65  C   UNL A   1      48.300  30.601  27.601  1.00  0.00     0.031 C 
ATOM     66  C   UNL A   1      46.075  31.170  28.540  1.00  0.00     0.034 A 
BRANCH  53  67
ATOM     67  C   UNL A   1      40.338  28.979  29.263  1.00  0.00     0.023 A 
ATOM     68  C   UNL A   1      39.385  29.328  28.283  1.00  0.00     0.012 A 
ATOM     69  C   UNL A   1      39.931  28.853  30.606  1.00  0.00     0.148 A 
ATOM     70  C   UNL A   1      38.063  29.593  28.637  1.00  0.00     0.002 A 
ATOM     71  C   UNL A   1      38.600  29.072  30.944  1.00  0.00     0.091 A 
ATOM     72  F   UNL A   1      40.852  28.544  31.529  1.00  0.00    -0.205 F 
ATOM     73  C   UNL A   1      37.669  29.455  29.965  1.00  0.00     0.022 A 
BRANCH  71  74
ATOM     74  S   UNL A   1      37.980  28.841  32.615  1.00  0.00     0.127 S 
ATOM     75  O   UNL A   1      38.089  27.392  32.772  1.00  0.00    -0.237 OA
ATOM     76  O   UNL A   1      38.936  29.614  33.410  1.00  0.00    -0.237 OA
ATOM     77  O   UNL A   1      36.625  29.375  32.613  1.00  0.00    -0.744 OA
ENDBRANCH  71  74
ENDBRANCH  53  67
BRANCH  54  78
ATOM     78  C   UNL A   1      49.501  26.923  25.890  1.00  0.00     0.023 A 
ATOM     79  C   UNL A   1      50.427  26.200  26.667  1.00  0.00     0.012 A 
ATOM     80  C   UNL A   1      49.851  27.307  24.582  1.00  0.00     0.148 A 
ATOM     81  C   UNL A   1      51.687  25.885  26.159  1.00  0.00     0.002 A 
ATOM     82  C   UNL A   1      51.089  26.942  24.063  1.00  0.00     0.091 A 
ATOM     83  F   UNL A   1      48.958  28.001  23.863  1.00  0.00    -0.205 F 
ATOM     84  C   UNL A   1      52.014  26.245  24.855  1.00  0.00     0.022 A 
BRANCH  82  85
ATOM     85  S   UNL A   1      51.546  27.243  22.351  1.00  0.00     0.127 S 
ATOM     86  O   UNL A   1      51.578  28.702  22.302  1.00  0.00    -0.237 OA
ATOM     87  O   UNL A   1      52.854  26.594  22.272  1.00  0.00    -0.237 OA
ATOM     88  O   UNL A   1      50.511  26.607  21.548  1.00  0.00    -0.744 OA
ENDBRANCH  82  85
ENDBRANCH  54  78
BRANCH  66  89
ATOM     89  C   UNL A   1      46.602  32.540  28.879  1.00  0.00     0.023 A 
ATOM     90  C   UNL A   1      47.307  32.743  30.082  1.00  0.00     0.012 A 
ATOM     91  C   UNL A   1      46.470  33.606  27.966  1.00  0.00     0.148 A 
ATOM     92  C   UNL A   1      47.846  33.993  30.385  1.00  0.00     0.002 A 
ATOM     93  C   UNL A   1      47.052  34.836  28.254  1.00  0.00     0.091 A 
ATOM     94  F   UNL A   1      45.780  33.400  26.836  1.00  0.00    -0.205 F 
ATOM     95  C   UNL A   1      47.730  35.034  29.468  1.00  0.00     0.022 A 
BRANCH  93  96
ATOM     96  S   UNL A   1      47.037  36.203  27.088  1.00  0.00     0.127 S 
ATOM     97  O   UNL A   1      45.945  37.025  27.608  1.00  0.00    -0.237 OA
ATOM     98  O   UNL A   1      48.371  36.778  27.265  1.00  0.00    -0.237 OA
ATOM     99  O   UNL A   1      46.805  35.610  25.778  1.00  0.00    -0.744 OA
ENDBRANCH  93  96
ENDBRANCH  66  89
ENDBRANCH  40  41
ENDBRANCH  32  35
ENDBRANCH  30  31
ENDBRANCH  29  30
ENDBRANCH   1  29
TORSDOF 19
ENDMDL
MODEL 3
REMARK VINA RESULT:     -12.0      6.007     12.391
REMARK SMILES NS(=O)(=O)c1ccc(/N=N/c2ccc(O)c(C(=O)NCCCCNC(=O)c3ccc(-c4c5nc(c(-c6cccc(S(=O)(=O)[O-])c6F)c6ccc([nH]6)c(-c6cccc(S(=O)(=O)[O-])c6F)c6nc(c(-c7cccc(S(=O)(=O)[O-])c7F)c7ccc4[nH]7)C=C6)C=C5)cc3)c2)cc1
REMARK SMILES IDX 21 1 20 2 19 3 17 4 18 5 16 7 11 8 12 9 90 10 13 11 14 12
REMARK SMILES IDX 10 13 9 14 8 15 5 16 6 17 92 18 7 19 91 20 2 21 3 22 4 23
REMARK SMILES IDX 1 24 15 27 22 29 23 30 24 31 25 32 26 34 27 35 28 36 89 37
REMARK SMILES IDX 29 38 88 39 30 40 31 41 32 42 82 43 33 44 87 45 81 46 83 47
REMARK SMILES IDX 34 48 86 49 80 50 79 51 35 53 67 54 47 55 66 56 48 57 51 58
REMARK SMILES IDX 65 59 84 60 49 61 50 62 64 64 85 65 52 66 36 67 37 68 45 69
REMARK SMILES IDX 38 70 40 71 46 72 39 73 41 74 42 75 43 76 44 77 68 78 69 79
REMARK SMILES IDX 77 80 70 81 72 82 78 83 71 84 73 85 74 86 75 87 76 88 53 89
REMARK SMILES IDX 54 90 62 91 55 92 57 93 63 94 56 95 58 96 59 97 60 98 61 99
REMARK H PARENT 19 6 1 25 1 26 15 28 24 33 83 52 51 63
REMARK Flexibility Score: inf
ROOT
ATOM      1  C   UNL A   1      37.306  22.127  25.017  1.00  0.00     0.023 C 
ENDROOT
BRANCH   1   2
ATOM      2  C   UNL A   1      35.797  21.930  24.961  1.00  0.00     0.116 C 
BRANCH   2   3
ATOM      3  N   UNL A   1      35.169  21.621  26.238  1.00  0.00    -0.352 N 
ATOM      4  C   UNL A   1      34.067  22.173  26.855  1.00  0.00     0.255 C 
ATOM      5  O   UNL A   1      33.749  21.798  27.984  1.00  0.00    -0.269 OA
ATOM      6  H   UNL A   1      35.604  20.898  26.744  1.00  0.00     0.163 HD
BRANCH   4   7
ATOM      7  C   UNL A   1      33.286  23.283  26.252  1.00  0.00     0.083 A 
ATOM      8  C   UNL A   1      33.025  25.663  25.811  1.00  0.00     0.087 A 
ATOM      9  C   UNL A   1      31.677  25.449  25.510  1.00  0.00     0.034 A 
ATOM     10  C   UNL A   1      33.839  24.550  26.065  1.00  0.00     0.048 A 
ATOM     11  C   UNL A   1      31.145  24.155  25.519  1.00  0.00     0.049 A 
ATOM     12  C   UNL A   1      31.944  23.080  25.908  1.00  0.00     0.128 A 
BRANCH   8  13
ATOM     13  N   UNL A   1      33.511  26.988  25.948  1.00  0.00    -0.151 NA
ATOM     14  N   UNL A   1      33.013  27.503  26.978  1.00  0.00    -0.151 NA
BRANCH  14  15
ATOM     15  C   UNL A   1      33.262  28.876  27.098  1.00  0.00     0.086 A 
ATOM     16  C   UNL A   1      33.708  31.581  27.680  1.00  0.00     0.082 A 
ATOM     17  C   UNL A   1      34.728  30.652  27.890  1.00  0.00     0.024 A 
ATOM     18  C   UNL A   1      32.468  31.171  27.181  1.00  0.00     0.024 A 
ATOM     19  C   UNL A   1      34.498  29.303  27.602  1.00  0.00     0.031 A 
ATOM     20  C   UNL A   1      32.250  29.822  26.891  1.00  0.00     0.031 A 
BRANCH  16  21
ATOM     21  S   UNL A   1      33.914  33.288  28.094  1.00  0.00     0.238 S 
ATOM     22  O   UNL A   1      32.648  33.957  27.918  1.00  0.00    -0.207 OA
ATOM     23  O   UNL A   1      35.136  33.756  27.480  1.00  0.00    -0.207 OA
BRANCH  21  24
ATOM     24  N   UNL A   1      34.198  33.298  29.749  1.00  0.00    -0.225 NA
ATOM     25  H   UNL A   1      33.387  33.688  30.230  1.00  0.00     0.137 HD
ATOM     26  H   UNL A   1      35.019  33.868  29.950  1.00  0.00     0.137 HD
ENDBRANCH  21  24
ENDBRANCH  16  21
ENDBRANCH  14  15
ENDBRANCH   8  13
BRANCH  12  27
ATOM     27  O   UNL A   1      31.341  21.852  25.945  1.00  0.00    -0.507 OA
ATOM     28  H   UNL A   1      31.784  21.124  26.334  1.00  0.00     0.293 HD
ENDBRANCH  12  27
ENDBRANCH   4   7
ENDBRANCH   2   3
ENDBRANCH   1   2
BRANCH   1  29
ATOM     29  C   UNL A   1      38.159  20.866  25.050  1.00  0.00     0.023 C 
BRANCH  29  30
ATOM     30  C   UNL A   1      39.258  20.822  26.103  1.00  0.00     0.116 C 
BRANCH  30  31
ATOM     31  N   UNL A   1      40.146  19.671  25.991  1.00  0.00    -0.352 N 
ATOM     32  C   UNL A   1      41.517  19.611  26.097  1.00  0.00     0.251 C 
ATOM     33  H   UNL A   1      39.699  18.811  25.811  1.00  0.00     0.163 HD
ATOM     34  O   UNL A   1      42.100  18.547  25.913  1.00  0.00    -0.269 OA
BRANCH  32  35
ATOM     35  C   UNL A   1      42.287  20.840  26.391  1.00  0.00     0.039 A 
ATOM     36  C   UNL A   1      42.663  21.672  25.333  1.00  0.00     0.014 A 
ATOM     37  C   UNL A   1      42.591  21.196  27.707  1.00  0.00     0.014 A 
ATOM     38  C   UNL A   1      43.262  22.906  25.602  1.00  0.00     0.010 A 
ATOM     39  C   UNL A   1      43.107  22.460  27.975  1.00  0.00     0.010 A 
ATOM     40  C   UNL A   1      43.446  23.332  26.928  1.00  0.00    -0.014 A 
BRANCH  40  41
ATOM     41  C   UNL A   1      43.962  24.688  27.244  1.00  0.00     0.031 A 
ATOM     42  C   UNL A   1      43.042  25.741  27.801  1.00  0.00     0.074 A 
ATOM     43  C   UNL A   1      45.232  25.010  26.927  1.00  0.00     0.049 A 
ATOM     44  N   UNL A   1      43.293  26.995  28.072  1.00  0.00    -0.248 NA
ATOM     45  C   UNL A   1      41.647  25.341  28.052  1.00  0.00     0.031 C 
ATOM     46  C   UNL A   1      46.199  24.111  26.291  1.00  0.00     0.029 A 
ATOM     47  N   UNL A   1      45.920  26.190  27.064  1.00  0.00    -0.354 N 
ATOM     48  C   UNL A   1      42.084  27.544  28.481  1.00  0.00     0.074 A 
ATOM     49  C   UNL A   1      41.092  26.495  28.387  1.00  0.00     0.031 C 
ATOM     50  C   UNL A   1      47.351  24.771  26.095  1.00  0.00     0.029 A 
ATOM     51  C   UNL A   1      47.202  26.144  26.565  1.00  0.00     0.049 A 
ATOM     52  H   UNL A   1      45.533  26.994  27.481  1.00  0.00     0.167 HD
ATOM     53  C   UNL A   1      41.825  28.797  28.927  1.00  0.00     0.034 A 
ATOM     54  C   UNL A   1      48.149  27.101  26.487  1.00  0.00     0.034 A 
ATOM     55  C   UNL A   1      42.823  29.823  29.067  1.00  0.00     0.049 A 
ATOM     56  C   UNL A   1      47.858  28.466  27.046  1.00  0.00     0.074 A 
ATOM     57  C   UNL A   1      42.687  31.086  29.613  1.00  0.00     0.029 A 
ATOM     58  N   UNL A   1      44.139  29.708  28.648  1.00  0.00    -0.354 N 
ATOM     59  N   UNL A   1      46.757  28.913  27.599  1.00  0.00    -0.248 NA
ATOM     60  C   UNL A   1      48.952  29.449  27.006  1.00  0.00     0.031 C 
ATOM     61  C   UNL A   1      43.916  31.745  29.503  1.00  0.00     0.029 A 
ATOM     62  C   UNL A   1      44.826  30.881  28.912  1.00  0.00     0.049 A 
ATOM     63  H   UNL A   1      44.530  28.909  28.225  1.00  0.00     0.167 HD
ATOM     64  C   UNL A   1      47.032  30.216  28.001  1.00  0.00     0.074 A 
ATOM     65  C   UNL A   1      48.413  30.478  27.646  1.00  0.00     0.031 C 
ATOM     66  C   UNL A   1      46.212  31.116  28.597  1.00  0.00     0.034 A 
BRANCH  53  67
ATOM     67  C   UNL A   1      40.411  29.108  29.344  1.00  0.00     0.023 A 
ATOM     68  C   UNL A   1      39.491  29.585  28.386  1.00  0.00     0.012 A 
ATOM     69  C   UNL A   1      39.980  28.898  30.668  1.00  0.00     0.148 A 
ATOM     70  C   UNL A   1      38.181  29.893  28.749  1.00  0.00     0.002 A 
ATOM     71  C   UNL A   1      38.659  29.163  31.011  1.00  0.00     0.091 A 
ATOM     72  F   UNL A   1      40.871  28.466  31.571  1.00  0.00    -0.205 F 
ATOM     73  C   UNL A   1      37.763  29.673  30.058  1.00  0.00     0.022 A 
BRANCH  71  74
ATOM     74  S   UNL A   1      38.005  28.834  32.652  1.00  0.00     0.127 S 
ATOM     75  O   UNL A   1      36.625  29.298  32.518  1.00  0.00    -0.237 OA
ATOM     76  O   UNL A   1      38.151  27.382  32.759  1.00  0.00    -0.237 OA
ATOM     77  O   UNL A   1      38.839  29.595  33.572  1.00  0.00    -0.744 OA
ENDBRANCH  71  74
ENDBRANCH  53  67
BRANCH  54  78
ATOM     78  C   UNL A   1      49.487  26.767  25.922  1.00  0.00     0.023 A 
ATOM     79  C   UNL A   1      50.384  25.992  26.683  1.00  0.00     0.012 A 
ATOM     80  C   UNL A   1      49.852  27.165  24.621  1.00  0.00     0.148 A 
ATOM     81  C   UNL A   1      51.631  25.638  26.167  1.00  0.00     0.002 A 
ATOM     82  C   UNL A   1      51.075  26.762  24.094  1.00  0.00     0.091 A 
ATOM     83  F   UNL A   1      48.988  27.908  23.918  1.00  0.00    -0.205 F 
ATOM     84  C   UNL A   1      51.972  26.012  24.871  1.00  0.00     0.022 A 
BRANCH  82  85
ATOM     85  S   UNL A   1      51.543  27.080  22.389  1.00  0.00     0.127 S 
ATOM     86  O   UNL A   1      51.788  28.519  22.409  1.00  0.00    -0.237 OA
ATOM     87  O   UNL A   1      52.741  26.252  22.248  1.00  0.00    -0.237 OA
ATOM     88  O   UNL A   1      50.413  26.643  21.581  1.00  0.00    -0.744 OA
ENDBRANCH  82  85
ENDBRANCH  54  78
BRANCH  66  89
ATOM     89  C   UNL A   1      46.784  32.468  28.935  1.00  0.00     0.023 A 
ATOM     90  C   UNL A   1      47.412  32.672  30.180  1.00  0.00     0.012 A 
ATOM     91  C   UNL A   1      46.771  33.512  27.988  1.00  0.00     0.148 A 
ATOM     92  C   UNL A   1      47.993  33.902  30.487  1.00  0.00     0.002 A 
ATOM     93  C   UNL A   1      47.393  34.718  28.283  1.00  0.00     0.091 A 
ATOM     94  F   UNL A   1      46.151  33.305  26.817  1.00  0.00    -0.205 F 
ATOM     95  C   UNL A   1      47.995  34.919  29.536  1.00  0.00     0.022 A 
BRANCH  93  96
ATOM     96  S   UNL A   1      47.530  36.049  27.083  1.00  0.00     0.127 S 
ATOM     97  O   UNL A   1      48.537  35.519  26.165  1.00  0.00    -0.237 OA
ATOM     98  O   UNL A   1      46.176  36.113  26.532  1.00  0.00    -0.237 OA
ATOM     99  O   UNL A   1      47.931  37.229  27.837  1.00  0.00    -0.744 OA
ENDBRANCH  93  96
ENDBRANCH  66  89
ENDBRANCH  40  41
ENDBRANCH  32  35
ENDBRANCH  30  31
ENDBRANCH  29  30
ENDBRANCH   1  29
TORSDOF 19
ENDMDL
