MODEL 1
REMARK VINA RESULT:     -11.1      0.000      0.000
REMARK SMILES CC[C@H](Oc1c(C)cc(Br)cc1N)C(=O)NCCCCNC(=O)c1ccc(-c2c3nc(c(-c4cccc(S(=O)(=O)[O-])c4F)c4ccc([nH]4)c(-c4cccc(S(=O)(=O)[O-])c4F)c4nc(c(-c5cccc(S(=O)(=O)[O-])c5F)c5ccc2[nH]5)C=C4)C=C3)cc1
REMARK SMILES IDX 18 1 17 2 16 3 14 4 15 5 3 7 2 8 1 9 4 10 5 11 6 12 12 13
REMARK SMILES IDX 7 14 8 15 11 16 9 17 10 18 13 19 19 22 20 23 21 24 22 25
REMARK SMILES IDX 23 27 24 28 25 29 86 30 26 31 85 32 27 33 28 34 29 35 79 36
REMARK SMILES IDX 30 37 84 38 78 39 80 40 31 41 83 42 77 43 76 44 32 46 64 47
REMARK SMILES IDX 44 48 63 49 45 50 48 51 62 52 81 53 46 54 47 55 61 57 82 58
REMARK SMILES IDX 49 59 33 60 34 61 42 62 35 63 37 64 43 65 36 66 38 67 39 68
REMARK SMILES IDX 40 69 41 70 65 71 66 72 74 73 67 74 69 75 75 76 68 77 70 78
REMARK SMILES IDX 71 79 72 80 73 81 50 82 51 83 59 84 52 85 54 86 60 87 53 88
REMARK SMILES IDX 55 89 56 90 57 91 58 92
REMARK H PARENT 16 6 13 20 13 21 21 26 80 45 48 56
REMARK Flexibility Score: inf
ROOT
ATOM      1  C   UNL A   1      31.738  28.192  27.173  1.00  0.00     0.023 C 
ENDROOT
BRANCH   1   2
ATOM      2  C   UNL A   1      31.886  26.700  26.871  1.00  0.00     0.116 C 
BRANCH   2   3
ATOM      3  N   UNL A   1      32.849  26.497  25.801  1.00  0.00    -0.353 N 
ATOM      4  C   UNL A   1      32.743  25.704  24.689  1.00  0.00     0.261 C 
ATOM      5  O   UNL A   1      33.749  25.534  23.996  1.00  0.00    -0.271 OA
ATOM      6  H   UNL A   1      33.692  26.998  25.888  1.00  0.00     0.163 HD
BRANCH   4   7
ATOM      7  C   UNL A   1      31.372  25.152  24.242  1.00  0.00     0.261 C 
BRANCH   7   8
ATOM      8  C   UNL A   1      31.581  23.642  24.012  1.00  0.00     0.052 C 
ATOM      9  C   UNL A   1      31.079  22.795  25.170  1.00  0.00     0.008 C 
ENDBRANCH   7   8
BRANCH   7  10
ATOM     10  O   UNL A   1      30.989  25.786  23.022  1.00  0.00    -0.478 OA
BRANCH  10  11
ATOM     11  C   UNL A   1      30.593  27.096  23.044  1.00  0.00     0.146 A 
ATOM     12  C   UNL A   1      29.263  27.370  23.415  1.00  0.00    -0.006 A 
ATOM     13  C   UNL A   1      31.374  28.064  22.382  1.00  0.00     0.076 A 
ATOM     14  C   UNL A   1      28.376  26.323  24.024  1.00  0.00     0.048 C 
ATOM     15  C   UNL A   1      28.733  28.641  23.158  1.00  0.00     0.023 A 
ATOM     16  C   UNL A   1      30.824  29.331  22.155  1.00  0.00     0.045 A 
ATOM     17  C   UNL A   1      29.506  29.604  22.519  1.00  0.00     0.020 A 
ATOM     18  Br  UNL A   1      28.736  31.278  22.089  1.00  0.00    -0.051 Br
BRANCH  13  19
ATOM     19  N   UNL A   1      32.688  27.818  22.000  1.00  0.00    -0.396 N 
ATOM     20  H   UNL A   1      32.991  26.893  21.847  1.00  0.00     0.156 HD
ATOM     21  H   UNL A   1      33.317  28.566  21.883  1.00  0.00     0.156 HD
ENDBRANCH  13  19
ENDBRANCH  10  11
ENDBRANCH   7  10
ENDBRANCH   4   7
ENDBRANCH   2   3
ENDBRANCH   1   2
BRANCH   1  22
ATOM     22  C   UNL A   1      31.673  29.054  25.909  1.00  0.00     0.023 C 
BRANCH  22  23
ATOM     23  C   UNL A   1      32.794  30.080  25.791  1.00  0.00     0.116 C 
BRANCH  23  24
ATOM     24  N   UNL A   1      32.443  31.382  26.339  1.00  0.00    -0.352 N 
ATOM     25  C   UNL A   1      33.152  32.131  27.251  1.00  0.00     0.251 C 
ATOM     26  H   UNL A   1      31.597  31.774  26.021  1.00  0.00     0.163 HD
ATOM     27  O   UNL A   1      32.698  33.165  27.710  1.00  0.00    -0.269 OA
BRANCH  25  28
ATOM     28  C   UNL A   1      34.466  31.619  27.690  1.00  0.00     0.039 A 
ATOM     29  C   UNL A   1      35.511  32.525  27.877  1.00  0.00     0.014 A 
ATOM     30  C   UNL A   1      34.619  30.268  28.013  1.00  0.00     0.014 A 
ATOM     31  C   UNL A   1      36.698  32.082  28.459  1.00  0.00     0.010 A 
ATOM     32  C   UNL A   1      35.775  29.846  28.659  1.00  0.00     0.010 A 
ATOM     33  C   UNL A   1      36.823  30.749  28.890  1.00  0.00    -0.014 A 
BRANCH  33  34
ATOM     34  C   UNL A   1      38.035  30.301  29.618  1.00  0.00     0.031 A 
ATOM     35  C   UNL A   1      38.295  30.763  31.022  1.00  0.00     0.074 A 
ATOM     36  C   UNL A   1      38.938  29.529  28.982  1.00  0.00     0.049 A 
ATOM     37  N   UNL A   1      39.273  30.432  31.824  1.00  0.00    -0.248 NA
ATOM     38  C   UNL A   1      37.355  31.741  31.593  1.00  0.00     0.031 C 
ATOM     39  C   UNL A   1      38.848  29.109  27.582  1.00  0.00     0.029 A 
ATOM     40  N   UNL A   1      40.112  28.971  29.422  1.00  0.00    -0.354 N 
ATOM     41  C   UNL A   1      39.079  31.175  32.981  1.00  0.00     0.074 A 
ATOM     42  C   UNL A   1      37.921  32.011  32.761  1.00  0.00     0.031 C 
ATOM     43  C   UNL A   1      39.906  28.337  27.287  1.00  0.00     0.029 A 
ATOM     44  C   UNL A   1      40.756  28.218  28.469  1.00  0.00     0.049 A 
ATOM     45  H   UNL A   1      40.460  29.099  30.334  1.00  0.00     0.167 HD
ATOM     46  C   UNL A   1      39.776  31.129  34.140  1.00  0.00     0.034 A 
ATOM     47  C   UNL A   1      41.892  27.494  28.543  1.00  0.00     0.034 A 
ATOM     48  C   UNL A   1      40.894  30.256  34.366  1.00  0.00     0.049 A 
ATOM     49  C   UNL A   1      42.617  27.407  29.857  1.00  0.00     0.074 A 
ATOM     50  C   UNL A   1      41.599  30.053  35.539  1.00  0.00     0.029 A 
ATOM     51  N   UNL A   1      41.475  29.447  33.402  1.00  0.00    -0.354 N 
ATOM     52  N   UNL A   1      42.308  27.964  31.004  1.00  0.00    -0.248 NA
ATOM     53  C   UNL A   1      43.822  26.567  29.906  1.00  0.00     0.031 C 
ATOM     54  C   UNL A   1      42.619  29.134  35.278  1.00  0.00     0.029 A 
ATOM     55  C   UNL A   1      42.538  28.751  33.947  1.00  0.00     0.049 A 
ATOM     56  H   UNL A   1      41.174  29.378  32.467  1.00  0.00     0.167 HD
ATOM     57  C   UNL A   1      43.258  27.521  31.916  1.00  0.00     0.074 A 
ATOM     58  C   UNL A   1      44.150  26.638  31.192  1.00  0.00     0.031 C 
ATOM     59  C   UNL A   1      43.386  27.832  33.229  1.00  0.00     0.034 A 
BRANCH  46  60
ATOM     60  C   UNL A   1      39.297  31.989  35.278  1.00  0.00     0.023 A 
ATOM     61  C   UNL A   1      38.373  31.456  36.201  1.00  0.00     0.012 A 
ATOM     62  C   UNL A   1      39.795  33.290  35.474  1.00  0.00     0.148 A 
ATOM     63  C   UNL A   1      37.927  32.215  37.280  1.00  0.00     0.002 A 
ATOM     64  C   UNL A   1      39.379  34.026  36.579  1.00  0.00     0.091 A 
ATOM     65  F   UNL A   1      40.654  33.792  34.574  1.00  0.00    -0.205 F 
ATOM     66  C   UNL A   1      38.437  33.494  37.475  1.00  0.00     0.022 A 
BRANCH  64  67
ATOM     67  S   UNL A   1      40.043  35.651  36.957  1.00  0.00     0.127 S 
ATOM     68  O   UNL A   1      39.380  35.954  38.224  1.00  0.00    -0.237 OA
ATOM     69  O   UNL A   1      41.477  35.384  37.069  1.00  0.00    -0.237 OA
ATOM     70  O   UNL A   1      39.675  36.501  35.832  1.00  0.00    -0.744 OA
ENDBRANCH  64  67
ENDBRANCH  46  60
BRANCH  47  71
ATOM     71  C   UNL A   1      42.320  26.701  27.356  1.00  0.00     0.023 A 
ATOM     72  C   UNL A   1      43.143  27.308  26.389  1.00  0.00     0.012 A 
ATOM     73  C   UNL A   1      42.017  25.330  27.238  1.00  0.00     0.148 A 
ATOM     74  C   UNL A   1      43.654  26.567  25.322  1.00  0.00     0.002 A 
ATOM     75  C   UNL A   1      42.572  24.585  26.204  1.00  0.00     0.091 A 
ATOM     76  F   UNL A   1      41.229  24.774  28.169  1.00  0.00    -0.205 F 
ATOM     77  C   UNL A   1      43.380  25.205  25.237  1.00  0.00     0.022 A 
BRANCH  75  78
ATOM     78  S   UNL A   1      42.401  22.800  26.093  1.00  0.00     0.127 S 
ATOM     79  O   UNL A   1      43.103  22.509  24.845  1.00  0.00    -0.237 OA
ATOM     80  O   UNL A   1      43.091  22.359  27.306  1.00  0.00    -0.237 OA
ATOM     81  O   UNL A   1      40.969  22.538  26.084  1.00  0.00    -0.744 OA
ENDBRANCH  75  78
ENDBRANCH  47  71
BRANCH  59  82
ATOM     82  C   UNL A   1      44.524  27.221  34.003  1.00  0.00     0.023 A 
ATOM     83  C   UNL A   1      45.769  27.878  34.033  1.00  0.00     0.012 A 
ATOM     84  C   UNL A   1      44.309  26.101  34.832  1.00  0.00     0.148 A 
ATOM     85  C   UNL A   1      46.786  27.428  34.874  1.00  0.00     0.002 A 
ATOM     86  C   UNL A   1      45.311  25.686  35.702  1.00  0.00     0.091 A 
ATOM     87  F   UNL A   1      43.118  25.486  34.777  1.00  0.00    -0.205 F 
ATOM     88  C   UNL A   1      46.551  26.345  35.720  1.00  0.00     0.022 A 
BRANCH  86  89
ATOM     89  S   UNL A   1      45.068  24.373  36.904  1.00  0.00     0.127 S 
ATOM     90  O   UNL A   1      44.828  23.218  36.039  1.00  0.00    -0.237 OA
ATOM     91  O   UNL A   1      46.352  24.355  37.604  1.00  0.00    -0.237 OA
ATOM     92  O   UNL A   1      43.934  24.779  37.723  1.00  0.00    -0.744 OA
ENDBRANCH  86  89
ENDBRANCH  59  82
ENDBRANCH  33  34
ENDBRANCH  25  28
ENDBRANCH  23  24
ENDBRANCH  22  23
ENDBRANCH   1  22
TORSDOF 18
ENDMDL
MODEL 2
REMARK VINA RESULT:     -10.7      5.304     10.387
REMARK SMILES CC[C@H](Oc1c(C)cc(Br)cc1N)C(=O)NCCCCNC(=O)c1ccc(-c2c3nc(c(-c4cccc(S(=O)(=O)[O-])c4F)c4ccc([nH]4)c(-c4cccc(S(=O)(=O)[O-])c4F)c4nc(c(-c5cccc(S(=O)(=O)[O-])c5F)c5ccc2[nH]5)C=C4)C=C3)cc1
REMARK SMILES IDX 18 1 17 2 16 3 14 4 15 5 3 7 2 8 1 9 4 10 5 11 6 12 12 13
REMARK SMILES IDX 7 14 8 15 11 16 9 17 10 18 13 19 19 22 20 23 21 24 22 25
REMARK SMILES IDX 23 27 24 28 25 29 86 30 26 31 85 32 27 33 28 34 29 35 79 36
REMARK SMILES IDX 30 37 84 38 78 39 80 40 31 41 83 42 77 43 76 44 32 46 64 47
REMARK SMILES IDX 44 48 63 49 45 50 48 51 62 52 81 53 46 54 47 55 61 57 82 58
REMARK SMILES IDX 49 59 33 60 34 61 42 62 35 63 37 64 43 65 36 66 38 67 39 68
REMARK SMILES IDX 40 69 41 70 65 71 66 72 74 73 67 74 69 75 75 76 68 77 70 78
REMARK SMILES IDX 71 79 72 80 73 81 50 82 51 83 59 84 52 85 54 86 60 87 53 88
REMARK SMILES IDX 55 89 56 90 57 91 58 92
REMARK H PARENT 16 6 13 20 13 21 21 26 80 45 48 56
REMARK Flexibility Score: inf
ROOT
ATOM      1  C   UNL A   1      35.241  23.264  23.929  1.00  0.00     0.023 C 
ENDROOT
BRANCH   1   2
ATOM      2  C   UNL A   1      35.351  24.302  25.048  1.00  0.00     0.116 C 
BRANCH   2   3
ATOM      3  N   UNL A   1      34.437  23.973  26.129  1.00  0.00    -0.353 N 
ATOM      4  C   UNL A   1      33.108  23.647  26.061  1.00  0.00     0.261 C 
ATOM      5  O   UNL A   1      32.469  23.579  27.114  1.00  0.00    -0.271 OA
ATOM      6  H   UNL A   1      34.826  23.987  27.034  1.00  0.00     0.163 HD
BRANCH   4   7
ATOM      7  C   UNL A   1      32.464  23.242  24.717  1.00  0.00     0.261 C 
BRANCH   7   8
ATOM      8  C   UNL A   1      31.419  24.332  24.406  1.00  0.00     0.052 C 
ATOM      9  C   UNL A   1      32.051  25.672  24.064  1.00  0.00     0.008 C 
ENDBRANCH   7   8
BRANCH   7  10
ATOM     10  O   UNL A   1      31.822  21.976  24.870  1.00  0.00    -0.478 OA
BRANCH  10  11
ATOM     11  C   UNL A   1      32.510  20.835  24.557  1.00  0.00     0.146 A 
ATOM     12  C   UNL A   1      32.376  20.329  23.251  1.00  0.00    -0.006 A 
ATOM     13  C   UNL A   1      33.022  20.032  25.596  1.00  0.00     0.076 A 
ATOM     14  C   UNL A   1      31.735  21.125  22.152  1.00  0.00     0.048 C 
ATOM     15  C   UNL A   1      32.802  19.022  22.981  1.00  0.00     0.023 A 
ATOM     16  C   UNL A   1      33.458  18.737  25.292  1.00  0.00     0.045 A 
ATOM     17  C   UNL A   1      33.324  18.232  24.000  1.00  0.00     0.020 A 
ATOM     18  Br  UNL A   1      33.796  16.437  23.634  1.00  0.00    -0.051 Br
BRANCH  13  19
ATOM     19  N   UNL A   1      33.160  20.506  26.896  1.00  0.00    -0.396 N 
ATOM     20  H   UNL A   1      33.183  21.476  27.067  1.00  0.00     0.156 HD
ATOM     21  H   UNL A   1      33.236  19.873  27.646  1.00  0.00     0.156 HD
ENDBRANCH  13  19
ENDBRANCH  10  11
ENDBRANCH   7  10
ENDBRANCH   4   7
ENDBRANCH   2   3
ENDBRANCH   1   2
BRANCH   1  22
ATOM     22  C   UNL A   1      35.917  21.935  24.279  1.00  0.00     0.023 C 
BRANCH  22  23
ATOM     23  C   UNL A   1      36.775  21.980  25.538  1.00  0.00     0.116 C 
BRANCH  23  24
ATOM     24  N   UNL A   1      37.794  20.941  25.577  1.00  0.00    -0.352 N 
ATOM     25  C   UNL A   1      39.090  21.051  26.027  1.00  0.00     0.251 C 
ATOM     26  H   UNL A   1      37.525  20.055  25.242  1.00  0.00     0.163 HD
ATOM     27  O   UNL A   1      39.880  20.128  25.912  1.00  0.00    -0.269 OA
BRANCH  25  28
ATOM     28  C   UNL A   1      39.510  22.338  26.616  1.00  0.00     0.039 A 
ATOM     29  C   UNL A   1      40.489  22.336  27.609  1.00  0.00     0.014 A 
ATOM     30  C   UNL A   1      39.008  23.539  26.105  1.00  0.00     0.014 A 
ATOM     31  C   UNL A   1      41.020  23.549  28.045  1.00  0.00     0.010 A 
ATOM     32  C   UNL A   1      39.589  24.741  26.488  1.00  0.00     0.010 A 
ATOM     33  C   UNL A   1      40.601  24.757  27.459  1.00  0.00    -0.014 A 
BRANCH  33  34
ATOM     34  C   UNL A   1      41.246  26.040  27.830  1.00  0.00     0.031 A 
ATOM     35  C   UNL A   1      42.659  26.331  27.417  1.00  0.00     0.074 A 
ATOM     36  C   UNL A   1      40.574  26.916  28.603  1.00  0.00     0.049 A 
ATOM     37  N   UNL A   1      43.361  27.417  27.611  1.00  0.00    -0.248 NA
ATOM     38  C   UNL A   1      43.392  25.259  26.724  1.00  0.00     0.031 C 
ATOM     39  C   UNL A   1      39.236  26.695  29.157  1.00  0.00     0.029 A 
ATOM     40  N   UNL A   1      40.924  28.160  29.066  1.00  0.00    -0.354 N 
ATOM     41  C   UNL A   1      44.618  27.152  27.084  1.00  0.00     0.074 A 
ATOM     42  C   UNL A   1      44.601  25.787  26.608  1.00  0.00     0.031 C 
ATOM     43  C   UNL A   1      38.869  27.778  29.861  1.00  0.00     0.029 A 
ATOM     44  C   UNL A   1      39.946  28.763  29.821  1.00  0.00     0.049 A 
ATOM     45  H   UNL A   1      41.794  28.580  28.875  1.00  0.00     0.167 HD
ATOM     46  C   UNL A   1      45.677  27.987  26.964  1.00  0.00     0.034 A 
ATOM     47  C   UNL A   1      39.910  29.981  30.398  1.00  0.00     0.034 A 
ATOM     48  C   UNL A   1      45.665  29.358  27.393  1.00  0.00     0.049 A 
ATOM     49  C   UNL A   1      41.071  30.917  30.201  1.00  0.00     0.074 A 
ATOM     50  C   UNL A   1      46.645  30.318  27.218  1.00  0.00     0.029 A 
ATOM     51  N   UNL A   1      44.628  29.962  28.087  1.00  0.00    -0.354 N 
ATOM     52  N   UNL A   1      42.180  30.719  29.528  1.00  0.00    -0.248 NA
ATOM     53  C   UNL A   1      40.969  32.253  30.805  1.00  0.00     0.031 C 
ATOM     54  C   UNL A   1      46.207  31.499  27.824  1.00  0.00     0.029 A 
ATOM     55  C   UNL A   1      44.947  31.279  28.360  1.00  0.00     0.049 A 
ATOM     56  H   UNL A   1      43.788  29.518  28.346  1.00  0.00     0.167 HD
ATOM     57  C   UNL A   1      42.892  31.909  29.601  1.00  0.00     0.074 A 
ATOM     58  C   UNL A   1      42.085  32.831  30.374  1.00  0.00     0.031 C 
ATOM     59  C   UNL A   1      44.111  32.204  29.085  1.00  0.00     0.034 A 
BRANCH  46  60
ATOM     60  C   UNL A   1      46.904  27.464  26.270  1.00  0.00     0.023 A 
ATOM     61  C   UNL A   1      47.090  27.740  24.899  1.00  0.00     0.012 A 
ATOM     62  C   UNL A   1      47.898  26.756  26.972  1.00  0.00     0.148 A 
ATOM     63  C   UNL A   1      48.227  27.293  24.231  1.00  0.00     0.002 A 
ATOM     64  C   UNL A   1      49.051  26.352  26.308  1.00  0.00     0.091 A 
ATOM     65  F   UNL A   1      47.695  26.480  28.268  1.00  0.00    -0.205 F 
ATOM     66  C   UNL A   1      49.212  26.608  24.937  1.00  0.00     0.022 A 
BRANCH  64  67
ATOM     67  S   UNL A   1      50.410  25.535  27.153  1.00  0.00     0.127 S 
ATOM     68  O   UNL A   1      51.378  25.374  26.069  1.00  0.00    -0.237 OA
ATOM     69  O   UNL A   1      50.787  26.523  28.164  1.00  0.00    -0.237 OA
ATOM     70  O   UNL A   1      49.857  24.300  27.693  1.00  0.00    -0.744 OA
ENDBRANCH  64  67
ENDBRANCH  46  60
BRANCH  47  71
ATOM     71  C   UNL A   1      38.669  30.409  31.103  1.00  0.00     0.023 A 
ATOM     72  C   UNL A   1      38.597  30.278  32.502  1.00  0.00     0.012 A 
ATOM     73  C   UNL A   1      37.615  31.046  30.417  1.00  0.00     0.148 A 
ATOM     74  C   UNL A   1      37.498  30.767  33.209  1.00  0.00     0.002 A 
ATOM     75  C   UNL A   1      36.548  31.579  31.131  1.00  0.00     0.091 A 
ATOM     76  F   UNL A   1      37.703  31.158  29.085  1.00  0.00    -0.205 F 
ATOM     77  C   UNL A   1      36.481  31.430  32.526  1.00  0.00     0.022 A 
BRANCH  75  78
ATOM     78  S   UNL A   1      35.267  32.577  30.362  1.00  0.00     0.127 S 
ATOM     79  O   UNL A   1      34.334  32.774  31.469  1.00  0.00    -0.237 OA
ATOM     80  O   UNL A   1      36.017  33.771  29.967  1.00  0.00    -0.237 OA
ATOM     81  O   UNL A   1      34.763  31.786  29.249  1.00  0.00    -0.744 OA
ENDBRANCH  75  78
ENDBRANCH  47  71
BRANCH  59  82
ATOM     82  C   UNL A   1      44.675  33.580  29.319  1.00  0.00     0.023 A 
ATOM     83  C   UNL A   1      45.457  33.819  30.465  1.00  0.00     0.012 A 
ATOM     84  C   UNL A   1      44.576  34.575  28.326  1.00  0.00     0.148 A 
ATOM     85  C   UNL A   1      46.130  35.031  30.622  1.00  0.00     0.002 A 
ATOM     86  C   UNL A   1      45.286  35.762  28.466  1.00  0.00     0.091 A 
ATOM     87  F   UNL A   1      43.816  34.327  27.248  1.00  0.00    -0.205 F 
ATOM     88  C   UNL A   1      46.058  35.993  29.616  1.00  0.00     0.022 A 
BRANCH  86  89
ATOM     89  S   UNL A   1      45.346  37.015  27.180  1.00  0.00     0.127 S 
ATOM     90  O   UNL A   1      46.156  38.054  27.814  1.00  0.00    -0.237 OA
ATOM     91  O   UNL A   1      46.009  36.303  26.088  1.00  0.00    -0.237 OA
ATOM     92  O   UNL A   1      43.962  37.386  26.912  1.00  0.00    -0.744 OA
ENDBRANCH  86  89
ENDBRANCH  59  82
ENDBRANCH  33  34
ENDBRANCH  25  28
ENDBRANCH  23  24
ENDBRANCH  22  23
ENDBRANCH   1  22
TORSDOF 18
ENDMDL
MODEL 3
REMARK VINA RESULT:     -10.7      2.365      3.450
REMARK SMILES CC[C@H](Oc1c(C)cc(Br)cc1N)C(=O)NCCCCNC(=O)c1ccc(-c2c3nc(c(-c4cccc(S(=O)(=O)[O-])c4F)c4ccc([nH]4)c(-c4cccc(S(=O)(=O)[O-])c4F)c4nc(c(-c5cccc(S(=O)(=O)[O-])c5F)c5ccc2[nH]5)C=C4)C=C3)cc1
REMARK SMILES IDX 18 1 17 2 16 3 14 4 15 5 3 7 2 8 1 9 4 10 5 11 6 12 12 13
REMARK SMILES IDX 7 14 8 15 11 16 9 17 10 18 13 19 19 22 20 23 21 24 22 25
REMARK SMILES IDX 23 27 24 28 25 29 86 30 26 31 85 32 27 33 28 34 29 35 79 36
REMARK SMILES IDX 30 37 84 38 78 39 80 40 31 41 83 42 77 43 76 44 32 46 64 47
REMARK SMILES IDX 44 48 63 49 45 50 48 51 62 52 81 53 46 54 47 55 61 57 82 58
REMARK SMILES IDX 49 59 33 60 34 61 42 62 35 63 37 64 43 65 36 66 38 67 39 68
REMARK SMILES IDX 40 69 41 70 65 71 66 72 74 73 67 74 69 75 75 76 68 77 70 78
REMARK SMILES IDX 71 79 72 80 73 81 50 82 51 83 59 84 52 85 54 86 60 87 53 88
REMARK SMILES IDX 55 89 56 90 57 91 58 92
REMARK H PARENT 16 6 13 20 13 21 21 26 80 45 48 56
REMARK Flexibility Score: inf
ROOT
ATOM      1  C   UNL A   1      31.729  28.432  24.973  1.00  0.00     0.023 C 
ENDROOT
BRANCH   1   2
ATOM      2  C   UNL A   1      31.988  27.104  25.687  1.00  0.00     0.116 C 
BRANCH   2   3
ATOM      3  N   UNL A   1      33.386  26.728  25.556  1.00  0.00    -0.353 N 
ATOM      4  C   UNL A   1      33.933  25.477  25.448  1.00  0.00     0.261 C 
ATOM      5  O   UNL A   1      35.159  25.367  25.528  1.00  0.00    -0.271 OA
ATOM      6  H   UNL A   1      34.028  27.475  25.542  1.00  0.00     0.163 HD
BRANCH   4   7
ATOM      7  C   UNL A   1      33.050  24.259  25.100  1.00  0.00     0.261 C 
BRANCH   7   8
ATOM      8  C   UNL A   1      32.582  23.679  26.449  1.00  0.00     0.052 C 
ATOM      9  C   UNL A   1      31.067  23.631  26.575  1.00  0.00     0.008 C 
ENDBRANCH   7   8
BRANCH   7  10
ATOM     10  O   UNL A   1      33.838  23.296  24.399  1.00  0.00    -0.478 OA
BRANCH  10  11
ATOM     11  C   UNL A   1      33.438  21.987  24.386  1.00  0.00     0.146 A 
ATOM     12  C   UNL A   1      34.257  21.047  25.040  1.00  0.00    -0.006 A 
ATOM     13  C   UNL A   1      32.458  21.574  23.460  1.00  0.00     0.076 A 
ATOM     14  C   UNL A   1      35.377  21.465  25.947  1.00  0.00     0.048 C 
ATOM     15  C   UNL A   1      34.057  19.683  24.793  1.00  0.00     0.023 A 
ATOM     16  C   UNL A   1      32.269  20.204  23.249  1.00  0.00     0.045 A 
ATOM     17  C   UNL A   1      33.081  19.271  23.893  1.00  0.00     0.020 A 
ATOM     18  Br  UNL A   1      32.899  17.430  23.498  1.00  0.00    -0.051 Br
BRANCH  13  19
ATOM     19  N   UNL A   1      31.640  22.482  22.798  1.00  0.00    -0.396 N 
ATOM     20  H   UNL A   1      31.091  23.117  23.313  1.00  0.00     0.156 HD
ATOM     21  H   UNL A   1      31.608  22.491  21.814  1.00  0.00     0.156 HD
ENDBRANCH  13  19
ENDBRANCH  10  11
ENDBRANCH   7  10
ENDBRANCH   4   7
ENDBRANCH   2   3
ENDBRANCH   1   2
BRANCH   1  22
ATOM     22  C   UNL A   1      32.743  29.518  25.346  1.00  0.00     0.023 C 
BRANCH  22  23
ATOM     23  C   UNL A   1      32.726  29.912  26.819  1.00  0.00     0.116 C 
BRANCH  23  24
ATOM     24  N   UNL A   1      32.626  31.349  27.029  1.00  0.00    -0.352 N 
ATOM     25  C   UNL A   1      33.562  32.184  27.594  1.00  0.00     0.251 C 
ATOM     26  H   UNL A   1      31.788  31.775  26.732  1.00  0.00     0.163 HD
ATOM     27  O   UNL A   1      33.315  33.360  27.807  1.00  0.00    -0.269 OA
BRANCH  25  28
ATOM     28  C   UNL A   1      34.864  31.602  27.977  1.00  0.00     0.039 A 
ATOM     29  C   UNL A   1      35.985  32.432  28.018  1.00  0.00     0.014 A 
ATOM     30  C   UNL A   1      34.940  30.269  28.392  1.00  0.00     0.014 A 
ATOM     31  C   UNL A   1      37.178  31.938  28.547  1.00  0.00     0.010 A 
ATOM     32  C   UNL A   1      36.108  29.804  28.984  1.00  0.00     0.010 A 
ATOM     33  C   UNL A   1      37.236  30.634  29.069  1.00  0.00    -0.014 A 
BRANCH  33  34
ATOM     34  C   UNL A   1      38.463  30.144  29.742  1.00  0.00     0.031 A 
ATOM     35  C   UNL A   1      38.839  30.647  31.104  1.00  0.00     0.074 A 
ATOM     36  C   UNL A   1      39.277  29.291  29.087  1.00  0.00     0.049 A 
ATOM     37  N   UNL A   1      39.845  30.291  31.859  1.00  0.00    -0.248 NA
ATOM     38  C   UNL A   1      37.997  31.705  31.687  1.00  0.00     0.031 C 
ATOM     39  C   UNL A   1      39.074  28.819  27.716  1.00  0.00     0.029 A 
ATOM     40  N   UNL A   1      40.442  28.682  29.480  1.00  0.00    -0.354 N 
ATOM     41  C   UNL A   1      39.770  31.092  32.990  1.00  0.00     0.074 A 
ATOM     42  C   UNL A   1      38.651  31.988  32.803  1.00  0.00     0.031 C 
ATOM     43  C   UNL A   1      40.063  27.972  27.393  1.00  0.00     0.029 A 
ATOM     44  C   UNL A   1      40.979  27.851  28.525  1.00  0.00     0.049 A 
ATOM     45  H   UNL A   1      40.854  28.826  30.362  1.00  0.00     0.167 HD
ATOM     46  C   UNL A   1      40.536  31.053  34.106  1.00  0.00     0.034 A 
ATOM     47  C   UNL A   1      42.072  27.063  28.562  1.00  0.00     0.034 A 
ATOM     48  C   UNL A   1      41.613  30.123  34.303  1.00  0.00     0.049 A 
ATOM     49  C   UNL A   1      42.874  26.987  29.832  1.00  0.00     0.074 A 
ATOM     50  C   UNL A   1      42.378  29.927  35.438  1.00  0.00     0.029 A 
ATOM     51  N   UNL A   1      42.082  29.240  33.343  1.00  0.00    -0.354 N 
ATOM     52  N   UNL A   1      42.672  27.610  30.969  1.00  0.00    -0.248 NA
ATOM     53  C   UNL A   1      44.029  26.077  29.845  1.00  0.00     0.031 C 
ATOM     54  C   UNL A   1      43.323  28.937  35.157  1.00  0.00     0.029 A 
ATOM     55  C   UNL A   1      43.135  28.504  33.853  1.00  0.00     0.049 A 
ATOM     56  H   UNL A   1      41.719  29.150  32.432  1.00  0.00     0.167 HD
ATOM     57  C   UNL A   1      43.651  27.148  31.840  1.00  0.00     0.074 A 
ATOM     58  C   UNL A   1      44.441  26.182  31.104  1.00  0.00     0.031 C 
ATOM     59  C   UNL A   1      43.881  27.506  33.127  1.00  0.00     0.034 A 
BRANCH  46  60
ATOM     60  C   UNL A   1      40.181  31.987  35.230  1.00  0.00     0.023 A 
ATOM     61  C   UNL A   1      40.871  33.211  35.351  1.00  0.00     0.012 A 
ATOM     62  C   UNL A   1      39.137  31.692  36.127  1.00  0.00     0.148 A 
ATOM     63  C   UNL A   1      40.552  34.111  36.366  1.00  0.00     0.002 A 
ATOM     64  C   UNL A   1      38.793  32.615  37.109  1.00  0.00     0.091 A 
ATOM     65  F   UNL A   1      38.507  30.513  36.014  1.00  0.00    -0.205 F 
ATOM     66  C   UNL A   1      39.507  33.819  37.237  1.00  0.00     0.022 A 
BRANCH  64  67
ATOM     67  S   UNL A   1      37.410  32.361  38.226  1.00  0.00     0.127 S 
ATOM     68  O   UNL A   1      37.870  33.052  39.429  1.00  0.00    -0.237 OA
ATOM     69  O   UNL A   1      36.314  33.028  37.521  1.00  0.00    -0.237 OA
ATOM     70  O   UNL A   1      37.257  30.917  38.346  1.00  0.00    -0.744 OA
ENDBRANCH  64  67
ENDBRANCH  46  60
BRANCH  47  71
ATOM     71  C   UNL A   1      42.377  26.195  27.389  1.00  0.00     0.023 A 
ATOM     72  C   UNL A   1      43.217  26.689  26.374  1.00  0.00     0.012 A 
ATOM     73  C   UNL A   1      41.938  24.858  27.329  1.00  0.00     0.148 A 
ATOM     74  C   UNL A   1      43.614  25.869  25.316  1.00  0.00     0.002 A 
ATOM     75  C   UNL A   1      42.379  24.031  26.301  1.00  0.00     0.091 A 
ATOM     76  F   UNL A   1      41.136  24.410  28.304  1.00  0.00    -0.205 F 
ATOM     77  C   UNL A   1      43.206  24.538  25.287  1.00  0.00     0.022 A 
BRANCH  75  78
ATOM     78  S   UNL A   1      42.032  22.269  26.257  1.00  0.00     0.127 S 
ATOM     79  O   UNL A   1      42.767  21.848  25.067  1.00  0.00    -0.237 OA
ATOM     80  O   UNL A   1      42.605  21.820  27.527  1.00  0.00    -0.237 OA
ATOM     81  O   UNL A   1      40.583  22.151  26.174  1.00  0.00    -0.744 OA
ENDBRANCH  75  78
ENDBRANCH  47  71
BRANCH  59  82
ATOM     82  C   UNL A   1      45.028  26.859  33.858  1.00  0.00     0.023 A 
ATOM     83  C   UNL A   1      46.295  27.472  33.831  1.00  0.00     0.012 A 
ATOM     84  C   UNL A   1      44.809  25.752  34.702  1.00  0.00     0.148 A 
ATOM     85  C   UNL A   1      47.330  26.991  34.632  1.00  0.00     0.002 A 
ATOM     86  C   UNL A   1      45.831  25.306  35.532  1.00  0.00     0.091 A 
ATOM     87  F   UNL A   1      43.596  25.179  34.701  1.00  0.00    -0.205 F 
ATOM     88  C   UNL A   1      47.093  25.921  35.494  1.00  0.00     0.022 A 
BRANCH  86  89
ATOM     89  S   UNL A   1      45.594  24.010  36.753  1.00  0.00     0.127 S 
ATOM     90  O   UNL A   1      44.479  24.540  37.537  1.00  0.00    -0.237 OA
ATOM     91  O   UNL A   1      45.259  22.857  35.917  1.00  0.00    -0.237 OA
ATOM     92  O   UNL A   1      46.856  23.894  37.471  1.00  0.00    -0.744 OA
ENDBRANCH  86  89
ENDBRANCH  59  82
ENDBRANCH  33  34
ENDBRANCH  25  28
ENDBRANCH  23  24
ENDBRANCH  22  23
ENDBRANCH   1  22
TORSDOF 18
ENDMDL
