MODEL 1
REMARK VINA RESULT:      -9.9      0.000      0.000
REMARK SMILES COc1ccc(-c2cc(C(F)(F)F)n3nc(C(=O)NCCCCNC(=O)c4ccc(-c5c6nc(c(-c7cccc(S(=O)(=O)[O-])c7F)c7ccc([nH]7)c(-c7cccc(S(=O)(=O)[O-])c7F)c7nc(c(-c8cccc(S(=O)(=O)[O-])c8F)c8ccc5[nH]8)C=C7)C=C6)cc4)cc3n2)cc1OC
REMARK SMILES IDX 22 1 21 2 20 3 19 4 17 5 18 6 16 8 7 9 8 10 92 11 9 12 91 13
REMARK SMILES IDX 14 14 90 15 15 16 6 17 3 18 4 19 94 20 5 21 93 22 2 23 1 24
REMARK SMILES IDX 95 25 96 26 10 27 11 28 12 29 13 30 23 31 24 32 25 33 26 35
REMARK SMILES IDX 27 36 28 37 89 38 29 39 88 40 30 41 31 42 32 43 82 44 33 45
REMARK SMILES IDX 87 46 81 47 83 48 34 49 86 50 80 51 79 52 35 54 67 55 47 56
REMARK SMILES IDX 66 57 48 58 51 59 65 60 84 61 49 62 50 63 64 65 85 66 52 67
REMARK SMILES IDX 36 68 37 69 45 70 38 71 40 72 46 73 39 74 41 75 42 76 43 77
REMARK SMILES IDX 44 78 68 79 69 80 77 81 70 82 72 83 78 84 71 85 73 86 74 87
REMARK SMILES IDX 75 88 76 89 53 90 54 91 62 92 55 93 57 94 63 95 56 96 58 97
REMARK SMILES IDX 59 98 60 99 61 100
REMARK H PARENT 19 7 24 34 83 53 51 64
REMARK Flexibility Score: inf
ROOT
ATOM      1  C   UNL A   1      41.798  20.112  27.289  1.00  0.00     0.023 C 
ENDROOT
BRANCH   1   2
ATOM      2  C   UNL A   1      42.246  19.925  25.836  1.00  0.00     0.023 C 
BRANCH   2   3
ATOM      3  C   UNL A   1      43.754  20.083  25.631  1.00  0.00     0.116 C 
BRANCH   3   4
ATOM      4  N   UNL A   1      44.036  21.099  24.642  1.00  0.00    -0.351 N 
ATOM      5  C   UNL A   1      44.400  22.421  24.758  1.00  0.00     0.271 C 
ATOM      6  O   UNL A   1      44.603  23.021  23.699  1.00  0.00    -0.267 OA
ATOM      7  H   UNL A   1      43.953  20.787  23.712  1.00  0.00     0.163 HD
BRANCH   5   8
ATOM      8  C   UNL A   1      44.568  23.077  26.075  1.00  0.00     0.152 A 
ATOM      9  C   UNL A   1      44.905  24.752  30.160  1.00  0.00     0.075 A 
ATOM     10  C   UNL A   1      46.236  25.215  29.653  1.00  0.00     0.062 A 
ATOM     11  N   UNL A   1      44.033  24.088  29.463  1.00  0.00    -0.228 NA
ATOM     12  C   UNL A   1      46.538  24.869  28.385  1.00  0.00     0.150 A 
ATOM     13  C   UNL A   1      44.381  23.810  28.174  1.00  0.00     0.157 A 
ATOM     14  N   UNL A   1      45.623  24.138  27.637  1.00  0.00    -0.209 N 
ATOM     15  C   UNL A   1      43.666  23.238  27.153  1.00  0.00     0.085 A 
ATOM     16  N   UNL A   1      45.746  23.659  26.383  1.00  0.00    -0.161 NA
BRANCH   9  17
ATOM     17  C   UNL A   1      44.592  25.088  31.566  1.00  0.00     0.004 A 
ATOM     18  C   UNL A   1      43.947  25.727  34.204  1.00  0.00     0.160 A 
ATOM     19  C   UNL A   1      44.042  24.384  33.806  1.00  0.00     0.051 A 
ATOM     20  C   UNL A   1      44.176  26.755  33.279  1.00  0.00     0.161 A 
ATOM     21  C   UNL A   1      44.347  24.063  32.481  1.00  0.00     0.014 A 
ATOM     22  C   UNL A   1      44.503  26.424  31.960  1.00  0.00     0.060 A 
BRANCH  18  23
ATOM     23  O   UNL A   1      43.741  26.003  35.530  1.00  0.00    -0.493 OA
ATOM     24  C   UNL A   1      44.542  25.183  36.383  1.00  0.00     0.278 C 
ENDBRANCH  18  23
BRANCH  20  25
ATOM     25  O   UNL A   1      44.153  28.107  33.496  1.00  0.00    -0.493 OA
ATOM     26  C   UNL A   1      44.083  28.953  32.358  1.00  0.00     0.278 C 
ENDBRANCH  20  25
ENDBRANCH   9  17
BRANCH  12  27
ATOM     27  C   UNL A   1      47.797  25.248  27.702  1.00  0.00     0.433 C 
ATOM     28  F   UNL A   1      47.610  26.123  26.683  1.00  0.00    -0.165 F 
ATOM     29  F   UNL A   1      48.719  25.774  28.545  1.00  0.00    -0.165 F 
ATOM     30  F   UNL A   1      48.396  24.155  27.142  1.00  0.00    -0.165 F 
ENDBRANCH  12  27
ENDBRANCH   5   8
ENDBRANCH   3   4
ENDBRANCH   2   3
ENDBRANCH   1   2
BRANCH   1  31
ATOM     31  C   UNL A   1      41.009  21.391  27.560  1.00  0.00     0.116 C 
BRANCH  31  32
ATOM     32  N   UNL A   1      39.866  21.559  26.675  1.00  0.00    -0.352 N 
ATOM     33  C   UNL A   1      39.193  22.712  26.360  1.00  0.00     0.251 C 
ATOM     34  H   UNL A   1      39.532  20.737  26.246  1.00  0.00     0.163 HD
ATOM     35  O   UNL A   1      38.167  22.658  25.685  1.00  0.00    -0.269 OA
BRANCH  33  36
ATOM     36  C   UNL A   1      39.690  24.009  26.863  1.00  0.00     0.039 A 
ATOM     37  C   UNL A   1      40.197  24.935  25.949  1.00  0.00     0.014 A 
ATOM     38  C   UNL A   1      39.642  24.317  28.225  1.00  0.00     0.014 A 
ATOM     39  C   UNL A   1      40.616  26.187  26.399  1.00  0.00     0.010 A 
ATOM     40  C   UNL A   1      39.982  25.594  28.658  1.00  0.00     0.010 A 
ATOM     41  C   UNL A   1      40.491  26.537  27.754  1.00  0.00    -0.014 A 
BRANCH  41  42
ATOM     42  C   UNL A   1      40.902  27.880  28.234  1.00  0.00     0.031 A 
ATOM     43  C   UNL A   1      42.357  28.269  28.252  1.00  0.00     0.074 A 
ATOM     44  C   UNL A   1      39.971  28.733  28.705  1.00  0.00     0.049 A 
ATOM     45  N   UNL A   1      42.902  29.399  28.622  1.00  0.00    -0.248 NA
ATOM     46  C   UNL A   1      43.329  27.248  27.827  1.00  0.00     0.031 C 
ATOM     47  C   UNL A   1      38.541  28.441  28.826  1.00  0.00     0.029 A 
ATOM     48  N   UNL A   1      40.089  30.014  29.184  1.00  0.00    -0.354 N 
ATOM     49  C   UNL A   1      44.276  29.214  28.505  1.00  0.00     0.074 A 
ATOM     50  C   UNL A   1      44.483  27.850  28.073  1.00  0.00     0.031 C 
ATOM     51  C   UNL A   1      37.913  29.516  29.329  1.00  0.00     0.029 A 
ATOM     52  C   UNL A   1      38.895  30.564  29.588  1.00  0.00     0.049 A 
ATOM     53  H   UNL A   1      40.947  30.493  29.234  1.00  0.00     0.167 HD
ATOM     54  C   UNL A   1      45.274  30.108  28.705  1.00  0.00     0.034 A 
ATOM     55  C   UNL A   1      38.622  31.779  30.104  1.00  0.00     0.034 A 
ATOM     56  C   UNL A   1      45.061  31.475  29.096  1.00  0.00     0.049 A 
ATOM     57  C   UNL A   1      39.742  32.772  30.259  1.00  0.00     0.074 A 
ATOM     58  C   UNL A   1      45.996  32.484  29.244  1.00  0.00     0.029 A 
ATOM     59  N   UNL A   1      43.828  32.024  29.409  1.00  0.00    -0.354 N 
ATOM     60  N   UNL A   1      41.017  32.630  29.985  1.00  0.00    -0.248 NA
ATOM     61  C   UNL A   1      39.378  34.109  30.749  1.00  0.00     0.031 C 
ATOM     62  C   UNL A   1      45.330  33.638  29.673  1.00  0.00     0.029 A 
ATOM     63  C   UNL A   1      43.977  33.357  29.754  1.00  0.00     0.049 A 
ATOM     64  H   UNL A   1      42.972  31.538  29.390  1.00  0.00     0.167 HD
ATOM     65  C   UNL A   1      41.599  33.870  30.228  1.00  0.00     0.074 A 
ATOM     66  C   UNL A   1      40.532  34.755  30.649  1.00  0.00     0.031 C 
ATOM     67  C   UNL A   1      42.899  34.240  30.122  1.00  0.00     0.034 A 
BRANCH  54  68
ATOM     68  C   UNL A   1      46.687  29.645  28.452  1.00  0.00     0.023 A 
ATOM     69  C   UNL A   1      47.227  29.732  27.152  1.00  0.00     0.012 A 
ATOM     70  C   UNL A   1      47.495  29.175  29.505  1.00  0.00     0.148 A 
ATOM     71  C   UNL A   1      48.535  29.321  26.895  1.00  0.00     0.002 A 
ATOM     72  C   UNL A   1      48.814  28.815  29.251  1.00  0.00     0.091 A 
ATOM     73  F   UNL A   1      46.960  29.080  30.730  1.00  0.00    -0.205 F 
ATOM     74  C   UNL A   1      49.330  28.873  27.946  1.00  0.00     0.022 A 
BRANCH  72  75
ATOM     75  S   UNL A   1      49.947  28.305  30.548  1.00  0.00     0.127 S 
ATOM     76  O   UNL A   1      50.105  29.545  31.307  1.00  0.00    -0.237 OA
ATOM     77  O   UNL A   1      49.181  27.264  31.233  1.00  0.00    -0.237 OA
ATOM     78  O   UNL A   1      51.146  27.831  29.871  1.00  0.00    -0.744 OA
ENDBRANCH  72  75
ENDBRANCH  54  68
BRANCH  55  79
ATOM     79  C   UNL A   1      37.218  32.151  30.437  1.00  0.00     0.023 A 
ATOM     80  C   UNL A   1      36.739  31.952  31.747  1.00  0.00     0.012 A 
ATOM     81  C   UNL A   1      36.364  32.717  29.472  1.00  0.00     0.148 A 
ATOM     82  C   UNL A   1      35.423  32.273  32.079  1.00  0.00     0.002 A 
ATOM     83  C   UNL A   1      35.071  33.088  29.824  1.00  0.00     0.091 A 
ATOM     84  F   UNL A   1      36.836  32.892  28.230  1.00  0.00    -0.205 F 
ATOM     85  C   UNL A   1      34.592  32.848  31.122  1.00  0.00     0.022 A 
BRANCH  83  86
ATOM     86  S   UNL A   1      33.977  33.956  28.696  1.00  0.00     0.127 S 
ATOM     87  O   UNL A   1      33.488  32.865  27.856  1.00  0.00    -0.237 OA
ATOM     88  O   UNL A   1      32.986  34.521  29.613  1.00  0.00    -0.237 OA
ATOM     89  O   UNL A   1      34.808  34.947  28.027  1.00  0.00    -0.744 OA
ENDBRANCH  83  86
ENDBRANCH  55  79
BRANCH  67  90
ATOM     90  C   UNL A   1      43.239  35.678  30.416  1.00  0.00     0.023 A 
ATOM     91  C   UNL A   1      43.691  36.051  31.697  1.00  0.00     0.012 A 
ATOM     92  C   UNL A   1      43.157  36.653  29.403  1.00  0.00     0.148 A 
ATOM     93  C   UNL A   1      44.009  37.379  31.978  1.00  0.00     0.002 A 
ATOM     94  C   UNL A   1      43.529  37.964  29.674  1.00  0.00     0.091 A 
ATOM     95  F   UNL A   1      42.708  36.285  28.194  1.00  0.00    -0.205 F 
ATOM     96  C   UNL A   1      43.940  38.333  30.965  1.00  0.00     0.022 A 
BRANCH  94  97
ATOM     97  S   UNL A   1      43.565  39.231  28.402  1.00  0.00     0.127 S 
ATOM     98  O   UNL A   1      44.034  40.394  29.151  1.00  0.00    -0.237 OA
ATOM     99  O   UNL A   1      44.534  38.689  27.448  1.00  0.00    -0.237 OA
ATOM    100  O   UNL A   1      42.205  39.320  27.889  1.00  0.00    -0.744 OA
ENDBRANCH  94  97
ENDBRANCH  67  90
ENDBRANCH  41  42
ENDBRANCH  33  36
ENDBRANCH  31  32
ENDBRANCH   1  31
TORSDOF 18
ENDMDL
MODEL 2
REMARK VINA RESULT:      -9.0      7.927     14.859
REMARK SMILES COc1ccc(-c2cc(C(F)(F)F)n3nc(C(=O)NCCCCNC(=O)c4ccc(-c5c6nc(c(-c7cccc(S(=O)(=O)[O-])c7F)c7ccc([nH]7)c(-c7cccc(S(=O)(=O)[O-])c7F)c7nc(c(-c8cccc(S(=O)(=O)[O-])c8F)c8ccc5[nH]8)C=C7)C=C6)cc4)cc3n2)cc1OC
REMARK SMILES IDX 22 1 21 2 20 3 19 4 17 5 18 6 16 8 7 9 8 10 92 11 9 12 91 13
REMARK SMILES IDX 14 14 90 15 15 16 6 17 3 18 4 19 94 20 5 21 93 22 2 23 1 24
REMARK SMILES IDX 95 25 96 26 10 27 11 28 12 29 13 30 23 31 24 32 25 33 26 35
REMARK SMILES IDX 27 36 28 37 89 38 29 39 88 40 30 41 31 42 32 43 82 44 33 45
REMARK SMILES IDX 87 46 81 47 83 48 34 49 86 50 80 51 79 52 35 54 67 55 47 56
REMARK SMILES IDX 66 57 48 58 51 59 65 60 84 61 49 62 50 63 64 65 85 66 52 67
REMARK SMILES IDX 36 68 37 69 45 70 38 71 40 72 46 73 39 74 41 75 42 76 43 77
REMARK SMILES IDX 44 78 68 79 69 80 77 81 70 82 72 83 78 84 71 85 73 86 74 87
REMARK SMILES IDX 75 88 76 89 53 90 54 91 62 92 55 93 57 94 63 95 56 96 58 97
REMARK SMILES IDX 59 98 60 99 61 100
REMARK H PARENT 19 7 24 34 83 53 51 64
REMARK Flexibility Score: inf
ROOT
ATOM      1  C   UNL A   1      48.159  38.314  26.824  1.00  0.00     0.023 C 
ENDROOT
BRANCH   1   2
ATOM      2  C   UNL A   1      48.066  39.125  28.121  1.00  0.00     0.023 C 
BRANCH   2   3
ATOM      3  C   UNL A   1      46.673  39.114  28.754  1.00  0.00     0.116 C 
BRANCH   3   4
ATOM      4  N   UNL A   1      46.464  40.294  29.562  1.00  0.00    -0.351 N 
ATOM      5  C   UNL A   1      45.763  41.456  29.332  1.00  0.00     0.271 C 
ATOM      6  O   UNL A   1      45.753  42.273  30.256  1.00  0.00    -0.267 OA
ATOM      7  H   UNL A   1      46.906  40.261  30.442  1.00  0.00     0.163 HD
BRANCH   5   8
ATOM      8  C   UNL A   1      45.038  41.697  28.063  1.00  0.00     0.152 A 
ATOM      9  C   UNL A   1      43.189  42.402  24.102  1.00  0.00     0.075 A 
ATOM     10  C   UNL A   1      42.106  41.537  24.669  1.00  0.00     0.062 A 
ATOM     11  N   UNL A   1      44.267  42.754  24.736  1.00  0.00    -0.228 NA
ATOM     12  C   UNL A   1      42.311  41.073  25.918  1.00  0.00     0.150 A 
ATOM     13  C   UNL A   1      44.392  42.290  26.012  1.00  0.00     0.157 A 
ATOM     14  N   UNL A   1      43.472  41.423  26.597  1.00  0.00    -0.209 N 
ATOM     15  C   UNL A   1      45.329  42.556  26.978  1.00  0.00     0.085 A 
ATOM     16  N   UNL A   1      43.886  41.037  27.820  1.00  0.00    -0.161 NA
BRANCH   9  17
ATOM     17  C   UNL A   1      42.989  42.871  22.715  1.00  0.00     0.004 A 
ATOM     18  C   UNL A   1      42.624  43.706  20.077  1.00  0.00     0.160 A 
ATOM     19  C   UNL A   1      41.531  43.250  20.831  1.00  0.00     0.051 A 
ATOM     20  C   UNL A   1      43.906  43.745  20.645  1.00  0.00     0.161 A 
ATOM     21  C   UNL A   1      41.716  42.816  22.145  1.00  0.00     0.014 A 
ATOM     22  C   UNL A   1      44.077  43.328  21.969  1.00  0.00     0.060 A 
BRANCH  18  23
ATOM     23  O   UNL A   1      42.391  44.213  18.827  1.00  0.00    -0.493 OA
ATOM     24  C   UNL A   1      41.017  44.105  18.449  1.00  0.00     0.278 C 
ENDBRANCH  18  23
BRANCH  20  25
ATOM     25  O   UNL A   1      45.071  44.180  20.072  1.00  0.00    -0.493 OA
ATOM     26  C   UNL A   1      46.281  43.580  20.507  1.00  0.00     0.278 C 
ENDBRANCH  20  25
ENDBRANCH   9  17
BRANCH  12  27
ATOM     27  C   UNL A   1      41.349  40.219  26.653  1.00  0.00     0.433 C 
ATOM     28  F   UNL A   1      41.947  39.350  27.503  1.00  0.00    -0.165 F 
ATOM     29  F   UNL A   1      40.435  40.935  27.353  1.00  0.00    -0.165 F 
ATOM     30  F   UNL A   1      40.623  39.448  25.789  1.00  0.00    -0.165 F 
ENDBRANCH  12  27
ENDBRANCH   5   8
ENDBRANCH   3   4
ENDBRANCH   2   3
ENDBRANCH   1   2
BRANCH   1  31
ATOM     31  C   UNL A   1      46.828  38.077  26.115  1.00  0.00     0.116 C 
BRANCH  31  32
ATOM     32  N   UNL A   1      46.769  36.803  25.414  1.00  0.00    -0.352 N 
ATOM     33  C   UNL A   1      46.206  35.623  25.833  1.00  0.00     0.251 C 
ATOM     34  H   UNL A   1      47.188  36.785  24.523  1.00  0.00     0.163 HD
ATOM     35  O   UNL A   1      46.351  34.603  25.162  1.00  0.00    -0.269 OA
BRANCH  33  36
ATOM     36  C   UNL A   1      45.456  35.582  27.104  1.00  0.00     0.039 A 
ATOM     37  C   UNL A   1      45.891  34.723  28.114  1.00  0.00     0.014 A 
ATOM     38  C   UNL A   1      44.340  36.398  27.305  1.00  0.00     0.014 A 
ATOM     39  C   UNL A   1      45.231  34.714  29.343  1.00  0.00     0.010 A 
ATOM     40  C   UNL A   1      43.735  36.447  28.557  1.00  0.00     0.010 A 
ATOM     41  C   UNL A   1      44.161  35.593  29.584  1.00  0.00    -0.014 A 
BRANCH  41  42
ATOM     42  C   UNL A   1      43.475  35.615  30.900  1.00  0.00     0.031 A 
ATOM     43  C   UNL A   1      42.161  34.903  31.085  1.00  0.00     0.074 A 
ATOM     44  C   UNL A   1      44.008  36.321  31.917  1.00  0.00     0.049 A 
ATOM     45  N   UNL A   1      41.425  34.800  32.161  1.00  0.00    -0.248 NA
ATOM     46  C   UNL A   1      41.583  34.245  29.901  1.00  0.00     0.031 C 
ATOM     47  C   UNL A   1      45.228  37.127  31.839  1.00  0.00     0.029 A 
ATOM     48  N   UNL A   1      43.585  36.485  33.212  1.00  0.00    -0.354 N 
ATOM     49  C   UNL A   1      40.288  34.097  31.778  1.00  0.00     0.074 A 
ATOM     50  C   UNL A   1      40.409  33.837  30.361  1.00  0.00     0.031 C 
ATOM     51  C   UNL A   1      45.463  37.688  33.037  1.00  0.00     0.029 A 
ATOM     52  C   UNL A   1      44.401  37.300  33.960  1.00  0.00     0.049 A 
ATOM     53  H   UNL A   1      42.772  36.061  33.571  1.00  0.00     0.167 HD
ATOM     54  C   UNL A   1      39.252  33.674  32.542  1.00  0.00     0.034 A 
ATOM     55  C   UNL A   1      44.309  37.686  35.248  1.00  0.00     0.034 A 
ATOM     56  C   UNL A   1      39.155  33.901  33.958  1.00  0.00     0.049 A 
ATOM     57  C   UNL A   1      43.180  37.153  36.089  1.00  0.00     0.074 A 
ATOM     58  C   UNL A   1      38.190  33.444  34.840  1.00  0.00     0.029 A 
ATOM     59  N   UNL A   1      40.049  34.654  34.702  1.00  0.00    -0.354 N 
ATOM     60  N   UNL A   1      42.201  36.351  35.745  1.00  0.00    -0.248 NA
ATOM     61  C   UNL A   1      43.170  37.540  37.507  1.00  0.00     0.031 C 
ATOM     62  C   UNL A   1      38.488  33.944  36.112  1.00  0.00     0.029 A 
ATOM     63  C   UNL A   1      39.658  34.679  36.030  1.00  0.00     0.049 A 
ATOM     64  H   UNL A   1      40.845  35.106  34.339  1.00  0.00     0.167 HD
ATOM     65  C   UNL A   1      41.485  36.104  36.911  1.00  0.00     0.074 A 
ATOM     66  C   UNL A   1      42.158  36.823  37.974  1.00  0.00     0.031 C 
ATOM     67  C   UNL A   1      40.367  35.357  37.086  1.00  0.00     0.034 A 
BRANCH  54  68
ATOM     68  C   UNL A   1      38.165  32.878  31.866  1.00  0.00     0.023 A 
ATOM     69  C   UNL A   1      38.217  31.469  31.886  1.00  0.00     0.012 A 
ATOM     70  C   UNL A   1      37.067  33.519  31.258  1.00  0.00     0.148 A 
ATOM     71  C   UNL A   1      37.218  30.709  31.277  1.00  0.00     0.002 A 
ATOM     72  C   UNL A   1      36.049  32.755  30.698  1.00  0.00     0.091 A 
ATOM     73  F   UNL A   1      37.043  34.858  31.231  1.00  0.00    -0.205 F 
ATOM     74  C   UNL A   1      36.130  31.352  30.694  1.00  0.00     0.022 A 
BRANCH  72  75
ATOM     75  S   UNL A   1      34.565  33.483  29.996  1.00  0.00     0.127 S 
ATOM     76  O   UNL A   1      33.904  32.311  29.423  1.00  0.00    -0.237 OA
ATOM     77  O   UNL A   1      33.906  34.037  31.178  1.00  0.00    -0.237 OA
ATOM     78  O   UNL A   1      35.021  34.475  29.033  1.00  0.00    -0.744 OA
ENDBRANCH  72  75
ENDBRANCH  54  68
BRANCH  55  79
ATOM     79  C   UNL A   1      45.358  38.564  35.842  1.00  0.00     0.023 A 
ATOM     80  C   UNL A   1      46.520  37.984  36.386  1.00  0.00     0.012 A 
ATOM     81  C   UNL A   1      45.218  39.964  35.854  1.00  0.00     0.148 A 
ATOM     82  C   UNL A   1      47.508  38.781  36.967  1.00  0.00     0.002 A 
ATOM     83  C   UNL A   1      46.231  40.756  36.382  1.00  0.00     0.091 A 
ATOM     84  F   UNL A   1      44.101  40.495  35.338  1.00  0.00    -0.205 F 
ATOM     85  C   UNL A   1      47.368  40.166  36.957  1.00  0.00     0.022 A 
BRANCH  83  86
ATOM     86  S   UNL A   1      46.198  42.548  36.293  1.00  0.00     0.127 S 
ATOM     87  O   UNL A   1      47.494  42.900  36.869  1.00  0.00    -0.237 OA
ATOM     88  O   UNL A   1      46.081  42.777  34.852  1.00  0.00    -0.237 OA
ATOM     89  O   UNL A   1      45.031  42.959  37.061  1.00  0.00    -0.744 OA
ENDBRANCH  83  86
ENDBRANCH  55  79
BRANCH  67  90
ATOM     90  C   UNL A   1      39.824  35.234  38.486  1.00  0.00     0.023 A 
ATOM     91  C   UNL A   1      39.225  36.344  39.115  1.00  0.00     0.012 A 
ATOM     92  C   UNL A   1      39.863  33.998  39.162  1.00  0.00     0.148 A 
ATOM     93  C   UNL A   1      38.720  36.239  40.410  1.00  0.00     0.002 A 
ATOM     94  C   UNL A   1      39.308  33.886  40.430  1.00  0.00     0.091 A 
ATOM     95  F   UNL A   1      40.453  32.956  38.557  1.00  0.00    -0.205 F 
ATOM     96  C   UNL A   1      38.750  35.009  41.062  1.00  0.00     0.022 A 
BRANCH  94  97
ATOM     97  S   UNL A   1      39.215  32.317  41.298  1.00  0.00     0.127 S 
ATOM     98  O   UNL A   1      40.614  31.898  41.310  1.00  0.00    -0.237 OA
ATOM     99  O   UNL A   1      38.686  32.713  42.604  1.00  0.00    -0.237 OA
ATOM    100  O   UNL A   1      38.314  31.481  40.516  1.00  0.00    -0.744 OA
ENDBRANCH  94  97
ENDBRANCH  67  90
ENDBRANCH  41  42
ENDBRANCH  33  36
ENDBRANCH  31  32
ENDBRANCH   1  31
TORSDOF 18
ENDMDL
MODEL 3
REMARK VINA RESULT:      -8.8      5.937     15.735
REMARK SMILES COc1ccc(-c2cc(C(F)(F)F)n3nc(C(=O)NCCCCNC(=O)c4ccc(-c5c6nc(c(-c7cccc(S(=O)(=O)[O-])c7F)c7ccc([nH]7)c(-c7cccc(S(=O)(=O)[O-])c7F)c7nc(c(-c8cccc(S(=O)(=O)[O-])c8F)c8ccc5[nH]8)C=C7)C=C6)cc4)cc3n2)cc1OC
REMARK SMILES IDX 22 1 21 2 20 3 19 4 17 5 18 6 16 8 7 9 8 10 92 11 9 12 91 13
REMARK SMILES IDX 14 14 90 15 15 16 6 17 3 18 4 19 94 20 5 21 93 22 2 23 1 24
REMARK SMILES IDX 95 25 96 26 10 27 11 28 12 29 13 30 23 31 24 32 25 33 26 35
REMARK SMILES IDX 27 36 28 37 89 38 29 39 88 40 30 41 31 42 32 43 82 44 33 45
REMARK SMILES IDX 87 46 81 47 83 48 34 49 86 50 80 51 79 52 35 54 67 55 47 56
REMARK SMILES IDX 66 57 48 58 51 59 65 60 84 61 49 62 50 63 64 65 85 66 52 67
REMARK SMILES IDX 36 68 37 69 45 70 38 71 40 72 46 73 39 74 41 75 42 76 43 77
REMARK SMILES IDX 44 78 68 79 69 80 77 81 70 82 72 83 78 84 71 85 73 86 74 87
REMARK SMILES IDX 75 88 76 89 53 90 54 91 62 92 55 93 57 94 63 95 56 96 58 97
REMARK SMILES IDX 59 98 60 99 61 100
REMARK H PARENT 19 7 24 34 83 53 51 64
REMARK Flexibility Score: inf
ROOT
ATOM      1  C   UNL A   1      43.397  39.172  29.425  1.00  0.00     0.023 C 
ENDROOT
BRANCH   1   2
ATOM      2  C   UNL A   1      44.213  39.645  28.217  1.00  0.00     0.023 C 
BRANCH   2   3
ATOM      3  C   UNL A   1      43.616  39.231  26.871  1.00  0.00     0.116 C 
BRANCH   3   4
ATOM      4  N   UNL A   1      42.295  39.794  26.697  1.00  0.00    -0.351 N 
ATOM      5  C   UNL A   1      41.843  40.872  25.972  1.00  0.00     0.271 C 
ATOM      6  O   UNL A   1      40.627  41.075  26.006  1.00  0.00    -0.267 OA
ATOM      7  H   UNL A   1      41.588  39.317  27.189  1.00  0.00     0.163 HD
BRANCH   5   8
ATOM      8  C   UNL A   1      42.757  41.720  25.173  1.00  0.00     0.152 A 
ATOM      9  C   UNL A   1      45.764  44.094  22.953  1.00  0.00     0.075 A 
ATOM     10  C   UNL A   1      44.798  43.905  21.824  1.00  0.00     0.062 A 
ATOM     11  N   UNL A   1      45.594  43.645  24.160  1.00  0.00    -0.228 NA
ATOM     12  C   UNL A   1      43.698  43.176  22.103  1.00  0.00     0.150 A 
ATOM     13  C   UNL A   1      44.440  42.957  24.388  1.00  0.00     0.157 A 
ATOM     14  N   UNL A   1      43.518  42.669  23.385  1.00  0.00    -0.209 N 
ATOM     15  C   UNL A   1      43.907  42.454  25.547  1.00  0.00     0.085 A 
ATOM     16  N   UNL A   1      42.524  41.890  23.854  1.00  0.00    -0.161 NA
BRANCH   9  17
ATOM     17  C   UNL A   1      46.994  44.851  22.636  1.00  0.00     0.004 A 
ATOM     18  C   UNL A   1      49.285  46.326  22.036  1.00  0.00     0.160 A 
ATOM     19  C   UNL A   1      48.941  46.070  23.372  1.00  0.00     0.051 A 
ATOM     20  C   UNL A   1      48.481  45.842  20.995  1.00  0.00     0.161 A 
ATOM     21  C   UNL A   1      47.785  45.347  23.674  1.00  0.00     0.014 A 
ATOM     22  C   UNL A   1      47.337  45.100  21.306  1.00  0.00     0.060 A 
BRANCH  18  23
ATOM     23  O   UNL A   1      50.474  46.954  21.776  1.00  0.00    -0.493 OA
ATOM     24  C   UNL A   1      50.846  47.859  22.818  1.00  0.00     0.278 C 
ENDBRANCH  18  23
BRANCH  20  25
ATOM     25  O   UNL A   1      48.676  45.972  19.645  1.00  0.00    -0.493 OA
ATOM     26  C   UNL A   1      47.982  45.076  18.792  1.00  0.00     0.278 C 
ENDBRANCH  20  25
ENDBRANCH   9  17
BRANCH  12  27
ATOM     27  C   UNL A   1      42.622  42.894  21.124  1.00  0.00     0.433 C 
ATOM     28  F   UNL A   1      41.391  43.253  21.565  1.00  0.00    -0.165 F 
ATOM     29  F   UNL A   1      42.830  43.488  19.923  1.00  0.00    -0.165 F 
ATOM     30  F   UNL A   1      42.542  41.556  20.860  1.00  0.00    -0.165 F 
ENDBRANCH  12  27
ENDBRANCH   5   8
ENDBRANCH   3   4
ENDBRANCH   2   3
ENDBRANCH   1   2
BRANCH   1  31
ATOM     31  C   UNL A   1      44.091  38.136  30.305  1.00  0.00     0.116 C 
BRANCH  31  32
ATOM     32  N   UNL A   1      45.542  38.176  30.204  1.00  0.00    -0.352 N 
ATOM     33  C   UNL A   1      46.412  37.139  29.976  1.00  0.00     0.251 C 
ATOM     34  H   UNL A   1      45.955  39.064  30.313  1.00  0.00     0.163 HD
ATOM     35  O   UNL A   1      47.624  37.330  30.040  1.00  0.00    -0.269 OA
BRANCH  33  36
ATOM     36  C   UNL A   1      45.881  35.791  29.686  1.00  0.00     0.039 A 
ATOM     37  C   UNL A   1      46.009  34.795  30.655  1.00  0.00     0.014 A 
ATOM     38  C   UNL A   1      45.246  35.516  28.472  1.00  0.00     0.014 A 
ATOM     39  C   UNL A   1      45.462  33.534  30.422  1.00  0.00     0.010 A 
ATOM     40  C   UNL A   1      44.630  34.284  28.276  1.00  0.00     0.010 A 
ATOM     41  C   UNL A   1      44.747  33.273  29.240  1.00  0.00    -0.014 A 
BRANCH  41  42
ATOM     42  C   UNL A   1      44.130  31.944  29.001  1.00  0.00     0.031 A 
ATOM     43  C   UNL A   1      42.763  31.630  29.549  1.00  0.00     0.074 A 
ATOM     44  C   UNL A   1      44.823  30.999  28.336  1.00  0.00     0.049 A 
ATOM     45  N   UNL A   1      42.061  30.534  29.430  1.00  0.00    -0.248 NA
ATOM     46  C   UNL A   1      42.111  32.672  30.360  1.00  0.00     0.031 C 
ATOM     47  C   UNL A   1      46.191  31.149  27.835  1.00  0.00     0.029 A 
ATOM     48  N   UNL A   1      44.477  29.720  27.979  1.00  0.00    -0.354 N 
ATOM     49  C   UNL A   1      40.904  30.740  30.174  1.00  0.00     0.074 A 
ATOM     50  C   UNL A   1      41.018  32.049  30.777  1.00  0.00     0.031 C 
ATOM     51  C   UNL A   1      46.562  30.012  27.222  1.00  0.00     0.029 A 
ATOM     52  C   UNL A   1      45.470  29.047  27.306  1.00  0.00     0.049 A 
ATOM     53  H   UNL A   1      43.601  29.321  28.186  1.00  0.00     0.167 HD
ATOM     54  C   UNL A   1      39.827  29.930  30.315  1.00  0.00     0.034 A 
ATOM     55  C   UNL A   1      45.495  27.796  26.806  1.00  0.00     0.034 A 
ATOM     56  C   UNL A   1      39.701  28.646  29.681  1.00  0.00     0.049 A 
ATOM     57  C   UNL A   1      44.264  26.939  26.925  1.00  0.00     0.074 A 
ATOM     58  C   UNL A   1      38.619  27.783  29.691  1.00  0.00     0.029 A 
ATOM     59  N   UNL A   1      40.692  28.035  28.929  1.00  0.00    -0.354 N 
ATOM     60  N   UNL A   1      43.115  27.218  27.493  1.00  0.00    -0.248 NA
ATOM     61  C   UNL A   1      44.315  25.614  26.293  1.00  0.00     0.031 C 
ATOM     62  C   UNL A   1      38.966  26.638  28.966  1.00  0.00     0.029 A 
ATOM     63  C   UNL A   1      40.250  26.805  28.473  1.00  0.00     0.049 A 
ATOM     64  H   UNL A   1      41.580  28.418  28.747  1.00  0.00     0.167 HD
ATOM     65  C   UNL A   1      42.294  26.122  27.250  1.00  0.00     0.074 A 
ATOM     66  C   UNL A   1      43.072  25.186  26.464  1.00  0.00     0.031 C 
ATOM     67  C   UNL A   1      41.017  25.906  27.649  1.00  0.00     0.034 A 
BRANCH  54  68
ATOM     68  C   UNL A   1      38.677  30.435  31.150  1.00  0.00     0.023 A 
ATOM     69  C   UNL A   1      38.699  30.256  32.548  1.00  0.00     0.012 A 
ATOM     70  C   UNL A   1      37.604  31.130  30.560  1.00  0.00     0.148 A 
ATOM     71  C   UNL A   1      37.653  30.725  33.343  1.00  0.00     0.002 A 
ATOM     72  C   UNL A   1      36.589  31.638  31.363  1.00  0.00     0.091 A 
ATOM     73  F   UNL A   1      37.588  31.273  29.227  1.00  0.00    -0.205 F 
ATOM     74  C   UNL A   1      36.605  31.424  32.752  1.00  0.00     0.022 A 
BRANCH  72  75
ATOM     75  S   UNL A   1      35.238  32.625  30.711  1.00  0.00     0.127 S 
ATOM     76  O   UNL A   1      35.920  33.874  30.374  1.00  0.00    -0.237 OA
ATOM     77  O   UNL A   1      34.809  31.834  29.558  1.00  0.00    -0.237 OA
ATOM     78  O   UNL A   1      34.256  32.720  31.783  1.00  0.00    -0.744 OA
ENDBRANCH  72  75
ENDBRANCH  54  68
BRANCH  55  79
ATOM     79  C   UNL A   1      46.701  27.306  26.078  1.00  0.00     0.023 A 
ATOM     80  C   UNL A   1      46.790  27.487  24.684  1.00  0.00     0.012 A 
ATOM     81  C   UNL A   1      47.762  26.682  26.760  1.00  0.00     0.148 A 
ATOM     82  C   UNL A   1      47.898  27.019  23.976  1.00  0.00     0.002 A 
ATOM     83  C   UNL A   1      48.888  26.270  26.057  1.00  0.00     0.091 A 
ATOM     84  F   UNL A   1      47.654  26.513  28.085  1.00  0.00    -0.205 F 
ATOM     85  C   UNL A   1      48.950  26.420  24.662  1.00  0.00     0.022 A 
BRANCH  83  86
ATOM     86  S   UNL A   1      50.345  25.610  26.873  1.00  0.00     0.127 S 
ATOM     87  O   UNL A   1      50.720  26.714  27.754  1.00  0.00    -0.237 OA
ATOM     88  O   UNL A   1      49.801  24.434  27.555  1.00  0.00    -0.237 OA
ATOM     89  O   UNL A   1      51.287  25.302  25.807  1.00  0.00    -0.744 OA
ENDBRANCH  83  86
ENDBRANCH  55  79
BRANCH  67  90
ATOM     90  C   UNL A   1      40.355  24.628  27.200  1.00  0.00     0.023 A 
ATOM     91  C   UNL A   1      39.146  24.671  26.479  1.00  0.00     0.012 A 
ATOM     92  C   UNL A   1      40.963  23.382  27.453  1.00  0.00     0.148 A 
ATOM     93  C   UNL A   1      38.527  23.493  26.060  1.00  0.00     0.002 A 
ATOM     94  C   UNL A   1      40.371  22.216  26.984  1.00  0.00     0.091 A 
ATOM     95  F   UNL A   1      42.105  23.357  28.157  1.00  0.00    -0.205 F 
ATOM     96  C   UNL A   1      39.145  22.268  26.301  1.00  0.00     0.022 A 
BRANCH  94  97
ATOM     97  S   UNL A   1      41.149  20.608  27.164  1.00  0.00     0.127 S 
ATOM     98  O   UNL A   1      40.480  19.834  26.121  1.00  0.00    -0.237 OA
ATOM     99  O   UNL A   1      42.556  20.910  26.891  1.00  0.00    -0.237 OA
ATOM    100  O   UNL A   1      40.881  20.186  28.531  1.00  0.00    -0.744 OA
ENDBRANCH  94  97
ENDBRANCH  67  90
ENDBRANCH  41  42
ENDBRANCH  33  36
ENDBRANCH  31  32
ENDBRANCH   1  31
TORSDOF 18
ENDMDL
