MODEL 1
REMARK VINA RESULT:     -11.7      0.000      0.000
REMARK SMILES CC[C@](C)(NC(=O)NC[C@H]1COCCO1)C(=O)NCCCCNC(=O)c1ccc(-c2c3nc(c(-c4cccc(S(=O)(=O)[O-])c4F)c4ccc([nH]4)c(-c4cccc(S(=O)(=O)[O-])c4F)c4nc(c(-c5cccc(S(=O)(=O)[O-])c5F)c5ccc2[nH]5)C=C4)C=C3)cc1
REMARK SMILES IDX 20 1 19 2 18 3 16 4 17 5 3 7 4 8 2 9 1 10 5 11 6 12 7 14
REMARK SMILES IDX 8 15 9 17 10 18 11 19 15 20 12 21 14 22 13 23 21 24 22 25
REMARK SMILES IDX 23 26 24 27 25 29 26 30 27 31 88 32 28 33 87 34 29 35 30 36
REMARK SMILES IDX 31 37 81 38 32 39 86 40 80 41 82 42 33 43 85 44 79 45 78 46
REMARK SMILES IDX 34 48 66 49 46 50 65 51 47 52 50 53 64 54 83 55 48 56 49 57
REMARK SMILES IDX 63 59 84 60 51 61 35 62 36 63 44 64 37 65 39 66 45 67 38 68
REMARK SMILES IDX 40 69 41 70 42 71 43 72 67 73 68 74 76 75 69 76 71 77 77 78
REMARK SMILES IDX 70 79 72 80 73 81 74 82 75 83 52 84 53 85 61 86 54 87 56 88
REMARK SMILES IDX 62 89 55 90 57 91 58 92 59 93 60 94
REMARK H PARENT 18 6 5 13 8 16 23 28 82 47 50 58
REMARK Flexibility Score: inf
ROOT
ATOM      1  C   UNL A   1      31.507  30.592  26.368  1.00  0.00     0.023 C 
ENDROOT
BRANCH   1   2
ATOM      2  C   UNL A   1      32.652  29.499  26.167  1.00  0.00     0.116 C 
BRANCH   2   3
ATOM      3  N   UNL A   1      33.384  29.210  24.905  1.00  0.00    -0.354 N 
ATOM      4  C   UNL A   1      33.737  28.154  24.089  1.00  0.00     0.245 C 
ATOM      5  O   UNL A   1      34.464  28.291  23.103  1.00  0.00    -0.272 OA
ATOM      6  H   UNL A   1      33.732  30.049  24.526  1.00  0.00     0.163 HD
BRANCH   4   7
ATOM      7  C   UNL A   1      33.109  26.833  24.346  1.00  0.00     0.117 C 
ATOM      8  C   UNL A   1      31.781  26.763  25.114  1.00  0.00     0.045 C 
BRANCH   7   9
ATOM      9  C   UNL A   1      34.215  26.165  25.245  1.00  0.00     0.035 C 
ATOM     10  C   UNL A   1      34.368  24.639  24.970  1.00  0.00     0.007 C 
ENDBRANCH   7   9
BRANCH   7  11
ATOM     11  N   UNL A   1      32.893  26.373  22.972  1.00  0.00    -0.324 N 
ATOM     12  C   UNL A   1      31.900  26.616  22.081  1.00  0.00     0.315 C 
ATOM     13  H   UNL A   1      33.601  25.779  22.633  1.00  0.00     0.166 HD
ATOM     14  O   UNL A   1      31.848  25.808  21.141  1.00  0.00    -0.249 OA
ATOM     15  N   UNL A   1      31.045  27.665  22.007  1.00  0.00    -0.335 N 
ATOM     16  H   UNL A   1      30.695  27.661  21.087  1.00  0.00     0.165 HD
BRANCH  15  17
ATOM     17  C   UNL A   1      30.368  28.867  22.710  1.00  0.00     0.152 C 
BRANCH  17  18
ATOM     18  C   UNL A   1      28.990  29.706  22.298  1.00  0.00     0.163 C 
ATOM     19  C   UNL A   1      28.462  30.720  23.355  1.00  0.00     0.194 C 
ATOM     20  O   UNL A   1      28.972  30.334  21.010  1.00  0.00    -0.372 OA
ATOM     21  O   UNL A   1      28.780  32.094  23.060  1.00  0.00    -0.376 OA
ATOM     22  C   UNL A   1      28.061  31.431  20.814  1.00  0.00     0.189 C 
ATOM     23  C   UNL A   1      28.300  32.566  21.802  1.00  0.00     0.188 C 
ENDBRANCH  17  18
ENDBRANCH  15  17
ENDBRANCH   7  11
ENDBRANCH   4   7
ENDBRANCH   2   3
ENDBRANCH   1   2
BRANCH   1  24
ATOM     24  C   UNL A   1      31.480  32.089  26.840  1.00  0.00     0.023 C 
BRANCH  24  25
ATOM     25  C   UNL A   1      32.684  32.975  27.262  1.00  0.00     0.116 C 
BRANCH  25  26
ATOM     26  N   UNL A   1      32.405  34.325  27.703  1.00  0.00    -0.352 N 
ATOM     27  C   UNL A   1      33.048  35.034  28.698  1.00  0.00     0.251 C 
ATOM     28  H   UNL A   1      31.673  34.791  27.240  1.00  0.00     0.163 HD
ATOM     29  O   UNL A   1      32.619  36.146  29.025  1.00  0.00    -0.269 OA
BRANCH  27  30
ATOM     30  C   UNL A   1      34.227  34.480  29.415  1.00  0.00     0.039 A 
ATOM     31  C   UNL A   1      34.048  33.913  30.682  1.00  0.00     0.014 A 
ATOM     32  C   UNL A   1      35.520  34.578  28.896  1.00  0.00     0.014 A 
ATOM     33  C   UNL A   1      35.143  33.384  31.383  1.00  0.00     0.010 A 
ATOM     34  C   UNL A   1      36.610  34.014  29.579  1.00  0.00     0.010 A 
ATOM     35  C   UNL A   1      36.434  33.394  30.825  1.00  0.00    -0.014 A 
BRANCH  35  36
ATOM     36  C   UNL A   1      37.569  32.699  31.505  1.00  0.00     0.031 A 
ATOM     37  C   UNL A   1      38.277  31.528  30.874  1.00  0.00     0.074 A 
ATOM     38  C   UNL A   1      37.930  33.091  32.745  1.00  0.00     0.049 A 
ATOM     39  N   UNL A   1      39.281  30.825  31.335  1.00  0.00    -0.248 NA
ATOM     40  C   UNL A   1      37.784  31.075  29.565  1.00  0.00     0.031 C 
ATOM     41  C   UNL A   1      37.279  34.157  33.512  1.00  0.00     0.029 A 
ATOM     42  N   UNL A   1      38.912  32.631  33.590  1.00  0.00    -0.354 N 
ATOM     43  C   UNL A   1      39.531  29.838  30.388  1.00  0.00     0.074 A 
ATOM     44  C   UNL A   1      38.548  30.013  29.339  1.00  0.00     0.031 C 
ATOM     45  C   UNL A   1      37.882  34.273  34.705  1.00  0.00     0.029 A 
ATOM     46  C   UNL A   1      38.942  33.274  34.807  1.00  0.00     0.049 A 
ATOM     47  H   UNL A   1      39.537  31.909  33.347  1.00  0.00     0.167 HD
ATOM     48  C   UNL A   1      40.501  28.888  30.376  1.00  0.00     0.034 A 
ATOM     49  C   UNL A   1      39.723  33.082  35.889  1.00  0.00     0.034 A 
ATOM     50  C   UNL A   1      41.490  28.720  31.411  1.00  0.00     0.049 A 
ATOM     51  C   UNL A   1      40.805  32.037  35.843  1.00  0.00     0.074 A 
ATOM     52  C   UNL A   1      42.555  27.836  31.448  1.00  0.00     0.029 A 
ATOM     53  N   UNL A   1      41.527  29.435  32.598  1.00  0.00    -0.354 N 
ATOM     54  N   UNL A   1      41.122  31.222  34.867  1.00  0.00    -0.248 NA
ATOM     55  C   UNL A   1      41.660  31.911  37.033  1.00  0.00     0.031 C 
ATOM     56  C   UNL A   1      43.214  27.992  32.672  1.00  0.00     0.029 A 
ATOM     57  C   UNL A   1      42.586  29.004  33.381  1.00  0.00     0.049 A 
ATOM     58  H   UNL A   1      40.894  30.146  32.848  1.00  0.00     0.167 HD
ATOM     59  C   UNL A   1      42.234  30.512  35.310  1.00  0.00     0.074 A 
ATOM     60  C   UNL A   1      42.548  31.009  36.633  1.00  0.00     0.031 C 
ATOM     61  C   UNL A   1      42.923  29.530  34.678  1.00  0.00     0.034 A 
BRANCH  48  62
ATOM     62  C   UNL A   1      40.571  27.972  29.177  1.00  0.00     0.023 A 
ATOM     63  C   UNL A   1      39.685  26.878  29.084  1.00  0.00     0.012 A 
ATOM     64  C   UNL A   1      41.464  28.224  28.116  1.00  0.00     0.148 A 
ATOM     65  C   UNL A   1      39.716  26.027  27.980  1.00  0.00     0.002 A 
ATOM     66  C   UNL A   1      41.457  27.399  26.996  1.00  0.00     0.091 A 
ATOM     67  F   UNL A   1      42.306  29.262  28.223  1.00  0.00    -0.205 F 
ATOM     68  C   UNL A   1      40.595  26.292  26.934  1.00  0.00     0.022 A 
BRANCH  66  69
ATOM     69  S   UNL A   1      42.493  27.700  25.560  1.00  0.00     0.127 S 
ATOM     70  O   UNL A   1      42.219  26.516  24.747  1.00  0.00    -0.237 OA
ATOM     71  O   UNL A   1      41.934  28.945  25.033  1.00  0.00    -0.237 OA
ATOM     72  O   UNL A   1      43.855  27.810  26.062  1.00  0.00    -0.744 OA
ENDBRANCH  66  69
ENDBRANCH  48  62
BRANCH  49  73
ATOM     73  C   UNL A   1      39.539  33.935  37.099  1.00  0.00     0.023 A 
ATOM     74  C   UNL A   1      39.951  35.283  37.073  1.00  0.00     0.012 A 
ATOM     75  C   UNL A   1      38.940  33.422  38.266  1.00  0.00     0.148 A 
ATOM     76  C   UNL A   1      39.799  36.094  38.199  1.00  0.00     0.002 A 
ATOM     77  C   UNL A   1      38.738  34.252  39.363  1.00  0.00     0.091 A 
ATOM     78  F   UNL A   1      38.566  32.135  38.274  1.00  0.00    -0.205 F 
ATOM     79  C   UNL A   1      39.184  35.583  39.338  1.00  0.00     0.022 A 
BRANCH  77  80
ATOM     80  S   UNL A   1      37.837  33.718  40.820  1.00  0.00     0.127 S 
ATOM     81  O   UNL A   1      37.768  34.951  41.599  1.00  0.00    -0.237 OA
ATOM     82  O   UNL A   1      36.565  33.280  40.243  1.00  0.00    -0.237 OA
ATOM     83  O   UNL A   1      38.632  32.646  41.405  1.00  0.00    -0.744 OA
ENDBRANCH  77  80
ENDBRANCH  49  73
BRANCH  61  84
ATOM     84  C   UNL A   1      44.118  28.945  35.388  1.00  0.00     0.023 A 
ATOM     85  C   UNL A   1      45.402  29.486  35.179  1.00  0.00     0.012 A 
ATOM     86  C   UNL A   1      43.955  27.898  36.318  1.00  0.00     0.148 A 
ATOM     87  C   UNL A   1      46.508  28.974  35.855  1.00  0.00     0.002 A 
ATOM     88  C   UNL A   1      45.054  27.427  37.028  1.00  0.00     0.091 A 
ATOM     89  F   UNL A   1      42.731  27.382  36.491  1.00  0.00    -0.205 F 
ATOM     90  C   UNL A   1      46.333  27.954  36.788  1.00  0.00     0.022 A 
BRANCH  88  91
ATOM     91  S   UNL A   1      44.910  26.186  38.319  1.00  0.00     0.127 S 
ATOM     92  O   UNL A   1      46.097  26.459  39.128  1.00  0.00    -0.237 OA
ATOM     93  O   UNL A   1      43.642  26.546  38.954  1.00  0.00    -0.237 OA
ATOM     94  O   UNL A   1      44.902  24.898  37.639  1.00  0.00    -0.744 OA
ENDBRANCH  88  91
ENDBRANCH  61  84
ENDBRANCH  35  36
ENDBRANCH  27  30
ENDBRANCH  25  26
ENDBRANCH  24  25
ENDBRANCH   1  24
TORSDOF 18
ENDMDL
MODEL 2
REMARK VINA RESULT:     -11.5      6.531      9.933
REMARK SMILES CC[C@](C)(NC(=O)NC[C@H]1COCCO1)C(=O)NCCCCNC(=O)c1ccc(-c2c3nc(c(-c4cccc(S(=O)(=O)[O-])c4F)c4ccc([nH]4)c(-c4cccc(S(=O)(=O)[O-])c4F)c4nc(c(-c5cccc(S(=O)(=O)[O-])c5F)c5ccc2[nH]5)C=C4)C=C3)cc1
REMARK SMILES IDX 20 1 19 2 18 3 16 4 17 5 3 7 4 8 2 9 1 10 5 11 6 12 7 14
REMARK SMILES IDX 8 15 9 17 10 18 11 19 15 20 12 21 14 22 13 23 21 24 22 25
REMARK SMILES IDX 23 26 24 27 25 29 26 30 27 31 88 32 28 33 87 34 29 35 30 36
REMARK SMILES IDX 31 37 81 38 32 39 86 40 80 41 82 42 33 43 85 44 79 45 78 46
REMARK SMILES IDX 34 48 66 49 46 50 65 51 47 52 50 53 64 54 83 55 48 56 49 57
REMARK SMILES IDX 63 59 84 60 51 61 35 62 36 63 44 64 37 65 39 66 45 67 38 68
REMARK SMILES IDX 40 69 41 70 42 71 43 72 67 73 68 74 76 75 69 76 71 77 77 78
REMARK SMILES IDX 70 79 72 80 73 81 74 82 75 83 52 84 53 85 61 86 54 87 56 88
REMARK SMILES IDX 62 89 55 90 57 91 58 92 59 93 60 94
REMARK H PARENT 18 6 5 13 8 16 23 28 82 47 50 58
REMARK Flexibility Score: inf
ROOT
ATOM      1  C   UNL A   1      37.295  20.722  24.705  1.00  0.00     0.023 C 
ENDROOT
BRANCH   1   2
ATOM      2  C   UNL A   1      35.721  20.669  24.955  1.00  0.00     0.116 C 
BRANCH   2   3
ATOM      3  N   UNL A   1      35.019  20.996  26.225  1.00  0.00    -0.354 N 
ATOM      4  C   UNL A   1      33.981  21.767  26.707  1.00  0.00     0.245 C 
ATOM      5  O   UNL A   1      33.721  21.853  27.909  1.00  0.00    -0.272 OA
ATOM      6  H   UNL A   1      35.430  20.496  26.967  1.00  0.00     0.163 HD
BRANCH   4   7
ATOM      7  C   UNL A   1      33.073  22.410  25.723  1.00  0.00     0.117 C 
ATOM      8  C   UNL A   1      32.814  21.727  24.373  1.00  0.00     0.045 C 
BRANCH   7   9
ATOM      9  C   UNL A   1      33.864  23.741  25.438  1.00  0.00     0.035 C 
ATOM     10  C   UNL A   1      34.241  23.903  23.935  1.00  0.00     0.007 C 
ENDBRANCH   7   9
BRANCH   7  11
ATOM     11  N   UNL A   1      31.828  22.439  26.493  1.00  0.00    -0.324 N 
ATOM     12  C   UNL A   1      30.770  23.288  26.475  1.00  0.00     0.315 C 
ATOM     13  H   UNL A   1      31.742  21.706  27.145  1.00  0.00     0.166 HD
ATOM     14  O   UNL A   1      30.047  23.226  27.480  1.00  0.00    -0.249 OA
ATOM     15  N   UNL A   1      30.331  24.097  25.480  1.00  0.00    -0.335 N 
ATOM     16  H   UNL A   1      29.397  24.312  25.702  1.00  0.00     0.165 HD
BRANCH  15  17
ATOM     17  C   UNL A   1      30.631  24.836  24.152  1.00  0.00     0.152 C 
BRANCH  17  18
ATOM     18  C   UNL A   1      31.293  26.342  23.897  1.00  0.00     0.163 C 
ATOM     19  C   UNL A   1      31.406  26.801  22.413  1.00  0.00     0.194 C 
ATOM     20  O   UNL A   1      30.765  27.426  24.673  1.00  0.00    -0.372 OA
ATOM     21  O   UNL A   1      30.387  27.735  22.009  1.00  0.00    -0.376 OA
ATOM     22  C   UNL A   1      30.940  28.761  24.164  1.00  0.00     0.189 C 
ATOM     23  C   UNL A   1      30.332  28.936  22.778  1.00  0.00     0.188 C 
ENDBRANCH  17  18
ENDBRANCH  15  17
ENDBRANCH   7  11
ENDBRANCH   4   7
ENDBRANCH   2   3
ENDBRANCH   1   2
BRANCH   1  24
ATOM     24  C   UNL A   1      38.500  19.772  25.039  1.00  0.00     0.023 C 
BRANCH  24  25
ATOM     25  C   UNL A   1      39.529  19.912  26.193  1.00  0.00     0.116 C 
BRANCH  25  26
ATOM     26  N   UNL A   1      40.813  19.262  26.035  1.00  0.00    -0.352 N 
ATOM     27  C   UNL A   1      42.064  19.838  26.122  1.00  0.00     0.251 C 
ATOM     28  H   UNL A   1      40.790  18.297  25.843  1.00  0.00     0.163 HD
ATOM     29  O   UNL A   1      43.064  19.161  25.857  1.00  0.00    -0.269 OA
BRANCH  27  30
ATOM     30  C   UNL A   1      42.242  21.267  26.492  1.00  0.00     0.039 A 
ATOM     31  C   UNL A   1      42.288  21.619  27.845  1.00  0.00     0.014 A 
ATOM     32  C   UNL A   1      42.289  22.278  25.530  1.00  0.00     0.014 A 
ATOM     33  C   UNL A   1      42.454  22.960  28.224  1.00  0.00     0.010 A 
ATOM     34  C   UNL A   1      42.494  23.616  25.905  1.00  0.00     0.010 A 
ATOM     35  C   UNL A   1      42.596  23.973  27.259  1.00  0.00    -0.014 A 
BRANCH  35  36
ATOM     36  C   UNL A   1      42.921  25.376  27.660  1.00  0.00     0.031 A 
ATOM     37  C   UNL A   1      44.333  25.900  27.644  1.00  0.00     0.074 A 
ATOM     38  C   UNL A   1      41.931  26.175  28.110  1.00  0.00     0.049 A 
ATOM     39  N   UNL A   1      44.774  27.094  27.957  1.00  0.00    -0.248 NA
ATOM     40  C   UNL A   1      45.391  24.962  27.240  1.00  0.00     0.031 C 
ATOM     41  C   UNL A   1      40.529  25.774  28.258  1.00  0.00     0.029 A 
ATOM     42  N   UNL A   1      41.948  27.479  28.545  1.00  0.00    -0.354 N 
ATOM     43  C   UNL A   1      46.156  27.048  27.808  1.00  0.00     0.074 A 
ATOM     44  C   UNL A   1      46.484  25.696  27.407  1.00  0.00     0.031 C 
ATOM     45  C   UNL A   1      39.823  26.809  28.740  1.00  0.00     0.029 A 
ATOM     46  C   UNL A   1      40.720  27.938  28.967  1.00  0.00     0.049 A 
ATOM     47  H   UNL A   1      42.761  28.033  28.554  1.00  0.00     0.167 HD
ATOM     48  C   UNL A   1      47.067  28.042  27.966  1.00  0.00     0.034 A 
ATOM     49  C   UNL A   1      40.351  29.127  29.486  1.00  0.00     0.034 A 
ATOM     50  C   UNL A   1      46.743  29.392  28.351  1.00  0.00     0.049 A 
ATOM     51  C   UNL A   1      41.376  30.219  29.631  1.00  0.00     0.074 A 
ATOM     52  C   UNL A   1      47.589  30.483  28.462  1.00  0.00     0.029 A 
ATOM     53  N   UNL A   1      45.477  29.835  28.705  1.00  0.00    -0.354 N 
ATOM     54  N   UNL A   1      42.652  30.198  29.330  1.00  0.00    -0.248 NA
ATOM     55  C   UNL A   1      40.904  31.511  30.151  1.00  0.00     0.031 C 
ATOM     56  C   UNL A   1      46.842  31.575  28.917  1.00  0.00     0.029 A 
ATOM     57  C   UNL A   1      45.522  31.177  29.049  1.00  0.00     0.049 A 
ATOM     58  H   UNL A   1      44.666  29.278  28.711  1.00  0.00     0.167 HD
ATOM     59  C   UNL A   1      43.127  31.479  29.590  1.00  0.00     0.074 A 
ATOM     60  C   UNL A   1      41.997  32.258  30.052  1.00  0.00     0.031 C 
ATOM     61  C   UNL A   1      44.388  31.960  29.467  1.00  0.00     0.034 A 
BRANCH  48  62
ATOM     62  C   UNL A   1      48.515  27.718  27.680  1.00  0.00     0.023 A 
ATOM     63  C   UNL A   1      49.326  27.192  28.707  1.00  0.00     0.012 A 
ATOM     64  C   UNL A   1      49.055  27.871  26.388  1.00  0.00     0.148 A 
ATOM     65  C   UNL A   1      50.661  26.868  28.466  1.00  0.00     0.002 A 
ATOM     66  C   UNL A   1      50.374  27.501  26.142  1.00  0.00     0.091 A 
ATOM     67  F   UNL A   1      48.274  28.380  25.424  1.00  0.00    -0.205 F 
ATOM     68  C   UNL A   1      51.182  27.015  27.183  1.00  0.00     0.022 A 
BRANCH  66  69
ATOM     69  S   UNL A   1      51.117  27.575  24.508  1.00  0.00     0.127 S 
ATOM     70  O   UNL A   1      52.404  26.922  24.741  1.00  0.00    -0.237 OA
ATOM     71  O   UNL A   1      50.174  26.795  23.706  1.00  0.00    -0.237 OA
ATOM     72  O   UNL A   1      51.187  28.987  24.161  1.00  0.00    -0.744 OA
ENDBRANCH  66  69
ENDBRANCH  48  62
BRANCH  49  73
ATOM     73  C   UNL A   1      38.928  29.363  29.865  1.00  0.00     0.023 A 
ATOM     74  C   UNL A   1      38.494  29.065  31.172  1.00  0.00     0.012 A 
ATOM     75  C   UNL A   1      38.010  29.900  28.942  1.00  0.00     0.148 A 
ATOM     76  C   UNL A   1      37.163  29.267  31.542  1.00  0.00     0.002 A 
ATOM     77  C   UNL A   1      36.701  30.155  29.335  1.00  0.00     0.091 A 
ATOM     78  F   UNL A   1      38.440  30.166  27.701  1.00  0.00    -0.205 F 
ATOM     79  C   UNL A   1      36.271  29.821  30.629  1.00  0.00     0.022 A 
BRANCH  77  80
ATOM     80  S   UNL A   1      35.521  30.987  28.270  1.00  0.00     0.127 S 
ATOM     81  O   UNL A   1      34.483  31.378  29.220  1.00  0.00    -0.237 OA
ATOM     82  O   UNL A   1      36.321  32.093  27.741  1.00  0.00    -0.237 OA
ATOM     83  O   UNL A   1      35.125  30.001  27.273  1.00  0.00    -0.744 OA
ENDBRANCH  77  80
ENDBRANCH  49  73
BRANCH  61  84
ATOM     84  C   UNL A   1      44.619  33.414  29.797  1.00  0.00     0.023 A 
ATOM     85  C   UNL A   1      45.000  33.792  31.099  1.00  0.00     0.012 A 
ATOM     86  C   UNL A   1      44.525  34.399  28.793  1.00  0.00     0.148 A 
ATOM     87  C   UNL A   1      45.249  35.130  31.406  1.00  0.00     0.002 A 
ATOM     88  C   UNL A   1      44.826  35.722  29.093  1.00  0.00     0.091 A 
ATOM     89  F   UNL A   1      44.143  34.024  27.564  1.00  0.00    -0.205 F 
ATOM     90  C   UNL A   1      45.174  36.092  30.402  1.00  0.00     0.022 A 
BRANCH  88  91
ATOM     91  S   UNL A   1      44.852  37.014  27.844  1.00  0.00     0.127 S 
ATOM     92  O   UNL A   1      45.165  38.196  28.646  1.00  0.00    -0.237 OA
ATOM     93  O   UNL A   1      45.933  36.570  26.963  1.00  0.00    -0.237 OA
ATOM     94  O   UNL A   1      43.531  37.008  27.230  1.00  0.00    -0.744 OA
ENDBRANCH  88  91
ENDBRANCH  61  84
ENDBRANCH  35  36
ENDBRANCH  27  30
ENDBRANCH  25  26
ENDBRANCH  24  25
ENDBRANCH   1  24
TORSDOF 18
ENDMDL
MODEL 3
REMARK VINA RESULT:     -11.5      6.189     11.975
REMARK SMILES CC[C@](C)(NC(=O)NC[C@H]1COCCO1)C(=O)NCCCCNC(=O)c1ccc(-c2c3nc(c(-c4cccc(S(=O)(=O)[O-])c4F)c4ccc([nH]4)c(-c4cccc(S(=O)(=O)[O-])c4F)c4nc(c(-c5cccc(S(=O)(=O)[O-])c5F)c5ccc2[nH]5)C=C4)C=C3)cc1
REMARK SMILES IDX 20 1 19 2 18 3 16 4 17 5 3 7 4 8 2 9 1 10 5 11 6 12 7 14
REMARK SMILES IDX 8 15 9 17 10 18 11 19 15 20 12 21 14 22 13 23 21 24 22 25
REMARK SMILES IDX 23 26 24 27 25 29 26 30 27 31 88 32 28 33 87 34 29 35 30 36
REMARK SMILES IDX 31 37 81 38 32 39 86 40 80 41 82 42 33 43 85 44 79 45 78 46
REMARK SMILES IDX 34 48 66 49 46 50 65 51 47 52 50 53 64 54 83 55 48 56 49 57
REMARK SMILES IDX 63 59 84 60 51 61 35 62 36 63 44 64 37 65 39 66 45 67 38 68
REMARK SMILES IDX 40 69 41 70 42 71 43 72 67 73 68 74 76 75 69 76 71 77 77 78
REMARK SMILES IDX 70 79 72 80 73 81 74 82 75 83 52 84 53 85 61 86 54 87 56 88
REMARK SMILES IDX 62 89 55 90 57 91 58 92 59 93 60 94
REMARK H PARENT 18 6 5 13 8 16 23 28 82 47 50 58
REMARK Flexibility Score: inf
ROOT
ATOM      1  C   UNL A   1      36.848  20.927  24.762  1.00  0.00     0.023 C 
ENDROOT
BRANCH   1   2
ATOM      2  C   UNL A   1      35.274  20.857  25.008  1.00  0.00     0.116 C 
BRANCH   2   3
ATOM      3  N   UNL A   1      34.574  21.066  26.304  1.00  0.00    -0.354 N 
ATOM      4  C   UNL A   1      33.596  21.852  26.880  1.00  0.00     0.245 C 
ATOM      5  O   UNL A   1      33.318  21.793  28.079  1.00  0.00    -0.272 OA
ATOM      6  H   UNL A   1      34.923  20.433  26.973  1.00  0.00     0.163 HD
BRANCH   4   7
ATOM      7  C   UNL A   1      32.769  22.703  25.987  1.00  0.00     0.117 C 
ATOM      8  C   UNL A   1      32.630  22.333  24.504  1.00  0.00     0.045 C 
BRANCH   7   9
ATOM      9  C   UNL A   1      33.571  24.056  26.066  1.00  0.00     0.035 C 
ATOM     10  C   UNL A   1      34.070  24.538  24.671  1.00  0.00     0.007 C 
ENDBRANCH   7   9
BRANCH   7  11
ATOM     11  N   UNL A   1      31.464  22.577  26.638  1.00  0.00    -0.324 N 
ATOM     12  C   UNL A   1      30.386  23.399  26.674  1.00  0.00     0.315 C 
ATOM     13  H   UNL A   1      31.346  21.739  27.141  1.00  0.00     0.166 HD
ATOM     14  O   UNL A   1      29.583  23.151  27.585  1.00  0.00    -0.249 OA
ATOM     15  N   UNL A   1      30.008  24.364  25.800  1.00  0.00    -0.335 N 
ATOM     16  H   UNL A   1      29.052  24.523  25.973  1.00  0.00     0.165 HD
BRANCH  15  17
ATOM     17  C   UNL A   1      30.395  25.330  24.653  1.00  0.00     0.152 C 
BRANCH  17  18
ATOM     18  C   UNL A   1      30.060  26.950  24.465  1.00  0.00     0.163 C 
ATOM     19  C   UNL A   1      31.291  27.902  24.396  1.00  0.00     0.194 C 
ATOM     20  O   UNL A   1      29.144  27.308  23.422  1.00  0.00    -0.372 OA
ATOM     21  O   UNL A   1      31.626  28.333  23.063  1.00  0.00    -0.376 OA
ATOM     22  C   UNL A   1      29.202  28.655  22.915  1.00  0.00     0.189 C 
ATOM     23  C   UNL A   1      30.579  29.008  22.367  1.00  0.00     0.188 C 
ENDBRANCH  17  18
ENDBRANCH  15  17
ENDBRANCH   7  11
ENDBRANCH   4   7
ENDBRANCH   2   3
ENDBRANCH   1   2
BRANCH   1  24
ATOM     24  C   UNL A   1      38.048  19.944  25.006  1.00  0.00     0.023 C 
BRANCH  24  25
ATOM     25  C   UNL A   1      39.289  20.166  25.912  1.00  0.00     0.116 C 
BRANCH  25  26
ATOM     26  N   UNL A   1      40.304  19.134  25.931  1.00  0.00    -0.352 N 
ATOM     27  C   UNL A   1      41.662  19.293  26.115  1.00  0.00     0.251 C 
ATOM     28  H   UNL A   1      39.988  18.212  25.796  1.00  0.00     0.163 HD
ATOM     29  O   UNL A   1      42.410  18.315  25.999  1.00  0.00    -0.269 OA
BRANCH  27  30
ATOM     30  C   UNL A   1      42.260  20.622  26.415  1.00  0.00     0.039 A 
ATOM     31  C   UNL A   1      42.631  21.456  25.355  1.00  0.00     0.014 A 
ATOM     32  C   UNL A   1      42.533  21.030  27.723  1.00  0.00     0.014 A 
ATOM     33  C   UNL A   1      43.198  22.715  25.609  1.00  0.00     0.010 A 
ATOM     34  C   UNL A   1      43.064  22.304  27.980  1.00  0.00     0.010 A 
ATOM     35  C   UNL A   1      43.389  23.171  26.925  1.00  0.00    -0.014 A 
BRANCH  35  36
ATOM     36  C   UNL A   1      43.853  24.566  27.194  1.00  0.00     0.031 A 
ATOM     37  C   UNL A   1      42.914  25.635  27.692  1.00  0.00     0.074 A 
ATOM     38  C   UNL A   1      45.134  24.895  26.924  1.00  0.00     0.049 A 
ATOM     39  N   UNL A   1      43.168  26.888  27.977  1.00  0.00    -0.248 NA
ATOM     40  C   UNL A   1      41.507  25.254  27.878  1.00  0.00     0.031 C 
ATOM     41  C   UNL A   1      46.134  23.984  26.361  1.00  0.00     0.029 A 
ATOM     42  N   UNL A   1      45.813  26.082  27.064  1.00  0.00    -0.354 N 
ATOM     43  C   UNL A   1      41.954  27.452  28.357  1.00  0.00     0.074 A 
ATOM     44  C   UNL A   1      40.957  26.409  28.234  1.00  0.00     0.031 C 
ATOM     45  C   UNL A   1      47.295  24.641  26.211  1.00  0.00     0.029 A 
ATOM     46  C   UNL A   1      47.120  26.027  26.636  1.00  0.00     0.049 A 
ATOM     47  H   UNL A   1      45.403  26.897  27.435  1.00  0.00     0.167 HD
ATOM     48  C   UNL A   1      41.694  28.712  28.792  1.00  0.00     0.034 A 
ATOM     49  C   UNL A   1      48.074  26.979  26.580  1.00  0.00     0.034 A 
ATOM     50  C   UNL A   1      42.686  29.747  28.930  1.00  0.00     0.049 A 
ATOM     51  C   UNL A   1      47.767  28.362  27.087  1.00  0.00     0.074 A 
ATOM     52  C   UNL A   1      42.530  31.029  29.433  1.00  0.00     0.029 A 
ATOM     53  N   UNL A   1      44.014  29.631  28.548  1.00  0.00    -0.354 N 
ATOM     54  N   UNL A   1      46.649  28.825  27.593  1.00  0.00    -0.248 NA
ATOM     55  C   UNL A   1      48.861  29.343  27.053  1.00  0.00     0.031 C 
ATOM     56  C   UNL A   1      43.753  31.698  29.322  1.00  0.00     0.029 A 
ATOM     57  C   UNL A   1      44.685  30.820  28.790  1.00  0.00     0.049 A 
ATOM     58  H   UNL A   1      44.422  28.823  28.163  1.00  0.00     0.167 HD
ATOM     59  C   UNL A   1      46.916  30.138  27.968  1.00  0.00     0.074 A 
ATOM     60  C   UNL A   1      48.307  30.388  27.652  1.00  0.00     0.031 C 
ATOM     61  C   UNL A   1      46.079  31.053  28.515  1.00  0.00     0.034 A 
BRANCH  48  62
ATOM     62  C   UNL A   1      40.275  29.035  29.195  1.00  0.00     0.023 A 
ATOM     63  C   UNL A   1      39.328  29.367  28.203  1.00  0.00     0.012 A 
ATOM     64  C   UNL A   1      39.860  28.951  30.539  1.00  0.00     0.148 A 
ATOM     65  C   UNL A   1      38.007  29.653  28.546  1.00  0.00     0.002 A 
ATOM     66  C   UNL A   1      38.530  29.191  30.869  1.00  0.00     0.091 A 
ATOM     67  F   UNL A   1      40.773  28.643  31.471  1.00  0.00    -0.205 F 
ATOM     68  C   UNL A   1      37.607  29.557  29.876  1.00  0.00     0.022 A 
BRANCH  66  69
ATOM     69  S   UNL A   1      37.895  29.016  32.540  1.00  0.00     0.127 S 
ATOM     70  O   UNL A   1      38.073  27.584  32.773  1.00  0.00    -0.237 OA
ATOM     71  O   UNL A   1      38.800  29.875  33.304  1.00  0.00    -0.237 OA
ATOM     72  O   UNL A   1      36.514  29.475  32.495  1.00  0.00    -0.744 OA
ENDBRANCH  66  69
ENDBRANCH  48  62
BRANCH  49  73
ATOM     73  C   UNL A   1      49.431  26.642  26.063  1.00  0.00     0.023 A 
ATOM     74  C   UNL A   1      50.293  25.835  26.833  1.00  0.00     0.012 A 
ATOM     75  C   UNL A   1      49.863  27.100  24.803  1.00  0.00     0.148 A 
ATOM     76  C   UNL A   1      51.572  25.520  26.372  1.00  0.00     0.002 A 
ATOM     77  C   UNL A   1      51.116  26.732  24.324  1.00  0.00     0.091 A 
ATOM     78  F   UNL A   1      49.033  27.875  24.091  1.00  0.00    -0.205 F 
ATOM     79  C   UNL A   1      51.979  25.958  25.115  1.00  0.00     0.022 A 
BRANCH  77  80
ATOM     80  S   UNL A   1      51.669  27.138  22.666  1.00  0.00     0.127 S 
ATOM     81  O   UNL A   1      51.933  28.570  22.781  1.00  0.00    -0.237 OA
ATOM     82  O   UNL A   1      52.861  26.300  22.533  1.00  0.00    -0.237 OA
ATOM     83  O   UNL A   1      50.572  26.768  21.782  1.00  0.00    -0.744 OA
ENDBRANCH  77  80
ENDBRANCH  49  73
BRANCH  61  84
ATOM     84  C   UNL A   1      46.646  32.410  28.850  1.00  0.00     0.023 A 
ATOM     85  C   UNL A   1      47.299  32.621  30.080  1.00  0.00     0.012 A 
ATOM     86  C   UNL A   1      46.591  33.460  27.911  1.00  0.00     0.148 A 
ATOM     87  C   UNL A   1      47.856  33.863  30.385  1.00  0.00     0.002 A 
ATOM     88  C   UNL A   1      47.194  34.678  28.199  1.00  0.00     0.091 A 
ATOM     89  F   UNL A   1      45.949  33.248  26.753  1.00  0.00    -0.205 F 
ATOM     90  C   UNL A   1      47.815  34.886  29.442  1.00  0.00     0.022 A 
BRANCH  88  91
ATOM     91  S   UNL A   1      47.277  36.022  27.009  1.00  0.00     0.127 S 
ATOM     92  O   UNL A   1      47.539  37.170  27.875  1.00  0.00    -0.237 OA
ATOM     93  O   UNL A   1      48.405  35.620  26.169  1.00  0.00    -0.237 OA
ATOM     94  O   UNL A   1      45.990  36.035  26.327  1.00  0.00    -0.744 OA
ENDBRANCH  88  91
ENDBRANCH  61  84
ENDBRANCH  35  36
ENDBRANCH  27  30
ENDBRANCH  25  26
ENDBRANCH  24  25
ENDBRANCH   1  24
TORSDOF 18
ENDMDL
