MODEL 1
REMARK VINA RESULT:     -11.4      0.000      0.000
REMARK SMILES O=C(Cc1c(F)cc(Cl)cc1F)NCCCCNC(=O)c1ccc(-c2c3nc(c(-c4cccc(S(=O)(=O)[O-])c4F)c4ccc([nH]4)c(-c4cccc(S(=O)(=O)[O-])c4F)c4nc(c(-c5cccc(S(=O)(=O)[O-])c5F)c5ccc2[nH]5)C=C4)C=C3)cc1
REMARK SMILES IDX 16 1 15 2 14 3 13 4 1 5 2 6 3 8 4 9 5 10 11 11 6 12 7 13
REMARK SMILES IDX 10 14 12 15 8 16 9 17 17 18 18 19 19 20 20 22 21 23 22 24
REMARK SMILES IDX 83 25 23 26 82 27 24 28 25 29 26 30 76 31 27 32 81 33 75 34
REMARK SMILES IDX 77 35 28 36 80 37 74 38 73 39 29 41 61 42 41 43 60 44 42 45
REMARK SMILES IDX 45 46 59 47 78 48 43 49 44 50 58 52 79 53 46 54 30 55 31 56
REMARK SMILES IDX 39 57 32 58 34 59 40 60 33 61 35 62 36 63 37 64 38 65 62 66
REMARK SMILES IDX 63 67 71 68 64 69 66 70 72 71 65 72 67 73 68 74 69 75 70 76
REMARK SMILES IDX 47 77 48 78 56 79 49 80 51 81 57 82 50 83 52 84 53 85 54 86
REMARK SMILES IDX 55 87
REMARK H PARENT 13 7 18 21 77 40 45 51
REMARK Flexibility Score: inf
ROOT
ATOM      1  C   UNL A   1      31.689  29.590  26.361  1.00  0.00     0.023 C 
ENDROOT
BRANCH   1   2
ATOM      2  C   UNL A   1      31.682  28.462  27.396  1.00  0.00     0.023 C 
BRANCH   2   3
ATOM      3  C   UNL A   1      31.976  27.068  26.848  1.00  0.00     0.116 C 
BRANCH   3   4
ATOM      4  N   UNL A   1      31.604  26.924  25.456  1.00  0.00    -0.356 N 
ATOM      5  O   UNL A   1      29.671  25.733  25.852  1.00  0.00    -0.275 OA
ATOM      6  C   UNL A   1      30.424  26.315  25.075  1.00  0.00     0.224 C 
ATOM      7  H   UNL A   1      32.209  27.269  24.762  1.00  0.00     0.163 HD
BRANCH   6   8
ATOM      8  C   UNL A   1      30.126  26.422  23.593  1.00  0.00     0.141 C 
BRANCH   8   9
ATOM      9  C   UNL A   1      29.540  27.730  23.115  1.00  0.00     0.033 A 
ATOM     10  C   UNL A   1      28.200  28.105  23.243  1.00  0.00     0.131 A 
ATOM     11  C   UNL A   1      30.403  28.648  22.504  1.00  0.00     0.131 A 
ATOM     12  F   UNL A   1      27.304  27.287  23.809  1.00  0.00    -0.207 F 
ATOM     13  C   UNL A   1      27.740  29.343  22.798  1.00  0.00     0.060 A 
ATOM     14  C   UNL A   1      29.964  29.888  22.048  1.00  0.00     0.060 A 
ATOM     15  F   UNL A   1      31.697  28.332  22.348  1.00  0.00    -0.207 F 
ATOM     16  C   UNL A   1      28.627  30.231  22.200  1.00  0.00     0.046 A 
ATOM     17  Cl  UNL A   1      28.062  31.755  21.640  1.00  0.00    -0.084 Cl
ENDBRANCH   8   9
ENDBRANCH   6   8
ENDBRANCH   3   4
ENDBRANCH   2   3
ENDBRANCH   1   2
BRANCH   1  18
ATOM     18  C   UNL A   1      33.001  30.359  26.234  1.00  0.00     0.116 C 
BRANCH  18  19
ATOM     19  N   UNL A   1      32.895  31.730  26.709  1.00  0.00    -0.352 N 
ATOM     20  C   UNL A   1      33.670  32.403  27.624  1.00  0.00     0.251 C 
ATOM     21  H   UNL A   1      32.160  32.254  26.317  1.00  0.00     0.163 HD
ATOM     22  O   UNL A   1      33.322  33.514  28.017  1.00  0.00    -0.269 OA
BRANCH  20  23
ATOM     23  C   UNL A   1      34.907  31.787  28.155  1.00  0.00     0.039 A 
ATOM     24  C   UNL A   1      36.093  32.528  28.138  1.00  0.00     0.014 A 
ATOM     25  C   UNL A   1      34.907  30.483  28.659  1.00  0.00     0.014 A 
ATOM     26  C   UNL A   1      37.259  31.988  28.685  1.00  0.00     0.010 A 
ATOM     27  C   UNL A   1      36.052  29.973  29.267  1.00  0.00     0.010 A 
ATOM     28  C   UNL A   1      37.242  30.717  29.284  1.00  0.00    -0.014 A 
BRANCH  28  29
ATOM     29  C   UNL A   1      38.453  30.158  29.939  1.00  0.00     0.031 A 
ATOM     30  C   UNL A   1      38.867  30.629  31.307  1.00  0.00     0.074 A 
ATOM     31  C   UNL A   1      39.220  29.270  29.275  1.00  0.00     0.049 A 
ATOM     32  N   UNL A   1      39.909  30.282  32.017  1.00  0.00    -0.248 NA
ATOM     33  C   UNL A   1      38.013  31.640  31.951  1.00  0.00     0.031 C 
ATOM     34  C   UNL A   1      38.961  28.780  27.920  1.00  0.00     0.029 A 
ATOM     35  N   UNL A   1      40.382  28.635  29.641  1.00  0.00    -0.354 N 
ATOM     36  C   UNL A   1      39.847  31.041  33.179  1.00  0.00     0.074 A 
ATOM     37  C   UNL A   1      38.691  31.901  33.059  1.00  0.00     0.031 C 
ATOM     38  C   UNL A   1      39.924  27.910  27.577  1.00  0.00     0.029 A 
ATOM     39  C   UNL A   1      40.886  27.802  28.670  1.00  0.00     0.049 A 
ATOM     40  H   UNL A   1      40.813  28.765  30.516  1.00  0.00     0.167 HD
ATOM     41  C   UNL A   1      40.656  30.999  34.265  1.00  0.00     0.034 A 
ATOM     42  C   UNL A   1      41.994  27.033  28.660  1.00  0.00     0.034 A 
ATOM     43  C   UNL A   1      41.783  30.115  34.398  1.00  0.00     0.049 A 
ATOM     44  C   UNL A   1      42.872  26.997  29.882  1.00  0.00     0.074 A 
ATOM     45  C   UNL A   1      42.620  29.952  35.486  1.00  0.00     0.029 A 
ATOM     46  N   UNL A   1      42.231  29.247  33.413  1.00  0.00    -0.354 N 
ATOM     47  N   UNL A   1      42.719  27.617  31.026  1.00  0.00    -0.248 NA
ATOM     48  C   UNL A   1      44.060  26.130  29.824  1.00  0.00     0.031 C 
ATOM     49  C   UNL A   1      43.590  29.002  35.152  1.00  0.00     0.029 A 
ATOM     50  C   UNL A   1      43.342  28.554  33.864  1.00  0.00     0.049 A 
ATOM     51  H   UNL A   1      41.821  29.141  32.525  1.00  0.00     0.167 HD
ATOM     52  C   UNL A   1      43.770  27.199  31.834  1.00  0.00     0.074 A 
ATOM     53  C   UNL A   1      44.543  26.252  31.055  1.00  0.00     0.031 C 
ATOM     54  C   UNL A   1      44.078  27.580  33.099  1.00  0.00     0.034 A 
BRANCH  41  55
ATOM     55  C   UNL A   1      40.311  31.889  35.431  1.00  0.00     0.023 A 
ATOM     56  C   UNL A   1      41.034  33.085  35.621  1.00  0.00     0.012 A 
ATOM     57  C   UNL A   1      39.236  31.590  36.290  1.00  0.00     0.148 A 
ATOM     58  C   UNL A   1      40.716  33.952  36.664  1.00  0.00     0.002 A 
ATOM     59  C   UNL A   1      38.894  32.483  37.301  1.00  0.00     0.091 A 
ATOM     60  F   UNL A   1      38.572  30.439  36.108  1.00  0.00    -0.205 F 
ATOM     61  C   UNL A   1      39.640  33.658  37.496  1.00  0.00     0.022 A 
BRANCH  59  62
ATOM     62  S   UNL A   1      37.474  32.237  38.373  1.00  0.00     0.127 S 
ATOM     63  O   UNL A   1      36.435  32.981  37.660  1.00  0.00    -0.237 OA
ATOM     64  O   UNL A   1      37.313  30.784  38.342  1.00  0.00    -0.237 OA
ATOM     65  O   UNL A   1      37.851  32.780  39.670  1.00  0.00    -0.744 OA
ENDBRANCH  59  62
ENDBRANCH  41  55
BRANCH  42  66
ATOM     66  C   UNL A   1      42.278  26.168  27.478  1.00  0.00     0.023 A 
ATOM     67  C   UNL A   1      43.016  26.698  26.402  1.00  0.00     0.012 A 
ATOM     68  C   UNL A   1      41.887  24.815  27.443  1.00  0.00     0.148 A 
ATOM     69  C   UNL A   1      43.347  25.902  25.306  1.00  0.00     0.002 A 
ATOM     70  C   UNL A   1      42.269  24.012  26.375  1.00  0.00     0.091 A 
ATOM     71  F   UNL A   1      41.177  24.333  28.473  1.00  0.00    -0.205 F 
ATOM     72  C   UNL A   1      42.986  24.557  25.298  1.00  0.00     0.022 A 
BRANCH  70  73
ATOM     73  S   UNL A   1      41.977  22.239  26.341  1.00  0.00     0.127 S 
ATOM     74  O   UNL A   1      40.531  22.178  26.144  1.00  0.00    -0.237 OA
ATOM     75  O   UNL A   1      42.775  21.826  25.186  1.00  0.00    -0.237 OA
ATOM     76  O   UNL A   1      42.459  21.734  27.619  1.00  0.00    -0.744 OA
ENDBRANCH  70  73
ENDBRANCH  42  66
BRANCH  54  77
ATOM     77  C   UNL A   1      45.300  26.977  33.744  1.00  0.00     0.023 A 
ATOM     78  C   UNL A   1      46.529  27.662  33.676  1.00  0.00     0.012 A 
ATOM     79  C   UNL A   1      45.206  25.801  34.515  1.00  0.00     0.148 A 
ATOM     80  C   UNL A   1      47.650  27.177  34.349  1.00  0.00     0.002 A 
ATOM     81  C   UNL A   1      46.313  25.351  35.225  1.00  0.00     0.091 A 
ATOM     82  F   UNL A   1      44.031  25.155  34.554  1.00  0.00    -0.205 F 
ATOM     83  C   UNL A   1      47.538  26.032  35.135  1.00  0.00     0.022 A 
BRANCH  81  84
ATOM     84  S   UNL A   1      46.241  23.948  36.345  1.00  0.00     0.127 S 
ATOM     85  O   UNL A   1      45.948  22.849  35.427  1.00  0.00    -0.237 OA
ATOM     86  O   UNL A   1      47.592  23.930  36.906  1.00  0.00    -0.237 OA
ATOM     87  O   UNL A   1      45.190  24.253  37.307  1.00  0.00    -0.744 OA
ENDBRANCH  81  84
ENDBRANCH  54  77
ENDBRANCH  28  29
ENDBRANCH  20  23
ENDBRANCH  18  19
ENDBRANCH   1  18
TORSDOF 15
ENDMDL
MODEL 2
REMARK VINA RESULT:     -11.2      6.216     10.923
REMARK SMILES O=C(Cc1c(F)cc(Cl)cc1F)NCCCCNC(=O)c1ccc(-c2c3nc(c(-c4cccc(S(=O)(=O)[O-])c4F)c4ccc([nH]4)c(-c4cccc(S(=O)(=O)[O-])c4F)c4nc(c(-c5cccc(S(=O)(=O)[O-])c5F)c5ccc2[nH]5)C=C4)C=C3)cc1
REMARK SMILES IDX 16 1 15 2 14 3 13 4 1 5 2 6 3 8 4 9 5 10 11 11 6 12 7 13
REMARK SMILES IDX 10 14 12 15 8 16 9 17 17 18 18 19 19 20 20 22 21 23 22 24
REMARK SMILES IDX 83 25 23 26 82 27 24 28 25 29 26 30 76 31 27 32 81 33 75 34
REMARK SMILES IDX 77 35 28 36 80 37 74 38 73 39 29 41 61 42 41 43 60 44 42 45
REMARK SMILES IDX 45 46 59 47 78 48 43 49 44 50 58 52 79 53 46 54 30 55 31 56
REMARK SMILES IDX 39 57 32 58 34 59 40 60 33 61 35 62 36 63 37 64 38 65 62 66
REMARK SMILES IDX 63 67 71 68 64 69 66 70 72 71 65 72 67 73 68 74 69 75 70 76
REMARK SMILES IDX 47 77 48 78 56 79 49 80 51 81 57 82 50 83 52 84 53 85 54 86
REMARK SMILES IDX 55 87
REMARK H PARENT 13 7 18 21 77 40 45 51
REMARK Flexibility Score: inf
ROOT
ATOM      1  C   UNL A   1      36.580  21.825  24.221  1.00  0.00     0.023 C 
ENDROOT
BRANCH   1   2
ATOM      2  C   UNL A   1      36.558  23.259  23.682  1.00  0.00     0.023 C 
BRANCH   2   3
ATOM      3  C   UNL A   1      35.174  23.891  23.558  1.00  0.00     0.116 C 
BRANCH   3   4
ATOM      4  N   UNL A   1      34.129  23.069  24.133  1.00  0.00    -0.356 N 
ATOM      5  O   UNL A   1      32.406  23.995  22.916  1.00  0.00    -0.275 OA
ATOM      6  C   UNL A   1      32.819  23.148  23.704  1.00  0.00     0.224 C 
ATOM      7  H   UNL A   1      34.359  22.436  24.850  1.00  0.00     0.163 HD
BRANCH   6   8
ATOM      8  C   UNL A   1      31.912  22.086  24.293  1.00  0.00     0.141 C 
BRANCH   8   9
ATOM      9  C   UNL A   1      32.381  20.655  24.173  1.00  0.00     0.033 A 
ATOM     10  C   UNL A   1      33.018  19.930  25.182  1.00  0.00     0.131 A 
ATOM     11  C   UNL A   1      32.153  19.993  22.960  1.00  0.00     0.131 A 
ATOM     12  F   UNL A   1      33.281  20.485  26.372  1.00  0.00    -0.207 F 
ATOM     13  C   UNL A   1      33.399  18.601  25.002  1.00  0.00     0.060 A 
ATOM     14  C   UNL A   1      32.529  18.668  22.756  1.00  0.00     0.060 A 
ATOM     15  F   UNL A   1      31.554  20.649  21.955  1.00  0.00    -0.207 F 
ATOM     16  C   UNL A   1      33.152  17.975  23.786  1.00  0.00     0.046 A 
ATOM     17  Cl  UNL A   1      33.629  16.339  23.555  1.00  0.00    -0.084 Cl
ENDBRANCH   8   9
ENDBRANCH   6   8
ENDBRANCH   3   4
ENDBRANCH   2   3
ENDBRANCH   1   2
BRANCH   1  18
ATOM     18  C   UNL A   1      37.012  21.676  25.676  1.00  0.00     0.116 C 
BRANCH  18  19
ATOM     19  N   UNL A   1      38.091  20.715  25.845  1.00  0.00    -0.352 N 
ATOM     20  C   UNL A   1      39.405  20.925  26.192  1.00  0.00     0.251 C 
ATOM     21  H   UNL A   1      37.845  19.775  25.686  1.00  0.00     0.163 HD
ATOM     22  O   UNL A   1      40.209  19.997  26.124  1.00  0.00    -0.269 OA
BRANCH  20  23
ATOM     23  C   UNL A   1      39.862  22.264  26.624  1.00  0.00     0.039 A 
ATOM     24  C   UNL A   1      40.862  22.357  27.597  1.00  0.00     0.014 A 
ATOM     25  C   UNL A   1      39.303  23.428  26.085  1.00  0.00     0.014 A 
ATOM     26  C   UNL A   1      41.347  23.610  27.979  1.00  0.00     0.010 A 
ATOM     27  C   UNL A   1      39.836  24.672  26.415  1.00  0.00     0.010 A 
ATOM     28  C   UNL A   1      40.861  24.778  27.367  1.00  0.00    -0.014 A 
BRANCH  28  29
ATOM     29  C   UNL A   1      41.419  26.114  27.705  1.00  0.00     0.031 A 
ATOM     30  C   UNL A   1      42.833  26.467  27.331  1.00  0.00     0.074 A 
ATOM     31  C   UNL A   1      40.673  26.989  28.409  1.00  0.00     0.049 A 
ATOM     32  N   UNL A   1      43.498  27.566  27.573  1.00  0.00    -0.248 NA
ATOM     33  C   UNL A   1      43.608  25.444  26.610  1.00  0.00     0.031 C 
ATOM     34  C   UNL A   1      39.311  26.743  28.886  1.00  0.00     0.029 A 
ATOM     35  N   UNL A   1      40.960  28.254  28.862  1.00  0.00    -0.354 N 
ATOM     36  C   UNL A   1      44.771  27.362  27.054  1.00  0.00     0.074 A 
ATOM     37  C   UNL A   1      44.799  26.016  26.525  1.00  0.00     0.031 C 
ATOM     38  C   UNL A   1      38.876  27.827  29.548  1.00  0.00     0.029 A 
ATOM     39  C   UNL A   1      39.933  28.833  29.571  1.00  0.00     0.049 A 
ATOM     40  H   UNL A   1      41.819  28.703  28.694  1.00  0.00     0.167 HD
ATOM     41  C   UNL A   1      45.810  28.228  26.988  1.00  0.00     0.034 A 
ATOM     42  C   UNL A   1      39.850  30.038  30.170  1.00  0.00     0.034 A 
ATOM     43  C   UNL A   1      45.768  29.579  27.481  1.00  0.00     0.049 A 
ATOM     44  C   UNL A   1      41.015  30.986  30.076  1.00  0.00     0.074 A 
ATOM     45  C   UNL A   1      46.746  30.552  27.399  1.00  0.00     0.029 A 
ATOM     46  N   UNL A   1      44.692  30.147  28.148  1.00  0.00    -0.354 N 
ATOM     47  N   UNL A   1      42.160  30.827  29.459  1.00  0.00    -0.248 NA
ATOM     48  C   UNL A   1      40.866  32.294  30.733  1.00  0.00     0.031 C 
ATOM     49  C   UNL A   1      46.272  31.703  28.036  1.00  0.00     0.029 A 
ATOM     50  C   UNL A   1      44.987  31.454  28.493  1.00  0.00     0.049 A 
ATOM     51  H   UNL A   1      43.845  29.688  28.346  1.00  0.00     0.167 HD
ATOM     52  C   UNL A   1      42.857  32.017  29.629  1.00  0.00     0.074 A 
ATOM     53  C   UNL A   1      41.995  32.900  30.388  1.00  0.00     0.031 C 
ATOM     54  C   UNL A   1      44.106  32.342  29.209  1.00  0.00     0.034 A 
BRANCH  41  55
ATOM     55  C   UNL A   1      47.066  27.765  26.297  1.00  0.00     0.023 A 
ATOM     56  C   UNL A   1      48.058  27.096  27.046  1.00  0.00     0.012 A 
ATOM     57  C   UNL A   1      47.239  27.919  24.908  1.00  0.00     0.148 A 
ATOM     58  C   UNL A   1      49.213  26.618  26.431  1.00  0.00     0.002 A 
ATOM     59  C   UNL A   1      48.374  27.398  24.293  1.00  0.00     0.091 A 
ATOM     60  F   UNL A   1      46.297  28.574  24.214  1.00  0.00    -0.205 F 
ATOM     61  C   UNL A   1      49.366  26.758  25.055  1.00  0.00     0.022 A 
BRANCH  59  62
ATOM     62  S   UNL A   1      48.626  27.452  22.516  1.00  0.00     0.127 S 
ATOM     63  O   UNL A   1      47.466  28.228  22.077  1.00  0.00    -0.237 OA
ATOM     64  O   UNL A   1      49.905  28.154  22.408  1.00  0.00    -0.237 OA
ATOM     65  O   UNL A   1      48.654  26.066  22.072  1.00  0.00    -0.744 OA
ENDBRANCH  59  62
ENDBRANCH  41  55
BRANCH  42  66
ATOM     66  C   UNL A   1      38.576  30.442  30.833  1.00  0.00     0.023 A 
ATOM     67  C   UNL A   1      38.406  30.182  32.207  1.00  0.00     0.012 A 
ATOM     68  C   UNL A   1      37.570  31.141  30.136  1.00  0.00     0.148 A 
ATOM     69  C   UNL A   1      37.251  30.594  32.872  1.00  0.00     0.002 A 
ATOM     70  C   UNL A   1      36.448  31.600  30.818  1.00  0.00     0.091 A 
ATOM     71  F   UNL A   1      37.747  31.370  28.828  1.00  0.00    -0.205 F 
ATOM     72  C   UNL A   1      36.280  31.314  32.182  1.00  0.00     0.022 A 
BRANCH  70  73
ATOM     73  S   UNL A   1      35.214  32.656  30.050  1.00  0.00     0.127 S 
ATOM     74  O   UNL A   1      34.303  32.910  31.163  1.00  0.00    -0.237 OA
ATOM     75  O   UNL A   1      36.019  33.806  29.637  1.00  0.00    -0.237 OA
ATOM     76  O   UNL A   1      34.660  31.881  28.949  1.00  0.00    -0.744 OA
ENDBRANCH  70  73
ENDBRANCH  42  66
BRANCH  54  77
ATOM     77  C   UNL A   1      44.634  33.713  29.548  1.00  0.00     0.023 A 
ATOM     78  C   UNL A   1      45.360  33.900  30.740  1.00  0.00     0.012 A 
ATOM     79  C   UNL A   1      44.517  34.780  28.635  1.00  0.00     0.148 A 
ATOM     80  C   UNL A   1      45.946  35.133  31.028  1.00  0.00     0.002 A 
ATOM     81  C   UNL A   1      45.146  35.990  28.904  1.00  0.00     0.091 A 
ATOM     82  F   UNL A   1      43.808  34.586  27.513  1.00  0.00    -0.205 F 
ATOM     83  C   UNL A   1      45.851  36.171  30.104  1.00  0.00     0.022 A 
BRANCH  81  84
ATOM     84  S   UNL A   1      45.170  37.350  27.731  1.00  0.00     0.127 S 
ATOM     85  O   UNL A   1      45.970  38.345  28.443  1.00  0.00    -0.237 OA
ATOM     86  O   UNL A   1      45.833  36.749  26.574  1.00  0.00    -0.237 OA
ATOM     87  O   UNL A   1      43.777  37.715  27.508  1.00  0.00    -0.744 OA
ENDBRANCH  81  84
ENDBRANCH  54  77
ENDBRANCH  28  29
ENDBRANCH  20  23
ENDBRANCH  18  19
ENDBRANCH   1  18
TORSDOF 15
ENDMDL
MODEL 3
REMARK VINA RESULT:     -11.2      6.264      8.646
REMARK SMILES O=C(Cc1c(F)cc(Cl)cc1F)NCCCCNC(=O)c1ccc(-c2c3nc(c(-c4cccc(S(=O)(=O)[O-])c4F)c4ccc([nH]4)c(-c4cccc(S(=O)(=O)[O-])c4F)c4nc(c(-c5cccc(S(=O)(=O)[O-])c5F)c5ccc2[nH]5)C=C4)C=C3)cc1
REMARK SMILES IDX 16 1 15 2 14 3 13 4 1 5 2 6 3 8 4 9 5 10 11 11 6 12 7 13
REMARK SMILES IDX 10 14 12 15 8 16 9 17 17 18 18 19 19 20 20 22 21 23 22 24
REMARK SMILES IDX 83 25 23 26 82 27 24 28 25 29 26 30 76 31 27 32 81 33 75 34
REMARK SMILES IDX 77 35 28 36 80 37 74 38 73 39 29 41 61 42 41 43 60 44 42 45
REMARK SMILES IDX 45 46 59 47 78 48 43 49 44 50 58 52 79 53 46 54 30 55 31 56
REMARK SMILES IDX 39 57 32 58 34 59 40 60 33 61 35 62 36 63 37 64 38 65 62 66
REMARK SMILES IDX 63 67 71 68 64 69 66 70 72 71 65 72 67 73 68 74 69 75 70 76
REMARK SMILES IDX 47 77 48 78 56 79 49 80 51 81 57 82 50 83 52 84 53 85 54 86
REMARK SMILES IDX 55 87
REMARK H PARENT 13 7 18 21 77 40 45 51
REMARK Flexibility Score: inf
ROOT
ATOM      1  C   UNL A   1      36.409  21.651  24.286  1.00  0.00     0.023 C 
ENDROOT
BRANCH   1   2
ATOM      2  C   UNL A   1      36.615  22.960  23.519  1.00  0.00     0.023 C 
BRANCH   2   3
ATOM      3  C   UNL A   1      35.480  23.974  23.636  1.00  0.00     0.116 C 
BRANCH   3   4
ATOM      4  N   UNL A   1      34.203  23.354  23.921  1.00  0.00    -0.356 N 
ATOM      5  O   UNL A   1      33.481  23.288  21.733  1.00  0.00    -0.275 OA
ATOM      6  C   UNL A   1      33.325  22.996  22.916  1.00  0.00     0.224 C 
ATOM      7  H   UNL A   1      33.953  23.182  24.856  1.00  0.00     0.163 HD
BRANCH   6   8
ATOM      8  C   UNL A   1      32.129  22.198  23.398  1.00  0.00     0.141 C 
BRANCH   8   9
ATOM      9  C   UNL A   1      32.377  20.747  23.735  1.00  0.00     0.033 A 
ATOM     10  C   UNL A   1      32.709  20.260  25.002  1.00  0.00     0.131 A 
ATOM     11  C   UNL A   1      32.257  19.806  22.704  1.00  0.00     0.131 A 
ATOM     12  F   UNL A   1      32.851  21.088  26.045  1.00  0.00    -0.207 F 
ATOM     13  C   UNL A   1      32.898  18.900  25.240  1.00  0.00     0.060 A 
ATOM     14  C   UNL A   1      32.446  18.444  22.917  1.00  0.00     0.060 A 
ATOM     15  F   UNL A   1      31.950  20.223  21.467  1.00  0.00    -0.207 F 
ATOM     16  C   UNL A   1      32.766  17.996  24.192  1.00  0.00     0.046 A 
ATOM     17  Cl  UNL A   1      33.008  16.317  24.477  1.00  0.00    -0.084 Cl
ENDBRANCH   8   9
ENDBRANCH   6   8
ENDBRANCH   3   4
ENDBRANCH   2   3
ENDBRANCH   1   2
BRANCH   1  18
ATOM     18  C   UNL A   1      36.977  21.622  25.702  1.00  0.00     0.116 C 
BRANCH  18  19
ATOM     19  N   UNL A   1      38.019  20.621  25.868  1.00  0.00    -0.352 N 
ATOM     20  C   UNL A   1      39.340  20.781  26.213  1.00  0.00     0.251 C 
ATOM     21  H   UNL A   1      37.736  19.692  25.710  1.00  0.00     0.163 HD
ATOM     22  O   UNL A   1      40.108  19.823  26.144  1.00  0.00    -0.269 OA
BRANCH  20  23
ATOM     23  C   UNL A   1      39.848  22.102  26.645  1.00  0.00     0.039 A 
ATOM     24  C   UNL A   1      40.853  22.156  27.616  1.00  0.00     0.014 A 
ATOM     25  C   UNL A   1      39.332  23.286  26.108  1.00  0.00     0.014 A 
ATOM     26  C   UNL A   1      41.386  23.391  27.997  1.00  0.00     0.010 A 
ATOM     27  C   UNL A   1      39.913  24.509  26.437  1.00  0.00     0.010 A 
ATOM     28  C   UNL A   1      40.943  24.576  27.387  1.00  0.00    -0.014 A 
BRANCH  28  29
ATOM     29  C   UNL A   1      41.552  25.890  27.724  1.00  0.00     0.031 A 
ATOM     30  C   UNL A   1      40.756  26.931  28.464  1.00  0.00     0.074 A 
ATOM     31  C   UNL A   1      42.802  26.173  27.307  1.00  0.00     0.049 A 
ATOM     32  N   UNL A   1      41.107  28.141  28.812  1.00  0.00    -0.248 NA
ATOM     33  C   UNL A   1      39.378  26.574  28.842  1.00  0.00     0.031 C 
ATOM     34  C   UNL A   1      43.655  25.272  26.528  1.00  0.00     0.029 A 
ATOM     35  N   UNL A   1      43.567  27.303  27.463  1.00  0.00    -0.354 N 
ATOM     36  C   UNL A   1      39.994  28.697  29.431  1.00  0.00     0.074 A 
ATOM     37  C   UNL A   1      38.940  27.708  29.370  1.00  0.00     0.031 C 
ATOM     38  C   UNL A   1      44.829  25.878  26.290  1.00  0.00     0.029 A 
ATOM     39  C   UNL A   1      44.805  27.218  26.870  1.00  0.00     0.049 A 
ATOM     40  H   UNL A   1      43.258  28.098  27.953  1.00  0.00     0.167 HD
ATOM     41  C   UNL A   1      39.870  29.905  30.030  1.00  0.00     0.034 A 
ATOM     42  C   UNL A   1      45.811  28.114  26.802  1.00  0.00     0.034 A 
ATOM     43  C   UNL A   1      40.930  30.872  30.124  1.00  0.00     0.049 A 
ATOM     44  C   UNL A   1      45.652  29.446  27.483  1.00  0.00     0.074 A 
ATOM     45  C   UNL A   1      40.921  32.095  30.770  1.00  0.00     0.029 A 
ATOM     46  N   UNL A   1      42.187  30.729  29.555  1.00  0.00    -0.354 N 
ATOM     47  N   UNL A   1      44.641  29.899  28.184  1.00  0.00    -0.248 NA
ATOM     48  C   UNL A   1      46.785  30.381  27.392  1.00  0.00     0.031 C 
ATOM     49  C   UNL A   1      42.165  32.702  30.574  1.00  0.00     0.029 A 
ATOM     50  C   UNL A   1      42.958  31.846  29.826  1.00  0.00     0.049 A 
ATOM     51  H   UNL A   1      42.486  29.948  29.036  1.00  0.00     0.167 HD
ATOM     52  C   UNL A   1      45.022  31.156  28.640  1.00  0.00     0.074 A 
ATOM     53  C   UNL A   1      46.369  31.385  28.154  1.00  0.00     0.031 C 
ATOM     54  C   UNL A   1      44.313  32.047  29.378  1.00  0.00     0.034 A 
BRANCH  41  55
ATOM     55  C   UNL A   1      38.556  30.226  30.697  1.00  0.00     0.023 A 
ATOM     56  C   UNL A   1      38.319  29.763  32.009  1.00  0.00     0.012 A 
ATOM     57  C   UNL A   1      37.592  31.036  30.067  1.00  0.00     0.148 A 
ATOM     58  C   UNL A   1      37.133  30.075  32.670  1.00  0.00     0.002 A 
ATOM     59  C   UNL A   1      36.431  31.382  30.751  1.00  0.00     0.091 A 
ATOM     60  F   UNL A   1      37.825  31.450  28.813  1.00  0.00    -0.205 F 
ATOM     61  C   UNL A   1      36.196  30.893  32.047  1.00  0.00     0.022 A 
BRANCH  59  62
ATOM     62  S   UNL A   1      35.200  32.498  30.070  1.00  0.00     0.127 S 
ATOM     63  O   UNL A   1      34.672  31.710  28.956  1.00  0.00    -0.237 OA
ATOM     64  O   UNL A   1      34.276  32.659  31.193  1.00  0.00    -0.237 OA
ATOM     65  O   UNL A   1      35.917  33.708  29.694  1.00  0.00    -0.744 OA
ENDBRANCH  59  62
ENDBRANCH  41  55
BRANCH  42  66
ATOM     66  C   UNL A   1      47.089  27.735  26.134  1.00  0.00     0.023 A 
ATOM     67  C   UNL A   1      48.092  27.094  26.886  1.00  0.00     0.012 A 
ATOM     68  C   UNL A   1      47.290  27.937  24.754  1.00  0.00     0.148 A 
ATOM     69  C   UNL A   1      49.278  26.676  26.283  1.00  0.00     0.002 A 
ATOM     70  C   UNL A   1      48.448  27.466  24.147  1.00  0.00     0.091 A 
ATOM     71  F   UNL A   1      46.327  28.558  24.057  1.00  0.00    -0.205 F 
ATOM     72  C   UNL A   1      49.450  26.849  24.912  1.00  0.00     0.022 A 
BRANCH  70  73
ATOM     73  S   UNL A   1      48.699  27.515  22.368  1.00  0.00     0.127 S 
ATOM     74  O   UNL A   1      48.714  26.094  22.029  1.00  0.00    -0.237 OA
ATOM     75  O   UNL A   1      47.512  28.244  21.919  1.00  0.00    -0.237 OA
ATOM     76  O   UNL A   1      49.955  28.224  22.164  1.00  0.00    -0.744 OA
ENDBRANCH  70  73
ENDBRANCH  42  66
BRANCH  54  77
ATOM     77  C   UNL A   1      44.966  33.361  29.723  1.00  0.00     0.023 A 
ATOM     78  C   UNL A   1      45.740  33.464  30.896  1.00  0.00     0.012 A 
ATOM     79  C   UNL A   1      44.913  34.452  28.832  1.00  0.00     0.148 A 
ATOM     80  C   UNL A   1      46.436  34.637  31.186  1.00  0.00     0.002 A 
ATOM     81  C   UNL A   1      45.650  35.599  29.102  1.00  0.00     0.091 A 
ATOM     82  F   UNL A   1      44.158  34.340  27.729  1.00  0.00    -0.205 F 
ATOM     83  C   UNL A   1      46.403  35.697  30.283  1.00  0.00     0.022 A 
BRANCH  81  84
ATOM     84  S   UNL A   1      45.755  36.975  27.951  1.00  0.00     0.127 S 
ATOM     85  O   UNL A   1      44.371  37.443  27.919  1.00  0.00    -0.237 OA
ATOM     86  O   UNL A   1      46.687  37.876  28.630  1.00  0.00    -0.237 OA
ATOM     87  O   UNL A   1      46.254  36.418  26.701  1.00  0.00    -0.744 OA
ENDBRANCH  81  84
ENDBRANCH  54  77
ENDBRANCH  28  29
ENDBRANCH  20  23
ENDBRANCH  18  19
ENDBRANCH   1  18
TORSDOF 15
ENDMDL
