MODEL 1
REMARK VINA RESULT:     -12.6      0.000      0.000
REMARK SMILES C[C@@H](Sc1nc(-c2ccc3c(c2)OCO3)ccc1C#N)C(=O)NCCCCNC(=O)c1ccc(-c2c3nc(c(-c4cccc(S(=O)(=O)[O-])c4F)c4ccc([nH]4)c(-c4cccc(S(=O)(=O)[O-])c4F)c4nc(c(-c5cccc(S(=O)(=O)[O-])c5F)c5ccc2[nH]5)C=C4)C=C3)cc1
REMARK SMILES IDX 25 1 24 2 23 3 21 4 22 5 2 7 1 8 3 9 4 10 5 11 18 12 6 13
REMARK SMILES IDX 17 14 16 15 19 16 20 17 7 18 8 19 12 20 9 21 11 22 10 23
REMARK SMILES IDX 13 24 15 25 14 26 26 27 27 28 28 29 29 30 30 32 31 33 32 34
REMARK SMILES IDX 93 35 33 36 92 37 34 38 35 39 36 40 86 41 37 42 91 43 85 44
REMARK SMILES IDX 87 45 38 46 90 47 84 48 83 49 39 51 71 52 51 53 70 54 52 55
REMARK SMILES IDX 55 56 69 57 88 58 53 59 54 60 68 62 89 63 56 64 40 65 41 66
REMARK SMILES IDX 49 67 42 68 44 69 50 70 43 71 45 72 46 73 47 74 48 75 72 76
REMARK SMILES IDX 73 77 81 78 74 79 76 80 82 81 75 82 77 83 78 84 79 85 80 86
REMARK SMILES IDX 57 87 58 88 66 89 59 90 61 91 67 92 60 93 62 94 63 95 64 96
REMARK SMILES IDX 65 97
REMARK H PARENT 23 6 28 31 87 50 55 61
REMARK Flexibility Score: inf
ROOT
ATOM      1  C   UNL A   1      31.858  27.681  26.909  1.00  0.00     0.023 C 
ENDROOT
BRANCH   1   2
ATOM      2  C   UNL A   1      32.120  26.303  26.311  1.00  0.00     0.116 C 
BRANCH   2   3
ATOM      3  N   UNL A   1      31.236  25.308  26.886  1.00  0.00    -0.355 N 
ATOM      4  C   UNL A   1      31.123  23.975  26.624  1.00  0.00     0.233 C 
ATOM      5  O   UNL A   1      30.276  23.339  27.256  1.00  0.00    -0.274 OA
ATOM      6  H   UNL A   1      30.620  25.648  27.575  1.00  0.00     0.163 HD
BRANCH   4   7
ATOM      7  C   UNL A   1      32.001  23.276  25.582  1.00  0.00     0.139 C 
ATOM      8  C   UNL A   1      32.468  21.899  26.043  1.00  0.00     0.030 C 
BRANCH   7   9
ATOM      9  S   UNL A   1      31.143  23.369  23.946  1.00  0.00    -0.092 SA
BRANCH   9  10
ATOM     10  C   UNL A   1      31.722  24.886  23.220  1.00  0.00     0.115 A 
ATOM     11  N   UNL A   1      30.775  25.868  23.221  1.00  0.00    -0.240 NA
ATOM     12  C   UNL A   1      33.025  25.118  22.781  1.00  0.00     0.084 A 
ATOM     13  C   UNL A   1      31.107  27.103  22.771  1.00  0.00     0.072 A 
ATOM     14  C   UNL A   1      33.350  26.395  22.317  1.00  0.00     0.024 A 
ATOM     15  C   UNL A   1      32.387  27.397  22.316  1.00  0.00     0.030 A 
BRANCH  12  16
ATOM     16  C   UNL A   1      34.060  24.132  22.797  1.00  0.00     0.102 C 
ATOM     17  N   UNL A   1      34.852  23.288  22.787  1.00  0.00    -0.192 NA
ENDBRANCH  12  16
BRANCH  13  18
ATOM     18  C   UNL A   1      30.061  28.137  22.792  1.00  0.00     0.004 A 
ATOM     19  C   UNL A   1      28.733  27.798  23.163  1.00  0.00     0.014 A 
ATOM     20  C   UNL A   1      30.326  29.456  22.379  1.00  0.00     0.061 A 
ATOM     21  C   UNL A   1      27.688  28.726  23.096  1.00  0.00     0.051 A 
ATOM     22  C   UNL A   1      29.272  30.349  22.306  1.00  0.00     0.166 A 
ATOM     23  C   UNL A   1      27.990  29.991  22.650  1.00  0.00     0.165 A 
ATOM     24  O   UNL A   1      29.345  31.639  21.877  1.00  0.00    -0.454 OA
ATOM     25  O   UNL A   1      27.099  31.004  22.486  1.00  0.00    -0.454 OA
ATOM     26  C   UNL A   1      27.964  32.043  21.982  1.00  0.00     0.468 C 
ENDBRANCH  13  18
ENDBRANCH   9  10
ENDBRANCH   7   9
ENDBRANCH   4   7
ENDBRANCH   2   3
ENDBRANCH   1   2
BRANCH   1  27
ATOM     27  C   UNL A   1      31.691  28.786  25.866  1.00  0.00     0.023 C 
BRANCH  27  28
ATOM     28  C   UNL A   1      32.878  29.734  25.753  1.00  0.00     0.116 C 
BRANCH  28  29
ATOM     29  N   UNL A   1      32.568  31.078  26.222  1.00  0.00    -0.352 N 
ATOM     30  C   UNL A   1      33.211  31.819  27.183  1.00  0.00     0.251 C 
ATOM     31  H   UNL A   1      31.797  31.513  25.792  1.00  0.00     0.163 HD
ATOM     32  O   UNL A   1      32.721  32.870  27.585  1.00  0.00    -0.269 OA
BRANCH  30  33
ATOM     33  C   UNL A   1      34.482  31.320  27.745  1.00  0.00     0.039 A 
ATOM     34  C   UNL A   1      35.521  32.222  27.975  1.00  0.00     0.014 A 
ATOM     35  C   UNL A   1      34.624  29.972  28.087  1.00  0.00     0.014 A 
ATOM     36  C   UNL A   1      36.683  31.781  28.610  1.00  0.00     0.010 A 
ATOM     37  C   UNL A   1      35.740  29.558  28.804  1.00  0.00     0.010 A 
ATOM     38  C   UNL A   1      36.787  30.455  29.066  1.00  0.00    -0.014 A 
BRANCH  38  39
ATOM     39  C   UNL A   1      37.977  29.996  29.825  1.00  0.00     0.031 A 
ATOM     40  C   UNL A   1      38.231  30.505  31.219  1.00  0.00     0.074 A 
ATOM     41  C   UNL A   1      38.866  29.174  29.235  1.00  0.00     0.049 A 
ATOM     42  N   UNL A   1      39.226  30.239  32.022  1.00  0.00    -0.248 NA
ATOM     43  C   UNL A   1      37.252  31.455  31.773  1.00  0.00     0.031 C 
ATOM     44  C   UNL A   1      38.770  28.664  27.865  1.00  0.00     0.029 A 
ATOM     45  N   UNL A   1      40.039  28.634  29.705  1.00  0.00    -0.354 N 
ATOM     46  C   UNL A   1      39.015  31.011  33.158  1.00  0.00     0.074 A 
ATOM     47  C   UNL A   1      37.816  31.782  32.927  1.00  0.00     0.031 C 
ATOM     48  C   UNL A   1      39.824  27.873  27.613  1.00  0.00     0.029 A 
ATOM     49  C   UNL A   1      40.696  27.855  28.782  1.00  0.00     0.049 A 
ATOM     50  H   UNL A   1      40.376  28.791  30.616  1.00  0.00     0.167 HD
ATOM     51  C   UNL A   1      39.742  31.058  34.300  1.00  0.00     0.034 A 
ATOM     52  C   UNL A   1      41.878  27.211  28.861  1.00  0.00     0.034 A 
ATOM     53  C   UNL A   1      40.924  30.274  34.532  1.00  0.00     0.049 A 
ATOM     54  C   UNL A   1      42.664  27.281  30.141  1.00  0.00     0.074 A 
ATOM     55  C   UNL A   1      41.684  30.189  35.686  1.00  0.00     0.029 A 
ATOM     56  N   UNL A   1      41.538  29.464  33.590  1.00  0.00    -0.354 N 
ATOM     57  N   UNL A   1      42.370  27.900  31.259  1.00  0.00    -0.248 NA
ATOM     58  C   UNL A   1      43.931  26.537  30.183  1.00  0.00     0.031 C 
ATOM     59  C   UNL A   1      42.789  29.375  35.422  1.00  0.00     0.029 A 
ATOM     60  C   UNL A   1      42.681  28.897  34.126  1.00  0.00     0.049 A 
ATOM     61  H   UNL A   1      41.209  29.314  32.674  1.00  0.00     0.167 HD
ATOM     62  C   UNL A   1      43.391  27.586  32.149  1.00  0.00     0.074 A 
ATOM     63  C   UNL A   1      44.302  26.707  31.444  1.00  0.00     0.031 C 
ATOM     64  C   UNL A   1      43.561  27.993  33.431  1.00  0.00     0.034 A 
BRANCH  51  65
ATOM     65  C   UNL A   1      39.272  31.980  35.395  1.00  0.00     0.023 A 
ATOM     66  C   UNL A   1      38.366  31.515  36.371  1.00  0.00     0.012 A 
ATOM     67  C   UNL A   1      39.772  33.293  35.487  1.00  0.00     0.148 A 
ATOM     68  C   UNL A   1      37.936  32.356  37.398  1.00  0.00     0.002 A 
ATOM     69  C   UNL A   1      39.381  34.107  36.543  1.00  0.00     0.091 A 
ATOM     70  F   UNL A   1      40.618  33.723  34.539  1.00  0.00    -0.205 F 
ATOM     71  C   UNL A   1      38.452  33.646  37.490  1.00  0.00     0.022 A 
BRANCH  69  72
ATOM     72  S   UNL A   1      40.053  35.752  36.799  1.00  0.00     0.127 S 
ATOM     73  O   UNL A   1      39.582  36.450  35.604  1.00  0.00    -0.237 OA
ATOM     74  O   UNL A   1      39.396  36.159  38.041  1.00  0.00    -0.237 OA
ATOM     75  O   UNL A   1      41.497  35.589  36.895  1.00  0.00    -0.744 OA
ENDBRANCH  69  72
ENDBRANCH  51  65
BRANCH  52  76
ATOM     76  C   UNL A   1      42.375  26.413  27.705  1.00  0.00     0.023 A 
ATOM     77  C   UNL A   1      43.276  26.994  26.791  1.00  0.00     0.012 A 
ATOM     78  C   UNL A   1      41.964  25.080  27.508  1.00  0.00     0.148 A 
ATOM     79  C   UNL A   1      43.723  26.279  25.680  1.00  0.00     0.002 A 
ATOM     80  C   UNL A   1      42.460  24.354  26.433  1.00  0.00     0.091 A 
ATOM     81  F   UNL A   1      41.103  24.547  28.387  1.00  0.00    -0.205 F 
ATOM     82  C   UNL A   1      43.323  24.957  25.505  1.00  0.00     0.022 A 
BRANCH  80  83
ATOM     83  S   UNL A   1      42.097  22.612  26.197  1.00  0.00     0.127 S 
ATOM     84  O   UNL A   1      42.774  22.335  24.931  1.00  0.00    -0.237 OA
ATOM     85  O   UNL A   1      42.725  22.014  27.375  1.00  0.00    -0.237 OA
ATOM     86  O   UNL A   1      40.645  22.508  26.169  1.00  0.00    -0.744 OA
ENDBRANCH  80  83
ENDBRANCH  52  76
BRANCH  64  87
ATOM     87  C   UNL A   1      44.746  27.449  34.188  1.00  0.00     0.023 A 
ATOM     88  C   UNL A   1      46.005  28.075  34.088  1.00  0.00     0.012 A 
ATOM     89  C   UNL A   1      44.587  26.349  35.054  1.00  0.00     0.148 A 
ATOM     90  C   UNL A   1      47.096  27.587  34.808  1.00  0.00     0.002 A 
ATOM     91  C   UNL A   1      45.663  25.907  35.811  1.00  0.00     0.091 A 
ATOM     92  F   UNL A   1      43.385  25.759  35.124  1.00  0.00    -0.205 F 
ATOM     93  C   UNL A   1      46.923  26.512  35.678  1.00  0.00     0.022 A 
BRANCH  91  94
ATOM     94  S   UNL A   1      45.511  24.596  37.031  1.00  0.00     0.127 S 
ATOM     95  O   UNL A   1      45.440  23.407  36.182  1.00  0.00    -0.237 OA
ATOM     96  O   UNL A   1      46.756  24.733  37.786  1.00  0.00    -0.237 OA
ATOM     97  O   UNL A   1      44.303  24.888  37.791  1.00  0.00    -0.744 OA
ENDBRANCH  91  94
ENDBRANCH  64  87
ENDBRANCH  38  39
ENDBRANCH  30  33
ENDBRANCH  28  29
ENDBRANCH  27  28
ENDBRANCH   1  27
TORSDOF 18
ENDMDL
MODEL 2
REMARK VINA RESULT:     -12.0      1.727      2.225
REMARK SMILES C[C@@H](Sc1nc(-c2ccc3c(c2)OCO3)ccc1C#N)C(=O)NCCCCNC(=O)c1ccc(-c2c3nc(c(-c4cccc(S(=O)(=O)[O-])c4F)c4ccc([nH]4)c(-c4cccc(S(=O)(=O)[O-])c4F)c4nc(c(-c5cccc(S(=O)(=O)[O-])c5F)c5ccc2[nH]5)C=C4)C=C3)cc1
REMARK SMILES IDX 25 1 24 2 23 3 21 4 22 5 2 7 1 8 3 9 4 10 5 11 18 12 6 13
REMARK SMILES IDX 17 14 16 15 19 16 20 17 7 18 8 19 12 20 9 21 11 22 10 23
REMARK SMILES IDX 13 24 15 25 14 26 26 27 27 28 28 29 29 30 30 32 31 33 32 34
REMARK SMILES IDX 93 35 33 36 92 37 34 38 35 39 36 40 86 41 37 42 91 43 85 44
REMARK SMILES IDX 87 45 38 46 90 47 84 48 83 49 39 51 71 52 51 53 70 54 52 55
REMARK SMILES IDX 55 56 69 57 88 58 53 59 54 60 68 62 89 63 56 64 40 65 41 66
REMARK SMILES IDX 49 67 42 68 44 69 50 70 43 71 45 72 46 73 47 74 48 75 72 76
REMARK SMILES IDX 73 77 81 78 74 79 76 80 82 81 75 82 77 83 78 84 79 85 80 86
REMARK SMILES IDX 57 87 58 88 66 89 59 90 61 91 67 92 60 93 62 94 63 95 64 96
REMARK SMILES IDX 65 97
REMARK H PARENT 23 6 28 31 87 50 55 61
REMARK Flexibility Score: inf
ROOT
ATOM      1  C   UNL A   1      32.334  27.533  26.297  1.00  0.00     0.023 C 
ENDROOT
BRANCH   1   2
ATOM      2  C   UNL A   1      32.740  26.063  26.296  1.00  0.00     0.116 C 
BRANCH   2   3
ATOM      3  N   UNL A   1      31.698  25.232  26.866  1.00  0.00    -0.355 N 
ATOM      4  C   UNL A   1      31.334  23.953  26.572  1.00  0.00     0.233 C 
ATOM      5  O   UNL A   1      30.395  23.466  27.208  1.00  0.00    -0.274 OA
ATOM      6  H   UNL A   1      31.170  25.660  27.578  1.00  0.00     0.163 HD
BRANCH   4   7
ATOM      7  C   UNL A   1      32.046  23.134  25.491  1.00  0.00     0.139 C 
ATOM      8  C   UNL A   1      32.382  21.721  25.957  1.00  0.00     0.030 C 
BRANCH   7   9
ATOM      9  S   UNL A   1      31.088  23.296  23.917  1.00  0.00    -0.092 SA
BRANCH   9  10
ATOM     10  C   UNL A   1      31.667  24.814  23.193  1.00  0.00     0.115 A 
ATOM     11  N   UNL A   1      30.733  25.808  23.231  1.00  0.00    -0.240 NA
ATOM     12  C   UNL A   1      32.959  25.035  22.721  1.00  0.00     0.084 A 
ATOM     13  C   UNL A   1      31.068  27.044  22.787  1.00  0.00     0.072 A 
ATOM     14  C   UNL A   1      33.288  26.313  22.262  1.00  0.00     0.024 A 
ATOM     15  C   UNL A   1      32.339  27.327  22.300  1.00  0.00     0.030 A 
BRANCH  12  16
ATOM     16  C   UNL A   1      33.981  24.036  22.697  1.00  0.00     0.102 C 
ATOM     17  N   UNL A   1      34.845  23.264  22.722  1.00  0.00    -0.192 NA
ENDBRANCH  12  16
BRANCH  13  18
ATOM     18  C   UNL A   1      30.036  28.091  22.848  1.00  0.00     0.004 A 
ATOM     19  C   UNL A   1      28.708  27.759  23.225  1.00  0.00     0.014 A 
ATOM     20  C   UNL A   1      30.315  29.418  22.470  1.00  0.00     0.061 A 
ATOM     21  C   UNL A   1      27.675  28.702  23.196  1.00  0.00     0.051 A 
ATOM     22  C   UNL A   1      29.272  30.326  22.434  1.00  0.00     0.166 A 
ATOM     23  C   UNL A   1      27.990  29.975  22.783  1.00  0.00     0.165 A 
ATOM     24  O   UNL A   1      29.358  31.627  22.041  1.00  0.00    -0.454 OA
ATOM     25  O   UNL A   1      27.110  31.005  22.657  1.00  0.00    -0.454 OA
ATOM     26  C   UNL A   1      27.984  32.046  22.173  1.00  0.00     0.468 C 
ENDBRANCH  13  18
ENDBRANCH   9  10
ENDBRANCH   7   9
ENDBRANCH   4   7
ENDBRANCH   2   3
ENDBRANCH   1   2
BRANCH   1  27
ATOM     27  C   UNL A   1      33.320  28.448  25.571  1.00  0.00     0.023 C 
BRANCH  27  28
ATOM     28  C   UNL A   1      34.360  29.101  26.472  1.00  0.00     0.116 C 
BRANCH  28  29
ATOM     29  N   UNL A   1      33.991  30.453  26.866  1.00  0.00    -0.352 N 
ATOM     30  C   UNL A   1      34.553  31.247  27.836  1.00  0.00     0.251 C 
ATOM     31  H   UNL A   1      33.239  30.852  26.371  1.00  0.00     0.163 HD
ATOM     32  O   UNL A   1      34.015  32.300  28.164  1.00  0.00    -0.269 OA
BRANCH  30  33
ATOM     33  C   UNL A   1      35.797  30.802  28.497  1.00  0.00     0.039 A 
ATOM     34  C   UNL A   1      35.727  29.802  29.467  1.00  0.00     0.014 A 
ATOM     35  C   UNL A   1      37.030  31.342  28.121  1.00  0.00     0.014 A 
ATOM     36  C   UNL A   1      36.907  29.297  30.016  1.00  0.00     0.010 A 
ATOM     37  C   UNL A   1      38.205  30.770  28.597  1.00  0.00     0.010 A 
ATOM     38  C   UNL A   1      38.157  29.748  29.557  1.00  0.00    -0.014 A 
BRANCH  38  39
ATOM     39  C   UNL A   1      39.420  29.153  30.062  1.00  0.00     0.031 A 
ATOM     40  C   UNL A   1      40.079  29.708  31.296  1.00  0.00     0.074 A 
ATOM     41  C   UNL A   1      40.009  28.157  29.372  1.00  0.00     0.049 A 
ATOM     42  N   UNL A   1      41.194  29.338  31.868  1.00  0.00    -0.248 NA
ATOM     43  C   UNL A   1      39.413  30.841  31.960  1.00  0.00     0.031 C 
ATOM     44  C   UNL A   1      39.506  27.578  28.124  1.00  0.00     0.029 A 
ATOM     45  N   UNL A   1      41.172  27.467  29.610  1.00  0.00    -0.354 N 
ATOM     46  C   UNL A   1      41.382  30.210  32.934  1.00  0.00     0.074 A 
ATOM     47  C   UNL A   1      40.286  31.150  32.908  1.00  0.00     0.031 C 
ATOM     48  C   UNL A   1      40.341  26.609  27.719  1.00  0.00     0.029 A 
ATOM     49  C   UNL A   1      41.464  26.529  28.647  1.00  0.00     0.049 A 
ATOM     50  H   UNL A   1      41.743  27.629  30.395  1.00  0.00     0.167 HD
ATOM     51  C   UNL A   1      42.367  30.216  33.863  1.00  0.00     0.034 A 
ATOM     52  C   UNL A   1      42.524  25.707  28.516  1.00  0.00     0.034 A 
ATOM     53  C   UNL A   1      43.447  29.267  33.895  1.00  0.00     0.049 A 
ATOM     54  C   UNL A   1      43.604  25.735  29.563  1.00  0.00     0.074 A 
ATOM     55  C   UNL A   1      44.448  29.138  34.842  1.00  0.00     0.029 A 
ATOM     56  N   UNL A   1      43.687  28.304  32.927  1.00  0.00    -0.354 N 
ATOM     57  N   UNL A   1      43.686  26.469  30.646  1.00  0.00    -0.248 NA
ATOM     58  C   UNL A   1      44.722  24.798  29.387  1.00  0.00     0.031 C 
ATOM     59  C   UNL A   1      45.326  28.137  34.416  1.00  0.00     0.029 A 
ATOM     60  C   UNL A   1      44.834  27.596  33.239  1.00  0.00     0.049 A 
ATOM     61  H   UNL A   1      43.124  28.147  32.135  1.00  0.00     0.167 HD
ATOM     62  C   UNL A   1      44.839  26.054  31.302  1.00  0.00     0.074 A 
ATOM     63  C   UNL A   1      45.413  24.991  30.501  1.00  0.00     0.031 C 
ATOM     64  C   UNL A   1      45.377  26.514  32.458  1.00  0.00     0.034 A 
BRANCH  51  65
ATOM     65  C   UNL A   1      42.318  31.275  34.933  1.00  0.00     0.023 A 
ATOM     66  C   UNL A   1      41.698  31.004  36.171  1.00  0.00     0.012 A 
ATOM     67  C   UNL A   1      42.938  32.524  34.731  1.00  0.00     0.148 A 
ATOM     68  C   UNL A   1      41.661  31.972  37.174  1.00  0.00     0.002 A 
ATOM     69  C   UNL A   1      42.942  33.465  35.754  1.00  0.00     0.091 A 
ATOM     70  F   UNL A   1      43.505  32.771  33.541  1.00  0.00    -0.205 F 
ATOM     71  C   UNL A   1      42.292  33.197  36.970  1.00  0.00     0.022 A 
BRANCH  69  72
ATOM     72  S   UNL A   1      43.801  35.035  35.622  1.00  0.00     0.127 S 
ATOM     73  O   UNL A   1      43.062  35.684  34.540  1.00  0.00    -0.237 OA
ATOM     74  O   UNL A   1      43.579  35.617  36.946  1.00  0.00    -0.237 OA
ATOM     75  O   UNL A   1      45.189  34.714  35.320  1.00  0.00    -0.744 OA
ENDBRANCH  69  72
ENDBRANCH  51  65
BRANCH  52  76
ATOM     76  C   UNL A   1      42.601  24.760  27.368  1.00  0.00     0.023 A 
ATOM     77  C   UNL A   1      43.216  25.168  26.168  1.00  0.00     0.012 A 
ATOM     78  C   UNL A   1      42.073  23.458  27.459  1.00  0.00     0.148 A 
ATOM     79  C   UNL A   1      43.265  24.313  25.067  1.00  0.00     0.002 A 
ATOM     80  C   UNL A   1      42.178  22.591  26.379  1.00  0.00     0.091 A 
ATOM     81  F   UNL A   1      41.488  23.091  28.608  1.00  0.00    -0.205 F 
ATOM     82  C   UNL A   1      42.754  23.022  25.174  1.00  0.00     0.022 A 
BRANCH  80  83
ATOM     83  S   UNL A   1      41.659  20.874  26.467  1.00  0.00     0.127 S 
ATOM     84  O   UNL A   1      42.436  20.272  25.385  1.00  0.00    -0.237 OA
ATOM     85  O   UNL A   1      42.089  20.502  27.815  1.00  0.00    -0.237 OA
ATOM     86  O   UNL A   1      40.216  20.885  26.275  1.00  0.00    -0.744 OA
ENDBRANCH  80  83
ENDBRANCH  52  76
BRANCH  64  87
ATOM     87  C   UNL A   1      46.623  25.837  32.971  1.00  0.00     0.023 A 
ATOM     88  C   UNL A   1      47.896  26.346  32.649  1.00  0.00     0.012 A 
ATOM     89  C   UNL A   1      46.519  24.727  33.833  1.00  0.00     0.148 A 
ATOM     90  C   UNL A   1      49.048  25.734  33.144  1.00  0.00     0.002 A 
ATOM     91  C   UNL A   1      47.668  24.161  34.368  1.00  0.00     0.091 A 
ATOM     92  F   UNL A   1      45.299  24.249  34.116  1.00  0.00    -0.205 F 
ATOM     93  C   UNL A   1      48.934  24.651  34.012  1.00  0.00     0.022 A 
BRANCH  91  94
ATOM     94  S   UNL A   1      47.616  22.828  35.573  1.00  0.00     0.127 S 
ATOM     95  O   UNL A   1      47.063  21.732  34.779  1.00  0.00    -0.237 OA
ATOM     96  O   UNL A   1      49.027  22.676  35.923  1.00  0.00    -0.237 OA
ATOM     97  O   UNL A   1      46.766  23.296  36.659  1.00  0.00    -0.744 OA
ENDBRANCH  91  94
ENDBRANCH  64  87
ENDBRANCH  38  39
ENDBRANCH  30  33
ENDBRANCH  28  29
ENDBRANCH  27  28
ENDBRANCH   1  27
TORSDOF 18
ENDMDL
MODEL 3
REMARK VINA RESULT:     -11.9      2.574      3.170
REMARK SMILES C[C@@H](Sc1nc(-c2ccc3c(c2)OCO3)ccc1C#N)C(=O)NCCCCNC(=O)c1ccc(-c2c3nc(c(-c4cccc(S(=O)(=O)[O-])c4F)c4ccc([nH]4)c(-c4cccc(S(=O)(=O)[O-])c4F)c4nc(c(-c5cccc(S(=O)(=O)[O-])c5F)c5ccc2[nH]5)C=C4)C=C3)cc1
REMARK SMILES IDX 25 1 24 2 23 3 21 4 22 5 2 7 1 8 3 9 4 10 5 11 18 12 6 13
REMARK SMILES IDX 17 14 16 15 19 16 20 17 7 18 8 19 12 20 9 21 11 22 10 23
REMARK SMILES IDX 13 24 15 25 14 26 26 27 27 28 28 29 29 30 30 32 31 33 32 34
REMARK SMILES IDX 93 35 33 36 92 37 34 38 35 39 36 40 86 41 37 42 91 43 85 44
REMARK SMILES IDX 87 45 38 46 90 47 84 48 83 49 39 51 71 52 51 53 70 54 52 55
REMARK SMILES IDX 55 56 69 57 88 58 53 59 54 60 68 62 89 63 56 64 40 65 41 66
REMARK SMILES IDX 49 67 42 68 44 69 50 70 43 71 45 72 46 73 47 74 48 75 72 76
REMARK SMILES IDX 73 77 81 78 74 79 76 80 82 81 75 82 77 83 78 84 79 85 80 86
REMARK SMILES IDX 57 87 58 88 66 89 59 90 61 91 67 92 60 93 62 94 63 95 64 96
REMARK SMILES IDX 65 97
REMARK H PARENT 23 6 28 31 87 50 55 61
REMARK Flexibility Score: inf
ROOT
ATOM      1  C   UNL A   1      32.313  27.546  26.399  1.00  0.00     0.023 C 
ENDROOT
BRANCH   1   2
ATOM      2  C   UNL A   1      32.670  26.064  26.399  1.00  0.00     0.116 C 
BRANCH   2   3
ATOM      3  N   UNL A   1      31.563  25.260  26.881  1.00  0.00    -0.355 N 
ATOM      4  C   UNL A   1      31.191  23.991  26.555  1.00  0.00     0.233 C 
ATOM      5  O   UNL A   1      30.191  23.529  27.112  1.00  0.00    -0.274 OA
ATOM      6  H   UNL A   1      30.992  25.701  27.550  1.00  0.00     0.163 HD
BRANCH   4   7
ATOM      7  C   UNL A   1      31.966  23.155  25.532  1.00  0.00     0.139 C 
ATOM      8  C   UNL A   1      32.267  21.748  26.038  1.00  0.00     0.030 C 
BRANCH   7   9
ATOM      9  S   UNL A   1      31.106  23.296  23.900  1.00  0.00    -0.092 SA
BRANCH   9  10
ATOM     10  C   UNL A   1      31.689  24.832  23.217  1.00  0.00     0.115 A 
ATOM     11  N   UNL A   1      30.745  25.817  23.249  1.00  0.00    -0.240 NA
ATOM     12  C   UNL A   1      32.991  25.073  22.782  1.00  0.00     0.084 A 
ATOM     13  C   UNL A   1      31.079  27.063  22.835  1.00  0.00     0.072 A 
ATOM     14  C   UNL A   1      33.319  26.362  22.354  1.00  0.00     0.024 A 
ATOM     15  C   UNL A   1      32.359  27.366  22.385  1.00  0.00     0.030 A 
BRANCH  12  16
ATOM     16  C   UNL A   1      34.023  24.084  22.766  1.00  0.00     0.102 C 
ATOM     17  N   UNL A   1      34.823  23.249  22.706  1.00  0.00    -0.192 NA
ENDBRANCH  12  16
BRANCH  13  18
ATOM     18  C   UNL A   1      30.036  28.099  22.888  1.00  0.00     0.004 A 
ATOM     19  C   UNL A   1      28.703  27.749  23.232  1.00  0.00     0.014 A 
ATOM     20  C   UNL A   1      30.309  29.434  22.534  1.00  0.00     0.061 A 
ATOM     21  C   UNL A   1      27.662  28.683  23.194  1.00  0.00     0.051 A 
ATOM     22  C   UNL A   1      29.259  30.332  22.489  1.00  0.00     0.166 A 
ATOM     23  C   UNL A   1      27.973  29.965  22.805  1.00  0.00     0.165 A 
ATOM     24  O   UNL A   1      29.340  31.639  22.115  1.00  0.00    -0.454 OA
ATOM     25  O   UNL A   1      27.086  30.988  22.675  1.00  0.00    -0.454 OA
ATOM     26  C   UNL A   1      27.959  32.043  22.223  1.00  0.00     0.468 C 
ENDBRANCH  13  18
ENDBRANCH   9  10
ENDBRANCH   7   9
ENDBRANCH   4   7
ENDBRANCH   2   3
ENDBRANCH   1   2
BRANCH   1  27
ATOM     27  C   UNL A   1      33.312  28.422  25.642  1.00  0.00     0.023 C 
BRANCH  27  28
ATOM     28  C   UNL A   1      34.369  29.080  26.520  1.00  0.00     0.116 C 
BRANCH  28  29
ATOM     29  N   UNL A   1      33.997  30.428  26.931  1.00  0.00    -0.352 N 
ATOM     30  C   UNL A   1      34.589  31.230  27.875  1.00  0.00     0.251 C 
ATOM     31  H   UNL A   1      33.218  30.815  26.469  1.00  0.00     0.163 HD
ATOM     32  O   UNL A   1      34.049  32.275  28.226  1.00  0.00    -0.269 OA
BRANCH  30  33
ATOM     33  C   UNL A   1      35.866  30.804  28.481  1.00  0.00     0.039 A 
ATOM     34  C   UNL A   1      35.858  29.777  29.426  1.00  0.00     0.014 A 
ATOM     35  C   UNL A   1      37.071  31.389  28.079  1.00  0.00     0.014 A 
ATOM     36  C   UNL A   1      37.070  29.292  29.920  1.00  0.00     0.010 A 
ATOM     37  C   UNL A   1      38.276  30.840  28.500  1.00  0.00     0.010 A 
ATOM     38  C   UNL A   1      38.290  29.791  29.432  1.00  0.00    -0.014 A 
BRANCH  38  39
ATOM     39  C   UNL A   1      39.586  29.220  29.878  1.00  0.00     0.031 A 
ATOM     40  C   UNL A   1      40.354  29.866  31.000  1.00  0.00     0.074 A 
ATOM     41  C   UNL A   1      40.105  28.160  29.228  1.00  0.00     0.049 A 
ATOM     42  N   UNL A   1      41.510  29.527  31.506  1.00  0.00    -0.248 NA
ATOM     43  C   UNL A   1      39.757  31.062  31.618  1.00  0.00     0.031 C 
ATOM     44  C   UNL A   1      39.491  27.486  28.081  1.00  0.00     0.029 A 
ATOM     45  N   UNL A   1      41.277  27.473  29.426  1.00  0.00    -0.354 N 
ATOM     46  C   UNL A   1      41.796  30.483  32.473  1.00  0.00     0.074 A 
ATOM     47  C   UNL A   1      40.710  31.435  32.460  1.00  0.00     0.031 C 
ATOM     48  C   UNL A   1      40.280  26.472  27.692  1.00  0.00     0.029 A 
ATOM     49  C   UNL A   1      41.476  26.452  28.526  1.00  0.00     0.049 A 
ATOM     50  H   UNL A   1      41.915  27.690  30.144  1.00  0.00     0.167 HD
ATOM     51  C   UNL A   1      42.857  30.550  33.312  1.00  0.00     0.034 A 
ATOM     52  C   UNL A   1      42.514  25.604  28.377  1.00  0.00     0.034 A 
ATOM     53  C   UNL A   1      43.926  29.589  33.335  1.00  0.00     0.049 A 
ATOM     54  C   UNL A   1      43.679  25.702  29.322  1.00  0.00     0.074 A 
ATOM     55  C   UNL A   1      45.003  29.524  34.201  1.00  0.00     0.029 A 
ATOM     56  N   UNL A   1      44.074  28.545  32.435  1.00  0.00    -0.354 N 
ATOM     57  N   UNL A   1      43.861  26.524  30.328  1.00  0.00    -0.248 NA
ATOM     58  C   UNL A   1      44.770  24.735  29.134  1.00  0.00     0.031 C 
ATOM     59  C   UNL A   1      45.832  28.476  33.790  1.00  0.00     0.029 A 
ATOM     60  C   UNL A   1      45.237  27.846  32.709  1.00  0.00     0.049 A 
ATOM     61  H   UNL A   1      43.444  28.331  31.709  1.00  0.00     0.167 HD
ATOM     62  C   UNL A   1      45.062  26.146  30.917  1.00  0.00     0.074 A 
ATOM     63  C   UNL A   1      45.555  25.010  30.165  1.00  0.00     0.031 C 
ATOM     64  C   UNL A   1      45.701  26.693  31.981  1.00  0.00     0.034 A 
BRANCH  51  65
ATOM     65  C   UNL A   1      42.910  31.697  34.288  1.00  0.00     0.023 A 
ATOM     66  C   UNL A   1      43.383  32.959  33.873  1.00  0.00     0.012 A 
ATOM     67  C   UNL A   1      42.437  31.537  35.605  1.00  0.00     0.148 A 
ATOM     68  C   UNL A   1      43.421  34.031  34.764  1.00  0.00     0.002 A 
ATOM     69  C   UNL A   1      42.429  32.623  36.471  1.00  0.00     0.091 A 
ATOM     70  F   UNL A   1      42.008  30.325  35.988  1.00  0.00    -0.205 F 
ATOM     71  C   UNL A   1      42.934  33.866  36.058  1.00  0.00     0.022 A 
BRANCH  69  72
ATOM     72  S   UNL A   1      41.743  32.536  38.128  1.00  0.00     0.127 S 
ATOM     73  O   UNL A   1      40.331  32.275  37.849  1.00  0.00    -0.237 OA
ATOM     74  O   UNL A   1      42.471  31.403  38.700  1.00  0.00    -0.237 OA
ATOM     75  O   UNL A   1      42.025  33.822  38.752  1.00  0.00    -0.744 OA
ENDBRANCH  69  72
ENDBRANCH  51  65
BRANCH  52  76
ATOM     76  C   UNL A   1      42.484  24.563  27.311  1.00  0.00     0.023 A 
ATOM     77  C   UNL A   1      43.266  24.729  26.151  1.00  0.00     0.012 A 
ATOM     78  C   UNL A   1      41.688  23.408  27.441  1.00  0.00     0.148 A 
ATOM     79  C   UNL A   1      43.224  23.787  25.123  1.00  0.00     0.002 A 
ATOM     80  C   UNL A   1      41.696  22.446  26.440  1.00  0.00     0.091 A 
ATOM     81  F   UNL A   1      40.947  23.272  28.550  1.00  0.00    -0.205 F 
ATOM     82  C   UNL A   1      42.446  22.642  25.271  1.00  0.00     0.022 A 
BRANCH  80  83
ATOM     83  S   UNL A   1      40.823  20.884  26.597  1.00  0.00     0.127 S 
ATOM     84  O   UNL A   1      39.497  21.232  26.090  1.00  0.00    -0.237 OA
ATOM     85  O   UNL A   1      41.609  20.014  25.723  1.00  0.00    -0.237 OA
ATOM     86  O   UNL A   1      40.884  20.535  28.010  1.00  0.00    -0.744 OA
ENDBRANCH  80  83
ENDBRANCH  52  76
BRANCH  64  87
ATOM     87  C   UNL A   1      46.979  26.041  32.443  1.00  0.00     0.023 A 
ATOM     88  C   UNL A   1      46.964  25.112  33.502  1.00  0.00     0.012 A 
ATOM     89  C   UNL A   1      48.190  26.308  31.774  1.00  0.00     0.148 A 
ATOM     90  C   UNL A   1      48.143  24.490  33.913  1.00  0.00     0.002 A 
ATOM     91  C   UNL A   1      49.348  25.641  32.151  1.00  0.00     0.091 A 
ATOM     92  F   UNL A   1      48.186  27.206  30.778  1.00  0.00    -0.205 F 
ATOM     93  C   UNL A   1      49.331  24.744  33.231  1.00  0.00     0.022 A 
BRANCH  91  94
ATOM     94  S   UNL A   1      50.901  25.828  31.267  1.00  0.00     0.127 S 
ATOM     95  O   UNL A   1      51.794  24.977  32.051  1.00  0.00    -0.237 OA
ATOM     96  O   UNL A   1      50.565  25.305  29.943  1.00  0.00    -0.237 OA
ATOM     97  O   UNL A   1      51.215  27.250  31.297  1.00  0.00    -0.744 OA
ENDBRANCH  91  94
ENDBRANCH  64  87
ENDBRANCH  38  39
ENDBRANCH  30  33
ENDBRANCH  28  29
ENDBRANCH  27  28
ENDBRANCH   1  27
TORSDOF 18
ENDMDL
