MODEL 1
REMARK VINA RESULT:     -11.7      0.000      0.000
REMARK SMILES Cc1nsc(N[C@H](C)c2cccs2)c1C(=O)NCCCCNC(=O)c1ccc(-c2c3nc(c(-c4cccc(S(=O)(=O)[O-])c4F)c4ccc([nH]4)c(-c4cccc(S(=O)(=O)[O-])c4F)c4nc(c(-c5cccc(S(=O)(=O)[O-])c5F)c5ccc2[nH]5)C=C4)C=C3)cc1
REMARK SMILES IDX 19 1 18 2 17 3 15 4 16 5 14 7 1 8 2 9 3 10 4 11 5 12 6 13
REMARK SMILES IDX 7 15 8 16 9 17 10 18 13 19 11 20 12 21 20 22 21 23 22 24
REMARK SMILES IDX 23 25 24 27 25 28 26 29 87 30 27 31 86 32 28 33 29 34 30 35
REMARK SMILES IDX 80 36 31 37 85 38 79 39 81 40 32 41 84 42 78 43 77 44 33 46
REMARK SMILES IDX 65 47 45 48 64 49 46 50 49 51 63 52 82 53 47 54 48 55 62 57
REMARK SMILES IDX 83 58 50 59 34 60 35 61 43 62 36 63 38 64 44 65 37 66 39 67
REMARK SMILES IDX 40 68 41 69 42 70 66 71 67 72 75 73 68 74 70 75 76 76 69 77
REMARK SMILES IDX 71 78 72 79 73 80 74 81 51 82 52 83 60 84 53 85 55 86 61 87
REMARK SMILES IDX 54 88 56 89 57 90 58 91 59 92
REMARK H PARENT 17 6 6 14 22 26 81 45 49 56
REMARK Flexibility Score: inf
ROOT
ATOM      1  C   UNL A   1      37.159  21.109  24.508  1.00  0.00     0.023 C 
ENDROOT
BRANCH   1   2
ATOM      2  C   UNL A   1      36.962  22.219  25.546  1.00  0.00     0.116 C 
BRANCH   2   3
ATOM      3  N   UNL A   1      35.895  21.915  26.466  1.00  0.00    -0.352 N 
ATOM      4  C   UNL A   1      34.576  21.560  26.420  1.00  0.00     0.256 C 
ATOM      5  O   UNL A   1      34.108  21.444  27.564  1.00  0.00    -0.269 OA
ATOM      6  H   UNL A   1      36.207  21.982  27.397  1.00  0.00     0.163 HD
BRANCH   4   7
ATOM      7  C   UNL A   1      33.708  21.346  25.236  1.00  0.00     0.097 A 
ATOM      8  C   UNL A   1      33.540  18.729  24.666  1.00  0.00     0.069 C 
ATOM      9  C   UNL A   1      33.269  20.177  24.474  1.00  0.00     0.066 A 
ATOM     10  N   UNL A   1      32.489  20.411  23.415  1.00  0.00    -0.195 NA
ATOM     11  S   UNL A   1      32.168  22.005  23.304  1.00  0.00    -0.018 S 
ATOM     12  C   UNL A   1      33.122  22.488  24.638  1.00  0.00     0.123 A 
BRANCH  12  13
ATOM     13  N   UNL A   1      33.275  23.785  25.036  1.00  0.00    -0.368 N 
ATOM     14  H   UNL A   1      34.152  24.202  24.873  1.00  0.00     0.162 HD
BRANCH  13  15
ATOM     15  C   UNL A   1      32.262  24.610  25.678  1.00  0.00     0.117 C 
ATOM     16  C   UNL A   1      31.259  23.676  26.369  1.00  0.00     0.037 C 
BRANCH  15  17
ATOM     17  C   UNL A   1      31.524  25.583  24.784  1.00  0.00     0.027 A 
ATOM     18  C   UNL A   1      30.423  26.358  25.104  1.00  0.00     0.017 A 
ATOM     19  S   UNL A   1      31.994  25.823  23.151  1.00  0.00    -0.147 S 
ATOM     20  C   UNL A   1      29.979  27.158  24.011  1.00  0.00     0.012 A 
ATOM     21  C   UNL A   1      30.757  26.972  22.890  1.00  0.00     0.065 A 
ENDBRANCH  15  17
ENDBRANCH  13  15
ENDBRANCH  12  13
ENDBRANCH   4   7
ENDBRANCH   2   3
ENDBRANCH   1   2
BRANCH   1  22
ATOM     22  C   UNL A   1      37.969  19.901  25.009  1.00  0.00     0.023 C 
BRANCH  22  23
ATOM     23  C   UNL A   1      39.184  20.256  25.868  1.00  0.00     0.116 C 
BRANCH  23  24
ATOM     24  N   UNL A   1      40.231  19.238  25.818  1.00  0.00    -0.352 N 
ATOM     25  C   UNL A   1      41.597  19.424  25.937  1.00  0.00     0.251 C 
ATOM     26  H   UNL A   1      39.929  18.311  25.684  1.00  0.00     0.163 HD
ATOM     27  O   UNL A   1      42.387  18.592  25.532  1.00  0.00    -0.269 OA
BRANCH  25  28
ATOM     28  C   UNL A   1      42.070  20.665  26.575  1.00  0.00     0.039 A 
ATOM     29  C   UNL A   1      42.530  21.728  25.795  1.00  0.00     0.014 A 
ATOM     30  C   UNL A   1      41.962  20.774  27.961  1.00  0.00     0.014 A 
ATOM     31  C   UNL A   1      42.788  22.949  26.413  1.00  0.00     0.010 A 
ATOM     32  C   UNL A   1      42.137  22.006  28.556  1.00  0.00     0.010 A 
ATOM     33  C   UNL A   1      42.557  23.097  27.790  1.00  0.00    -0.014 A 
BRANCH  33  34
ATOM     34  C   UNL A   1      42.566  24.439  28.385  1.00  0.00     0.031 A 
ATOM     35  C   UNL A   1      41.367  25.271  28.067  1.00  0.00     0.074 A 
ATOM     36  C   UNL A   1      43.433  24.820  29.349  1.00  0.00     0.049 A 
ATOM     37  N   UNL A   1      41.325  26.401  27.438  1.00  0.00    -0.248 NA
ATOM     38  C   UNL A   1      40.039  24.721  28.386  1.00  0.00     0.031 C 
ATOM     39  C   UNL A   1      44.447  23.977  29.993  1.00  0.00     0.029 A 
ATOM     40  N   UNL A   1      43.488  25.976  30.077  1.00  0.00    -0.354 N 
ATOM     41  C   UNL A   1      39.994  26.820  27.512  1.00  0.00     0.074 A 
ATOM     42  C   UNL A   1      39.230  25.669  27.908  1.00  0.00     0.031 C 
ATOM     43  C   UNL A   1      44.808  24.531  31.168  1.00  0.00     0.029 A 
ATOM     44  C   UNL A   1      44.198  25.843  31.267  1.00  0.00     0.049 A 
ATOM     45  H   UNL A   1      43.068  26.818  29.789  1.00  0.00     0.167 HD
ATOM     46  C   UNL A   1      39.678  28.145  27.539  1.00  0.00     0.034 A 
ATOM     47  C   UNL A   1      44.273  26.724  32.291  1.00  0.00     0.034 A 
ATOM     48  C   UNL A   1      40.810  28.954  27.170  1.00  0.00     0.049 A 
ATOM     49  C   UNL A   1      43.942  28.063  31.766  1.00  0.00     0.074 A 
ATOM     50  C   UNL A   1      41.508  29.267  26.028  1.00  0.00     0.029 A 
ATOM     51  N   UNL A   1      41.573  29.332  28.241  1.00  0.00    -0.354 N 
ATOM     52  N   UNL A   1      44.685  28.694  30.899  1.00  0.00    -0.248 NA
ATOM     53  C   UNL A   1      42.614  28.623  31.979  1.00  0.00     0.031 C 
ATOM     54  C   UNL A   1      42.806  29.674  26.461  1.00  0.00     0.029 A 
ATOM     55  C   UNL A   1      42.852  29.615  27.854  1.00  0.00     0.049 A 
ATOM     56  H   UNL A   1      41.245  29.392  29.167  1.00  0.00     0.167 HD
ATOM     57  C   UNL A   1      43.775  29.411  30.146  1.00  0.00     0.074 A 
ATOM     58  C   UNL A   1      42.579  29.499  30.970  1.00  0.00     0.031 C 
ATOM     59  C   UNL A   1      43.946  29.556  28.801  1.00  0.00     0.034 A 
BRANCH  46  60
ATOM     60  C   UNL A   1      38.554  28.783  28.349  1.00  0.00     0.023 A 
ATOM     61  C   UNL A   1      37.727  29.712  27.669  1.00  0.00     0.012 A 
ATOM     62  C   UNL A   1      38.472  28.784  29.760  1.00  0.00     0.148 A 
ATOM     63  C   UNL A   1      36.930  30.638  28.353  1.00  0.00     0.002 A 
ATOM     64  C   UNL A   1      37.625  29.660  30.434  1.00  0.00     0.091 A 
ATOM     65  F   UNL A   1      39.307  28.035  30.483  1.00  0.00    -0.205 F 
ATOM     66  C   UNL A   1      36.877  30.613  29.738  1.00  0.00     0.022 A 
BRANCH  64  67
ATOM     67  S   UNL A   1      37.498  29.650  32.228  1.00  0.00     0.127 S 
ATOM     68  O   UNL A   1      38.732  30.326  32.610  1.00  0.00    -0.237 OA
ATOM     69  O   UNL A   1      36.272  30.419  32.447  1.00  0.00    -0.237 OA
ATOM     70  O   UNL A   1      37.391  28.243  32.599  1.00  0.00    -0.744 OA
ENDBRANCH  64  67
ENDBRANCH  46  60
BRANCH  47  71
ATOM     71  C   UNL A   1      44.525  26.483  33.726  1.00  0.00     0.023 A 
ATOM     72  C   UNL A   1      45.825  26.625  34.248  1.00  0.00     0.012 A 
ATOM     73  C   UNL A   1      43.447  26.355  34.630  1.00  0.00     0.148 A 
ATOM     74  C   UNL A   1      46.042  26.674  35.630  1.00  0.00     0.002 A 
ATOM     75  C   UNL A   1      43.668  26.401  36.003  1.00  0.00     0.091 A 
ATOM     76  F   UNL A   1      42.204  26.270  34.136  1.00  0.00    -0.205 F 
ATOM     77  C   UNL A   1      44.965  26.572  36.506  1.00  0.00     0.022 A 
BRANCH  75  78
ATOM     78  S   UNL A   1      42.330  26.300  37.200  1.00  0.00     0.127 S 
ATOM     79  O   UNL A   1      41.788  24.967  36.932  1.00  0.00    -0.237 OA
ATOM     80  O   UNL A   1      43.050  26.424  38.465  1.00  0.00    -0.237 OA
ATOM     81  O   UNL A   1      41.425  27.394  36.875  1.00  0.00    -0.744 OA
ENDBRANCH  75  78
ENDBRANCH  47  71
BRANCH  59  82
ATOM     82  C   UNL A   1      45.333  29.411  28.249  1.00  0.00     0.023 A 
ATOM     83  C   UNL A   1      46.300  30.432  28.340  1.00  0.00     0.012 A 
ATOM     84  C   UNL A   1      45.703  28.164  27.719  1.00  0.00     0.148 A 
ATOM     85  C   UNL A   1      47.604  30.219  27.888  1.00  0.00     0.002 A 
ATOM     86  C   UNL A   1      47.013  27.940  27.317  1.00  0.00     0.091 A 
ATOM     87  F   UNL A   1      44.766  27.207  27.634  1.00  0.00    -0.205 F 
ATOM     88  C   UNL A   1      47.965  28.969  27.389  1.00  0.00     0.022 A 
BRANCH  86  89
ATOM     89  S   UNL A   1      47.558  26.317  26.785  1.00  0.00     0.127 S 
ATOM     90  O   UNL A   1      46.820  26.140  25.536  1.00  0.00    -0.237 OA
ATOM     91  O   UNL A   1      49.000  26.507  26.623  1.00  0.00    -0.237 OA
ATOM     92  O   UNL A   1      47.199  25.404  27.864  1.00  0.00    -0.744 OA
ENDBRANCH  86  89
ENDBRANCH  59  82
ENDBRANCH  33  34
ENDBRANCH  25  28
ENDBRANCH  23  24
ENDBRANCH  22  23
ENDBRANCH   1  22
TORSDOF 17
ENDMDL
MODEL 2
REMARK VINA RESULT:     -11.7      1.077      2.682
REMARK SMILES Cc1nsc(N[C@H](C)c2cccs2)c1C(=O)NCCCCNC(=O)c1ccc(-c2c3nc(c(-c4cccc(S(=O)(=O)[O-])c4F)c4ccc([nH]4)c(-c4cccc(S(=O)(=O)[O-])c4F)c4nc(c(-c5cccc(S(=O)(=O)[O-])c5F)c5ccc2[nH]5)C=C4)C=C3)cc1
REMARK SMILES IDX 19 1 18 2 17 3 15 4 16 5 14 7 1 8 2 9 3 10 4 11 5 12 6 13
REMARK SMILES IDX 7 15 8 16 9 17 10 18 13 19 11 20 12 21 20 22 21 23 22 24
REMARK SMILES IDX 23 25 24 27 25 28 26 29 87 30 27 31 86 32 28 33 29 34 30 35
REMARK SMILES IDX 80 36 31 37 85 38 79 39 81 40 32 41 84 42 78 43 77 44 33 46
REMARK SMILES IDX 65 47 45 48 64 49 46 50 49 51 63 52 82 53 47 54 48 55 62 57
REMARK SMILES IDX 83 58 50 59 34 60 35 61 43 62 36 63 38 64 44 65 37 66 39 67
REMARK SMILES IDX 40 68 41 69 42 70 66 71 67 72 75 73 68 74 70 75 76 76 69 77
REMARK SMILES IDX 71 78 72 79 73 80 74 81 51 82 52 83 60 84 53 85 55 86 61 87
REMARK SMILES IDX 54 88 56 89 57 90 58 91 59 92
REMARK H PARENT 17 6 6 14 22 26 81 45 49 56
REMARK Flexibility Score: inf
ROOT
ATOM      1  C   UNL A   1      37.255  20.962  24.659  1.00  0.00     0.023 C 
ENDROOT
BRANCH   1   2
ATOM      2  C   UNL A   1      37.365  22.174  25.589  1.00  0.00     0.116 C 
BRANCH   2   3
ATOM      3  N   UNL A   1      36.160  22.379  26.355  1.00  0.00    -0.352 N 
ATOM      4  C   UNL A   1      34.880  22.810  26.150  1.00  0.00     0.256 C 
ATOM      5  O   UNL A   1      34.238  22.814  27.212  1.00  0.00    -0.269 OA
ATOM      6  H   UNL A   1      36.302  22.139  27.299  1.00  0.00     0.163 HD
BRANCH   4   7
ATOM      7  C   UNL A   1      34.241  23.267  24.891  1.00  0.00     0.097 A 
ATOM      8  C   UNL A   1      34.151  25.948  24.813  1.00  0.00     0.069 C 
ATOM      9  C   UNL A   1      33.912  24.570  24.313  1.00  0.00     0.066 A 
ATOM     10  N   UNL A   1      33.286  24.560  23.133  1.00  0.00    -0.195 NA
ATOM     11  S   UNL A   1      33.121  23.027  22.605  1.00  0.00    -0.018 S 
ATOM     12  C   UNL A   1      33.820  22.276  23.972  1.00  0.00     0.123 A 
BRANCH  12  13
ATOM     13  N   UNL A   1      33.937  20.923  24.122  1.00  0.00    -0.368 N 
ATOM     14  H   UNL A   1      34.844  20.545  24.071  1.00  0.00     0.162 HD
BRANCH  13  15
ATOM     15  C   UNL A   1      32.846  19.989  24.352  1.00  0.00     0.117 C 
ATOM     16  C   UNL A   1      31.931  20.584  25.431  1.00  0.00     0.037 C 
BRANCH  15  17
ATOM     17  C   UNL A   1      33.241  18.579  24.736  1.00  0.00     0.027 A 
ATOM     18  C   UNL A   1      32.497  17.657  25.452  1.00  0.00     0.017 A 
ATOM     19  S   UNL A   1      34.776  17.938  24.315  1.00  0.00    -0.147 S 
ATOM     20  C   UNL A   1      33.185  16.423  25.639  1.00  0.00     0.012 A 
ATOM     21  C   UNL A   1      34.433  16.438  25.057  1.00  0.00     0.065 A 
ENDBRANCH  15  17
ENDBRANCH  13  15
ENDBRANCH  12  13
ENDBRANCH   4   7
ENDBRANCH   2   3
ENDBRANCH   1   2
BRANCH   1  22
ATOM     22  C   UNL A   1      38.172  19.784  25.030  1.00  0.00     0.023 C 
BRANCH  22  23
ATOM     23  C   UNL A   1      39.370  20.157  25.906  1.00  0.00     0.116 C 
BRANCH  23  24
ATOM     24  N   UNL A   1      40.438  19.162  25.859  1.00  0.00    -0.352 N 
ATOM     25  C   UNL A   1      41.800  19.379  25.968  1.00  0.00     0.251 C 
ATOM     26  H   UNL A   1      40.156  18.227  25.736  1.00  0.00     0.163 HD
ATOM     27  O   UNL A   1      42.606  18.560  25.567  1.00  0.00    -0.269 OA
BRANCH  25  28
ATOM     28  C   UNL A   1      42.250  20.636  26.592  1.00  0.00     0.039 A 
ATOM     29  C   UNL A   1      42.655  21.711  25.798  1.00  0.00     0.014 A 
ATOM     30  C   UNL A   1      42.175  20.745  27.980  1.00  0.00     0.014 A 
ATOM     31  C   UNL A   1      42.889  22.941  26.407  1.00  0.00     0.010 A 
ATOM     32  C   UNL A   1      42.326  21.983  28.568  1.00  0.00     0.010 A 
ATOM     33  C   UNL A   1      42.691  23.085  27.790  1.00  0.00    -0.014 A 
BRANCH  33  34
ATOM     34  C   UNL A   1      42.672  24.428  28.382  1.00  0.00     0.031 A 
ATOM     35  C   UNL A   1      41.444  25.225  28.084  1.00  0.00     0.074 A 
ATOM     36  C   UNL A   1      43.545  24.835  29.330  1.00  0.00     0.049 A 
ATOM     37  N   UNL A   1      41.359  26.352  27.455  1.00  0.00    -0.248 NA
ATOM     38  C   UNL A   1      40.138  24.639  28.427  1.00  0.00     0.031 C 
ATOM     39  C   UNL A   1      44.594  24.023  29.957  1.00  0.00     0.029 A 
ATOM     40  N   UNL A   1      43.580  25.994  30.056  1.00  0.00    -0.354 N 
ATOM     41  C   UNL A   1      40.018  26.733  27.551  1.00  0.00     0.074 A 
ATOM     42  C   UNL A   1      39.295  25.562  27.963  1.00  0.00     0.031 C 
ATOM     43  C   UNL A   1      44.959  24.590  31.125  1.00  0.00     0.029 A 
ATOM     44  C   UNL A   1      44.314  25.884  31.233  1.00  0.00     0.049 A 
ATOM     45  H   UNL A   1      43.130  26.823  29.773  1.00  0.00     0.167 HD
ATOM     46  C   UNL A   1      39.665  28.049  27.581  1.00  0.00     0.034 A 
ATOM     47  C   UNL A   1      44.382  26.769  32.254  1.00  0.00     0.034 A 
ATOM     48  C   UNL A   1      40.768  28.888  27.191  1.00  0.00     0.049 A 
ATOM     49  C   UNL A   1      44.004  28.097  31.733  1.00  0.00     0.074 A 
ATOM     50  C   UNL A   1      41.436  29.219  26.036  1.00  0.00     0.029 A 
ATOM     51  N   UNL A   1      41.538  29.290  28.247  1.00  0.00    -0.354 N 
ATOM     52  N   UNL A   1      44.713  28.747  30.851  1.00  0.00    -0.248 NA
ATOM     53  C   UNL A   1      42.664  28.620  31.968  1.00  0.00     0.031 C 
ATOM     54  C   UNL A   1      42.729  29.663  26.446  1.00  0.00     0.029 A 
ATOM     55  C   UNL A   1      42.802  29.609  27.838  1.00  0.00     0.049 A 
ATOM     56  H   UNL A   1      41.225  29.343  29.179  1.00  0.00     0.167 HD
ATOM     57  C   UNL A   1      43.771  29.436  30.113  1.00  0.00     0.074 A 
ATOM     58  C   UNL A   1      42.587  29.492  30.958  1.00  0.00     0.031 C 
ATOM     59  C   UNL A   1      43.913  29.582  28.765  1.00  0.00     0.034 A 
BRANCH  46  60
ATOM     60  C   UNL A   1      38.539  28.656  28.411  1.00  0.00     0.023 A 
ATOM     61  C   UNL A   1      37.657  29.539  27.737  1.00  0.00     0.012 A 
ATOM     62  C   UNL A   1      38.493  28.680  29.822  1.00  0.00     0.148 A 
ATOM     63  C   UNL A   1      36.841  30.445  28.425  1.00  0.00     0.002 A 
ATOM     64  C   UNL A   1      37.630  29.535  30.504  1.00  0.00     0.091 A 
ATOM     65  F   UNL A   1      39.376  27.979  30.536  1.00  0.00    -0.205 F 
ATOM     66  C   UNL A   1      36.827  30.444  29.812  1.00  0.00     0.022 A 
BRANCH  64  67
ATOM     67  S   UNL A   1      37.550  29.552  32.300  1.00  0.00     0.127 S 
ATOM     68  O   UNL A   1      38.793  30.236  32.639  1.00  0.00    -0.237 OA
ATOM     69  O   UNL A   1      36.329  30.323  32.540  1.00  0.00    -0.237 OA
ATOM     70  O   UNL A   1      37.456  28.152  32.696  1.00  0.00    -0.744 OA
ENDBRANCH  64  67
ENDBRANCH  46  60
BRANCH  47  71
ATOM     71  C   UNL A   1      44.666  26.539  33.684  1.00  0.00     0.023 A 
ATOM     72  C   UNL A   1      45.975  26.696  34.179  1.00  0.00     0.012 A 
ATOM     73  C   UNL A   1      43.609  26.404  34.611  1.00  0.00     0.148 A 
ATOM     74  C   UNL A   1      46.220  26.755  35.555  1.00  0.00     0.002 A 
ATOM     75  C   UNL A   1      43.857  26.459  35.979  1.00  0.00     0.091 A 
ATOM     76  F   UNL A   1      42.356  26.304  34.144  1.00  0.00    -0.205 F 
ATOM     77  C   UNL A   1      45.162  26.647  36.454  1.00  0.00     0.022 A 
BRANCH  75  78
ATOM     78  S   UNL A   1      42.545  26.351  37.203  1.00  0.00     0.127 S 
ATOM     79  O   UNL A   1      43.296  26.430  38.457  1.00  0.00    -0.237 OA
ATOM     80  O   UNL A   1      41.746  27.534  36.893  1.00  0.00    -0.237 OA
ATOM     81  O   UNL A   1      41.893  25.068  36.972  1.00  0.00    -0.744 OA
ENDBRANCH  75  78
ENDBRANCH  47  71
BRANCH  59  82
ATOM     82  C   UNL A   1      45.294  29.476  28.189  1.00  0.00     0.023 A 
ATOM     83  C   UNL A   1      46.223  30.534  28.237  1.00  0.00     0.012 A 
ATOM     84  C   UNL A   1      45.700  28.231  27.681  1.00  0.00     0.148 A 
ATOM     85  C   UNL A   1      47.526  30.358  27.764  1.00  0.00     0.002 A 
ATOM     86  C   UNL A   1      47.009  28.046  27.258  1.00  0.00     0.091 A 
ATOM     87  F   UNL A   1      44.798  27.239  27.637  1.00  0.00    -0.205 F 
ATOM     88  C   UNL A   1      47.923  29.111  27.287  1.00  0.00     0.022 A 
BRANCH  86  89
ATOM     89  S   UNL A   1      47.604  26.432  26.753  1.00  0.00     0.127 S 
ATOM     90  O   UNL A   1      46.998  26.281  25.432  1.00  0.00    -0.237 OA
ATOM     91  O   UNL A   1      49.056  26.621  26.742  1.00  0.00    -0.237 OA
ATOM     92  O   UNL A   1      47.137  25.499  27.772  1.00  0.00    -0.744 OA
ENDBRANCH  86  89
ENDBRANCH  59  82
ENDBRANCH  33  34
ENDBRANCH  25  28
ENDBRANCH  23  24
ENDBRANCH  22  23
ENDBRANCH   1  22
TORSDOF 17
ENDMDL
MODEL 3
REMARK VINA RESULT:     -10.7      3.400      8.045
REMARK SMILES Cc1nsc(N[C@H](C)c2cccs2)c1C(=O)NCCCCNC(=O)c1ccc(-c2c3nc(c(-c4cccc(S(=O)(=O)[O-])c4F)c4ccc([nH]4)c(-c4cccc(S(=O)(=O)[O-])c4F)c4nc(c(-c5cccc(S(=O)(=O)[O-])c5F)c5ccc2[nH]5)C=C4)C=C3)cc1
REMARK SMILES IDX 19 1 18 2 17 3 15 4 16 5 14 7 1 8 2 9 3 10 4 11 5 12 6 13
REMARK SMILES IDX 7 15 8 16 9 17 10 18 13 19 11 20 12 21 20 22 21 23 22 24
REMARK SMILES IDX 23 25 24 27 25 28 26 29 87 30 27 31 86 32 28 33 29 34 30 35
REMARK SMILES IDX 80 36 31 37 85 38 79 39 81 40 32 41 84 42 78 43 77 44 33 46
REMARK SMILES IDX 65 47 45 48 64 49 46 50 49 51 63 52 82 53 47 54 48 55 62 57
REMARK SMILES IDX 83 58 50 59 34 60 35 61 43 62 36 63 38 64 44 65 37 66 39 67
REMARK SMILES IDX 40 68 41 69 42 70 66 71 67 72 75 73 68 74 70 75 76 76 69 77
REMARK SMILES IDX 71 78 72 79 73 80 74 81 51 82 52 83 60 84 53 85 55 86 61 87
REMARK SMILES IDX 54 88 56 89 57 90 58 91 59 92
REMARK H PARENT 17 6 6 14 22 26 81 45 49 56
REMARK Flexibility Score: inf
ROOT
ATOM      1  C   UNL A   1      33.298  30.983  27.118  1.00  0.00     0.023 C 
ENDROOT
BRANCH   1   2
ATOM      2  C   UNL A   1      32.676  29.794  26.378  1.00  0.00     0.116 C 
BRANCH   2   3
ATOM      3  N   UNL A   1      33.060  29.762  24.988  1.00  0.00    -0.352 N 
ATOM      4  C   UNL A   1      33.001  28.898  23.932  1.00  0.00     0.256 C 
ATOM      5  O   UNL A   1      33.530  29.393  22.924  1.00  0.00    -0.269 OA
ATOM      6  H   UNL A   1      33.490  30.607  24.726  1.00  0.00     0.163 HD
BRANCH   4   7
ATOM      7  C   UNL A   1      32.439  27.526  23.880  1.00  0.00     0.097 A 
ATOM      8  C   UNL A   1      34.059  25.809  25.156  1.00  0.00     0.069 C 
ATOM      9  C   UNL A   1      32.866  26.215  24.371  1.00  0.00     0.066 A 
ATOM     10  N   UNL A   1      32.072  25.180  24.082  1.00  0.00    -0.195 NA
ATOM     11  S   UNL A   1      30.748  25.702  23.288  1.00  0.00    -0.018 S 
ATOM     12  C   UNL A   1      31.199  27.349  23.221  1.00  0.00     0.123 A 
BRANCH  12  13
ATOM     13  N   UNL A   1      30.453  28.319  22.614  1.00  0.00    -0.368 N 
ATOM     14  H   UNL A   1      30.718  28.581  21.703  1.00  0.00     0.162 HD
BRANCH  13  15
ATOM     15  C   UNL A   1      29.303  29.001  23.188  1.00  0.00     0.117 C 
ATOM     16  C   UNL A   1      28.159  27.984  23.305  1.00  0.00     0.037 C 
BRANCH  15  17
ATOM     17  C   UNL A   1      28.819  30.233  22.453  1.00  0.00     0.027 A 
ATOM     18  C   UNL A   1      28.361  30.315  21.149  1.00  0.00     0.017 A 
ATOM     19  S   UNL A   1      28.812  31.774  23.206  1.00  0.00    -0.147 S 
ATOM     20  C   UNL A   1      27.993  31.641  20.779  1.00  0.00     0.012 A 
ATOM     21  C   UNL A   1      28.176  32.531  21.814  1.00  0.00     0.065 A 
ENDBRANCH  15  17
ENDBRANCH  13  15
ENDBRANCH  12  13
ENDBRANCH   4   7
ENDBRANCH   2   3
ENDBRANCH   1   2
BRANCH   1  22
ATOM     22  C   UNL A   1      34.772  30.791  27.513  1.00  0.00     0.023 C 
BRANCH  22  23
ATOM     23  C   UNL A   1      35.498  32.075  27.920  1.00  0.00     0.116 C 
BRANCH  23  24
ATOM     24  N   UNL A   1      35.372  32.369  29.345  1.00  0.00    -0.352 N 
ATOM     25  C   UNL A   1      36.068  31.791  30.392  1.00  0.00     0.251 C 
ATOM     26  H   UNL A   1      34.714  33.059  29.590  1.00  0.00     0.163 HD
ATOM     27  O   UNL A   1      35.651  31.840  31.534  1.00  0.00    -0.269 OA
BRANCH  25  28
ATOM     28  C   UNL A   1      37.341  31.115  30.083  1.00  0.00     0.039 A 
ATOM     29  C   UNL A   1      38.540  31.829  30.094  1.00  0.00     0.014 A 
ATOM     30  C   UNL A   1      37.317  29.737  29.869  1.00  0.00     0.014 A 
ATOM     31  C   UNL A   1      39.738  31.128  29.988  1.00  0.00     0.010 A 
ATOM     32  C   UNL A   1      38.506  29.038  29.849  1.00  0.00     0.010 A 
ATOM     33  C   UNL A   1      39.721  29.727  29.900  1.00  0.00    -0.014 A 
BRANCH  33  34
ATOM     34  C   UNL A   1      40.972  28.976  30.062  1.00  0.00     0.031 A 
ATOM     35  C   UNL A   1      41.395  28.766  31.479  1.00  0.00     0.074 A 
ATOM     36  C   UNL A   1      41.568  28.298  29.057  1.00  0.00     0.049 A 
ATOM     37  N   UNL A   1      42.478  29.175  32.056  1.00  0.00    -0.248 NA
ATOM     38  C   UNL A   1      40.443  28.121  32.398  1.00  0.00     0.031 C 
ATOM     39  C   UNL A   1      41.063  28.145  27.687  1.00  0.00     0.029 A 
ATOM     40  N   UNL A   1      42.653  27.465  29.078  1.00  0.00    -0.354 N 
ATOM     41  C   UNL A   1      42.453  28.616  33.337  1.00  0.00     0.074 A 
ATOM     42  C   UNL A   1      41.105  28.169  33.554  1.00  0.00     0.031 C 
ATOM     43  C   UNL A   1      41.656  27.081  27.109  1.00  0.00     0.029 A 
ATOM     44  C   UNL A   1      42.703  26.599  27.989  1.00  0.00     0.049 A 
ATOM     45  H   UNL A   1      43.330  27.476  29.792  1.00  0.00     0.167 HD
ATOM     46  C   UNL A   1      43.609  28.296  33.983  1.00  0.00     0.034 A 
ATOM     47  C   UNL A   1      43.521  25.537  27.811  1.00  0.00     0.034 A 
ATOM     48  C   UNL A   1      44.747  28.887  33.330  1.00  0.00     0.049 A 
ATOM     49  C   UNL A   1      44.707  25.725  28.668  1.00  0.00     0.074 A 
ATOM     50  C   UNL A   1      45.310  30.134  33.197  1.00  0.00     0.029 A 
ATOM     51  N   UNL A   1      45.304  28.075  32.380  1.00  0.00    -0.354 N 
ATOM     52  N   UNL A   1      45.574  26.683  28.488  1.00  0.00    -0.248 NA
ATOM     53  C   UNL A   1      44.811  25.017  29.938  1.00  0.00     0.031 C 
ATOM     54  C   UNL A   1      46.088  30.086  32.001  1.00  0.00     0.029 A 
ATOM     55  C   UNL A   1      45.991  28.807  31.454  1.00  0.00     0.049 A 
ATOM     56  H   UNL A   1      45.220  27.094  32.365  1.00  0.00     0.167 HD
ATOM     57  C   UNL A   1      45.997  26.990  29.767  1.00  0.00     0.074 A 
ATOM     58  C   UNL A   1      45.670  25.821  30.570  1.00  0.00     0.031 C 
ATOM     59  C   UNL A   1      46.242  28.282  30.128  1.00  0.00     0.034 A 
BRANCH  46  60
ATOM     60  C   UNL A   1      43.827  27.082  34.882  1.00  0.00     0.023 A 
ATOM     61  C   UNL A   1      44.348  27.334  36.176  1.00  0.00     0.012 A 
ATOM     62  C   UNL A   1      43.869  25.742  34.438  1.00  0.00     0.148 A 
ATOM     63  C   UNL A   1      44.947  26.330  36.945  1.00  0.00     0.002 A 
ATOM     64  C   UNL A   1      44.404  24.733  35.235  1.00  0.00     0.091 A 
ATOM     65  F   UNL A   1      43.520  25.436  33.186  1.00  0.00    -0.205 F 
ATOM     66  C   UNL A   1      44.976  25.025  36.475  1.00  0.00     0.022 A 
BRANCH  64  67
ATOM     67  S   UNL A   1      44.438  23.021  34.685  1.00  0.00     0.127 S 
ATOM     68  O   UNL A   1      43.049  22.816  34.289  1.00  0.00    -0.237 OA
ATOM     69  O   UNL A   1      45.399  23.078  33.583  1.00  0.00    -0.237 OA
ATOM     70  O   UNL A   1      44.900  22.254  35.837  1.00  0.00    -0.744 OA
ENDBRANCH  64  67
ENDBRANCH  46  60
BRANCH  47  71
ATOM     71  C   UNL A   1      43.315  24.311  27.014  1.00  0.00     0.023 A 
ATOM     72  C   UNL A   1      44.345  23.827  26.184  1.00  0.00     0.012 A 
ATOM     73  C   UNL A   1      42.199  23.480  27.255  1.00  0.00     0.148 A 
ATOM     74  C   UNL A   1      44.282  22.540  25.639  1.00  0.00     0.002 A 
ATOM     75  C   UNL A   1      42.140  22.202  26.709  1.00  0.00     0.091 A 
ATOM     76  F   UNL A   1      41.242  23.918  28.085  1.00  0.00    -0.205 F 
ATOM     77  C   UNL A   1      43.187  21.724  25.909  1.00  0.00     0.022 A 
BRANCH  75  78
ATOM     78  S   UNL A   1      40.772  21.079  27.027  1.00  0.00     0.127 S 
ATOM     79  O   UNL A   1      40.832  20.936  28.482  1.00  0.00    -0.237 OA
ATOM     80  O   UNL A   1      39.631  21.848  26.535  1.00  0.00    -0.237 OA
ATOM     81  O   UNL A   1      41.080  19.861  26.289  1.00  0.00    -0.744 OA
ENDBRANCH  75  78
ENDBRANCH  47  71
BRANCH  59  82
ATOM     82  C   UNL A   1      46.565  29.266  29.043  1.00  0.00     0.023 A 
ATOM     83  C   UNL A   1      47.849  29.380  28.475  1.00  0.00     0.012 A 
ATOM     84  C   UNL A   1      45.510  30.022  28.506  1.00  0.00     0.148 A 
ATOM     85  C   UNL A   1      48.079  30.250  27.407  1.00  0.00     0.002 A 
ATOM     86  C   UNL A   1      45.732  30.849  27.414  1.00  0.00     0.091 A 
ATOM     87  F   UNL A   1      44.296  29.905  29.066  1.00  0.00    -0.205 F 
ATOM     88  C   UNL A   1      47.019  30.975  26.867  1.00  0.00     0.022 A 
BRANCH  86  89
ATOM     89  S   UNL A   1      44.381  31.706  26.605  1.00  0.00     0.127 S 
ATOM     90  O   UNL A   1      43.945  32.638  27.643  1.00  0.00    -0.237 OA
ATOM     91  O   UNL A   1      45.044  32.330  25.460  1.00  0.00    -0.237 OA
ATOM     92  O   UNL A   1      43.417  30.674  26.240  1.00  0.00    -0.744 OA
ENDBRANCH  86  89
ENDBRANCH  59  82
ENDBRANCH  33  34
ENDBRANCH  25  28
ENDBRANCH  23  24
ENDBRANCH  22  23
ENDBRANCH   1  22
TORSDOF 17
ENDMDL
