MODEL 1
REMARK VINA RESULT:     -13.9      0.000      0.000
REMARK SMILES Cc1ccc([C@@]23C[C@@H]4C[C@@H](C[C@@](C(=O)N5CCC(C(=O)NCCCCNC(=O)c6ccc(-c7c8nc(c(-c9cccc(S(=O)(=O)[O-])c9F)c9ccc([nH]9)c(-c9cccc(S(=O)(=O)[O-])c9F)c9nc(c(-c%10cccc(S(=O)(=O)[O-])c%10F)c%10ccc7[nH]%10)C=C9)C=C8)cc6)CC5)(C4)C2)C3)cc1
REMARK SMILES IDX 24 1 23 2 22 3 21 4 19 5 20 6 18 8 13 9 14 10 15 11 16 12
REMARK SMILES IDX 93 13 17 14 92 15 12 16 6 17 7 18 95 19 96 20 8 21 10 22
REMARK SMILES IDX 9 23 94 24 11 25 5 26 1 27 2 28 3 29 98 30 4 31 97 32 25 33
REMARK SMILES IDX 26 34 27 35 28 37 29 38 30 39 91 40 31 41 90 42 32 43 33 44
REMARK SMILES IDX 34 45 84 46 35 47 89 48 83 49 85 50 36 51 88 52 82 53 81 54
REMARK SMILES IDX 37 56 69 57 49 58 68 59 50 60 53 61 67 62 86 63 51 64 52 65
REMARK SMILES IDX 66 67 87 68 54 69 38 70 39 71 47 72 40 73 42 74 48 75 41 76
REMARK SMILES IDX 43 77 44 78 45 79 46 80 70 81 71 82 79 83 72 84 74 85 80 86
REMARK SMILES IDX 73 87 75 88 76 89 77 90 78 91 55 92 56 93 64 94 57 95 59 96
REMARK SMILES IDX 65 97 58 98 60 99 61 100 62 101 63 102
REMARK H PARENT 21 7 26 36 85 55 53 66
REMARK Flexibility Score: inf
ROOT
ATOM      1  C   UNL A   1      40.413  21.395  27.090  1.00  0.00     0.023 C 
ENDROOT
BRANCH   1   2
ATOM      2  C   UNL A   1      39.626  20.635  26.022  1.00  0.00     0.023 C 
BRANCH   2   3
ATOM      3  C   UNL A   1      38.462  21.407  25.384  1.00  0.00     0.116 C 
BRANCH   3   4
ATOM      4  N   UNL A   1      37.367  20.536  24.964  1.00  0.00    -0.356 N 
ATOM      5  C   UNL A   1      36.032  20.565  25.225  1.00  0.00     0.223 C 
ATOM      6  O   UNL A   1      35.328  19.657  24.775  1.00  0.00    -0.275 OA
ATOM      7  H   UNL A   1      37.647  19.791  24.385  1.00  0.00     0.163 HD
BRANCH   5   8
ATOM      8  C   UNL A   1      35.405  21.666  26.063  1.00  0.00     0.082 C 
ATOM      9  C   UNL A   1      32.046  23.625  25.203  1.00  0.00     0.228 C 
ATOM     10  O   UNL A   1      31.115  22.815  25.211  1.00  0.00    -0.274 OA
ATOM     11  N   UNL A   1      33.171  23.434  26.010  1.00  0.00    -0.342 N 
ATOM     12  C   UNL A   1      33.140  22.381  27.016  1.00  0.00     0.120 C 
ATOM     13  C   UNL A   1      34.500  24.030  25.879  1.00  0.00     0.120 C 
ATOM     14  C   UNL A   1      34.031  21.223  26.603  1.00  0.00     0.035 C 
ATOM     15  C   UNL A   1      35.460  23.003  25.313  1.00  0.00     0.035 C 
BRANCH   9  16
ATOM     16  C   UNL A   1      31.926  24.909  24.353  1.00  0.00     0.051 C 
ATOM     17  C   UNL A   1      32.288  27.450  24.544  1.00  0.00    -0.003 C 
ATOM     18  C   UNL A   1      33.224  27.303  23.306  1.00  0.00     0.015 C 
ATOM     19  C   UNL A   1      32.280  26.092  25.269  1.00  0.00     0.028 C 
ATOM     20  C   UNL A   1      30.839  27.694  24.052  1.00  0.00     0.015 C 
ATOM     21  C   UNL A   1      32.732  26.201  22.346  1.00  0.00    -0.009 C 
ATOM     22  C   UNL A   1      30.375  26.537  23.140  1.00  0.00    -0.009 C 
ATOM     23  C   UNL A   1      31.292  26.496  21.908  1.00  0.00     0.007 C 
ATOM     24  C   UNL A   1      32.763  24.845  23.060  1.00  0.00     0.020 C 
ATOM     25  C   UNL A   1      30.461  25.184  23.890  1.00  0.00     0.020 C 
BRANCH  17  26
ATOM     26  C   UNL A   1      32.777  28.571  25.480  1.00  0.00    -0.042 A 
ATOM     27  C   UNL A   1      34.061  31.619  28.295  1.00  0.00     0.044 C 
ATOM     28  C   UNL A   1      33.643  30.569  27.313  1.00  0.00    -0.051 A 
ATOM     29  C   UNL A   1      32.419  30.692  26.661  1.00  0.00     0.004 A 
ATOM     30  C   UNL A   1      34.443  29.458  27.033  1.00  0.00     0.004 A 
ATOM     31  C   UNL A   1      32.002  29.716  25.754  1.00  0.00     0.004 A 
ATOM     32  C   UNL A   1      34.019  28.476  26.128  1.00  0.00     0.004 A 
ENDBRANCH  17  26
ENDBRANCH   9  16
ENDBRANCH   5   8
ENDBRANCH   3   4
ENDBRANCH   2   3
ENDBRANCH   1   2
BRANCH   1  33
ATOM     33  C   UNL A   1      40.723  22.835  26.721  1.00  0.00     0.116 C 
BRANCH  33  34
ATOM     34  N   UNL A   1      39.580  23.589  26.246  1.00  0.00    -0.352 N 
ATOM     35  C   UNL A   1      38.972  24.697  26.810  1.00  0.00     0.251 C 
ATOM     36  H   UNL A   1      39.180  23.268  25.406  1.00  0.00     0.163 HD
ATOM     37  O   UNL A   1      37.846  25.005  26.423  1.00  0.00    -0.269 OA
BRANCH  35  38
ATOM     38  C   UNL A   1      39.728  25.572  27.745  1.00  0.00     0.039 A 
ATOM     39  C   UNL A   1      39.209  25.733  29.038  1.00  0.00     0.014 A 
ATOM     40  C   UNL A   1      40.749  26.408  27.305  1.00  0.00     0.014 A 
ATOM     41  C   UNL A   1      39.496  26.887  29.758  1.00  0.00     0.010 A 
ATOM     42  C   UNL A   1      40.966  27.594  27.966  1.00  0.00     0.010 A 
ATOM     43  C   UNL A   1      40.272  27.863  29.147  1.00  0.00    -0.014 A 
BRANCH  43  44
ATOM     44  C   UNL A   1      40.426  29.221  29.628  1.00  0.00     0.031 A 
ATOM     45  C   UNL A   1      39.392  30.220  29.328  1.00  0.00     0.074 A 
ATOM     46  C   UNL A   1      41.391  29.453  30.545  1.00  0.00     0.049 A 
ATOM     47  N   UNL A   1      39.533  31.480  29.546  1.00  0.00    -0.248 NA
ATOM     48  C   UNL A   1      38.118  29.873  28.704  1.00  0.00     0.031 C 
ATOM     49  C   UNL A   1      41.468  30.544  31.505  1.00  0.00     0.029 A 
ATOM     50  N   UNL A   1      42.635  28.819  30.652  1.00  0.00    -0.354 N 
ATOM     51  C   UNL A   1      38.279  32.035  29.441  1.00  0.00     0.074 A 
ATOM     52  C   UNL A   1      37.493  31.054  28.741  1.00  0.00     0.031 C 
ATOM     53  C   UNL A   1      42.745  30.687  31.895  1.00  0.00     0.029 A 
ATOM     54  C   UNL A   1      43.540  29.824  31.038  1.00  0.00     0.049 A 
ATOM     55  H   UNL A   1      42.835  27.869  30.489  1.00  0.00     0.167 HD
ATOM     56  C   UNL A   1      38.019  33.175  30.137  1.00  0.00     0.034 A 
ATOM     57  C   UNL A   1      44.580  30.238  30.252  1.00  0.00     0.034 A 
ATOM     58  C   UNL A   1      39.267  33.768  30.645  1.00  0.00     0.049 A 
ATOM     59  C   UNL A   1      44.511  31.718  29.907  1.00  0.00     0.074 A 
ATOM     60  C   UNL A   1      39.846  33.844  31.899  1.00  0.00     0.029 A 
ATOM     61  N   UNL A   1      40.251  34.153  29.738  1.00  0.00    -0.354 N 
ATOM     62  N   UNL A   1      43.497  32.491  30.185  1.00  0.00    -0.248 NA
ATOM     63  C   UNL A   1      45.569  32.440  29.207  1.00  0.00     0.031 C 
ATOM     64  C   UNL A   1      41.226  34.155  31.724  1.00  0.00     0.029 A 
ATOM     65  C   UNL A   1      41.473  34.323  30.371  1.00  0.00     0.049 A 
ATOM     66  H   UNL A   1      40.100  34.286  28.774  1.00  0.00     0.167 HD
ATOM     67  C   UNL A   1      43.673  33.727  29.619  1.00  0.00     0.074 A 
ATOM     68  C   UNL A   1      45.027  33.666  29.091  1.00  0.00     0.031 C 
ATOM     69  C   UNL A   1      42.664  34.658  29.587  1.00  0.00     0.034 A 
BRANCH  56  70
ATOM     70  C   UNL A   1      36.639  33.667  30.553  1.00  0.00     0.023 A 
ATOM     71  C   UNL A   1      36.202  33.325  31.853  1.00  0.00     0.012 A 
ATOM     72  C   UNL A   1      35.687  34.342  29.744  1.00  0.00     0.148 A 
ATOM     73  C   UNL A   1      34.913  33.617  32.317  1.00  0.00     0.002 A 
ATOM     74  C   UNL A   1      34.426  34.699  30.232  1.00  0.00     0.091 A 
ATOM     75  F   UNL A   1      35.933  34.566  28.453  1.00  0.00    -0.205 F 
ATOM     76  C   UNL A   1      34.028  34.322  31.513  1.00  0.00     0.022 A 
BRANCH  74  77
ATOM     77  S   UNL A   1      33.254  35.666  29.257  1.00  0.00     0.127 S 
ATOM     78  O   UNL A   1      32.504  34.626  28.555  1.00  0.00    -0.237 OA
ATOM     79  O   UNL A   1      32.493  36.372  30.290  1.00  0.00    -0.237 OA
ATOM     80  O   UNL A   1      34.053  36.538  28.405  1.00  0.00    -0.744 OA
ENDBRANCH  74  77
ENDBRANCH  56  70
BRANCH  57  81
ATOM     81  C   UNL A   1      45.117  29.155  29.370  1.00  0.00     0.023 A 
ATOM     82  C   UNL A   1      45.601  27.993  30.021  1.00  0.00     0.012 A 
ATOM     83  C   UNL A   1      44.763  29.072  28.011  1.00  0.00     0.148 A 
ATOM     84  C   UNL A   1      45.565  26.749  29.388  1.00  0.00     0.002 A 
ATOM     85  C   UNL A   1      44.743  27.825  27.382  1.00  0.00     0.091 A 
ATOM     86  F   UNL A   1      44.372  30.184  27.379  1.00  0.00    -0.205 F 
ATOM     87  C   UNL A   1      45.094  26.660  28.083  1.00  0.00     0.022 A 
BRANCH  85  88
ATOM     88  S   UNL A   1      44.147  27.640  25.694  1.00  0.00     0.127 S 
ATOM     89  O   UNL A   1      45.346  27.956  24.924  1.00  0.00    -0.237 OA
ATOM     90  O   UNL A   1      43.743  26.236  25.650  1.00  0.00    -0.237 OA
ATOM     91  O   UNL A   1      43.041  28.581  25.587  1.00  0.00    -0.744 OA
ENDBRANCH  85  88
ENDBRANCH  57  81
BRANCH  69  92
ATOM     92  C   UNL A   1      42.674  35.964  28.798  1.00  0.00     0.023 A 
ATOM     93  C   UNL A   1      42.047  36.103  27.545  1.00  0.00     0.012 A 
ATOM     94  C   UNL A   1      43.206  37.154  29.366  1.00  0.00     0.148 A 
ATOM     95  C   UNL A   1      42.000  37.328  26.865  1.00  0.00     0.002 A 
ATOM     96  C   UNL A   1      43.050  38.390  28.742  1.00  0.00     0.091 A 
ATOM     97  F   UNL A   1      43.897  37.099  30.513  1.00  0.00    -0.205 F 
ATOM     98  C   UNL A   1      42.477  38.477  27.474  1.00  0.00     0.022 A 
BRANCH  96  99
ATOM     99  S   UNL A   1      43.424  39.922  29.611  1.00  0.00     0.127 S 
ATOM    100  O   UNL A   1      44.708  40.299  29.025  1.00  0.00    -0.237 OA
ATOM    101  O   UNL A   1      42.304  40.784  29.227  1.00  0.00    -0.237 OA
ATOM    102  O   UNL A   1      43.441  39.563  31.023  1.00  0.00    -0.744 OA
ENDBRANCH  96  99
ENDBRANCH  69  92
ENDBRANCH  43  44
ENDBRANCH  35  38
ENDBRANCH  33  34
ENDBRANCH   1  33
TORSDOF 16
ENDMDL
MODEL 2
REMARK VINA RESULT:     -13.7      2.895      4.143
REMARK SMILES Cc1ccc([C@@]23C[C@@H]4C[C@@H](C[C@@](C(=O)N5CCC(C(=O)NCCCCNC(=O)c6ccc(-c7c8nc(c(-c9cccc(S(=O)(=O)[O-])c9F)c9ccc([nH]9)c(-c9cccc(S(=O)(=O)[O-])c9F)c9nc(c(-c%10cccc(S(=O)(=O)[O-])c%10F)c%10ccc7[nH]%10)C=C9)C=C8)cc6)CC5)(C4)C2)C3)cc1
REMARK SMILES IDX 24 1 23 2 22 3 21 4 19 5 20 6 18 8 13 9 14 10 15 11 16 12
REMARK SMILES IDX 93 13 17 14 92 15 12 16 6 17 7 18 95 19 96 20 8 21 10 22
REMARK SMILES IDX 9 23 94 24 11 25 5 26 1 27 2 28 3 29 98 30 4 31 97 32 25 33
REMARK SMILES IDX 26 34 27 35 28 37 29 38 30 39 91 40 31 41 90 42 32 43 33 44
REMARK SMILES IDX 34 45 84 46 35 47 89 48 83 49 85 50 36 51 88 52 82 53 81 54
REMARK SMILES IDX 37 56 69 57 49 58 68 59 50 60 53 61 67 62 86 63 51 64 52 65
REMARK SMILES IDX 66 67 87 68 54 69 38 70 39 71 47 72 40 73 42 74 48 75 41 76
REMARK SMILES IDX 43 77 44 78 45 79 46 80 70 81 71 82 79 83 72 84 74 85 80 86
REMARK SMILES IDX 73 87 75 88 76 89 77 90 78 91 55 92 56 93 64 94 57 95 59 96
REMARK SMILES IDX 65 97 58 98 60 99 61 100 62 101 63 102
REMARK H PARENT 21 7 26 36 85 55 53 66
REMARK Flexibility Score: inf
ROOT
ATOM      1  C   UNL A   1      37.895  23.010  25.615  1.00  0.00     0.023 C 
ENDROOT
BRANCH   1   2
ATOM      2  C   UNL A   1      37.425  21.703  24.978  1.00  0.00     0.023 C 
BRANCH   2   3
ATOM      3  C   UNL A   1      36.219  21.035  25.654  1.00  0.00     0.116 C 
BRANCH   3   4
ATOM      4  N   UNL A   1      35.149  20.711  24.713  1.00  0.00    -0.356 N 
ATOM      5  C   UNL A   1      33.817  20.989  24.720  1.00  0.00     0.223 C 
ATOM      6  O   UNL A   1      33.121  20.541  23.806  1.00  0.00    -0.275 OA
ATOM      7  H   UNL A   1      35.447  20.197  23.928  1.00  0.00     0.163 HD
BRANCH   5   8
ATOM      8  C   UNL A   1      33.179  21.812  25.826  1.00  0.00     0.082 C 
ATOM      9  C   UNL A   1      31.216  25.243  25.344  1.00  0.00     0.228 C 
ATOM     10  O   UNL A   1      30.214  25.020  24.659  1.00  0.00    -0.274 OA
ATOM     11  N   UNL A   1      31.753  24.254  26.173  1.00  0.00    -0.342 N 
ATOM     12  C   UNL A   1      30.996  23.028  26.380  1.00  0.00     0.120 C 
ATOM     13  C   UNL A   1      33.096  24.175  26.747  1.00  0.00     0.120 C 
ATOM     14  C   UNL A   1      31.648  21.868  25.648  1.00  0.00     0.035 C 
ATOM     15  C   UNL A   1      33.911  23.150  25.985  1.00  0.00     0.035 C 
BRANCH   9  16
ATOM     16  C   UNL A   1      31.832  26.659  25.348  1.00  0.00     0.051 C 
ATOM     17  C   UNL A   1      31.397  29.009  24.391  1.00  0.00    -0.003 C 
ATOM     18  C   UNL A   1      31.463  29.506  25.868  1.00  0.00     0.015 C 
ATOM     19  C   UNL A   1      30.961  27.533  24.430  1.00  0.00     0.028 C 
ATOM     20  C   UNL A   1      32.825  29.029  23.790  1.00  0.00     0.015 C 
ATOM     21  C   UNL A   1      32.467  28.687  26.702  1.00  0.00    -0.009 C 
ATOM     22  C   UNL A   1      33.778  28.150  24.630  1.00  0.00    -0.009 C 
ATOM     23  C   UNL A   1      33.854  28.738  26.047  1.00  0.00     0.007 C 
ATOM     24  C   UNL A   1      32.008  27.226  26.771  1.00  0.00     0.020 C 
ATOM     25  C   UNL A   1      33.253  26.694  24.704  1.00  0.00     0.020 C 
BRANCH  17  26
ATOM     26  C   UNL A   1      30.409  29.853  23.564  1.00  0.00    -0.042 A 
ATOM     27  C   UNL A   1      27.800  32.370  21.173  1.00  0.00     0.044 C 
ATOM     28  C   UNL A   1      28.687  31.480  21.987  1.00  0.00    -0.051 A 
ATOM     29  C   UNL A   1      28.865  31.747  23.341  1.00  0.00     0.004 A 
ATOM     30  C   UNL A   1      29.354  30.388  21.425  1.00  0.00     0.004 A 
ATOM     31  C   UNL A   1      29.702  30.941  24.115  1.00  0.00     0.004 A 
ATOM     32  C   UNL A   1      30.199  29.584  22.203  1.00  0.00     0.004 A 
ENDBRANCH  17  26
ENDBRANCH   9  16
ENDBRANCH   5   8
ENDBRANCH   3   4
ENDBRANCH   2   3
ENDBRANCH   1   2
BRANCH   1  33
ATOM     33  C   UNL A   1      39.064  22.847  26.571  1.00  0.00     0.116 C 
BRANCH  33  34
ATOM     34  N   UNL A   1      39.857  21.655  26.346  1.00  0.00    -0.352 N 
ATOM     35  C   UNL A   1      41.233  21.526  26.266  1.00  0.00     0.251 C 
ATOM     36  H   UNL A   1      39.346  20.821  26.234  1.00  0.00     0.163 HD
ATOM     37  O   UNL A   1      41.696  20.498  25.775  1.00  0.00    -0.269 OA
BRANCH  35  38
ATOM     38  C   UNL A   1      42.118  22.541  26.897  1.00  0.00     0.039 A 
ATOM     39  C   UNL A   1      42.132  22.601  28.297  1.00  0.00     0.014 A 
ATOM     40  C   UNL A   1      42.706  23.563  26.158  1.00  0.00     0.014 A 
ATOM     41  C   UNL A   1      42.458  23.794  28.934  1.00  0.00     0.010 A 
ATOM     42  C   UNL A   1      42.940  24.772  26.770  1.00  0.00     0.010 A 
ATOM     43  C   UNL A   1      42.732  24.903  28.144  1.00  0.00    -0.014 A 
BRANCH  43  44
ATOM     44  C   UNL A   1      42.805  26.267  28.627  1.00  0.00     0.031 A 
ATOM     45  C   UNL A   1      41.633  27.143  28.511  1.00  0.00     0.074 A 
ATOM     46  C   UNL A   1      43.868  26.601  29.391  1.00  0.00     0.049 A 
ATOM     47  N   UNL A   1      41.664  28.410  28.735  1.00  0.00    -0.248 NA
ATOM     48  C   UNL A   1      40.324  26.657  28.081  1.00  0.00     0.031 C 
ATOM     49  C   UNL A   1      43.970  27.689  30.354  1.00  0.00     0.029 A 
ATOM     50  N   UNL A   1      45.176  26.113  29.292  1.00  0.00    -0.354 N 
ATOM     51  C   UNL A   1      40.354  28.819  28.835  1.00  0.00     0.074 A 
ATOM     52  C   UNL A   1      39.585  27.759  28.241  1.00  0.00     0.031 C 
ATOM     53  C   UNL A   1      45.268  27.975  30.547  1.00  0.00     0.029 A 
ATOM     54  C   UNL A   1      46.012  27.212  29.560  1.00  0.00     0.049 A 
ATOM     55  H   UNL A   1      45.454  25.193  29.079  1.00  0.00     0.167 HD
ATOM     56  C   UNL A   1      40.079  29.918  29.589  1.00  0.00     0.034 A 
ATOM     57  C   UNL A   1      46.866  27.746  28.633  1.00  0.00     0.034 A 
ATOM     58  C   UNL A   1      41.316  30.646  29.914  1.00  0.00     0.049 A 
ATOM     59  C   UNL A   1      46.580  29.211  28.338  1.00  0.00     0.074 A 
ATOM     60  C   UNL A   1      42.070  30.781  31.067  1.00  0.00     0.029 A 
ATOM     61  N   UNL A   1      42.100  31.146  28.877  1.00  0.00    -0.354 N 
ATOM     62  N   UNL A   1      45.541  29.862  28.785  1.00  0.00    -0.248 NA
ATOM     63  C   UNL A   1      47.430  30.053  27.501  1.00  0.00     0.031 C 
ATOM     64  C   UNL A   1      43.363  31.248  30.690  1.00  0.00     0.029 A 
ATOM     65  C   UNL A   1      43.378  31.451  29.320  1.00  0.00     0.049 A 
ATOM     66  H   UNL A   1      41.788  31.267  27.951  1.00  0.00     0.167 HD
ATOM     67  C   UNL A   1      45.488  31.113  28.227  1.00  0.00     0.074 A 
ATOM     68  C   UNL A   1      46.743  31.210  27.498  1.00  0.00     0.031 C 
ATOM     69  C   UNL A   1      44.389  31.923  28.372  1.00  0.00     0.034 A 
BRANCH  56  70
ATOM     70  C   UNL A   1      38.734  30.247  30.222  1.00  0.00     0.023 A 
ATOM     71  C   UNL A   1      38.407  29.571  31.419  1.00  0.00     0.012 A 
ATOM     72  C   UNL A   1      37.714  31.078  29.689  1.00  0.00     0.148 A 
ATOM     73  C   UNL A   1      37.157  29.698  32.041  1.00  0.00     0.002 A 
ATOM     74  C   UNL A   1      36.494  31.263  30.348  1.00  0.00     0.091 A 
ATOM     75  F   UNL A   1      37.852  31.633  28.485  1.00  0.00    -0.205 F 
ATOM     76  C   UNL A   1      36.204  30.559  31.516  1.00  0.00     0.022 A 
BRANCH  74  77
ATOM     77  S   UNL A   1      35.238  32.413  29.748  1.00  0.00     0.127 S 
ATOM     78  O   UNL A   1      34.678  31.690  28.607  1.00  0.00    -0.237 OA
ATOM     79  O   UNL A   1      34.340  32.526  30.897  1.00  0.00    -0.237 OA
ATOM     80  O   UNL A   1      35.941  33.647  29.416  1.00  0.00    -0.744 OA
ENDBRANCH  74  77
ENDBRANCH  56  70
BRANCH  57  81
ATOM     81  C   UNL A   1      47.378  26.737  27.655  1.00  0.00     0.023 A 
ATOM     82  C   UNL A   1      46.497  26.371  26.607  1.00  0.00     0.012 A 
ATOM     83  C   UNL A   1      48.756  26.504  27.494  1.00  0.00     0.148 A 
ATOM     84  C   UNL A   1      46.991  25.953  25.370  1.00  0.00     0.002 A 
ATOM     85  C   UNL A   1      49.239  26.072  26.258  1.00  0.00     0.091 A 
ATOM     86  F   UNL A   1      49.579  26.784  28.511  1.00  0.00    -0.205 F 
ATOM     87  C   UNL A   1      48.364  25.845  25.182  1.00  0.00     0.022 A 
BRANCH  85  88
ATOM     88  S   UNL A   1      51.004  25.910  25.949  1.00  0.00     0.127 S 
ATOM     89  O   UNL A   1      51.523  27.126  26.567  1.00  0.00    -0.237 OA
ATOM     90  O   UNL A   1      51.341  24.674  26.653  1.00  0.00    -0.237 OA
ATOM     91  O   UNL A   1      51.119  25.819  24.500  1.00  0.00    -0.744 OA
ENDBRANCH  85  88
ENDBRANCH  57  81
BRANCH  69  92
ATOM     92  C   UNL A   1      44.131  33.226  27.621  1.00  0.00     0.023 A 
ATOM     93  C   UNL A   1      44.056  33.296  26.217  1.00  0.00     0.012 A 
ATOM     94  C   UNL A   1      43.812  34.421  28.324  1.00  0.00     0.148 A 
ATOM     95  C   UNL A   1      43.745  34.486  25.544  1.00  0.00     0.002 A 
ATOM     96  C   UNL A   1      43.386  35.566  27.655  1.00  0.00     0.091 A 
ATOM     97  F   UNL A   1      43.944  34.470  29.657  1.00  0.00    -0.205 F 
ATOM     98  C   UNL A   1      43.384  35.614  26.261  1.00  0.00     0.022 A 
BRANCH  96  99
ATOM     99  S   UNL A   1      42.671  36.953  28.553  1.00  0.00     0.127 S 
ATOM    100  O   UNL A   1      41.349  36.441  28.903  1.00  0.00    -0.237 OA
ATOM    101  O   UNL A   1      43.586  37.099  29.688  1.00  0.00    -0.237 OA
ATOM    102  O   UNL A   1      42.703  38.069  27.617  1.00  0.00    -0.744 OA
ENDBRANCH  96  99
ENDBRANCH  69  92
ENDBRANCH  43  44
ENDBRANCH  35  38
ENDBRANCH  33  34
ENDBRANCH   1  33
TORSDOF 16
ENDMDL
MODEL 3
REMARK VINA RESULT:     -13.6      1.952      2.930
REMARK SMILES Cc1ccc([C@@]23C[C@@H]4C[C@@H](C[C@@](C(=O)N5CCC(C(=O)NCCCCNC(=O)c6ccc(-c7c8nc(c(-c9cccc(S(=O)(=O)[O-])c9F)c9ccc([nH]9)c(-c9cccc(S(=O)(=O)[O-])c9F)c9nc(c(-c%10cccc(S(=O)(=O)[O-])c%10F)c%10ccc7[nH]%10)C=C9)C=C8)cc6)CC5)(C4)C2)C3)cc1
REMARK SMILES IDX 24 1 23 2 22 3 21 4 19 5 20 6 18 8 13 9 14 10 15 11 16 12
REMARK SMILES IDX 93 13 17 14 92 15 12 16 6 17 7 18 95 19 96 20 8 21 10 22
REMARK SMILES IDX 9 23 94 24 11 25 5 26 1 27 2 28 3 29 98 30 4 31 97 32 25 33
REMARK SMILES IDX 26 34 27 35 28 37 29 38 30 39 91 40 31 41 90 42 32 43 33 44
REMARK SMILES IDX 34 45 84 46 35 47 89 48 83 49 85 50 36 51 88 52 82 53 81 54
REMARK SMILES IDX 37 56 69 57 49 58 68 59 50 60 53 61 67 62 86 63 51 64 52 65
REMARK SMILES IDX 66 67 87 68 54 69 38 70 39 71 47 72 40 73 42 74 48 75 41 76
REMARK SMILES IDX 43 77 44 78 45 79 46 80 70 81 71 82 79 83 72 84 74 85 80 86
REMARK SMILES IDX 73 87 75 88 76 89 77 90 78 91 55 92 56 93 64 94 57 95 59 96
REMARK SMILES IDX 65 97 58 98 60 99 61 100 62 101 63 102
REMARK H PARENT 21 7 26 36 85 55 53 66
REMARK Flexibility Score: inf
ROOT
ATOM      1  C   UNL A   1      36.950  22.647  25.909  1.00  0.00     0.023 C 
ENDROOT
BRANCH   1   2
ATOM      2  C   UNL A   1      36.150  21.582  25.160  1.00  0.00     0.023 C 
BRANCH   2   3
ATOM      3  C   UNL A   1      34.937  22.101  24.373  1.00  0.00     0.116 C 
BRANCH   3   4
ATOM      4  N   UNL A   1      33.861  21.116  24.276  1.00  0.00    -0.356 N 
ATOM      5  C   UNL A   1      32.718  20.945  24.993  1.00  0.00     0.223 C 
ATOM      6  O   UNL A   1      31.998  19.979  24.726  1.00  0.00    -0.275 OA
ATOM      7  H   UNL A   1      33.988  20.454  23.558  1.00  0.00     0.163 HD
BRANCH   5   8
ATOM      8  C   UNL A   1      32.328  21.895  26.112  1.00  0.00     0.082 C 
ATOM      9  C   UNL A   1      30.703  25.502  25.647  1.00  0.00     0.228 C 
ATOM     10  O   UNL A   1      29.600  25.360  25.113  1.00  0.00    -0.274 OA
ATOM     11  N   UNL A   1      31.236  24.503  26.468  1.00  0.00    -0.342 N 
ATOM     12  C   UNL A   1      30.384  23.386  26.853  1.00  0.00     0.120 C 
ATOM     13  C   UNL A   1      32.627  24.299  26.870  1.00  0.00     0.120 C 
ATOM     14  C   UNL A   1      30.802  22.120  26.127  1.00  0.00     0.035 C 
ATOM     15  C   UNL A   1      33.215  23.146  26.083  1.00  0.00     0.035 C 
BRANCH   9  16
ATOM     16  C   UNL A   1      31.463  26.834  25.475  1.00  0.00     0.051 C 
ATOM     17  C   UNL A   1      31.216  29.118  24.313  1.00  0.00    -0.003 C 
ATOM     18  C   UNL A   1      31.433  29.740  25.727  1.00  0.00     0.015 C 
ATOM     19  C   UNL A   1      30.630  27.710  24.524  1.00  0.00     0.028 C 
ATOM     20  C   UNL A   1      32.595  28.922  23.634  1.00  0.00     0.015 C 
ATOM     21  C   UNL A   1      32.399  28.896  26.581  1.00  0.00    -0.009 C 
ATOM     22  C   UNL A   1      33.504  28.025  24.503  1.00  0.00    -0.009 C 
ATOM     23  C   UNL A   1      33.736  28.730  25.847  1.00  0.00     0.007 C 
ATOM     24  C   UNL A   1      31.794  27.507  26.821  1.00  0.00     0.020 C 
ATOM     25  C   UNL A   1      32.834  26.649  24.751  1.00  0.00     0.020 C 
BRANCH  17  26
ATOM     26  C   UNL A   1      30.271  29.986  23.463  1.00  0.00    -0.042 A 
ATOM     27  C   UNL A   1      27.785  32.561  21.002  1.00  0.00     0.044 C 
ATOM     28  C   UNL A   1      28.629  31.652  21.841  1.00  0.00    -0.051 A 
ATOM     29  C   UNL A   1      28.820  31.946  23.187  1.00  0.00     0.004 A 
ATOM     30  C   UNL A   1      29.241  30.513  21.309  1.00  0.00     0.004 A 
ATOM     31  C   UNL A   1      29.617  31.122  23.984  1.00  0.00     0.004 A 
ATOM     32  C   UNL A   1      30.047  29.691  22.109  1.00  0.00     0.004 A 
ENDBRANCH  17  26
ENDBRANCH   9  16
ENDBRANCH   5   8
ENDBRANCH   3   4
ENDBRANCH   2   3
ENDBRANCH   1   2
BRANCH   1  33
ATOM     33  C   UNL A   1      38.416  22.710  25.514  1.00  0.00     0.116 C 
BRANCH  33  34
ATOM     34  N   UNL A   1      39.338  22.415  26.593  1.00  0.00    -0.352 N 
ATOM     35  C   UNL A   1      40.075  23.288  27.373  1.00  0.00     0.251 C 
ATOM     36  H   UNL A   1      39.456  21.459  26.799  1.00  0.00     0.163 HD
ATOM     37  O   UNL A   1      41.016  22.838  28.025  1.00  0.00    -0.269 OA
BRANCH  35  38
ATOM     38  C   UNL A   1      39.640  24.701  27.531  1.00  0.00     0.039 A 
ATOM     39  C   UNL A   1      40.184  25.645  26.649  1.00  0.00     0.014 A 
ATOM     40  C   UNL A   1      38.940  25.133  28.653  1.00  0.00     0.014 A 
ATOM     41  C   UNL A   1      40.283  26.977  27.037  1.00  0.00     0.010 A 
ATOM     42  C   UNL A   1      39.114  26.426  29.086  1.00  0.00     0.010 A 
ATOM     43  C   UNL A   1      39.859  27.319  28.314  1.00  0.00    -0.014 A 
BRANCH  43  44
ATOM     44  C   UNL A   1      40.149  28.575  28.975  1.00  0.00     0.031 A 
ATOM     45  C   UNL A   1      39.161  29.660  28.939  1.00  0.00     0.074 A 
ATOM     46  C   UNL A   1      41.212  28.610  29.809  1.00  0.00     0.049 A 
ATOM     47  N   UNL A   1      39.406  30.862  29.330  1.00  0.00    -0.248 NA
ATOM     48  C   UNL A   1      37.812  29.482  28.409  1.00  0.00     0.031 C 
ATOM     49  C   UNL A   1      41.455  29.532  30.909  1.00  0.00     0.029 A 
ATOM     50  N   UNL A   1      42.415  27.904  29.687  1.00  0.00    -0.354 N 
ATOM     51  C   UNL A   1      38.188  31.491  29.442  1.00  0.00     0.074 A 
ATOM     52  C   UNL A   1      37.274  30.673  28.690  1.00  0.00     0.031 C 
ATOM     53  C   UNL A   1      42.770  29.547  31.179  1.00  0.00     0.029 A 
ATOM     54  C   UNL A   1      43.418  28.789  30.122  1.00  0.00     0.049 A 
ATOM     55  H   UNL A   1      42.534  26.983  29.362  1.00  0.00     0.167 HD
ATOM     56  C   UNL A   1      38.074  32.519  30.325  1.00  0.00     0.034 A 
ATOM     57  C   UNL A   1      44.403  29.266  29.301  1.00  0.00     0.034 A 
ATOM     58  C   UNL A   1      39.402  32.960  30.782  1.00  0.00     0.049 A 
ATOM     59  C   UNL A   1      44.401  30.783  29.193  1.00  0.00     0.074 A 
ATOM     60  C   UNL A   1      40.103  32.809  31.965  1.00  0.00     0.029 A 
ATOM     61  N   UNL A   1      40.318  33.431  29.845  1.00  0.00    -0.354 N 
ATOM     62  N   UNL A   1      43.473  31.555  29.690  1.00  0.00    -0.248 NA
ATOM     63  C   UNL A   1      45.432  31.551  28.501  1.00  0.00     0.031 C 
ATOM     64  C   UNL A   1      41.478  33.072  31.694  1.00  0.00     0.029 A 
ATOM     65  C   UNL A   1      41.603  33.437  30.363  1.00  0.00     0.049 A 
ATOM     66  H   UNL A   1      40.083  33.722  28.933  1.00  0.00     0.167 HD
ATOM     67  C   UNL A   1      43.676  32.854  29.301  1.00  0.00     0.074 A 
ATOM     68  C   UNL A   1      44.965  32.806  28.629  1.00  0.00     0.031 C 
ATOM     69  C   UNL A   1      42.733  33.829  29.517  1.00  0.00     0.034 A 
BRANCH  56  70
ATOM     70  C   UNL A   1      36.777  33.010  30.955  1.00  0.00     0.023 A 
ATOM     71  C   UNL A   1      36.520  32.612  32.287  1.00  0.00     0.012 A 
ATOM     72  C   UNL A   1      35.735  33.735  30.320  1.00  0.00     0.148 A 
ATOM     73  C   UNL A   1      35.316  32.900  32.942  1.00  0.00     0.002 A 
ATOM     74  C   UNL A   1      34.562  34.087  30.998  1.00  0.00     0.091 A 
ATOM     75  F   UNL A   1      35.800  34.017  29.019  1.00  0.00    -0.205 F 
ATOM     76  C   UNL A   1      34.341  33.655  32.304  1.00  0.00     0.022 A 
BRANCH  74  77
ATOM     77  S   UNL A   1      33.285  35.116  30.244  1.00  0.00     0.127 S 
ATOM     78  O   UNL A   1      32.348  35.306  31.350  1.00  0.00    -0.237 OA
ATOM     79  O   UNL A   1      34.031  36.317  29.865  1.00  0.00    -0.237 OA
ATOM     80  O   UNL A   1      32.764  34.356  29.113  1.00  0.00    -0.744 OA
ENDBRANCH  74  77
ENDBRANCH  56  70
BRANCH  57  81
ATOM     81  C   UNL A   1      44.778  28.309  28.215  1.00  0.00     0.023 A 
ATOM     82  C   UNL A   1      43.888  28.222  27.115  1.00  0.00     0.012 A 
ATOM     83  C   UNL A   1      46.104  27.871  28.048  1.00  0.00     0.148 A 
ATOM     84  C   UNL A   1      44.351  27.876  25.845  1.00  0.00     0.002 A 
ATOM     85  C   UNL A   1      46.555  27.514  26.776  1.00  0.00     0.091 A 
ATOM     86  F   UNL A   1      46.925  27.888  29.105  1.00  0.00    -0.205 F 
ATOM     87  C   UNL A   1      45.694  27.565  25.667  1.00  0.00     0.022 A 
BRANCH  85  88
ATOM     88  S   UNL A   1      48.280  27.098  26.477  1.00  0.00     0.127 S 
ATOM     89  O   UNL A   1      48.351  27.168  25.021  1.00  0.00    -0.237 OA
ATOM     90  O   UNL A   1      48.992  28.165  27.177  1.00  0.00    -0.237 OA
ATOM     91  O   UNL A   1      48.450  25.780  27.072  1.00  0.00    -0.744 OA
ENDBRANCH  85  88
ENDBRANCH  57  81
BRANCH  69  92
ATOM     92  C   UNL A   1      42.754  35.240  28.937  1.00  0.00     0.023 A 
ATOM     93  C   UNL A   1      41.936  35.635  27.861  1.00  0.00     0.012 A 
ATOM     94  C   UNL A   1      43.513  36.270  29.557  1.00  0.00     0.148 A 
ATOM     95  C   UNL A   1      41.911  36.954  27.387  1.00  0.00     0.002 A 
ATOM     96  C   UNL A   1      43.393  37.600  29.159  1.00  0.00     0.091 A 
ATOM     97  F   UNL A   1      44.385  35.970  30.529  1.00  0.00    -0.205 F 
ATOM     98  C   UNL A   1      42.619  37.943  28.051  1.00  0.00     0.022 A 
BRANCH  96  99
ATOM     99  S   UNL A   1      44.090  38.932  30.151  1.00  0.00     0.127 S 
ATOM    100  O   UNL A   1      45.502  38.879  29.782  1.00  0.00    -0.237 OA
ATOM    101  O   UNL A   1      43.374  40.107  29.649  1.00  0.00    -0.237 OA
ATOM    102  O   UNL A   1      43.770  38.586  31.529  1.00  0.00    -0.744 OA
ENDBRANCH  96  99
ENDBRANCH  69  92
ENDBRANCH  43  44
ENDBRANCH  35  38
ENDBRANCH  33  34
ENDBRANCH   1  33
TORSDOF 16
ENDMDL
