MODEL 1
REMARK VINA RESULT:     -13.1      0.000      0.000
REMARK SMILES C[C@@H]1CCc2nc(NC(=O)[C@H]3CC=CC[C@@H]3C(=O)NCCCCNC(=O)c3ccc(-c4c5nc(c(-c6cccc(S(=O)(=O)[O-])c6F)c6ccc([nH]6)c(-c6cccc(S(=O)(=O)[O-])c6F)c6nc(c(-c7cccc(S(=O)(=O)[O-])c7F)c7ccc4[nH]7)C=C6)C=C5)cc3)sc2C1
REMARK SMILES IDX 22 1 21 2 20 3 19 4 17 5 18 6 16 8 11 9 12 10 13 11 15 12
REMARK SMILES IDX 14 13 9 14 8 15 10 17 7 18 1 19 2 20 3 21 92 22 4 23 91 24
REMARK SMILES IDX 5 25 90 26 6 27 23 28 24 29 25 30 26 32 27 33 28 34 89 35
REMARK SMILES IDX 29 36 88 37 30 38 31 39 32 40 82 41 33 42 87 43 81 44 83 45
REMARK SMILES IDX 34 46 86 47 80 48 79 49 35 51 67 52 47 53 66 54 48 55 51 56
REMARK SMILES IDX 65 57 84 58 49 59 50 60 64 62 85 63 52 64 36 65 37 66 45 67
REMARK SMILES IDX 38 68 40 69 46 70 39 71 41 72 42 73 43 74 44 75 68 76 69 77
REMARK SMILES IDX 77 78 70 79 72 80 78 81 71 82 73 83 74 84 75 85 76 86 53 87
REMARK SMILES IDX 54 88 62 89 55 90 57 91 63 92 56 93 58 94 59 95 60 96 61 97
REMARK H PARENT 19 7 8 16 24 31 83 50 51 61
REMARK Flexibility Score: inf
ROOT
ATOM      1  C   UNL A   1      38.162  20.421  25.025  1.00  0.00     0.023 C 
ENDROOT
BRANCH   1   2
ATOM      2  C   UNL A   1      37.473  21.714  24.556  1.00  0.00     0.023 C 
BRANCH   2   3
ATOM      3  C   UNL A   1      37.044  22.635  25.697  1.00  0.00     0.116 C 
BRANCH   3   4
ATOM      4  N   UNL A   1      35.985  22.066  26.493  1.00  0.00    -0.356 N 
ATOM      5  C   UNL A   1      34.744  21.626  26.171  1.00  0.00     0.224 C 
ATOM      6  O   UNL A   1      34.046  21.250  27.122  1.00  0.00    -0.275 OA
ATOM      7  H   UNL A   1      36.204  21.981  27.449  1.00  0.00     0.163 HD
BRANCH   5   8
ATOM      8  C   UNL A   1      34.120  21.808  24.777  1.00  0.00     0.095 C 
ATOM      9  C   UNL A   1      33.612  23.271  24.647  1.00  0.00     0.095 C 
ATOM     10  C   UNL A   1      32.297  23.398  25.500  1.00  0.00     0.041 C 
ATOM     11  C   UNL A   1      31.479  22.129  25.639  1.00  0.00    -0.030 C 
ATOM     12  C   UNL A   1      33.038  20.880  24.230  1.00  0.00     0.041 C 
ATOM     13  C   UNL A   1      31.802  20.972  25.045  1.00  0.00    -0.030 C 
BRANCH   9  14
ATOM     14  C   UNL A   1      33.412  23.770  23.195  1.00  0.00     0.230 C 
ATOM     15  N   UNL A   1      33.169  25.074  22.857  1.00  0.00    -0.302 N 
ATOM     16  H   UNL A   1      33.127  25.255  21.890  1.00  0.00     0.172 HD
ATOM     17  O   UNL A   1      33.477  22.986  22.239  1.00  0.00    -0.274 OA
BRANCH  15  18
ATOM     18  C   UNL A   1      32.977  26.159  23.660  1.00  0.00     0.189 A 
ATOM     19  C   UNL A   1      31.988  30.698  26.702  1.00  0.00     0.008 C 
ATOM     20  C   UNL A   1      32.169  29.274  27.220  1.00  0.00    -0.009 C 
ATOM     21  C   UNL A   1      33.674  28.911  27.336  1.00  0.00     0.010 C 
ATOM     22  C   UNL A   1      31.318  28.271  26.401  1.00  0.00     0.052 C 
ATOM     23  C   UNL A   1      34.365  28.472  26.035  1.00  0.00     0.058 C 
ATOM     24  C   UNL A   1      32.092  27.666  25.284  1.00  0.00     0.030 A 
ATOM     25  C   UNL A   1      33.463  27.698  25.138  1.00  0.00     0.057 A 
ATOM     26  S   UNL A   1      31.396  26.693  24.057  1.00  0.00    -0.101 S 
ATOM     27  N   UNL A   1      33.962  26.893  24.130  1.00  0.00    -0.225 NA
ENDBRANCH  15  18
ENDBRANCH   9  14
ENDBRANCH   5   8
ENDBRANCH   3   4
ENDBRANCH   2   3
ENDBRANCH   1   2
BRANCH   1  28
ATOM     28  C   UNL A   1      39.315  20.616  26.003  1.00  0.00     0.116 C 
BRANCH  28  29
ATOM     29  N   UNL A   1      40.316  19.537  25.926  1.00  0.00    -0.352 N 
ATOM     30  C   UNL A   1      41.705  19.639  25.906  1.00  0.00     0.251 C 
ATOM     31  H   UNL A   1      39.955  18.622  25.883  1.00  0.00     0.163 HD
ATOM     32  O   UNL A   1      42.410  18.750  25.484  1.00  0.00    -0.269 OA
BRANCH  30  33
ATOM     33  C   UNL A   1      42.282  20.871  26.469  1.00  0.00     0.039 A 
ATOM     34  C   UNL A   1      42.634  21.972  25.685  1.00  0.00     0.014 A 
ATOM     35  C   UNL A   1      42.266  20.938  27.853  1.00  0.00     0.014 A 
ATOM     36  C   UNL A   1      42.856  23.190  26.325  1.00  0.00     0.010 A 
ATOM     37  C   UNL A   1      42.223  22.170  28.431  1.00  0.00     0.010 A 
ATOM     38  C   UNL A   1      42.605  23.288  27.702  1.00  0.00    -0.014 A 
BRANCH  38  39
ATOM     39  C   UNL A   1      42.572  24.562  28.408  1.00  0.00     0.031 A 
ATOM     40  C   UNL A   1      41.329  25.344  28.182  1.00  0.00     0.074 A 
ATOM     41  C   UNL A   1      43.462  24.873  29.379  1.00  0.00     0.049 A 
ATOM     42  N   UNL A   1      41.182  26.372  27.413  1.00  0.00    -0.248 NA
ATOM     43  C   UNL A   1      40.060  24.805  28.695  1.00  0.00     0.031 C 
ATOM     44  C   UNL A   1      44.532  24.032  29.945  1.00  0.00     0.029 A 
ATOM     45  N   UNL A   1      43.510  25.970  30.176  1.00  0.00    -0.354 N 
ATOM     46  C   UNL A   1      39.862  26.779  27.595  1.00  0.00     0.074 A 
ATOM     47  C   UNL A   1      39.178  25.637  28.135  1.00  0.00     0.031 C 
ATOM     48  C   UNL A   1      44.928  24.533  31.134  1.00  0.00     0.029 A 
ATOM     49  C   UNL A   1      44.305  25.827  31.308  1.00  0.00     0.049 A 
ATOM     50  H   UNL A   1      43.021  26.799  29.969  1.00  0.00     0.167 HD
ATOM     51  C   UNL A   1      39.538  28.104  27.599  1.00  0.00     0.034 A 
ATOM     52  C   UNL A   1      44.430  26.708  32.329  1.00  0.00     0.034 A 
ATOM     53  C   UNL A   1      40.640  28.895  27.092  1.00  0.00     0.049 A 
ATOM     54  C   UNL A   1      43.998  28.022  31.804  1.00  0.00     0.074 A 
ATOM     55  C   UNL A   1      41.370  28.930  25.920  1.00  0.00     0.029 A 
ATOM     56  N   UNL A   1      41.408  29.538  28.036  1.00  0.00    -0.354 N 
ATOM     57  N   UNL A   1      44.628  28.654  30.851  1.00  0.00    -0.248 NA
ATOM     58  C   UNL A   1      42.615  28.413  32.008  1.00  0.00     0.031 C 
ATOM     59  C   UNL A   1      42.715  29.173  26.332  1.00  0.00     0.029 A 
ATOM     60  C   UNL A   1      42.727  29.359  27.717  1.00  0.00     0.049 A 
ATOM     61  H   UNL A   1      41.067  30.041  28.809  1.00  0.00     0.167 HD
ATOM     62  C   UNL A   1      43.615  29.157  30.046  1.00  0.00     0.074 A 
ATOM     63  C   UNL A   1      42.410  29.088  30.873  1.00  0.00     0.031 C 
ATOM     64  C   UNL A   1      43.791  29.295  28.698  1.00  0.00     0.034 A 
BRANCH  51  65
ATOM     65  C   UNL A   1      38.452  28.750  28.448  1.00  0.00     0.023 A 
ATOM     66  C   UNL A   1      37.578  29.644  27.782  1.00  0.00     0.012 A 
ATOM     67  C   UNL A   1      38.408  28.768  29.861  1.00  0.00     0.148 A 
ATOM     68  C   UNL A   1      36.792  30.569  28.477  1.00  0.00     0.002 A 
ATOM     69  C   UNL A   1      37.577  29.646  30.550  1.00  0.00     0.091 A 
ATOM     70  F   UNL A   1      39.248  28.022  30.576  1.00  0.00    -0.205 F 
ATOM     71  C   UNL A   1      36.795  30.575  29.864  1.00  0.00     0.022 A 
BRANCH  69  72
ATOM     72  S   UNL A   1      37.518  29.673  32.349  1.00  0.00     0.127 S 
ATOM     73  O   UNL A   1      38.779  30.337  32.669  1.00  0.00    -0.237 OA
ATOM     74  O   UNL A   1      36.315  30.467  32.595  1.00  0.00    -0.237 OA
ATOM     75  O   UNL A   1      37.408  28.279  32.762  1.00  0.00    -0.744 OA
ENDBRANCH  69  72
ENDBRANCH  51  65
BRANCH  52  76
ATOM     76  C   UNL A   1      44.659  26.465  33.770  1.00  0.00     0.023 A 
ATOM     77  C   UNL A   1      45.934  26.686  34.326  1.00  0.00     0.012 A 
ATOM     78  C   UNL A   1      43.566  26.302  34.651  1.00  0.00     0.148 A 
ATOM     79  C   UNL A   1      46.109  26.782  35.713  1.00  0.00     0.002 A 
ATOM     80  C   UNL A   1      43.746  26.393  36.029  1.00  0.00     0.091 A 
ATOM     81  F   UNL A   1      42.340  26.148  34.133  1.00  0.00    -0.205 F 
ATOM     82  C   UNL A   1      45.016  26.648  36.563  1.00  0.00     0.022 A 
BRANCH  80  83
ATOM     83  S   UNL A   1      42.376  26.257  37.185  1.00  0.00     0.127 S 
ATOM     84  O   UNL A   1      41.896  24.901  36.923  1.00  0.00    -0.237 OA
ATOM     85  O   UNL A   1      43.051  26.434  38.469  1.00  0.00    -0.237 OA
ATOM     86  O   UNL A   1      41.441  27.310  36.808  1.00  0.00    -0.744 OA
ENDBRANCH  80  83
ENDBRANCH  52  76
BRANCH  64  87
ATOM     87  C   UNL A   1      45.190  29.136  28.146  1.00  0.00     0.023 A 
ATOM     88  C   UNL A   1      46.181  30.132  28.282  1.00  0.00     0.012 A 
ATOM     89  C   UNL A   1      45.562  27.877  27.646  1.00  0.00     0.148 A 
ATOM     90  C   UNL A   1      47.508  29.881  27.918  1.00  0.00     0.002 A 
ATOM     91  C   UNL A   1      46.889  27.616  27.330  1.00  0.00     0.091 A 
ATOM     92  F   UNL A   1      44.609  26.941  27.528  1.00  0.00    -0.205 F 
ATOM     93  C   UNL A   1      47.865  28.617  27.455  1.00  0.00     0.022 A 
BRANCH  91  94
ATOM     94  S   UNL A   1      47.436  25.975  26.853  1.00  0.00     0.127 S 
ATOM     95  O   UNL A   1      47.075  25.181  28.026  1.00  0.00    -0.237 OA
ATOM     96  O   UNL A   1      46.629  25.712  25.662  1.00  0.00    -0.237 OA
ATOM     97  O   UNL A   1      48.866  26.086  26.592  1.00  0.00    -0.744 OA
ENDBRANCH  91  94
ENDBRANCH  64  87
ENDBRANCH  38  39
ENDBRANCH  30  33
ENDBRANCH  28  29
ENDBRANCH   1  28
TORSDOF 16
ENDMDL
MODEL 2
REMARK VINA RESULT:     -13.0      1.385      1.616
REMARK SMILES C[C@@H]1CCc2nc(NC(=O)[C@H]3CC=CC[C@@H]3C(=O)NCCCCNC(=O)c3ccc(-c4c5nc(c(-c6cccc(S(=O)(=O)[O-])c6F)c6ccc([nH]6)c(-c6cccc(S(=O)(=O)[O-])c6F)c6nc(c(-c7cccc(S(=O)(=O)[O-])c7F)c7ccc4[nH]7)C=C6)C=C5)cc3)sc2C1
REMARK SMILES IDX 22 1 21 2 20 3 19 4 17 5 18 6 16 8 11 9 12 10 13 11 15 12
REMARK SMILES IDX 14 13 9 14 8 15 10 17 7 18 1 19 2 20 3 21 92 22 4 23 91 24
REMARK SMILES IDX 5 25 90 26 6 27 23 28 24 29 25 30 26 32 27 33 28 34 89 35
REMARK SMILES IDX 29 36 88 37 30 38 31 39 32 40 82 41 33 42 87 43 81 44 83 45
REMARK SMILES IDX 34 46 86 47 80 48 79 49 35 51 67 52 47 53 66 54 48 55 51 56
REMARK SMILES IDX 65 57 84 58 49 59 50 60 64 62 85 63 52 64 36 65 37 66 45 67
REMARK SMILES IDX 38 68 40 69 46 70 39 71 41 72 42 73 43 74 44 75 68 76 69 77
REMARK SMILES IDX 77 78 70 79 72 80 78 81 71 82 73 83 74 84 75 85 76 86 53 87
REMARK SMILES IDX 54 88 62 89 55 90 57 91 63 92 56 93 58 94 59 95 60 96 61 97
REMARK H PARENT 19 7 8 16 24 31 83 50 51 61
REMARK Flexibility Score: inf
ROOT
ATOM      1  C   UNL A   1      38.149  20.219  25.229  1.00  0.00     0.023 C 
ENDROOT
BRANCH   1   2
ATOM      2  C   UNL A   1      37.395  21.385  24.566  1.00  0.00     0.023 C 
BRANCH   2   3
ATOM      3  C   UNL A   1      36.847  22.409  25.557  1.00  0.00     0.116 C 
BRANCH   3   4
ATOM      4  N   UNL A   1      35.824  21.856  26.409  1.00  0.00    -0.356 N 
ATOM      5  C   UNL A   1      34.533  21.513  26.173  1.00  0.00     0.224 C 
ATOM      6  O   UNL A   1      33.896  21.121  27.158  1.00  0.00    -0.275 OA
ATOM      7  H   UNL A   1      36.116  21.698  27.336  1.00  0.00     0.163 HD
BRANCH   5   8
ATOM      8  C   UNL A   1      33.808  21.821  24.853  1.00  0.00     0.095 C 
ATOM      9  C   UNL A   1      33.747  23.363  24.666  1.00  0.00     0.095 C 
ATOM     10  C   UNL A   1      32.660  23.922  25.655  1.00  0.00     0.041 C 
ATOM     11  C   UNL A   1      31.527  22.971  25.991  1.00  0.00    -0.030 C 
ATOM     12  C   UNL A   1      32.433  21.248  24.514  1.00  0.00     0.041 C 
ATOM     13  C   UNL A   1      31.406  21.748  25.459  1.00  0.00    -0.030 C 
BRANCH   9  14
ATOM     14  C   UNL A   1      33.508  23.839  23.212  1.00  0.00     0.230 C 
ATOM     15  N   UNL A   1      33.226  25.132  22.863  1.00  0.00    -0.302 N 
ATOM     16  H   UNL A   1      33.162  25.300  21.895  1.00  0.00     0.172 HD
ATOM     17  O   UNL A   1      33.576  23.045  22.264  1.00  0.00    -0.274 OA
BRANCH  15  18
ATOM     18  C   UNL A   1      33.021  26.221  23.657  1.00  0.00     0.189 A 
ATOM     19  C   UNL A   1      31.986  30.779  26.657  1.00  0.00     0.008 C 
ATOM     20  C   UNL A   1      32.145  29.355  27.184  1.00  0.00    -0.009 C 
ATOM     21  C   UNL A   1      33.645  28.985  27.339  1.00  0.00     0.010 C 
ATOM     22  C   UNL A   1      31.309  28.354  26.349  1.00  0.00     0.052 C 
ATOM     23  C   UNL A   1      34.365  28.536  26.056  1.00  0.00     0.058 C 
ATOM     24  C   UNL A   1      32.106  27.740  25.253  1.00  0.00     0.030 A 
ATOM     25  C   UNL A   1      33.480  27.764  25.141  1.00  0.00     0.057 A 
ATOM     26  S   UNL A   1      31.434  26.766  24.014  1.00  0.00    -0.101 S 
ATOM     27  N   UNL A   1      33.999  26.951  24.149  1.00  0.00    -0.225 NA
ENDBRANCH  15  18
ENDBRANCH   9  14
ENDBRANCH   5   8
ENDBRANCH   3   4
ENDBRANCH   2   3
ENDBRANCH   1   2
BRANCH   1  28
ATOM     28  C   UNL A   1      39.435  20.603  25.952  1.00  0.00     0.116 C 
BRANCH  28  29
ATOM     29  N   UNL A   1      40.450  19.534  25.914  1.00  0.00    -0.352 N 
ATOM     30  C   UNL A   1      41.837  19.653  25.914  1.00  0.00     0.251 C 
ATOM     31  H   UNL A   1      40.101  18.615  25.886  1.00  0.00     0.163 HD
ATOM     32  O   UNL A   1      42.561  18.764  25.523  1.00  0.00    -0.269 OA
BRANCH  30  33
ATOM     33  C   UNL A   1      42.390  20.905  26.460  1.00  0.00     0.039 A 
ATOM     34  C   UNL A   1      42.663  22.023  25.668  1.00  0.00     0.014 A 
ATOM     35  C   UNL A   1      42.435  20.964  27.843  1.00  0.00     0.014 A 
ATOM     36  C   UNL A   1      42.866  23.245  26.306  1.00  0.00     0.010 A 
ATOM     37  C   UNL A   1      42.370  22.190  28.431  1.00  0.00     0.010 A 
ATOM     38  C   UNL A   1      42.673  23.325  27.695  1.00  0.00    -0.014 A 
BRANCH  38  39
ATOM     39  C   UNL A   1      42.622  24.594  28.410  1.00  0.00     0.031 A 
ATOM     40  C   UNL A   1      41.379  25.371  28.172  1.00  0.00     0.074 A 
ATOM     41  C   UNL A   1      43.496  24.901  29.397  1.00  0.00     0.049 A 
ATOM     42  N   UNL A   1      41.238  26.404  27.408  1.00  0.00    -0.248 NA
ATOM     43  C   UNL A   1      40.105  24.819  28.660  1.00  0.00     0.031 C 
ATOM     44  C   UNL A   1      44.562  24.061  29.972  1.00  0.00     0.029 A 
ATOM     45  N   UNL A   1      43.525  25.991  30.204  1.00  0.00    -0.354 N 
ATOM     46  C   UNL A   1      39.913  26.802  27.573  1.00  0.00     0.074 A 
ATOM     47  C   UNL A   1      39.227  25.652  28.094  1.00  0.00     0.031 C 
ATOM     48  C   UNL A   1      44.936  24.555  31.172  1.00  0.00     0.029 A 
ATOM     49  C   UNL A   1      44.303  25.844  31.347  1.00  0.00     0.049 A 
ATOM     50  H   UNL A   1      43.034  26.820  29.997  1.00  0.00     0.167 HD
ATOM     51  C   UNL A   1      39.581  28.125  27.584  1.00  0.00     0.034 A 
ATOM     52  C   UNL A   1      44.408  26.717  32.377  1.00  0.00     0.034 A 
ATOM     53  C   UNL A   1      40.686  28.926  27.100  1.00  0.00     0.049 A 
ATOM     54  C   UNL A   1      43.976  28.033  31.856  1.00  0.00     0.074 A 
ATOM     55  C   UNL A   1      41.433  28.975  25.941  1.00  0.00     0.029 A 
ATOM     56  N   UNL A   1      41.435  29.566  28.061  1.00  0.00    -0.354 N 
ATOM     57  N   UNL A   1      44.617  28.676  30.919  1.00  0.00    -0.248 NA
ATOM     58  C   UNL A   1      42.587  28.414  32.043  1.00  0.00     0.031 C 
ATOM     59  C   UNL A   1      42.771  29.223  26.375  1.00  0.00     0.029 A 
ATOM     60  C   UNL A   1      42.760  29.397  27.761  1.00  0.00     0.049 A 
ATOM     61  H   UNL A   1      41.079  30.060  28.834  1.00  0.00     0.167 HD
ATOM     62  C   UNL A   1      43.613  29.180  30.102  1.00  0.00     0.074 A 
ATOM     63  C   UNL A   1      42.396  29.097  30.910  1.00  0.00     0.031 C 
ATOM     64  C   UNL A   1      43.809  29.330  28.759  1.00  0.00     0.034 A 
BRANCH  51  65
ATOM     65  C   UNL A   1      38.478  28.757  28.421  1.00  0.00     0.023 A 
ATOM     66  C   UNL A   1      37.606  29.648  27.748  1.00  0.00     0.012 A 
ATOM     67  C   UNL A   1      38.415  28.768  29.833  1.00  0.00     0.148 A 
ATOM     68  C   UNL A   1      36.803  30.563  28.437  1.00  0.00     0.002 A 
ATOM     69  C   UNL A   1      37.568  29.636  30.516  1.00  0.00     0.091 A 
ATOM     70  F   UNL A   1      39.251  28.025  30.557  1.00  0.00    -0.205 F 
ATOM     71  C   UNL A   1      36.787  30.562  29.824  1.00  0.00     0.022 A 
BRANCH  69  72
ATOM     72  S   UNL A   1      37.484  29.652  32.314  1.00  0.00     0.127 S 
ATOM     73  O   UNL A   1      38.724  30.346  32.653  1.00  0.00    -0.237 OA
ATOM     74  O   UNL A   1      36.259  30.416  32.547  1.00  0.00    -0.237 OA
ATOM     75  O   UNL A   1      37.403  28.255  32.719  1.00  0.00    -0.744 OA
ENDBRANCH  69  72
ENDBRANCH  51  65
BRANCH  52  76
ATOM     76  C   UNL A   1      44.615  26.463  33.820  1.00  0.00     0.023 A 
ATOM     77  C   UNL A   1      45.873  26.710  34.402  1.00  0.00     0.012 A 
ATOM     78  C   UNL A   1      43.510  26.262  34.678  1.00  0.00     0.148 A 
ATOM     79  C   UNL A   1      46.021  26.794  35.793  1.00  0.00     0.002 A 
ATOM     80  C   UNL A   1      43.663  26.341  36.059  1.00  0.00     0.091 A 
ATOM     81  F   UNL A   1      42.298  26.084  34.135  1.00  0.00    -0.205 F 
ATOM     82  C   UNL A   1      44.915  26.622  36.620  1.00  0.00     0.022 A 
BRANCH  80  83
ATOM     83  S   UNL A   1      42.275  26.158  37.188  1.00  0.00     0.127 S 
ATOM     84  O   UNL A   1      42.929  26.289  38.490  1.00  0.00    -0.237 OA
ATOM     85  O   UNL A   1      41.430  27.287  36.808  1.00  0.00    -0.237 OA
ATOM     86  O   UNL A   1      41.727  24.834  36.922  1.00  0.00    -0.744 OA
ENDBRANCH  80  83
ENDBRANCH  52  76
BRANCH  64  87
ATOM     87  C   UNL A   1      45.217  29.185  28.227  1.00  0.00     0.023 A 
ATOM     88  C   UNL A   1      45.711  27.974  27.693  1.00  0.00     0.012 A 
ATOM     89  C   UNL A   1      45.993  30.348  28.090  1.00  0.00     0.148 A 
ATOM     90  C   UNL A   1      46.952  27.924  27.050  1.00  0.00     0.002 A 
ATOM     91  C   UNL A   1      47.203  30.304  27.410  1.00  0.00     0.091 A 
ATOM     92  F   UNL A   1      45.507  31.491  28.597  1.00  0.00    -0.205 F 
ATOM     93  C   UNL A   1      47.692  29.093  26.896  1.00  0.00     0.022 A 
BRANCH  91  94
ATOM     94  S   UNL A   1      48.141  31.794  27.063  1.00  0.00     0.127 S 
ATOM     95  O   UNL A   1      48.295  32.374  28.396  1.00  0.00    -0.237 OA
ATOM     96  O   UNL A   1      49.372  31.259  26.481  1.00  0.00    -0.237 OA
ATOM     97  O   UNL A   1      47.331  32.574  26.134  1.00  0.00    -0.744 OA
ENDBRANCH  91  94
ENDBRANCH  64  87
ENDBRANCH  38  39
ENDBRANCH  30  33
ENDBRANCH  28  29
ENDBRANCH   1  28
TORSDOF 16
ENDMDL
MODEL 3
REMARK VINA RESULT:     -12.8      3.793      9.333
REMARK SMILES C[C@@H]1CCc2nc(NC(=O)[C@H]3CC=CC[C@@H]3C(=O)NCCCCNC(=O)c3ccc(-c4c5nc(c(-c6cccc(S(=O)(=O)[O-])c6F)c6ccc([nH]6)c(-c6cccc(S(=O)(=O)[O-])c6F)c6nc(c(-c7cccc(S(=O)(=O)[O-])c7F)c7ccc4[nH]7)C=C6)C=C5)cc3)sc2C1
REMARK SMILES IDX 22 1 21 2 20 3 19 4 17 5 18 6 16 8 11 9 12 10 13 11 15 12
REMARK SMILES IDX 14 13 9 14 8 15 10 17 7 18 1 19 2 20 3 21 92 22 4 23 91 24
REMARK SMILES IDX 5 25 90 26 6 27 23 28 24 29 25 30 26 32 27 33 28 34 89 35
REMARK SMILES IDX 29 36 88 37 30 38 31 39 32 40 82 41 33 42 87 43 81 44 83 45
REMARK SMILES IDX 34 46 86 47 80 48 79 49 35 51 67 52 47 53 66 54 48 55 51 56
REMARK SMILES IDX 65 57 84 58 49 59 50 60 64 62 85 63 52 64 36 65 37 66 45 67
REMARK SMILES IDX 38 68 40 69 46 70 39 71 41 72 42 73 43 74 44 75 68 76 69 77
REMARK SMILES IDX 77 78 70 79 72 80 78 81 71 82 73 83 74 84 75 85 76 86 53 87
REMARK SMILES IDX 54 88 62 89 55 90 57 91 63 92 56 93 58 94 59 95 60 96 61 97
REMARK H PARENT 19 7 8 16 24 31 83 50 51 61
REMARK Flexibility Score: inf
ROOT
ATOM      1  C   UNL A   1      31.836  31.602  27.034  1.00  0.00     0.023 C 
ENDROOT
BRANCH   1   2
ATOM      2  C   UNL A   1      32.040  30.604  25.881  1.00  0.00     0.023 C 
BRANCH   2   3
ATOM      3  C   UNL A   1      32.969  29.442  26.226  1.00  0.00     0.116 C 
BRANCH   3   4
ATOM      4  N   UNL A   1      33.609  28.886  25.060  1.00  0.00    -0.356 N 
ATOM      5  C   UNL A   1      33.229  27.916  24.192  1.00  0.00     0.224 C 
ATOM      6  O   UNL A   1      34.057  27.625  23.320  1.00  0.00    -0.275 OA
ATOM      7  H   UNL A   1      34.486  29.284  24.855  1.00  0.00     0.163 HD
BRANCH   5   8
ATOM      8  C   UNL A   1      31.983  27.040  24.401  1.00  0.00     0.095 C 
ATOM      9  C   UNL A   1      31.789  26.142  23.147  1.00  0.00     0.095 C 
ATOM     10  C   UNL A   1      31.234  27.050  21.990  1.00  0.00     0.041 C 
ATOM     11  C   UNL A   1      30.403  28.241  22.430  1.00  0.00    -0.030 C 
ATOM     12  C   UNL A   1      30.623  27.619  24.784  1.00  0.00     0.041 C 
ATOM     13  C   UNL A   1      30.103  28.500  23.710  1.00  0.00    -0.030 C 
BRANCH   9  14
ATOM     14  C   UNL A   1      30.913  24.885  23.369  1.00  0.00     0.230 C 
ATOM     15  N   UNL A   1      31.391  23.685  23.822  1.00  0.00    -0.302 N 
ATOM     16  H   UNL A   1      30.708  22.993  23.976  1.00  0.00     0.172 HD
ATOM     17  O   UNL A   1      29.695  24.913  23.149  1.00  0.00    -0.274 OA
BRANCH  15  18
ATOM     18  C   UNL A   1      32.673  23.307  24.094  1.00  0.00     0.189 A 
ATOM     19  C   UNL A   1      37.836  21.488  25.025  1.00  0.00     0.008 C 
ATOM     20  C   UNL A   1      37.412  22.926  24.744  1.00  0.00    -0.009 C 
ATOM     21  C   UNL A   1      36.882  23.611  26.033  1.00  0.00     0.010 C 
ATOM     22  C   UNL A   1      36.456  22.999  23.528  1.00  0.00     0.052 C 
ATOM     23  C   UNL A   1      35.422  23.307  26.408  1.00  0.00     0.058 C 
ATOM     24  C   UNL A   1      35.026  22.952  23.938  1.00  0.00     0.030 A 
ATOM     25  C   UNL A   1      34.545  23.147  25.216  1.00  0.00     0.057 A 
ATOM     26  S   UNL A   1      33.722  22.788  22.839  1.00  0.00    -0.101 S 
ATOM     27  N   UNL A   1      33.169  23.256  25.310  1.00  0.00    -0.225 NA
ENDBRANCH  15  18
ENDBRANCH   9  14
ENDBRANCH   5   8
ENDBRANCH   3   4
ENDBRANCH   2   3
ENDBRANCH   1   2
BRANCH   1  28
ATOM     28  C   UNL A   1      33.064  32.426  27.406  1.00  0.00     0.116 C 
BRANCH  28  29
ATOM     29  N   UNL A   1      32.729  33.812  27.777  1.00  0.00    -0.352 N 
ATOM     30  C   UNL A   1      33.182  34.555  28.864  1.00  0.00     0.251 C 
ATOM     31  H   UNL A   1      32.101  34.275  27.176  1.00  0.00     0.163 HD
ATOM     32  O   UNL A   1      32.586  35.526  29.275  1.00  0.00    -0.269 OA
BRANCH  30  33
ATOM     33  C   UNL A   1      34.455  34.128  29.468  1.00  0.00     0.039 A 
ATOM     34  C   UNL A   1      34.537  33.131  30.442  1.00  0.00     0.014 A 
ATOM     35  C   UNL A   1      35.587  34.644  28.858  1.00  0.00     0.014 A 
ATOM     36  C   UNL A   1      35.786  32.572  30.708  1.00  0.00     0.010 A 
ATOM     37  C   UNL A   1      36.737  33.919  28.931  1.00  0.00     0.010 A 
ATOM     38  C   UNL A   1      36.879  32.948  29.911  1.00  0.00    -0.014 A 
BRANCH  38  39
ATOM     39  C   UNL A   1      38.157  32.248  29.949  1.00  0.00     0.031 A 
ATOM     40  C   UNL A   1      38.124  30.899  29.329  1.00  0.00     0.074 A 
ATOM     41  C   UNL A   1      39.313  32.874  30.272  1.00  0.00     0.049 A 
ATOM     42  N   UNL A   1      38.087  29.759  29.939  1.00  0.00    -0.248 NA
ATOM     43  C   UNL A   1      37.890  30.800  27.880  1.00  0.00     0.031 C 
ATOM     44  C   UNL A   1      39.532  34.302  30.563  1.00  0.00     0.029 A 
ATOM     45  N   UNL A   1      40.578  32.386  30.269  1.00  0.00    -0.354 N 
ATOM     46  C   UNL A   1      38.133  28.802  28.928  1.00  0.00     0.074 A 
ATOM     47  C   UNL A   1      37.718  29.483  27.732  1.00  0.00     0.031 C 
ATOM     48  C   UNL A   1      40.843  34.598  30.444  1.00  0.00     0.029 A 
ATOM     49  C   UNL A   1      41.573  33.359  30.285  1.00  0.00     0.049 A 
ATOM     50  H   UNL A   1      40.777  31.421  30.256  1.00  0.00     0.167 HD
ATOM     51  C   UNL A   1      38.824  27.640  29.103  1.00  0.00     0.034 A 
ATOM     52  C   UNL A   1      42.906  33.159  30.160  1.00  0.00     0.034 A 
ATOM     53  C   UNL A   1      39.166  27.461  30.500  1.00  0.00     0.049 A 
ATOM     54  C   UNL A   1      43.153  31.744  30.513  1.00  0.00     0.074 A 
ATOM     55  C   UNL A   1      38.461  27.390  31.684  1.00  0.00     0.029 A 
ATOM     56  N   UNL A   1      40.463  27.762  30.848  1.00  0.00    -0.354 N 
ATOM     57  N   UNL A   1      42.939  31.256  31.705  1.00  0.00    -0.248 NA
ATOM     58  C   UNL A   1      43.192  30.772  29.435  1.00  0.00     0.031 C 
ATOM     59  C   UNL A   1      39.258  28.102  32.630  1.00  0.00     0.029 A 
ATOM     60  C   UNL A   1      40.442  28.497  32.002  1.00  0.00     0.049 A 
ATOM     61  H   UNL A   1      41.269  27.494  30.351  1.00  0.00     0.167 HD
ATOM     62  C   UNL A   1      42.353  30.020  31.469  1.00  0.00     0.074 A 
ATOM     63  C   UNL A   1      42.652  29.725  30.067  1.00  0.00     0.031 C 
ATOM     64  C   UNL A   1      41.432  29.501  32.335  1.00  0.00     0.034 A 
BRANCH  51  65
ATOM     65  C   UNL A   1      39.584  26.885  28.021  1.00  0.00     0.023 A 
ATOM     66  C   UNL A   1      39.381  25.485  27.966  1.00  0.00     0.012 A 
ATOM     67  C   UNL A   1      40.669  27.391  27.268  1.00  0.00     0.148 A 
ATOM     68  C   UNL A   1      40.263  24.633  27.293  1.00  0.00     0.002 A 
ATOM     69  C   UNL A   1      41.508  26.547  26.547  1.00  0.00     0.091 A 
ATOM     70  F   UNL A   1      40.988  28.683  27.320  1.00  0.00    -0.205 F 
ATOM     71  C   UNL A   1      41.333  25.163  26.586  1.00  0.00     0.022 A 
BRANCH  69  72
ATOM     72  S   UNL A   1      42.889  27.186  25.586  1.00  0.00     0.127 S 
ATOM     73  O   UNL A   1      43.730  27.755  26.635  1.00  0.00    -0.237 OA
ATOM     74  O   UNL A   1      43.407  25.968  24.964  1.00  0.00    -0.237 OA
ATOM     75  O   UNL A   1      42.311  28.137  24.646  1.00  0.00    -0.744 OA
ENDBRANCH  69  72
ENDBRANCH  51  65
BRANCH  52  76
ATOM     76  C   UNL A   1      43.940  34.013  29.535  1.00  0.00     0.023 A 
ATOM     77  C   UNL A   1      44.831  34.744  30.345  1.00  0.00     0.012 A 
ATOM     78  C   UNL A   1      44.240  33.884  28.160  1.00  0.00     0.148 A 
ATOM     79  C   UNL A   1      46.005  35.294  29.812  1.00  0.00     0.002 A 
ATOM     80  C   UNL A   1      45.405  34.437  27.634  1.00  0.00     0.091 A 
ATOM     81  F   UNL A   1      43.430  33.144  27.392  1.00  0.00    -0.205 F 
ATOM     82  C   UNL A   1      46.297  35.131  28.462  1.00  0.00     0.022 A 
BRANCH  80  83
ATOM     83  S   UNL A   1      45.862  34.243  25.906  1.00  0.00     0.127 S 
ATOM     84  O   UNL A   1      46.234  32.829  25.851  1.00  0.00    -0.237 OA
ATOM     85  O   UNL A   1      44.613  34.577  25.228  1.00  0.00    -0.237 OA
ATOM     86  O   UNL A   1      46.970  35.165  25.689  1.00  0.00    -0.744 OA
ENDBRANCH  80  83
ENDBRANCH  52  76
BRANCH  64  87
ATOM     87  C   UNL A   1      41.263  30.176  33.677  1.00  0.00     0.023 A 
ATOM     88  C   UNL A   1      42.199  30.036  34.725  1.00  0.00     0.012 A 
ATOM     89  C   UNL A   1      40.234  31.122  33.814  1.00  0.00     0.148 A 
ATOM     90  C   UNL A   1      42.102  30.812  35.885  1.00  0.00     0.002 A 
ATOM     91  C   UNL A   1      40.169  31.925  34.946  1.00  0.00     0.091 A 
ATOM     92  F   UNL A   1      39.357  31.247  32.807  1.00  0.00    -0.205 F 
ATOM     93  C   UNL A   1      41.094  31.767  35.989  1.00  0.00     0.022 A 
BRANCH  91  94
ATOM     94  S   UNL A   1      38.978  33.259  35.084  1.00  0.00     0.127 S 
ATOM     95  O   UNL A   1      39.322  34.095  33.936  1.00  0.00    -0.237 OA
ATOM     96  O   UNL A   1      37.703  32.552  34.968  1.00  0.00    -0.237 OA
ATOM     97  O   UNL A   1      39.205  33.869  36.389  1.00  0.00    -0.744 OA
ENDBRANCH  91  94
ENDBRANCH  64  87
ENDBRANCH  38  39
ENDBRANCH  30  33
ENDBRANCH  28  29
ENDBRANCH   1  28
TORSDOF 16
ENDMDL
