MODEL 1
REMARK VINA RESULT:     -11.5      0.000      0.000
REMARK SMILES NNC(=O)c1cccc([N+](=O)[O-])c1C(=O)NCCCCNC(=O)c1ccc(-c2c3nc(c(-c4cccc(S(=O)(=O)[O-])c4F)c4ccc([nH]4)c(-c4cccc(S(=O)(=O)[O-])c4F)c4nc(c(-c5cccc(S(=O)(=O)[O-])c5F)c5ccc2[nH]5)C=C4)C=C3)cc1
REMARK SMILES IDX 19 1 18 2 17 3 16 4 14 5 15 6 13 8 5 9 6 10 7 11 9 12 8 13
REMARK SMILES IDX 3 14 2 15 4 17 1 18 10 21 11 22 12 23 20 24 21 25 22 26
REMARK SMILES IDX 23 28 24 29 25 30 86 31 26 32 85 33 27 34 28 35 29 36 79 37
REMARK SMILES IDX 30 38 84 39 78 40 80 41 31 42 83 43 77 44 76 45 32 47 64 48
REMARK SMILES IDX 44 49 63 50 45 51 48 52 62 53 81 54 46 55 47 56 61 58 82 59
REMARK SMILES IDX 49 60 33 61 34 62 42 63 35 64 37 65 43 66 36 67 38 68 39 69
REMARK SMILES IDX 40 70 41 71 65 72 66 73 74 74 67 75 69 76 75 77 68 78 70 79
REMARK SMILES IDX 71 80 72 81 73 82 50 83 51 84 59 85 52 86 54 87 60 88 53 89
REMARK SMILES IDX 55 90 56 91 57 92 58 93
REMARK H PARENT 16 7 2 16 1 19 1 20 21 27 80 46 48 57
REMARK Flexibility Score: inf
ROOT
ATOM      1  C   UNL A   1      35.233  21.613  25.848  1.00  0.00     0.023 C 
ENDROOT
BRANCH   1   2
ATOM      2  C   UNL A   1      34.088  21.034  25.011  1.00  0.00     0.023 C 
BRANCH   2   3
ATOM      3  C   UNL A   1      32.706  21.014  25.651  1.00  0.00     0.116 C 
BRANCH   3   4
ATOM      4  N   UNL A   1      31.632  21.590  24.864  1.00  0.00    -0.352 N 
ATOM      5  C   UNL A   1      31.527  22.844  24.312  1.00  0.00     0.259 C 
ATOM      6  O   UNL A   1      30.679  23.049  23.444  1.00  0.00    -0.269 OA
ATOM      7  H   UNL A   1      30.866  20.995  24.701  1.00  0.00     0.163 HD
BRANCH   5   8
ATOM      8  C   UNL A   1      32.380  23.988  24.701  1.00  0.00     0.130 A 
ATOM      9  C   UNL A   1      33.385  24.533  23.889  1.00  0.00     0.060 A 
ATOM     10  C   UNL A   1      34.172  25.612  24.347  1.00  0.00     0.015 A 
ATOM     11  C   UNL A   1      33.911  26.224  25.571  1.00  0.00     0.008 A 
ATOM     12  C   UNL A   1      32.108  24.657  25.907  1.00  0.00     0.282 A 
ATOM     13  C   UNL A   1      32.857  25.763  26.348  1.00  0.00     0.086 A 
BRANCH   9  14
ATOM     14  C   UNL A   1      33.734  24.044  22.542  1.00  0.00     0.266 C 
ATOM     15  N   UNL A   1      32.926  24.321  21.456  1.00  0.00    -0.290 N 
ATOM     16  H   UNL A   1      33.121  23.855  20.610  1.00  0.00     0.184 HD
ATOM     17  O   UNL A   1      34.766  23.388  22.412  1.00  0.00    -0.268 OA
BRANCH  15  18
ATOM     18  N   UNL A   1      31.847  25.216  21.474  1.00  0.00    -0.248 NA
ATOM     19  H   UNL A   1      32.186  26.161  21.296  1.00  0.00     0.143 HD
ATOM     20  H   UNL A   1      31.394  25.182  22.387  1.00  0.00     0.143 HD
ENDBRANCH  15  18
ENDBRANCH   9  14
BRANCH  12  21
ATOM     21  N   UNL A   1      31.037  24.221  26.786  1.00  0.00     0.063 N 
ATOM     22  O   UNL A   1      31.298  23.290  27.563  1.00  0.00    -0.258 OA
ATOM     23  O   UNL A   1      29.921  24.723  26.603  1.00  0.00    -0.258 OA
ENDBRANCH  12  21
ENDBRANCH   5   8
ENDBRANCH   3   4
ENDBRANCH   2   3
ENDBRANCH   1   2
BRANCH   1  24
ATOM     24  C   UNL A   1      36.544  21.936  25.134  1.00  0.00     0.116 C 
BRANCH  24  25
ATOM     25  N   UNL A   1      37.605  20.962  25.338  1.00  0.00    -0.352 N 
ATOM     26  C   UNL A   1      38.854  21.096  25.909  1.00  0.00     0.251 C 
ATOM     27  H   UNL A   1      37.397  20.056  25.016  1.00  0.00     0.163 HD
ATOM     28  O   UNL A   1      39.607  20.132  25.945  1.00  0.00    -0.269 OA
BRANCH  26  29
ATOM     29  C   UNL A   1      39.315  22.404  26.438  1.00  0.00     0.039 A 
ATOM     30  C   UNL A   1      40.317  22.413  27.414  1.00  0.00     0.014 A 
ATOM     31  C   UNL A   1      38.783  23.613  25.987  1.00  0.00     0.014 A 
ATOM     32  C   UNL A   1      40.852  23.628  27.857  1.00  0.00     0.010 A 
ATOM     33  C   UNL A   1      39.376  24.819  26.364  1.00  0.00     0.010 A 
ATOM     34  C   UNL A   1      40.424  24.843  27.296  1.00  0.00    -0.014 A 
BRANCH  34  35
ATOM     35  C   UNL A   1      41.086  26.131  27.646  1.00  0.00     0.031 A 
ATOM     36  C   UNL A   1      42.514  26.399  27.251  1.00  0.00     0.074 A 
ATOM     37  C   UNL A   1      40.427  27.033  28.403  1.00  0.00     0.049 A 
ATOM     38  N   UNL A   1      43.255  27.449  27.499  1.00  0.00    -0.248 NA
ATOM     39  C   UNL A   1      43.213  25.338  26.506  1.00  0.00     0.031 C 
ATOM     40  C   UNL A   1      39.075  26.861  28.940  1.00  0.00     0.029 A 
ATOM     41  N   UNL A   1      40.812  28.264  28.874  1.00  0.00    -0.354 N 
ATOM     42  C   UNL A   1      44.512  27.163  26.977  1.00  0.00     0.074 A 
ATOM     43  C   UNL A   1      44.444  25.824  26.432  1.00  0.00     0.031 C 
ATOM     44  C   UNL A   1      38.741  27.949  29.655  1.00  0.00     0.029 A 
ATOM     45  C   UNL A   1      39.859  28.886  29.649  1.00  0.00     0.049 A 
ATOM     46  H   UNL A   1      41.689  28.666  28.676  1.00  0.00     0.167 HD
ATOM     47  C   UNL A   1      45.614  27.951  26.922  1.00  0.00     0.034 A 
ATOM     48  C   UNL A   1      39.879  30.075  30.283  1.00  0.00     0.034 A 
ATOM     49  C   UNL A   1      45.669  29.299  27.419  1.00  0.00     0.049 A 
ATOM     50  C   UNL A   1      41.091  30.958  30.151  1.00  0.00     0.074 A 
ATOM     51  C   UNL A   1      46.707  30.211  27.321  1.00  0.00     0.029 A 
ATOM     52  N   UNL A   1      44.648  29.932  28.110  1.00  0.00    -0.354 N 
ATOM     53  N   UNL A   1      42.206  30.737  29.497  1.00  0.00    -0.248 NA
ATOM     54  C   UNL A   1      41.031  32.271  30.808  1.00  0.00     0.031 C 
ATOM     55  C   UNL A   1      46.319  31.388  27.970  1.00  0.00     0.029 A 
ATOM     56  C   UNL A   1      45.031  31.219  28.451  1.00  0.00     0.049 A 
ATOM     57  H   UNL A   1      43.777  29.527  28.327  1.00  0.00     0.167 HD
ATOM     58  C   UNL A   1      42.965  31.893  29.637  1.00  0.00     0.074 A 
ATOM     59  C   UNL A   1      42.170  32.823  30.413  1.00  0.00     0.031 C 
ATOM     60  C   UNL A   1      44.215  32.155  29.180  1.00  0.00     0.034 A 
BRANCH  47  61
ATOM     61  C   UNL A   1      46.838  27.392  26.242  1.00  0.00     0.023 A 
ATOM     62  C   UNL A   1      47.023  27.611  24.860  1.00  0.00     0.012 A 
ATOM     63  C   UNL A   1      47.828  26.704  26.970  1.00  0.00     0.148 A 
ATOM     64  C   UNL A   1      48.152  27.121  24.207  1.00  0.00     0.002 A 
ATOM     65  C   UNL A   1      48.973  26.257  26.319  1.00  0.00     0.091 A 
ATOM     66  F   UNL A   1      47.628  26.487  28.277  1.00  0.00    -0.205 F 
ATOM     67  C   UNL A   1      49.130  26.453  24.937  1.00  0.00     0.022 A 
BRANCH  65  68
ATOM     68  S   UNL A   1      50.329  25.455  27.183  1.00  0.00     0.127 S 
ATOM     69  O   UNL A   1      51.276  25.222  26.094  1.00  0.00    -0.237 OA
ATOM     70  O   UNL A   1      50.740  26.487  28.136  1.00  0.00    -0.237 OA
ATOM     71  O   UNL A   1      49.766  24.257  27.791  1.00  0.00    -0.744 OA
ENDBRANCH  65  68
ENDBRANCH  47  61
BRANCH  48  72
ATOM     72  C   UNL A   1      38.678  30.541  31.035  1.00  0.00     0.023 A 
ATOM     73  C   UNL A   1      38.606  30.319  32.424  1.00  0.00     0.012 A 
ATOM     74  C   UNL A   1      37.623  31.215  30.391  1.00  0.00     0.148 A 
ATOM     75  C   UNL A   1      37.489  30.730  33.154  1.00  0.00     0.002 A 
ATOM     76  C   UNL A   1      36.538  31.670  31.133  1.00  0.00     0.091 A 
ATOM     77  F   UNL A   1      37.704  31.405  29.067  1.00  0.00    -0.205 F 
ATOM     78  C   UNL A   1      36.461  31.414  32.511  1.00  0.00     0.022 A 
BRANCH  76  79
ATOM     79  S   UNL A   1      35.234  32.674  30.414  1.00  0.00     0.127 S 
ATOM     80  O   UNL A   1      34.275  32.752  31.514  1.00  0.00    -0.237 OA
ATOM     81  O   UNL A   1      35.939  33.923  30.122  1.00  0.00    -0.237 OA
ATOM     82  O   UNL A   1      34.787  31.948  29.233  1.00  0.00    -0.744 OA
ENDBRANCH  76  79
ENDBRANCH  48  72
BRANCH  60  83
ATOM     83  C   UNL A   1      44.796  33.514  29.480  1.00  0.00     0.023 A 
ATOM     84  C   UNL A   1      45.564  33.703  30.646  1.00  0.00     0.012 A 
ATOM     85  C   UNL A   1      44.629  34.586  28.581  1.00  0.00     0.148 A 
ATOM     86  C   UNL A   1      46.123  34.950  30.932  1.00  0.00     0.002 A 
ATOM     87  C   UNL A   1      45.230  35.810  28.849  1.00  0.00     0.091 A 
ATOM     88  F   UNL A   1      43.878  34.393  27.488  1.00  0.00    -0.205 F 
ATOM     89  C   UNL A   1      45.966  35.997  30.030  1.00  0.00     0.022 A 
BRANCH  87  90
ATOM     90  S   UNL A   1      45.159  37.184  27.693  1.00  0.00     0.127 S 
ATOM     91  O   UNL A   1      43.726  37.472  27.660  1.00  0.00    -0.237 OA
ATOM     92  O   UNL A   1      45.968  38.201  28.366  1.00  0.00    -0.237 OA
ATOM     93  O   UNL A   1      45.731  36.687  26.449  1.00  0.00    -0.744 OA
ENDBRANCH  87  90
ENDBRANCH  60  83
ENDBRANCH  34  35
ENDBRANCH  26  29
ENDBRANCH  24  25
ENDBRANCH   1  24
TORSDOF 17
ENDMDL
MODEL 2
REMARK VINA RESULT:     -11.5      1.434      2.338
REMARK SMILES NNC(=O)c1cccc([N+](=O)[O-])c1C(=O)NCCCCNC(=O)c1ccc(-c2c3nc(c(-c4cccc(S(=O)(=O)[O-])c4F)c4ccc([nH]4)c(-c4cccc(S(=O)(=O)[O-])c4F)c4nc(c(-c5cccc(S(=O)(=O)[O-])c5F)c5ccc2[nH]5)C=C4)C=C3)cc1
REMARK SMILES IDX 19 1 18 2 17 3 16 4 14 5 15 6 13 8 5 9 6 10 7 11 9 12 8 13
REMARK SMILES IDX 3 14 2 15 4 17 1 18 10 21 11 22 12 23 20 24 21 25 22 26
REMARK SMILES IDX 23 28 24 29 25 30 86 31 26 32 85 33 27 34 28 35 29 36 79 37
REMARK SMILES IDX 30 38 84 39 78 40 80 41 31 42 83 43 77 44 76 45 32 47 64 48
REMARK SMILES IDX 44 49 63 50 45 51 48 52 62 53 81 54 46 55 47 56 61 58 82 59
REMARK SMILES IDX 49 60 33 61 34 62 42 63 35 64 37 65 43 66 36 67 38 68 39 69
REMARK SMILES IDX 40 70 41 71 65 72 66 73 74 74 67 75 69 76 75 77 68 78 70 79
REMARK SMILES IDX 71 80 72 81 73 82 50 83 51 84 59 85 52 86 54 87 60 88 53 89
REMARK SMILES IDX 55 90 56 91 57 92 58 93
REMARK H PARENT 16 7 2 16 1 19 1 20 21 27 80 46 48 57
REMARK Flexibility Score: inf
ROOT
ATOM      1  C   UNL A   1      35.651  21.469  25.666  1.00  0.00     0.023 C 
ENDROOT
BRANCH   1   2
ATOM      2  C   UNL A   1      34.484  21.043  24.771  1.00  0.00     0.023 C 
BRANCH   2   3
ATOM      3  C   UNL A   1      33.087  21.120  25.374  1.00  0.00     0.116 C 
BRANCH   3   4
ATOM      4  N   UNL A   1      32.037  21.586  24.489  1.00  0.00    -0.352 N 
ATOM      5  C   UNL A   1      31.803  22.847  23.997  1.00  0.00     0.259 C 
ATOM      6  O   UNL A   1      31.042  22.987  23.041  1.00  0.00    -0.269 OA
ATOM      7  H   UNL A   1      31.396  20.897  24.199  1.00  0.00     0.163 HD
BRANCH   5   8
ATOM      8  C   UNL A   1      32.416  24.073  24.552  1.00  0.00     0.130 A 
ATOM      9  C   UNL A   1      32.098  24.614  25.807  1.00  0.00     0.060 A 
ATOM     10  C   UNL A   1      32.714  25.803  26.253  1.00  0.00     0.015 A 
ATOM     11  C   UNL A   1      33.717  26.418  25.507  1.00  0.00     0.008 A 
ATOM     12  C   UNL A   1      33.466  24.686  23.846  1.00  0.00     0.282 A 
ATOM     13  C   UNL A   1      34.117  25.845  24.307  1.00  0.00     0.086 A 
BRANCH   9  14
ATOM     14  C   UNL A   1      31.112  24.042  26.743  1.00  0.00     0.266 C 
ATOM     15  N   UNL A   1      29.803  24.481  26.748  1.00  0.00    -0.290 N 
ATOM     16  H   UNL A   1      29.221  24.176  27.482  1.00  0.00     0.184 HD
ATOM     17  O   UNL A   1      31.489  23.162  27.514  1.00  0.00    -0.268 OA
BRANCH  15  18
ATOM     18  N   UNL A   1      29.244  25.330  25.783  1.00  0.00    -0.248 NA
ATOM     19  H   UNL A   1      28.307  25.606  26.074  1.00  0.00     0.143 HD
ATOM     20  H   UNL A   1      29.192  24.840  24.890  1.00  0.00     0.143 HD
ENDBRANCH  15  18
ENDBRANCH   9  14
BRANCH  12  21
ATOM     21  N   UNL A   1      33.925  24.160  22.572  1.00  0.00     0.063 N 
ATOM     22  O   UNL A   1      34.842  23.328  22.611  1.00  0.00    -0.258 OA
ATOM     23  O   UNL A   1      33.453  24.675  21.550  1.00  0.00    -0.258 OA
ENDBRANCH  12  21
ENDBRANCH   5   8
ENDBRANCH   3   4
ENDBRANCH   2   3
ENDBRANCH   1   2
BRANCH   1  24
ATOM     24  C   UNL A   1      37.007  21.704  25.004  1.00  0.00     0.116 C 
BRANCH  24  25
ATOM     25  N   UNL A   1      38.038  20.743  25.369  1.00  0.00    -0.352 N 
ATOM     26  C   UNL A   1      39.222  20.909  26.055  1.00  0.00     0.251 C 
ATOM     27  H   UNL A   1      37.859  19.820  25.077  1.00  0.00     0.163 HD
ATOM     28  O   UNL A   1      39.963  19.949  26.220  1.00  0.00    -0.269 OA
BRANCH  26  29
ATOM     29  C   UNL A   1      39.634  22.244  26.555  1.00  0.00     0.039 A 
ATOM     30  C   UNL A   1      40.624  22.312  27.541  1.00  0.00     0.014 A 
ATOM     31  C   UNL A   1      39.068  23.423  26.067  1.00  0.00     0.014 A 
ATOM     32  C   UNL A   1      41.113  23.554  27.959  1.00  0.00     0.010 A 
ATOM     33  C   UNL A   1      39.616  24.658  26.419  1.00  0.00     0.010 A 
ATOM     34  C   UNL A   1      40.651  24.740  27.362  1.00  0.00    -0.014 A 
BRANCH  34  35
ATOM     35  C   UNL A   1      41.266  26.058  27.686  1.00  0.00     0.031 A 
ATOM     36  C   UNL A   1      42.674  26.381  27.258  1.00  0.00     0.074 A 
ATOM     37  C   UNL A   1      40.587  26.939  28.450  1.00  0.00     0.049 A 
ATOM     38  N   UNL A   1      43.376  27.463  27.480  1.00  0.00    -0.248 NA
ATOM     39  C   UNL A   1      43.400  25.344  26.507  1.00  0.00     0.031 C 
ATOM     40  C   UNL A   1      39.255  26.716  29.018  1.00  0.00     0.029 A 
ATOM     41  N   UNL A   1      40.931  28.190  28.902  1.00  0.00    -0.354 N 
ATOM     42  C   UNL A   1      44.632  27.225  26.933  1.00  0.00     0.074 A 
ATOM     43  C   UNL A   1      44.607  25.879  26.401  1.00  0.00     0.031 C 
ATOM     44  C   UNL A   1      38.892  27.796  29.730  1.00  0.00     0.029 A 
ATOM     45  C   UNL A   1      39.969  28.778  29.691  1.00  0.00     0.049 A 
ATOM     46  H   UNL A   1      41.786  28.625  28.680  1.00  0.00     0.167 HD
ATOM     47  C   UNL A   1      45.698  28.057  26.847  1.00  0.00     0.034 A 
ATOM     48  C   UNL A   1      39.953  29.974  30.315  1.00  0.00     0.034 A 
ATOM     49  C   UNL A   1      45.707  29.412  27.330  1.00  0.00     0.049 A 
ATOM     50  C   UNL A   1      41.125  30.905  30.148  1.00  0.00     0.074 A 
ATOM     51  C   UNL A   1      46.703  30.365  27.201  1.00  0.00     0.029 A 
ATOM     52  N   UNL A   1      44.676  30.009  28.038  1.00  0.00    -0.354 N 
ATOM     53  N   UNL A   1      42.234  30.724  29.472  1.00  0.00    -0.248 NA
ATOM     54  C   UNL A   1      41.024  32.221  30.795  1.00  0.00     0.031 C 
ATOM     55  C   UNL A   1      46.281  31.531  27.848  1.00  0.00     0.029 A 
ATOM     56  C   UNL A   1      45.012  31.313  28.359  1.00  0.00     0.049 A 
ATOM     57  H   UNL A   1      43.828  29.569  28.277  1.00  0.00     0.167 HD
ATOM     58  C   UNL A   1      42.946  31.912  29.585  1.00  0.00     0.074 A 
ATOM     59  C   UNL A   1      42.130  32.816  30.370  1.00  0.00     0.031 C 
ATOM     60  C   UNL A   1      44.173  32.222  29.098  1.00  0.00     0.034 A 
BRANCH  47  61
ATOM     61  C   UNL A   1      46.929  27.544  26.144  1.00  0.00     0.023 A 
ATOM     62  C   UNL A   1      47.826  26.707  26.843  1.00  0.00     0.012 A 
ATOM     63  C   UNL A   1      47.173  27.836  24.789  1.00  0.00     0.148 A 
ATOM     64  C   UNL A   1      48.964  26.204  26.217  1.00  0.00     0.002 A 
ATOM     65  C   UNL A   1      48.288  27.294  24.158  1.00  0.00     0.091 A 
ATOM     66  F   UNL A   1      46.322  28.647  24.145  1.00  0.00    -0.205 F 
ATOM     67  C   UNL A   1      49.190  26.489  24.874  1.00  0.00     0.022 A 
BRANCH  65  68
ATOM     68  S   UNL A   1      48.626  27.535  22.411  1.00  0.00     0.127 S 
ATOM     69  O   UNL A   1      49.911  28.233  22.453  1.00  0.00    -0.237 OA
ATOM     70  O   UNL A   1      48.697  26.158  21.918  1.00  0.00    -0.237 OA
ATOM     71  O   UNL A   1      47.509  28.310  21.888  1.00  0.00    -0.744 OA
ENDBRANCH  65  68
ENDBRANCH  47  61
BRANCH  48  72
ATOM     72  C   UNL A   1      38.750  30.396  31.089  1.00  0.00     0.023 A 
ATOM     73  C   UNL A   1      38.683  30.113  32.467  1.00  0.00     0.012 A 
ATOM     74  C   UNL A   1      37.689  31.090  30.478  1.00  0.00     0.148 A 
ATOM     75  C   UNL A   1      37.566  30.482  33.216  1.00  0.00     0.002 A 
ATOM     76  C   UNL A   1      36.602  31.503  31.242  1.00  0.00     0.091 A 
ATOM     77  F   UNL A   1      37.765  31.339  29.163  1.00  0.00    -0.205 F 
ATOM     78  C   UNL A   1      36.531  31.185  32.606  1.00  0.00     0.022 A 
BRANCH  76  79
ATOM     79  S   UNL A   1      35.289  32.528  30.570  1.00  0.00     0.127 S 
ATOM     80  O   UNL A   1      34.355  32.589  31.692  1.00  0.00    -0.237 OA
ATOM     81  O   UNL A   1      35.995  33.779  30.287  1.00  0.00    -0.237 OA
ATOM     82  O   UNL A   1      34.812  31.827  29.385  1.00  0.00    -0.744 OA
ENDBRANCH  76  79
ENDBRANCH  48  72
BRANCH  60  83
ATOM     83  C   UNL A   1      44.704  33.606  29.373  1.00  0.00     0.023 A 
ATOM     84  C   UNL A   1      45.390  33.865  30.577  1.00  0.00     0.012 A 
ATOM     85  C   UNL A   1      44.572  34.633  28.417  1.00  0.00     0.148 A 
ATOM     86  C   UNL A   1      45.901  35.136  30.841  1.00  0.00     0.002 A 
ATOM     87  C   UNL A   1      45.128  35.883  28.668  1.00  0.00     0.091 A 
ATOM     88  F   UNL A   1      43.899  34.375  27.288  1.00  0.00    -0.205 F 
ATOM     89  C   UNL A   1      45.780  36.140  29.884  1.00  0.00     0.022 A 
BRANCH  87  90
ATOM     90  S   UNL A   1      45.102  37.203  27.450  1.00  0.00     0.127 S 
ATOM     91  O   UNL A   1      45.703  38.308  28.194  1.00  0.00    -0.237 OA
ATOM     92  O   UNL A   1      45.943  36.660  26.382  1.00  0.00    -0.237 OA
ATOM     93  O   UNL A   1      43.703  37.378  27.082  1.00  0.00    -0.744 OA
ENDBRANCH  87  90
ENDBRANCH  60  83
ENDBRANCH  34  35
ENDBRANCH  26  29
ENDBRANCH  24  25
ENDBRANCH   1  24
TORSDOF 17
ENDMDL
MODEL 3
REMARK VINA RESULT:     -11.5      5.134      7.248
REMARK SMILES NNC(=O)c1cccc([N+](=O)[O-])c1C(=O)NCCCCNC(=O)c1ccc(-c2c3nc(c(-c4cccc(S(=O)(=O)[O-])c4F)c4ccc([nH]4)c(-c4cccc(S(=O)(=O)[O-])c4F)c4nc(c(-c5cccc(S(=O)(=O)[O-])c5F)c5ccc2[nH]5)C=C4)C=C3)cc1
REMARK SMILES IDX 19 1 18 2 17 3 16 4 14 5 15 6 13 8 5 9 6 10 7 11 9 12 8 13
REMARK SMILES IDX 3 14 2 15 4 17 1 18 10 21 11 22 12 23 20 24 21 25 22 26
REMARK SMILES IDX 23 28 24 29 25 30 86 31 26 32 85 33 27 34 28 35 29 36 79 37
REMARK SMILES IDX 30 38 84 39 78 40 80 41 31 42 83 43 77 44 76 45 32 47 64 48
REMARK SMILES IDX 44 49 63 50 45 51 48 52 62 53 81 54 46 55 47 56 61 58 82 59
REMARK SMILES IDX 49 60 33 61 34 62 42 63 35 64 37 65 43 66 36 67 38 68 39 69
REMARK SMILES IDX 40 70 41 71 65 72 66 73 74 74 67 75 69 76 75 77 68 78 70 79
REMARK SMILES IDX 71 80 72 81 73 82 50 83 51 84 59 85 52 86 54 87 60 88 53 89
REMARK SMILES IDX 55 90 56 91 57 92 58 93
REMARK H PARENT 16 7 2 16 1 19 1 20 21 27 80 46 48 57
REMARK Flexibility Score: inf
ROOT
ATOM      1  C   UNL A   1      31.422  28.049  25.721  1.00  0.00     0.023 C 
ENDROOT
BRANCH   1   2
ATOM      2  C   UNL A   1      30.704  27.537  24.468  1.00  0.00     0.023 C 
BRANCH   2   3
ATOM      3  C   UNL A   1      29.755  26.359  24.648  1.00  0.00     0.116 C 
BRANCH   3   4
ATOM      4  N   UNL A   1      29.905  25.272  23.700  1.00  0.00    -0.352 N 
ATOM      5  C   UNL A   1      30.867  24.293  23.636  1.00  0.00     0.259 C 
ATOM      6  O   UNL A   1      30.667  23.298  22.940  1.00  0.00    -0.269 OA
ATOM      7  H   UNL A   1      29.217  25.229  22.998  1.00  0.00     0.163 HD
BRANCH   5   8
ATOM      8  C   UNL A   1      32.155  24.357  24.361  1.00  0.00     0.130 A 
ATOM      9  C   UNL A   1      32.356  23.856  25.656  1.00  0.00     0.060 A 
ATOM     10  C   UNL A   1      33.613  23.979  26.286  1.00  0.00     0.015 A 
ATOM     11  C   UNL A   1      34.708  24.512  25.609  1.00  0.00     0.008 A 
ATOM     12  C   UNL A   1      33.289  24.843  23.687  1.00  0.00     0.282 A 
ATOM     13  C   UNL A   1      34.556  24.925  24.293  1.00  0.00     0.086 A 
BRANCH   9  14
ATOM     14  C   UNL A   1      31.318  23.202  26.474  1.00  0.00     0.266 C 
ATOM     15  N   UNL A   1      31.017  21.865  26.300  1.00  0.00    -0.290 N 
ATOM     16  H   UNL A   1      30.224  21.510  26.764  1.00  0.00     0.184 HD
ATOM     17  O   UNL A   1      30.732  23.879  27.317  1.00  0.00    -0.268 OA
BRANCH  15  18
ATOM     18  N   UNL A   1      31.761  20.978  25.510  1.00  0.00    -0.248 NA
ATOM     19  H   UNL A   1      32.199  20.276  26.105  1.00  0.00     0.143 HD
ATOM     20  H   UNL A   1      32.481  21.495  25.006  1.00  0.00     0.143 HD
ENDBRANCH  15  18
ENDBRANCH   9  14
BRANCH  12  21
ATOM     21  N   UNL A   1      33.206  25.314  22.316  1.00  0.00     0.063 N 
ATOM     22  O   UNL A   1      33.355  24.466  21.424  1.00  0.00    -0.258 OA
ATOM     23  O   UNL A   1      33.119  26.537  22.148  1.00  0.00    -0.258 OA
ENDBRANCH  12  21
ENDBRANCH   5   8
ENDBRANCH   3   4
ENDBRANCH   2   3
ENDBRANCH   1   2
BRANCH   1  24
ATOM     24  C   UNL A   1      32.465  29.150  25.543  1.00  0.00     0.116 C 
BRANCH  24  25
ATOM     25  N   UNL A   1      32.070  30.452  26.059  1.00  0.00    -0.352 N 
ATOM     26  C   UNL A   1      32.729  31.326  26.899  1.00  0.00     0.251 C 
ATOM     27  H   UNL A   1      31.185  30.760  25.759  1.00  0.00     0.163 HD
ATOM     28  O   UNL A   1      32.181  32.369  27.233  1.00  0.00    -0.269 OA
BRANCH  26  29
ATOM     29  C   UNL A   1      34.072  31.000  27.439  1.00  0.00     0.039 A 
ATOM     30  C   UNL A   1      34.932  32.053  27.769  1.00  0.00     0.014 A 
ATOM     31  C   UNL A   1      34.492  29.683  27.629  1.00  0.00     0.014 A 
ATOM     32  C   UNL A   1      36.162  31.787  28.380  1.00  0.00     0.010 A 
ATOM     33  C   UNL A   1      35.679  29.423  28.318  1.00  0.00     0.010 A 
ATOM     34  C   UNL A   1      36.525  30.470  28.710  1.00  0.00    -0.014 A 
BRANCH  34  35
ATOM     35  C   UNL A   1      37.759  30.182  29.494  1.00  0.00     0.031 A 
ATOM     36  C   UNL A   1      38.825  29.267  28.951  1.00  0.00     0.074 A 
ATOM     37  C   UNL A   1      37.883  30.677  30.744  1.00  0.00     0.049 A 
ATOM     38  N   UNL A   1      39.944  28.882  29.509  1.00  0.00    -0.248 NA
ATOM     39  C   UNL A   1      38.590  28.682  27.620  1.00  0.00     0.031 C 
ATOM     40  C   UNL A   1      36.883  31.495  31.434  1.00  0.00     0.029 A 
ATOM     41  N   UNL A   1      38.892  30.544  31.667  1.00  0.00    -0.354 N 
ATOM     42  C   UNL A   1      40.528  27.987  28.619  1.00  0.00     0.074 A 
ATOM     43  C   UNL A   1      39.619  27.855  27.501  1.00  0.00     0.031 C 
ATOM     44  C   UNL A   1      37.333  31.800  32.663  1.00  0.00     0.029 A 
ATOM     45  C   UNL A   1      38.640  31.183  32.860  1.00  0.00     0.049 A 
ATOM     46  H   UNL A   1      39.719  30.039  31.491  1.00  0.00     0.167 HD
ATOM     47  C   UNL A   1      41.725  27.357  28.704  1.00  0.00     0.034 A 
ATOM     48  C   UNL A   1      39.376  31.264  33.987  1.00  0.00     0.034 A 
ATOM     49  C   UNL A   1      42.652  27.524  29.790  1.00  0.00     0.049 A 
ATOM     50  C   UNL A   1      40.730  30.609  34.029  1.00  0.00     0.074 A 
ATOM     51  C   UNL A   1      43.930  27.007  29.920  1.00  0.00     0.029 A 
ATOM     52  N   UNL A   1      42.404  28.261  30.938  1.00  0.00    -0.354 N 
ATOM     53  N   UNL A   1      41.340  29.912  33.100  1.00  0.00    -0.248 NA
ATOM     54  C   UNL A   1      41.516  30.786  35.258  1.00  0.00     0.031 C 
ATOM     55  C   UNL A   1      44.447  27.416  31.154  1.00  0.00     0.029 A 
ATOM     56  C   UNL A   1      43.500  28.207  31.783  1.00  0.00     0.049 A 
ATOM     57  H   UNL A   1      41.571  28.751  31.125  1.00  0.00     0.167 HD
ATOM     58  C   UNL A   1      42.590  29.597  33.620  1.00  0.00     0.074 A 
ATOM     59  C   UNL A   1      42.662  30.204  34.933  1.00  0.00     0.031 C 
ATOM     60  C   UNL A   1      43.582  28.856  33.067  1.00  0.00     0.034 A 
BRANCH  47  61
ATOM     61  C   UNL A   1      42.130  26.471  27.553  1.00  0.00     0.023 A 
ATOM     62  C   UNL A   1      42.928  27.004  26.517  1.00  0.00     0.012 A 
ATOM     63  C   UNL A   1      41.776  25.109  27.519  1.00  0.00     0.148 A 
ATOM     64  C   UNL A   1      43.331  26.206  25.448  1.00  0.00     0.002 A 
ATOM     65  C   UNL A   1      42.220  24.309  26.471  1.00  0.00     0.091 A 
ATOM     66  F   UNL A   1      41.003  24.624  28.500  1.00  0.00    -0.205 F 
ATOM     67  C   UNL A   1      42.986  24.859  25.430  1.00  0.00     0.022 A 
BRANCH  65  68
ATOM     68  S   UNL A   1      41.897  22.544  26.395  1.00  0.00     0.127 S 
ATOM     69  O   UNL A   1      42.579  22.172  25.156  1.00  0.00    -0.237 OA
ATOM     70  O   UNL A   1      42.545  22.059  27.615  1.00  0.00    -0.237 OA
ATOM     71  O   UNL A   1      40.447  22.400  26.380  1.00  0.00    -0.744 OA
ENDBRANCH  65  68
ENDBRANCH  47  61
BRANCH  48  72
ATOM     72  C   UNL A   1      38.883  32.068  35.143  1.00  0.00     0.023 A 
ATOM     73  C   UNL A   1      38.912  33.474  35.067  1.00  0.00     0.012 A 
ATOM     74  C   UNL A   1      38.372  31.453  36.301  1.00  0.00     0.148 A 
ATOM     75  C   UNL A   1      38.472  34.254  36.137  1.00  0.00     0.002 A 
ATOM     76  C   UNL A   1      37.884  32.236  37.342  1.00  0.00     0.091 A 
ATOM     77  F   UNL A   1      38.365  30.114  36.360  1.00  0.00    -0.205 F 
ATOM     78  C   UNL A   1      37.949  33.636  37.269  1.00  0.00     0.022 A 
BRANCH  76  79
ATOM     79  S   UNL A   1      37.072  31.529  38.780  1.00  0.00     0.127 S 
ATOM     80  O   UNL A   1      38.074  31.738  39.822  1.00  0.00    -0.237 OA
ATOM     81  O   UNL A   1      35.877  32.367  38.896  1.00  0.00    -0.237 OA
ATOM     82  O   UNL A   1      36.799  30.141  38.431  1.00  0.00    -0.744 OA
ENDBRANCH  76  79
ENDBRANCH  48  72
BRANCH  60  83
ATOM     83  C   UNL A   1      44.849  28.681  33.866  1.00  0.00     0.023 A 
ATOM     84  C   UNL A   1      45.897  29.612  33.728  1.00  0.00     0.012 A 
ATOM     85  C   UNL A   1      44.977  27.628  34.794  1.00  0.00     0.148 A 
ATOM     86  C   UNL A   1      47.070  29.474  34.472  1.00  0.00     0.002 A 
ATOM     87  C   UNL A   1      46.129  27.526  35.566  1.00  0.00     0.091 A 
ATOM     88  F   UNL A   1      43.979  26.739  34.897  1.00  0.00    -0.205 F 
ATOM     89  C   UNL A   1      47.181  28.440  35.397  1.00  0.00     0.022 A 
BRANCH  87  90
ATOM     90  S   UNL A   1      46.315  26.282  36.848  1.00  0.00     0.127 S 
ATOM     91  O   UNL A   1      45.146  26.541  37.687  1.00  0.00    -0.237 OA
ATOM     92  O   UNL A   1      46.252  25.035  36.086  1.00  0.00    -0.237 OA
ATOM     93  O   UNL A   1      47.607  26.542  37.470  1.00  0.00    -0.744 OA
ENDBRANCH  87  90
ENDBRANCH  60  83
ENDBRANCH  34  35
ENDBRANCH  26  29
ENDBRANCH  24  25
ENDBRANCH   1  24
TORSDOF 17
ENDMDL
