MODEL 1
REMARK VINA RESULT:     -12.8      0.000      0.000
REMARK SMILES Cc1nn(CC(F)F)c2c1c(C(F)(F)F)cc(=O)n2CC(=O)NCCCCNC(=O)c1ccc(-c2c3nc(c(-c4cccc(S(=O)(=O)[O-])c4F)c4ccc([nH]4)c(-c4cccc(S(=O)(=O)[O-])c4F)c4nc(c(-c5cccc(S(=O)(=O)[O-])c5F)c5ccc2[nH]5)C=C4)C=C3)cc1
REMARK SMILES IDX 25 1 24 2 23 3 21 4 22 5 20 7 19 8 1 9 2 10 3 11 10 12 4 13
REMARK SMILES IDX 9 14 11 15 16 16 17 17 18 18 5 19 6 20 7 21 8 22 12 23 13 24
REMARK SMILES IDX 14 25 15 26 26 27 27 28 28 29 29 30 30 32 31 33 32 34 93 35
REMARK SMILES IDX 33 36 92 37 34 38 35 39 36 40 86 41 37 42 91 43 85 44 87 45
REMARK SMILES IDX 38 46 90 47 84 48 83 49 39 51 71 52 51 53 70 54 52 55 55 56
REMARK SMILES IDX 69 57 88 58 53 59 54 60 68 62 89 63 56 64 40 65 41 66 49 67
REMARK SMILES IDX 42 68 44 69 50 70 43 71 45 72 46 73 47 74 48 75 72 76 73 77
REMARK SMILES IDX 81 78 74 79 76 80 82 81 75 82 77 83 78 84 79 85 80 86 57 87
REMARK SMILES IDX 58 88 66 89 59 90 61 91 67 92 60 93 62 94 63 95 64 96 65 97
REMARK H PARENT 23 6 28 31 87 50 55 61
REMARK Flexibility Score: inf
ROOT
ATOM      1  C   UNL A   1      35.756  23.555  24.615  1.00  0.00     0.023 C 
ENDROOT
BRANCH   1   2
ATOM      2  C   UNL A   1      34.300  23.995  24.500  1.00  0.00     0.116 C 
BRANCH   2   3
ATOM      3  N   UNL A   1      33.957  24.431  23.164  1.00  0.00    -0.355 N 
ATOM      4  C   UNL A   1      33.513  25.648  22.754  1.00  0.00     0.240 C 
ATOM      5  O   UNL A   1      33.615  25.910  21.550  1.00  0.00    -0.273 OA
ATOM      6  H   UNL A   1      34.059  23.754  22.456  1.00  0.00     0.163 HD
BRANCH   4   7
ATOM      7  C   UNL A   1      33.019  26.713  23.740  1.00  0.00     0.227 C 
BRANCH   7   8
ATOM      8  N   UNL A   1      31.894  27.549  23.311  1.00  0.00    -0.283 N 
ATOM      9  C   UNL A   1      26.880  28.012  23.542  1.00  0.00     0.069 C 
ATOM     10  C   UNL A   1      28.294  27.554  23.534  1.00  0.00     0.069 A 
ATOM     11  N   UNL A   1      28.529  26.306  23.956  1.00  0.00    -0.175 NA
ATOM     12  C   UNL A   1      29.506  28.181  23.161  1.00  0.00     0.053 A 
ATOM     13  N   UNL A   1      29.869  26.162  23.939  1.00  0.00    -0.243 N 
ATOM     14  C   UNL A   1      30.520  27.285  23.478  1.00  0.00     0.142 A 
ATOM     15  C   UNL A   1      29.862  29.442  22.594  1.00  0.00     0.074 A 
ATOM     16  C   UNL A   1      31.151  29.703  22.323  1.00  0.00     0.085 A 
ATOM     17  C   UNL A   1      32.229  28.730  22.632  1.00  0.00     0.253 A 
ATOM     18  O   UNL A   1      33.374  29.040  22.301  1.00  0.00    -0.269 OA
BRANCH  13  19
ATOM     19  C   UNL A   1      30.356  24.877  24.381  1.00  0.00     0.219 C 
BRANCH  19  20
ATOM     20  C   UNL A   1      30.647  24.834  25.859  1.00  0.00     0.363 C 
ATOM     21  F   UNL A   1      29.538  24.533  26.578  1.00  0.00    -0.208 F 
ATOM     22  F   UNL A   1      31.534  23.832  26.109  1.00  0.00    -0.208 F 
ENDBRANCH  19  20
ENDBRANCH  13  19
BRANCH  15  23
ATOM     23  C   UNL A   1      28.792  30.438  22.288  1.00  0.00     0.417 C 
ATOM     24  F   UNL A   1      29.298  31.605  21.815  1.00  0.00    -0.166 F 
ATOM     25  F   UNL A   1      27.900  29.977  21.378  1.00  0.00    -0.166 F 
ATOM     26  F   UNL A   1      28.068  30.769  23.393  1.00  0.00    -0.166 F 
ENDBRANCH  15  23
ENDBRANCH   7   8
ENDBRANCH   4   7
ENDBRANCH   2   3
ENDBRANCH   1   2
BRANCH   1  27
ATOM     27  C   UNL A   1      36.059  22.167  24.033  1.00  0.00     0.023 C 
BRANCH  27  28
ATOM     28  C   UNL A   1      36.087  21.026  25.054  1.00  0.00     0.116 C 
BRANCH  28  29
ATOM     29  N   UNL A   1      37.239  20.159  24.929  1.00  0.00    -0.352 N 
ATOM     30  C   UNL A   1      38.504  20.146  25.449  1.00  0.00     0.251 C 
ATOM     31  H   UNL A   1      37.072  19.397  24.328  1.00  0.00     0.163 HD
ATOM     32  O   UNL A   1      39.157  19.122  25.224  1.00  0.00    -0.269 OA
BRANCH  30  33
ATOM     33  C   UNL A   1      39.149  21.266  26.186  1.00  0.00     0.039 A 
ATOM     34  C   UNL A   1      38.744  22.599  26.148  1.00  0.00     0.014 A 
ATOM     35  C   UNL A   1      40.302  20.934  26.927  1.00  0.00     0.014 A 
ATOM     36  C   UNL A   1      39.515  23.582  26.760  1.00  0.00     0.010 A 
ATOM     37  C   UNL A   1      41.071  21.913  27.548  1.00  0.00     0.010 A 
ATOM     38  C   UNL A   1      40.697  23.244  27.427  1.00  0.00    -0.014 A 
BRANCH  38  39
ATOM     39  C   UNL A   1      41.425  24.318  28.094  1.00  0.00     0.031 A 
ATOM     40  C   UNL A   1      40.666  25.596  28.178  1.00  0.00     0.074 A 
ATOM     41  C   UNL A   1      42.646  24.189  28.653  1.00  0.00     0.049 A 
ATOM     42  N   UNL A   1      40.901  26.695  27.536  1.00  0.00    -0.248 NA
ATOM     43  C   UNL A   1      39.410  25.602  28.944  1.00  0.00     0.031 C 
ATOM     44  C   UNL A   1      43.408  22.958  28.882  1.00  0.00     0.029 A 
ATOM     45  N   UNL A   1      43.424  25.144  29.242  1.00  0.00    -0.354 N 
ATOM     46  C   UNL A   1      39.962  27.607  28.010  1.00  0.00     0.074 A 
ATOM     47  C   UNL A   1      38.973  26.844  28.729  1.00  0.00     0.031 C 
ATOM     48  C   UNL A   1      44.406  23.210  29.760  1.00  0.00     0.029 A 
ATOM     49  C   UNL A   1      44.442  24.633  30.045  1.00  0.00     0.049 A 
ATOM     50  H   UNL A   1      43.279  26.108  29.111  1.00  0.00     0.167 HD
ATOM     51  C   UNL A   1      40.199  28.947  27.998  1.00  0.00     0.034 A 
ATOM     52  C   UNL A   1      45.208  25.333  30.921  1.00  0.00     0.034 A 
ATOM     53  C   UNL A   1      41.281  29.302  27.122  1.00  0.00     0.049 A 
ATOM     54  C   UNL A   1      45.159  26.750  30.489  1.00  0.00     0.074 A 
ATOM     55  C   UNL A   1      41.548  29.144  25.778  1.00  0.00     0.029 A 
ATOM     56  N   UNL A   1      42.481  29.609  27.716  1.00  0.00    -0.354 N 
ATOM     57  N   UNL A   1      45.691  27.190  29.385  1.00  0.00    -0.248 NA
ATOM     58  C   UNL A   1      44.180  27.623  31.112  1.00  0.00     0.031 C 
ATOM     59  C   UNL A   1      42.949  28.890  25.712  1.00  0.00     0.029 A 
ATOM     60  C   UNL A   1      43.456  28.962  27.011  1.00  0.00     0.049 A 
ATOM     61  H   UNL A   1      42.612  30.186  28.502  1.00  0.00     0.167 HD
ATOM     62  C   UNL A   1      44.802  28.158  28.942  1.00  0.00     0.074 A 
ATOM     63  C   UNL A   1      43.958  28.459  30.095  1.00  0.00     0.031 C 
ATOM     64  C   UNL A   1      44.650  28.414  27.611  1.00  0.00     0.034 A 
BRANCH  51  65
ATOM     65  C   UNL A   1      39.721  29.889  29.073  1.00  0.00     0.023 A 
ATOM     66  C   UNL A   1      40.305  29.789  30.353  1.00  0.00     0.012 A 
ATOM     67  C   UNL A   1      38.536  30.652  28.959  1.00  0.00     0.148 A 
ATOM     68  C   UNL A   1      39.724  30.399  31.470  1.00  0.00     0.002 A 
ATOM     69  C   UNL A   1      38.006  31.320  30.055  1.00  0.00     0.091 A 
ATOM     70  F   UNL A   1      37.831  30.620  27.824  1.00  0.00    -0.205 F 
ATOM     71  C   UNL A   1      38.581  31.176  31.319  1.00  0.00     0.022 A 
BRANCH  69  72
ATOM     72  S   UNL A   1      36.549  32.358  29.898  1.00  0.00     0.127 S 
ATOM     73  O   UNL A   1      36.580  33.090  31.165  1.00  0.00    -0.237 OA
ATOM     74  O   UNL A   1      36.881  33.157  28.715  1.00  0.00    -0.237 OA
ATOM     75  O   UNL A   1      35.440  31.444  29.710  1.00  0.00    -0.744 OA
ENDBRANCH  69  72
ENDBRANCH  51  65
BRANCH  52  76
ATOM     76  C   UNL A   1      45.801  24.953  32.230  1.00  0.00     0.023 A 
ATOM     77  C   UNL A   1      47.004  25.572  32.643  1.00  0.00     0.012 A 
ATOM     78  C   UNL A   1      45.064  24.241  33.201  1.00  0.00     0.148 A 
ATOM     79  C   UNL A   1      47.419  25.542  33.980  1.00  0.00     0.002 A 
ATOM     80  C   UNL A   1      45.489  24.202  34.528  1.00  0.00     0.091 A 
ATOM     81  F   UNL A   1      43.899  23.684  32.850  1.00  0.00    -0.205 F 
ATOM     82  C   UNL A   1      46.654  24.868  34.926  1.00  0.00     0.022 A 
BRANCH  80  83
ATOM     83  S   UNL A   1      44.552  23.351  35.807  1.00  0.00     0.127 S 
ATOM     84  O   UNL A   1      45.391  23.556  36.988  1.00  0.00    -0.237 OA
ATOM     85  O   UNL A   1      43.297  24.097  35.812  1.00  0.00    -0.237 OA
ATOM     86  O   UNL A   1      44.464  21.962  35.373  1.00  0.00    -0.744 OA
ENDBRANCH  80  83
ENDBRANCH  52  76
BRANCH  64  87
ATOM     87  C   UNL A   1      45.669  27.859  26.654  1.00  0.00     0.023 A 
ATOM     88  C   UNL A   1      46.914  28.483  26.431  1.00  0.00     0.012 A 
ATOM     89  C   UNL A   1      45.443  26.572  26.142  1.00  0.00     0.148 A 
ATOM     90  C   UNL A   1      47.916  27.827  25.710  1.00  0.00     0.002 A 
ATOM     91  C   UNL A   1      46.453  25.907  25.462  1.00  0.00     0.091 A 
ATOM     92  F   UNL A   1      44.252  26.000  26.378  1.00  0.00    -0.205 F 
ATOM     93  C   UNL A   1      47.691  26.534  25.240  1.00  0.00     0.022 A 
BRANCH  91  94
ATOM     94  S   UNL A   1      46.275  24.202  24.935  1.00  0.00     0.127 S 
ATOM     95  O   UNL A   1      47.261  24.109  23.860  1.00  0.00    -0.237 OA
ATOM     96  O   UNL A   1      46.623  23.467  26.152  1.00  0.00    -0.237 OA
ATOM     97  O   UNL A   1      44.886  24.048  24.518  1.00  0.00    -0.744 OA
ENDBRANCH  91  94
ENDBRANCH  64  87
ENDBRANCH  38  39
ENDBRANCH  30  33
ENDBRANCH  28  29
ENDBRANCH  27  28
ENDBRANCH   1  27
TORSDOF 18
ENDMDL
MODEL 2
REMARK VINA RESULT:     -12.5      3.928      8.188
REMARK SMILES Cc1nn(CC(F)F)c2c1c(C(F)(F)F)cc(=O)n2CC(=O)NCCCCNC(=O)c1ccc(-c2c3nc(c(-c4cccc(S(=O)(=O)[O-])c4F)c4ccc([nH]4)c(-c4cccc(S(=O)(=O)[O-])c4F)c4nc(c(-c5cccc(S(=O)(=O)[O-])c5F)c5ccc2[nH]5)C=C4)C=C3)cc1
REMARK SMILES IDX 25 1 24 2 23 3 21 4 22 5 20 7 19 8 1 9 2 10 3 11 10 12 4 13
REMARK SMILES IDX 9 14 11 15 16 16 17 17 18 18 5 19 6 20 7 21 8 22 12 23 13 24
REMARK SMILES IDX 14 25 15 26 26 27 27 28 28 29 29 30 30 32 31 33 32 34 93 35
REMARK SMILES IDX 33 36 92 37 34 38 35 39 36 40 86 41 37 42 91 43 85 44 87 45
REMARK SMILES IDX 38 46 90 47 84 48 83 49 39 51 71 52 51 53 70 54 52 55 55 56
REMARK SMILES IDX 69 57 88 58 53 59 54 60 68 62 89 63 56 64 40 65 41 66 49 67
REMARK SMILES IDX 42 68 44 69 50 70 43 71 45 72 46 73 47 74 48 75 72 76 73 77
REMARK SMILES IDX 81 78 74 79 76 80 82 81 75 82 77 83 78 84 79 85 80 86 57 87
REMARK SMILES IDX 58 88 66 89 59 90 61 91 67 92 60 93 62 94 63 95 64 96 65 97
REMARK H PARENT 23 6 28 31 87 50 55 61
REMARK Flexibility Score: inf
ROOT
ATOM      1  C   UNL A   1      32.977  28.359  27.365  1.00  0.00     0.023 C 
ENDROOT
BRANCH   1   2
ATOM      2  C   UNL A   1      32.696  27.332  26.273  1.00  0.00     0.116 C 
BRANCH   2   3
ATOM      3  N   UNL A   1      32.053  26.142  26.783  1.00  0.00    -0.355 N 
ATOM      4  C   UNL A   1      32.301  24.841  26.476  1.00  0.00     0.240 C 
ATOM      5  O   UNL A   1      31.892  23.985  27.268  1.00  0.00    -0.273 OA
ATOM      6  H   UNL A   1      31.338  26.293  27.444  1.00  0.00     0.163 HD
BRANCH   4   7
ATOM      7  C   UNL A   1      33.157  24.436  25.271  1.00  0.00     0.227 C 
BRANCH   7   8
ATOM      8  N   UNL A   1      33.240  23.006  24.962  1.00  0.00    -0.283 N 
ATOM      9  C   UNL A   1      36.346  19.035  24.984  1.00  0.00     0.069 C 
ATOM     10  C   UNL A   1      35.714  20.381  24.964  1.00  0.00     0.069 A 
ATOM     11  N   UNL A   1      36.524  21.433  25.125  1.00  0.00    -0.175 NA
ATOM     12  C   UNL A   1      34.376  20.812  24.805  1.00  0.00     0.053 A 
ATOM     13  N   UNL A   1      35.717  22.512  25.159  1.00  0.00    -0.243 N 
ATOM     14  C   UNL A   1      34.389  22.191  24.987  1.00  0.00     0.142 A 
ATOM     15  C   UNL A   1      33.128  20.171  24.541  1.00  0.00     0.074 A 
ATOM     16  C   UNL A   1      32.018  20.915  24.410  1.00  0.00     0.085 A 
ATOM     17  C   UNL A   1      32.042  22.391  24.569  1.00  0.00     0.253 A 
ATOM     18  O   UNL A   1      30.982  22.990  24.381  1.00  0.00    -0.269 OA
BRANCH  13  19
ATOM     19  C   UNL A   1      36.387  23.776  25.347  1.00  0.00     0.219 C 
BRANCH  19  20
ATOM     20  C   UNL A   1      37.749  23.634  25.976  1.00  0.00     0.363 C 
ATOM     21  F   UNL A   1      38.664  24.434  25.374  1.00  0.00    -0.208 F 
ATOM     22  F   UNL A   1      37.688  24.050  27.270  1.00  0.00    -0.208 F 
ENDBRANCH  19  20
ENDBRANCH  13  19
BRANCH  15  23
ATOM     23  C   UNL A   1      33.085  18.685  24.389  1.00  0.00     0.417 C 
ATOM     24  F   UNL A   1      33.921  18.245  23.414  1.00  0.00    -0.166 F 
ATOM     25  F   UNL A   1      33.411  18.039  25.535  1.00  0.00    -0.166 F 
ATOM     26  F   UNL A   1      31.845  18.240  24.043  1.00  0.00    -0.166 F 
ENDBRANCH  15  23
ENDBRANCH   7   8
ENDBRANCH   4   7
ENDBRANCH   2   3
ENDBRANCH   1   2
BRANCH   1  27
ATOM     27  C   UNL A   1      34.335  29.067  27.252  1.00  0.00     0.023 C 
BRANCH  27  28
ATOM     28  C   UNL A   1      34.263  30.585  27.070  1.00  0.00     0.116 C 
BRANCH  28  29
ATOM     29  N   UNL A   1      34.180  31.319  28.316  1.00  0.00    -0.352 N 
ATOM     30  C   UNL A   1      35.042  31.585  29.344  1.00  0.00     0.251 C 
ATOM     31  H   UNL A   1      33.293  31.723  28.455  1.00  0.00     0.163 HD
ATOM     32  O   UNL A   1      34.637  32.405  30.173  1.00  0.00    -0.269 OA
BRANCH  30  33
ATOM     33  C   UNL A   1      36.361  30.930  29.559  1.00  0.00     0.039 A 
ATOM     34  C   UNL A   1      37.587  31.411  29.103  1.00  0.00     0.014 A 
ATOM     35  C   UNL A   1      36.331  29.689  30.227  1.00  0.00     0.014 A 
ATOM     36  C   UNL A   1      38.735  30.637  29.235  1.00  0.00     0.010 A 
ATOM     37  C   UNL A   1      37.479  28.915  30.369  1.00  0.00     0.010 A 
ATOM     38  C   UNL A   1      38.674  29.374  29.833  1.00  0.00    -0.014 A 
BRANCH  38  39
ATOM     39  C   UNL A   1      39.926  28.641  29.990  1.00  0.00     0.031 A 
ATOM     40  C   UNL A   1      40.482  28.691  31.370  1.00  0.00     0.074 A 
ATOM     41  C   UNL A   1      40.524  27.922  29.018  1.00  0.00     0.049 A 
ATOM     42  N   UNL A   1      41.538  29.322  31.772  1.00  0.00    -0.248 NA
ATOM     43  C   UNL A   1      39.684  28.099  32.455  1.00  0.00     0.031 C 
ATOM     44  C   UNL A   1      39.989  27.563  27.702  1.00  0.00     0.029 A 
ATOM     45  N   UNL A   1      41.716  27.258  29.054  1.00  0.00    -0.354 N 
ATOM     46  C   UNL A   1      41.670  29.000  33.120  1.00  0.00     0.074 A 
ATOM     47  C   UNL A   1      40.423  28.401  33.524  1.00  0.00     0.031 C 
ATOM     48  C   UNL A   1      40.735  26.566  27.175  1.00  0.00     0.029 A 
ATOM     49  C   UNL A   1      41.872  26.313  28.041  1.00  0.00     0.049 A 
ATOM     50  H   UNL A   1      42.405  27.430  29.736  1.00  0.00     0.167 HD
ATOM     51  C   UNL A   1      42.880  29.013  33.742  1.00  0.00     0.034 A 
ATOM     52  C   UNL A   1      42.837  25.360  27.967  1.00  0.00     0.034 A 
ATOM     53  C   UNL A   1      43.868  29.745  32.999  1.00  0.00     0.049 A 
ATOM     54  C   UNL A   1      43.962  25.829  28.810  1.00  0.00     0.074 A 
ATOM     55  C   UNL A   1      43.986  31.037  32.530  1.00  0.00     0.029 A 
ATOM     56  N   UNL A   1      44.798  29.003  32.312  1.00  0.00    -0.354 N 
ATOM     57  N   UNL A   1      44.701  26.863  28.524  1.00  0.00    -0.248 NA
ATOM     58  C   UNL A   1      44.030  25.363  30.184  1.00  0.00     0.031 C 
ATOM     59  C   UNL A   1      44.630  30.909  31.266  1.00  0.00     0.029 A 
ATOM     60  C   UNL A   1      44.913  29.556  31.067  1.00  0.00     0.049 A 
ATOM     61  H   UNL A   1      45.288  28.221  32.652  1.00  0.00     0.167 HD
ATOM     62  C   UNL A   1      44.964  27.443  29.755  1.00  0.00     0.074 A 
ATOM     63  C   UNL A   1      44.624  26.422  30.741  1.00  0.00     0.031 C 
ATOM     64  C   UNL A   1      45.159  28.788  29.868  1.00  0.00     0.034 A 
BRANCH  51  65
ATOM     65  C   UNL A   1      43.277  28.034  34.818  1.00  0.00     0.023 A 
ATOM     66  C   UNL A   1      43.850  28.544  36.002  1.00  0.00     0.012 A 
ATOM     67  C   UNL A   1      43.382  26.642  34.594  1.00  0.00     0.148 A 
ATOM     68  C   UNL A   1      44.516  27.711  36.907  1.00  0.00     0.002 A 
ATOM     69  C   UNL A   1      43.976  25.808  35.532  1.00  0.00     0.091 A 
ATOM     70  F   UNL A   1      43.040  26.132  33.407  1.00  0.00    -0.205 F 
ATOM     71  C   UNL A   1      44.568  26.340  36.678  1.00  0.00     0.022 A 
BRANCH  69  72
ATOM     72  S   UNL A   1      44.037  24.030  35.291  1.00  0.00     0.127 S 
ATOM     73  O   UNL A   1      42.612  23.697  35.247  1.00  0.00    -0.237 OA
ATOM     74  O   UNL A   1      44.735  23.930  34.005  1.00  0.00    -0.237 OA
ATOM     75  O   UNL A   1      44.785  23.510  36.418  1.00  0.00    -0.744 OA
ENDBRANCH  69  72
ENDBRANCH  51  65
BRANCH  52  76
ATOM     76  C   UNL A   1      42.811  23.975  27.428  1.00  0.00     0.023 A 
ATOM     77  C   UNL A   1      41.607  23.236  27.495  1.00  0.00     0.012 A 
ATOM     78  C   UNL A   1      43.835  23.486  26.588  1.00  0.00     0.148 A 
ATOM     79  C   UNL A   1      41.405  22.098  26.703  1.00  0.00     0.002 A 
ATOM     80  C   UNL A   1      43.634  22.344  25.814  1.00  0.00     0.091 A 
ATOM     81  F   UNL A   1      44.968  24.189  26.470  1.00  0.00    -0.205 F 
ATOM     82  C   UNL A   1      42.414  21.659  25.853  1.00  0.00     0.022 A 
BRANCH  80  83
ATOM     83  S   UNL A   1      44.892  21.717  24.690  1.00  0.00     0.127 S 
ATOM     84  O   UNL A   1      44.311  20.445  24.260  1.00  0.00    -0.237 OA
ATOM     85  O   UNL A   1      44.925  22.753  23.662  1.00  0.00    -0.237 OA
ATOM     86  O   UNL A   1      46.102  21.578  25.492  1.00  0.00    -0.744 OA
ENDBRANCH  80  83
ENDBRANCH  52  76
BRANCH  64  87
ATOM     87  C   UNL A   1      45.389  29.587  28.615  1.00  0.00     0.023 A 
ATOM     88  C   UNL A   1      44.328  30.049  27.809  1.00  0.00     0.012 A 
ATOM     89  C   UNL A   1      46.691  30.056  28.376  1.00  0.00     0.148 A 
ATOM     90  C   UNL A   1      44.567  30.968  26.783  1.00  0.00     0.002 A 
ATOM     91  C   UNL A   1      46.918  30.999  27.384  1.00  0.00     0.091 A 
ATOM     92  F   UNL A   1      47.678  29.606  29.165  1.00  0.00    -0.205 F 
ATOM     93  C   UNL A   1      45.858  31.455  26.582  1.00  0.00     0.022 A 
BRANCH  91  94
ATOM     94  S   UNL A   1      48.527  31.755  27.149  1.00  0.00     0.127 S 
ATOM     95  O   UNL A   1      49.319  30.637  26.641  1.00  0.00    -0.237 OA
ATOM     96  O   UNL A   1      48.236  32.798  26.164  1.00  0.00    -0.237 OA
ATOM     97  O   UNL A   1      48.934  32.261  28.455  1.00  0.00    -0.744 OA
ENDBRANCH  91  94
ENDBRANCH  64  87
ENDBRANCH  38  39
ENDBRANCH  30  33
ENDBRANCH  28  29
ENDBRANCH  27  28
ENDBRANCH   1  27
TORSDOF 18
ENDMDL
MODEL 3
REMARK VINA RESULT:     -12.4      2.969      7.175
REMARK SMILES Cc1nn(CC(F)F)c2c1c(C(F)(F)F)cc(=O)n2CC(=O)NCCCCNC(=O)c1ccc(-c2c3nc(c(-c4cccc(S(=O)(=O)[O-])c4F)c4ccc([nH]4)c(-c4cccc(S(=O)(=O)[O-])c4F)c4nc(c(-c5cccc(S(=O)(=O)[O-])c5F)c5ccc2[nH]5)C=C4)C=C3)cc1
REMARK SMILES IDX 25 1 24 2 23 3 21 4 22 5 20 7 19 8 1 9 2 10 3 11 10 12 4 13
REMARK SMILES IDX 9 14 11 15 16 16 17 17 18 18 5 19 6 20 7 21 8 22 12 23 13 24
REMARK SMILES IDX 14 25 15 26 26 27 27 28 28 29 29 30 30 32 31 33 32 34 93 35
REMARK SMILES IDX 33 36 92 37 34 38 35 39 36 40 86 41 37 42 91 43 85 44 87 45
REMARK SMILES IDX 38 46 90 47 84 48 83 49 39 51 71 52 51 53 70 54 52 55 55 56
REMARK SMILES IDX 69 57 88 58 53 59 54 60 68 62 89 63 56 64 40 65 41 66 49 67
REMARK SMILES IDX 42 68 44 69 50 70 43 71 45 72 46 73 47 74 48 75 72 76 73 77
REMARK SMILES IDX 81 78 74 79 76 80 82 81 75 82 77 83 78 84 79 85 80 86 57 87
REMARK SMILES IDX 58 88 66 89 59 90 61 91 67 92 60 93 62 94 63 95 64 96 65 97
REMARK H PARENT 23 6 28 31 87 50 55 61
REMARK Flexibility Score: inf
ROOT
ATOM      1  C   UNL A   1      34.545  22.261  24.628  1.00  0.00     0.023 C 
ENDROOT
BRANCH   1   2
ATOM      2  C   UNL A   1      34.769  23.712  24.216  1.00  0.00     0.116 C 
BRANCH   2   3
ATOM      3  N   UNL A   1      34.132  24.037  22.960  1.00  0.00    -0.355 N 
ATOM      4  C   UNL A   1      33.539  25.201  22.582  1.00  0.00     0.240 C 
ATOM      5  O   UNL A   1      33.374  25.383  21.370  1.00  0.00    -0.273 OA
ATOM      6  H   UNL A   1      34.126  23.319  22.286  1.00  0.00     0.163 HD
BRANCH   4   7
ATOM      7  C   UNL A   1      33.196  26.307  23.586  1.00  0.00     0.227 C 
BRANCH   7   8
ATOM      8  N   UNL A   1      32.084  27.198  23.243  1.00  0.00    -0.283 N 
ATOM      9  C   UNL A   1      27.091  27.768  23.634  1.00  0.00     0.069 C 
ATOM     10  C   UNL A   1      28.492  27.277  23.559  1.00  0.00     0.069 A 
ATOM     11  N   UNL A   1      28.704  25.999  23.890  1.00  0.00    -0.175 NA
ATOM     12  C   UNL A   1      29.710  27.898  23.196  1.00  0.00     0.053 A 
ATOM     13  N   UNL A   1      30.039  25.823  23.829  1.00  0.00    -0.243 N 
ATOM     14  C   UNL A   1      30.708  26.957  23.428  1.00  0.00     0.142 A 
ATOM     15  C   UNL A   1      30.086  29.185  22.706  1.00  0.00     0.074 A 
ATOM     16  C   UNL A   1      31.375  29.431  22.420  1.00  0.00     0.085 A 
ATOM     17  C   UNL A   1      32.433  28.413  22.635  1.00  0.00     0.253 A 
ATOM     18  O   UNL A   1      33.578  28.717  22.296  1.00  0.00    -0.269 OA
BRANCH  13  19
ATOM     19  C   UNL A   1      30.502  24.499  24.172  1.00  0.00     0.219 C 
BRANCH  19  20
ATOM     20  C   UNL A   1      30.772  24.333  25.645  1.00  0.00     0.363 C 
ATOM     21  F   UNL A   1      31.811  23.491  25.869  1.00  0.00    -0.208 F 
ATOM     22  F   UNL A   1      31.147  25.532  26.167  1.00  0.00    -0.208 F 
ENDBRANCH  19  20
ENDBRANCH  13  19
BRANCH  15  23
ATOM     23  C   UNL A   1      29.035  30.225  22.495  1.00  0.00     0.417 C 
ATOM     24  F   UNL A   1      28.101  29.834  21.591  1.00  0.00    -0.166 F 
ATOM     25  F   UNL A   1      28.389  30.547  23.642  1.00  0.00    -0.166 F 
ATOM     26  F   UNL A   1      29.553  31.388  22.013  1.00  0.00    -0.166 F 
ENDBRANCH  15  23
ENDBRANCH   7   8
ENDBRANCH   4   7
ENDBRANCH   2   3
ENDBRANCH   1   2
BRANCH   1  27
ATOM     27  C   UNL A   1      35.823  21.479  24.963  1.00  0.00     0.023 C 
BRANCH  27  28
ATOM     28  C   UNL A   1      37.111  22.307  24.958  1.00  0.00     0.116 C 
BRANCH  28  29
ATOM     29  N   UNL A   1      38.276  21.578  25.415  1.00  0.00    -0.352 N 
ATOM     30  C   UNL A   1      39.298  21.832  26.287  1.00  0.00     0.251 C 
ATOM     31  H   UNL A   1      38.348  20.688  25.000  1.00  0.00     0.163 HD
ATOM     32  O   UNL A   1      40.030  20.869  26.535  1.00  0.00    -0.269 OA
BRANCH  30  33
ATOM     33  C   UNL A   1      39.616  23.156  26.886  1.00  0.00     0.039 A 
ATOM     34  C   UNL A   1      38.910  24.337  26.663  1.00  0.00     0.014 A 
ATOM     35  C   UNL A   1      40.771  23.205  27.693  1.00  0.00     0.014 A 
ATOM     36  C   UNL A   1      39.390  25.544  27.159  1.00  0.00     0.010 A 
ATOM     37  C   UNL A   1      41.251  24.410  28.200  1.00  0.00     0.010 A 
ATOM     38  C   UNL A   1      40.580  25.586  27.895  1.00  0.00    -0.014 A 
BRANCH  38  39
ATOM     39  C   UNL A   1      40.994  26.877  28.433  1.00  0.00     0.031 A 
ATOM     40  C   UNL A   1      42.324  27.333  27.944  1.00  0.00     0.074 A 
ATOM     41  C   UNL A   1      40.245  27.646  29.249  1.00  0.00     0.049 A 
ATOM     42  N   UNL A   1      43.425  27.413  28.617  1.00  0.00    -0.248 NA
ATOM     43  C   UNL A   1      42.480  27.578  26.501  1.00  0.00     0.031 C 
ATOM     44  C   UNL A   1      38.837  27.470  29.614  1.00  0.00     0.029 A 
ATOM     45  N   UNL A   1      40.569  28.831  29.846  1.00  0.00    -0.354 N 
ATOM     46  C   UNL A   1      44.358  27.956  27.737  1.00  0.00     0.074 A 
ATOM     47  C   UNL A   1      43.779  27.870  26.420  1.00  0.00     0.031 C 
ATOM     48  C   UNL A   1      38.372  28.618  30.159  1.00  0.00     0.029 A 
ATOM     49  C   UNL A   1      39.471  29.553  30.311  1.00  0.00     0.049 A 
ATOM     50  H   UNL A   1      41.496  29.147  29.939  1.00  0.00     0.167 HD
ATOM     51  C   UNL A   1      45.428  28.669  28.181  1.00  0.00     0.034 A 
ATOM     52  C   UNL A   1      39.473  30.845  30.729  1.00  0.00     0.034 A 
ATOM     53  C   UNL A   1      45.684  28.457  29.578  1.00  0.00     0.049 A 
ATOM     54  C   UNL A   1      40.867  31.165  31.115  1.00  0.00     0.074 A 
ATOM     55  C   UNL A   1      45.962  27.362  30.370  1.00  0.00     0.029 A 
ATOM     56  N   UNL A   1      45.303  29.460  30.435  1.00  0.00    -0.354 N 
ATOM     57  N   UNL A   1      41.475  30.637  32.140  1.00  0.00    -0.248 NA
ATOM     58  C   UNL A   1      41.724  31.798  30.128  1.00  0.00     0.031 C 
ATOM     59  C   UNL A   1      45.278  27.614  31.595  1.00  0.00     0.029 A 
ATOM     60  C   UNL A   1      44.672  28.868  31.494  1.00  0.00     0.049 A 
ATOM     61  H   UNL A   1      45.455  30.424  30.310  1.00  0.00     0.167 HD
ATOM     62  C   UNL A   1      42.783  30.472  31.710  1.00  0.00     0.074 A 
ATOM     63  C   UNL A   1      42.903  31.303  30.515  1.00  0.00     0.031 C 
ATOM     64  C   UNL A   1      43.558  29.461  32.197  1.00  0.00     0.034 A 
BRANCH  51  65
ATOM     65  C   UNL A   1      45.998  29.860  27.454  1.00  0.00     0.023 A 
ATOM     66  C   UNL A   1      47.397  30.042  27.469  1.00  0.00     0.012 A 
ATOM     67  C   UNL A   1      45.208  30.949  27.018  1.00  0.00     0.148 A 
ATOM     68  C   UNL A   1      47.979  31.257  27.092  1.00  0.00     0.002 A 
ATOM     69  C   UNL A   1      45.794  32.125  26.570  1.00  0.00     0.091 A 
ATOM     70  F   UNL A   1      43.880  30.909  27.170  1.00  0.00    -0.205 F 
ATOM     71  C   UNL A   1      47.177  32.295  26.630  1.00  0.00     0.022 A 
BRANCH  69  72
ATOM     72  S   UNL A   1      44.797  33.479  25.937  1.00  0.00     0.127 S 
ATOM     73  O   UNL A   1      45.832  34.388  25.440  1.00  0.00    -0.237 OA
ATOM     74  O   UNL A   1      44.013  32.808  24.897  1.00  0.00    -0.237 OA
ATOM     75  O   UNL A   1      44.017  33.947  27.065  1.00  0.00    -0.744 OA
ENDBRANCH  69  72
ENDBRANCH  51  65
BRANCH  52  76
ATOM     76  C   UNL A   1      38.446  31.914  30.622  1.00  0.00     0.023 A 
ATOM     77  C   UNL A   1      38.053  32.362  29.340  1.00  0.00     0.012 A 
ATOM     78  C   UNL A   1      37.635  32.277  31.720  1.00  0.00     0.148 A 
ATOM     79  C   UNL A   1      36.865  33.080  29.149  1.00  0.00     0.002 A 
ATOM     80  C   UNL A   1      36.462  33.005  31.526  1.00  0.00     0.091 A 
ATOM     81  F   UNL A   1      37.957  31.829  32.939  1.00  0.00    -0.205 F 
ATOM     82  C   UNL A   1      36.063  33.391  30.242  1.00  0.00     0.022 A 
BRANCH  80  83
ATOM     83  S   UNL A   1      35.373  33.443  32.891  1.00  0.00     0.127 S 
ATOM     84  O   UNL A   1      35.564  34.891  32.981  1.00  0.00    -0.237 OA
ATOM     85  O   UNL A   1      34.068  33.028  32.384  1.00  0.00    -0.237 OA
ATOM     86  O   UNL A   1      35.870  32.703  34.045  1.00  0.00    -0.744 OA
ENDBRANCH  80  83
ENDBRANCH  52  76
BRANCH  64  87
ATOM     87  C   UNL A   1      43.086  28.720  33.418  1.00  0.00     0.023 A 
ATOM     88  C   UNL A   1      42.182  27.641  33.344  1.00  0.00     0.012 A 
ATOM     89  C   UNL A   1      43.741  28.989  34.631  1.00  0.00     0.148 A 
ATOM     90  C   UNL A   1      41.940  26.842  34.465  1.00  0.00     0.002 A 
ATOM     91  C   UNL A   1      43.530  28.169  35.730  1.00  0.00     0.091 A 
ATOM     92  F   UNL A   1      44.603  30.017  34.669  1.00  0.00    -0.205 F 
ATOM     93  C   UNL A   1      42.627  27.096  35.652  1.00  0.00     0.022 A 
BRANCH  91  94
ATOM     94  S   UNL A   1      44.464  28.364  37.248  1.00  0.00     0.127 S 
ATOM     95  O   UNL A   1      44.016  29.674  37.717  1.00  0.00    -0.237 OA
ATOM     96  O   UNL A   1      43.993  27.232  38.047  1.00  0.00    -0.237 OA
ATOM     97  O   UNL A   1      45.871  28.288  36.873  1.00  0.00    -0.744 OA
ENDBRANCH  91  94
ENDBRANCH  64  87
ENDBRANCH  38  39
ENDBRANCH  30  33
ENDBRANCH  28  29
ENDBRANCH  27  28
ENDBRANCH   1  27
TORSDOF 18
ENDMDL
