MODEL 1
REMARK VINA RESULT:     -15.9      0.000      0.000
REMARK SMILES CC(C)[C@H]1C(=O)Nc2ccccc2N1C(=O)N[C@H](Cc1ccccc1)C(=O)NCCCCNC(=O)c1ccc(-c2c3nc(c(-c4cccc(S(=O)(=O)[O-])c4F)c4ccc([nH]4)c(-c4cccc(S(=O)(=O)[O-])c4F)c4nc(c(-c5cccc(S(=O)(=O)[O-])c5F)c5ccc2[nH]5)C=C4)C=C3)cc1
REMARK SMILES IDX 30 1 29 2 28 3 26 4 27 5 18 7 17 8 15 9 16 10 14 12 4 13
REMARK SMILES IDX 5 14 6 15 7 16 13 17 8 18 12 20 9 21 11 22 10 23 2 24 1 25
REMARK SMILES IDX 3 26 19 27 20 28 21 29 25 30 22 31 24 32 23 33 31 34 32 35
REMARK SMILES IDX 33 36 34 37 35 39 36 40 37 41 98 42 38 43 97 44 39 45 40 46
REMARK SMILES IDX 41 47 91 48 42 49 96 50 90 51 92 52 43 53 95 54 89 55 88 56
REMARK SMILES IDX 44 58 76 59 56 60 75 61 57 62 60 63 74 64 93 65 58 66 59 67
REMARK SMILES IDX 73 69 94 70 61 71 45 72 46 73 54 74 47 75 49 76 55 77 48 78
REMARK SMILES IDX 50 79 51 80 52 81 53 82 77 83 78 84 86 85 79 86 81 87 87 88
REMARK SMILES IDX 80 89 82 90 83 91 84 92 85 93 62 94 63 95 71 96 64 97 66 98
REMARK SMILES IDX 72 99 65 100 67 101 68 102 69 103 70 104
REMARK H PARENT 28 6 17 11 7 19 33 38 92 57 60 68
REMARK Flexibility Score: inf
ROOT
ATOM      1  C   UNL A   1      31.502  30.132  26.356  1.00  0.00     0.023 C 
ENDROOT
BRANCH   1   2
ATOM      2  C   UNL A   1      31.392  29.279  24.351  1.00  0.00     0.116 C 
BRANCH   2   3
ATOM      3  N   UNL A   1      32.857  29.065  23.197  1.00  0.00    -0.354 N 
ATOM      4  C   UNL A   1      33.579  27.925  22.328  1.00  0.00     0.242 C 
ATOM      5  O   UNL A   1      34.440  28.320  21.530  1.00  0.00    -0.273 OA
ATOM      6  H   UNL A   1      33.332  29.921  23.093  1.00  0.00     0.163 HD
BRANCH   4   7
ATOM      7  C   UNL A   1      33.443  26.037  22.662  1.00  0.00     0.177 C 
BRANCH   7   8
ATOM      8  N   UNL A   1      31.847  25.109  22.583  1.00  0.00    -0.326 N 
ATOM      9  C   UNL A   1      31.151  23.774  23.366  1.00  0.00     0.323 C 
ATOM     10  O   UNL A   1      29.928  23.642  23.312  1.00  0.00    -0.248 OA
ATOM     11  H   UNL A   1      31.240  25.490  21.908  1.00  0.00     0.166 HD
BRANCH   9  12
ATOM     12  N   UNL A   1      32.162  22.895  24.407  1.00  0.00    -0.280 N 
ATOM     13  C   UNL A   1      32.488  23.453  26.144  1.00  0.00     0.184 C 
ATOM     14  C   UNL A   1      32.840  22.159  27.664  1.00  0.00     0.247 C 
ATOM     15  O   UNL A   1      32.800  22.381  28.867  1.00  0.00    -0.272 OA
ATOM     16  N   UNL A   1      33.201  20.512  26.995  1.00  0.00    -0.322 N 
ATOM     17  C   UNL A   1      32.488  21.223  24.083  1.00  0.00     0.070 A 
ATOM     18  C   UNL A   1      33.021  20.128  25.235  1.00  0.00     0.065 A 
ATOM     19  H   UNL A   1      33.505  19.803  27.608  1.00  0.00     0.170 HD
ATOM     20  C   UNL A   1      32.062  20.691  22.880  1.00  0.00     0.028 A 
ATOM     21  C   UNL A   1      33.542  18.962  24.719  1.00  0.00     0.028 A 
ATOM     22  C   UNL A   1      32.368  19.353  22.597  1.00  0.00     0.002 A 
ATOM     23  C   UNL A   1      33.210  18.584  23.417  1.00  0.00     0.002 A 
BRANCH  13  24
ATOM     24  C   UNL A   1      31.333  24.173  25.770  1.00  0.00     0.015 C 
ATOM     25  C   UNL A   1      30.143  23.095  26.589  1.00  0.00     0.010 C 
ATOM     26  C   UNL A   1      31.595  26.169  25.974  1.00  0.00     0.010 C 
ENDBRANCH  13  24
ENDBRANCH   9  12
ENDBRANCH   7   8
BRANCH   7  27
ATOM     27  C   UNL A   1      34.311  25.795  24.009  1.00  0.00     0.070 C 
BRANCH  27  28
ATOM     28  C   UNL A   1      35.119  24.563  24.322  1.00  0.00    -0.045 A 
ATOM     29  C   UNL A   1      35.299  23.608  23.289  1.00  0.00     0.004 A 
ATOM     30  C   UNL A   1      35.613  24.279  25.588  1.00  0.00     0.004 A 
ATOM     31  C   UNL A   1      35.908  22.381  23.536  1.00  0.00     0.000 A 
ATOM     32  C   UNL A   1      36.221  23.045  25.834  1.00  0.00     0.000 A 
ATOM     33  C   UNL A   1      36.350  22.091  24.819  1.00  0.00     0.000 A 
ENDBRANCH  27  28
ENDBRANCH   7  27
ENDBRANCH   4   7
ENDBRANCH   2   3
ENDBRANCH   1   2
BRANCH   1  34
ATOM     34  C   UNL A   1      31.542  31.907  26.804  1.00  0.00     0.023 C 
BRANCH  34  35
ATOM     35  C   UNL A   1      32.898  32.525  27.206  1.00  0.00     0.116 C 
BRANCH  35  36
ATOM     36  N   UNL A   1      32.643  33.804  27.813  1.00  0.00    -0.352 N 
ATOM     37  C   UNL A   1      33.358  34.517  28.721  1.00  0.00     0.251 C 
ATOM     38  H   UNL A   1      31.807  34.235  27.521  1.00  0.00     0.163 HD
ATOM     39  O   UNL A   1      32.925  35.594  29.121  1.00  0.00    -0.269 OA
BRANCH  37  40
ATOM     40  C   UNL A   1      34.615  33.988  29.269  1.00  0.00     0.039 A 
ATOM     41  C   UNL A   1      34.516  33.198  30.408  1.00  0.00     0.014 A 
ATOM     42  C   UNL A   1      35.870  34.301  28.739  1.00  0.00     0.014 A 
ATOM     43  C   UNL A   1      35.677  32.753  31.019  1.00  0.00     0.010 A 
ATOM     44  C   UNL A   1      37.033  33.893  29.356  1.00  0.00     0.010 A 
ATOM     45  C   UNL A   1      36.931  33.112  30.497  1.00  0.00    -0.014 A 
BRANCH  45  46
ATOM     46  C   UNL A   1      38.150  32.545  31.068  1.00  0.00     0.031 A 
ATOM     47  C   UNL A   1      38.769  33.144  32.283  1.00  0.00     0.074 A 
ATOM     48  C   UNL A   1      38.678  31.493  30.424  1.00  0.00     0.049 A 
ATOM     49  N   UNL A   1      39.744  32.672  33.005  1.00  0.00    -0.248 NA
ATOM     50  C   UNL A   1      38.244  34.443  32.741  1.00  0.00     0.031 C 
ATOM     51  C   UNL A   1      38.178  30.946  29.157  1.00  0.00     0.029 A 
ATOM     52  N   UNL A   1      39.732  30.692  30.745  1.00  0.00    -0.354 N 
ATOM     53  C   UNL A   1      39.950  33.606  34.008  1.00  0.00     0.074 A 
ATOM     54  C   UNL A   1      39.034  34.699  33.773  1.00  0.00     0.031 C 
ATOM     55  C   UNL A   1      38.892  29.858  28.840  1.00  0.00     0.029 A 
ATOM     56  C   UNL A   1      39.915  29.662  29.858  1.00  0.00     0.049 A 
ATOM     57  H   UNL A   1      40.303  30.838  31.533  1.00  0.00     0.167 HD
ATOM     58  C   UNL A   1      40.816  33.527  35.043  1.00  0.00     0.034 A 
ATOM     59  C   UNL A   1      40.815  28.665  29.882  1.00  0.00     0.034 A 
ATOM     60  C   UNL A   1      41.724  32.428  35.220  1.00  0.00     0.049 A 
ATOM     61  C   UNL A   1      41.748  28.598  31.052  1.00  0.00     0.074 A 
ATOM     62  C   UNL A   1      42.610  32.202  36.255  1.00  0.00     0.029 A 
ATOM     63  N   UNL A   1      41.884  31.384  34.318  1.00  0.00    -0.354 N 
ATOM     64  N   UNL A   1      41.833  29.400  32.087  1.00  0.00    -0.248 NA
ATOM     65  C   UNL A   1      42.682  27.468  31.082  1.00  0.00     0.031 C 
ATOM     66  C   UNL A   1      43.348  31.054  35.949  1.00  0.00     0.029 A 
ATOM     67  C   UNL A   1      42.869  30.521  34.761  1.00  0.00     0.049 A 
ATOM     68  H   UNL A   1      41.370  31.275  33.485  1.00  0.00     0.167 HD
ATOM     69  C   UNL A   1      42.802  28.852  32.914  1.00  0.00     0.074 A 
ATOM     70  C   UNL A   1      43.256  27.637  32.264  1.00  0.00     0.031 C 
ATOM     71  C   UNL A   1      43.277  29.307  34.100  1.00  0.00     0.034 A 
BRANCH  58  72
ATOM     72  C   UNL A   1      40.811  34.648  36.045  1.00  0.00     0.023 A 
ATOM     73  C   UNL A   1      39.676  34.874  36.851  1.00  0.00     0.012 A 
ATOM     74  C   UNL A   1      41.950  35.458  36.214  1.00  0.00     0.148 A 
ATOM     75  C   UNL A   1      39.661  35.910  37.784  1.00  0.00     0.002 A 
ATOM     76  C   UNL A   1      41.947  36.454  37.181  1.00  0.00     0.091 A 
ATOM     77  F   UNL A   1      43.007  35.245  35.420  1.00  0.00    -0.205 F 
ATOM     78  C   UNL A   1      40.799  36.692  37.956  1.00  0.00     0.022 A 
BRANCH  76  79
ATOM     79  S   UNL A   1      43.388  37.464  37.532  1.00  0.00     0.127 S 
ATOM     80  O   UNL A   1      43.596  38.136  36.249  1.00  0.00    -0.237 OA
ATOM     81  O   UNL A   1      42.897  38.330  38.603  1.00  0.00    -0.237 OA
ATOM     82  O   UNL A   1      44.444  36.542  37.925  1.00  0.00    -0.744 OA
ENDBRANCH  76  79
ENDBRANCH  58  72
BRANCH  59  83
ATOM     83  C   UNL A   1      40.830  27.652  28.796  1.00  0.00     0.023 A 
ATOM     84  C   UNL A   1      39.872  26.622  28.774  1.00  0.00     0.012 A 
ATOM     85  C   UNL A   1      41.787  27.727  27.768  1.00  0.00     0.148 A 
ATOM     86  C   UNL A   1      39.898  25.654  27.771  1.00  0.00     0.002 A 
ATOM     87  C   UNL A   1      41.772  26.795  26.740  1.00  0.00     0.091 A 
ATOM     88  F   UNL A   1      42.684  28.723  27.807  1.00  0.00    -0.205 F 
ATOM     89  C   UNL A   1      40.843  25.744  26.751  1.00  0.00     0.022 A 
BRANCH  87  90
ATOM     90  S   UNL A   1      42.871  26.909  25.326  1.00  0.00     0.127 S 
ATOM     91  O   UNL A   1      44.178  26.989  25.972  1.00  0.00    -0.237 OA
ATOM     92  O   UNL A   1      42.597  25.650  24.633  1.00  0.00    -0.237 OA
ATOM     93  O   UNL A   1      42.455  28.100  24.597  1.00  0.00    -0.744 OA
ENDBRANCH  87  90
ENDBRANCH  59  83
BRANCH  71  94
ATOM     94  C   UNL A   1      44.300  28.451  34.796  1.00  0.00     0.023 A 
ATOM     95  C   UNL A   1      45.677  28.667  34.589  1.00  0.00     0.012 A 
ATOM     96  C   UNL A   1      43.880  27.453  35.696  1.00  0.00     0.148 A 
ATOM     97  C   UNL A   1      46.619  27.861  35.226  1.00  0.00     0.002 A 
ATOM     98  C   UNL A   1      44.824  26.700  36.377  1.00  0.00     0.091 A 
ATOM     99  F   UNL A   1      42.565  27.256  35.865  1.00  0.00    -0.205 F 
ATOM    100  C   UNL A   1      46.194  26.888  36.128  1.00  0.00     0.022 A 
BRANCH  98 101
ATOM    101  S   UNL A   1      44.370  25.502  37.634  1.00  0.00     0.127 S 
ATOM    102  O   UNL A   1      43.430  24.652  36.906  1.00  0.00    -0.237 OA
ATOM    103  O   UNL A   1      45.657  24.873  37.935  1.00  0.00    -0.237 OA
ATOM    104  O   UNL A   1      43.797  26.266  38.733  1.00  0.00    -0.744 OA
ENDBRANCH  98 101
ENDBRANCH  71  94
ENDBRANCH  45  46
ENDBRANCH  37  40
ENDBRANCH  35  36
ENDBRANCH  34  35
ENDBRANCH   1  34
TORSDOF 19
ENDMDL
MODEL 2
REMARK VINA RESULT:     -15.7      2.013      7.300
REMARK SMILES CC(C)[C@H]1C(=O)Nc2ccccc2N1C(=O)N[C@H](Cc1ccccc1)C(=O)NCCCCNC(=O)c1ccc(-c2c3nc(c(-c4cccc(S(=O)(=O)[O-])c4F)c4ccc([nH]4)c(-c4cccc(S(=O)(=O)[O-])c4F)c4nc(c(-c5cccc(S(=O)(=O)[O-])c5F)c5ccc2[nH]5)C=C4)C=C3)cc1
REMARK SMILES IDX 30 1 29 2 28 3 26 4 27 5 18 7 17 8 15 9 16 10 14 12 4 13
REMARK SMILES IDX 5 14 6 15 7 16 13 17 8 18 12 20 9 21 11 22 10 23 2 24 1 25
REMARK SMILES IDX 3 26 19 27 20 28 21 29 25 30 22 31 24 32 23 33 31 34 32 35
REMARK SMILES IDX 33 36 34 37 35 39 36 40 37 41 98 42 38 43 97 44 39 45 40 46
REMARK SMILES IDX 41 47 91 48 42 49 96 50 90 51 92 52 43 53 95 54 89 55 88 56
REMARK SMILES IDX 44 58 76 59 56 60 75 61 57 62 60 63 74 64 93 65 58 66 59 67
REMARK SMILES IDX 73 69 94 70 61 71 45 72 46 73 54 74 47 75 49 76 55 77 48 78
REMARK SMILES IDX 50 79 51 80 52 81 53 82 77 83 78 84 86 85 79 86 81 87 87 88
REMARK SMILES IDX 80 89 82 90 83 91 84 92 85 93 62 94 63 95 71 96 64 97 66 98
REMARK SMILES IDX 72 99 65 100 67 101 68 102 69 103 70 104
REMARK H PARENT 28 6 17 11 7 19 33 38 92 57 60 68
REMARK Flexibility Score: inf
ROOT
ATOM      1  C   UNL A   1      31.499  30.135  26.334  1.00  0.00     0.023 C 
ENDROOT
BRANCH   1   2
ATOM      2  C   UNL A   1      31.356  29.260  24.340  1.00  0.00     0.116 C 
BRANCH   2   3
ATOM      3  N   UNL A   1      32.801  29.037  23.163  1.00  0.00    -0.354 N 
ATOM      4  C   UNL A   1      33.512  27.890  22.295  1.00  0.00     0.242 C 
ATOM      5  O   UNL A   1      34.356  28.279  21.476  1.00  0.00    -0.273 OA
ATOM      6  H   UNL A   1      33.271  29.894  23.040  1.00  0.00     0.163 HD
BRANCH   4   7
ATOM      7  C   UNL A   1      33.389  26.006  22.653  1.00  0.00     0.177 C 
BRANCH   7   8
ATOM      8  N   UNL A   1      31.801  25.065  22.583  1.00  0.00    -0.326 N 
ATOM      9  C   UNL A   1      31.125  23.716  23.361  1.00  0.00     0.323 C 
ATOM     10  O   UNL A   1      29.903  23.574  23.319  1.00  0.00    -0.248 OA
ATOM     11  H   UNL A   1      31.183  25.446  21.918  1.00  0.00     0.166 HD
BRANCH   9  12
ATOM     12  N   UNL A   1      32.154  22.837  24.383  1.00  0.00    -0.280 N 
ATOM     13  C   UNL A   1      32.506  23.389  26.117  1.00  0.00     0.184 C 
ATOM     14  C   UNL A   1      32.886  22.091  27.626  1.00  0.00     0.247 C 
ATOM     15  O   UNL A   1      32.863  22.309  28.831  1.00  0.00    -0.272 OA
ATOM     16  N   UNL A   1      33.242  20.448  26.945  1.00  0.00    -0.322 N 
ATOM     17  C   UNL A   1      32.481  21.167  24.048  1.00  0.00     0.070 A 
ATOM     18  C   UNL A   1      33.036  20.070  25.188  1.00  0.00     0.065 A 
ATOM     19  H   UNL A   1      33.557  19.738  27.552  1.00  0.00     0.170 HD
ATOM     20  C   UNL A   1      32.038  20.638  22.850  1.00  0.00     0.028 A 
ATOM     21  C   UNL A   1      33.552  18.907  24.659  1.00  0.00     0.028 A 
ATOM     22  C   UNL A   1      32.344  19.302  22.557  1.00  0.00     0.002 A 
ATOM     23  C   UNL A   1      33.202  18.533  23.361  1.00  0.00     0.002 A 
BRANCH  13  24
ATOM     24  C   UNL A   1      31.342  24.107  25.763  1.00  0.00     0.015 C 
ATOM     25  C   UNL A   1      30.164  22.992  26.550  1.00  0.00     0.010 C 
ATOM     26  C   UNL A   1      31.582  26.099  26.025  1.00  0.00     0.010 C 
ENDBRANCH  13  24
ENDBRANCH   9  12
ENDBRANCH   7   8
BRANCH   7  27
ATOM     27  C   UNL A   1      34.255  25.788  24.006  1.00  0.00     0.070 C 
BRANCH  27  28
ATOM     28  C   UNL A   1      35.143  24.607  24.298  1.00  0.00    -0.045 A 
ATOM     29  C   UNL A   1      35.200  23.566  23.336  1.00  0.00     0.004 A 
ATOM     30  C   UNL A   1      35.828  24.449  25.495  1.00  0.00     0.004 A 
ATOM     31  C   UNL A   1      35.880  22.379  23.594  1.00  0.00     0.000 A 
ATOM     32  C   UNL A   1      36.507  23.254  25.752  1.00  0.00     0.000 A 
ATOM     33  C   UNL A   1      36.517  22.216  24.816  1.00  0.00     0.000 A 
ENDBRANCH  27  28
ENDBRANCH   7  27
ENDBRANCH   4   7
ENDBRANCH   2   3
ENDBRANCH   1   2
BRANCH   1  34
ATOM     34  C   UNL A   1      31.596  31.914  26.758  1.00  0.00     0.023 C 
BRANCH  34  35
ATOM     35  C   UNL A   1      32.976  32.501  27.122  1.00  0.00     0.116 C 
BRANCH  35  36
ATOM     36  N   UNL A   1      32.767  33.795  27.715  1.00  0.00    -0.352 N 
ATOM     37  C   UNL A   1      33.427  34.433  28.716  1.00  0.00     0.251 C 
ATOM     38  H   UNL A   1      32.017  34.305  27.330  1.00  0.00     0.163 HD
ATOM     39  O   UNL A   1      33.051  35.544  29.078  1.00  0.00    -0.269 OA
BRANCH  37  40
ATOM     40  C   UNL A   1      34.553  33.785  29.404  1.00  0.00     0.039 A 
ATOM     41  C   UNL A   1      34.232  32.826  30.358  1.00  0.00     0.014 A 
ATOM     42  C   UNL A   1      35.887  34.140  29.187  1.00  0.00     0.014 A 
ATOM     43  C   UNL A   1      35.251  32.254  31.103  1.00  0.00     0.010 A 
ATOM     44  C   UNL A   1      36.906  33.603  29.944  1.00  0.00     0.010 A 
ATOM     45  C   UNL A   1      36.582  32.653  30.901  1.00  0.00    -0.014 A 
BRANCH  45  46
ATOM     46  C   UNL A   1      37.665  31.965  31.598  1.00  0.00     0.031 A 
ATOM     47  C   UNL A   1      38.430  30.877  30.927  1.00  0.00     0.074 A 
ATOM     48  C   UNL A   1      37.900  32.347  32.863  1.00  0.00     0.049 A 
ATOM     49  N   UNL A   1      39.513  30.284  31.338  1.00  0.00    -0.248 NA
ATOM     50  C   UNL A   1      37.910  30.377  29.642  1.00  0.00     0.031 C 
ATOM     51  C   UNL A   1      37.095  33.323  33.609  1.00  0.00     0.029 A 
ATOM     52  N   UNL A   1      38.879  31.980  33.735  1.00  0.00    -0.354 N 
ATOM     53  C   UNL A   1      39.815  29.345  30.364  1.00  0.00     0.074 A 
ATOM     54  C   UNL A   1      38.772  29.409  29.366  1.00  0.00     0.031 C 
ATOM     55  C   UNL A   1      37.653  33.521  34.810  1.00  0.00     0.029 A 
ATOM     56  C   UNL A   1      38.823  32.660  34.925  1.00  0.00     0.049 A 
ATOM     57  H   UNL A   1      39.558  31.297  33.533  1.00  0.00     0.167 HD
ATOM     58  C   UNL A   1      40.890  28.527  30.312  1.00  0.00     0.034 A 
ATOM     59  C   UNL A   1      39.643  32.591  35.987  1.00  0.00     0.034 A 
ATOM     60  C   UNL A   1      41.890  28.484  31.343  1.00  0.00     0.049 A 
ATOM     61  C   UNL A   1      40.834  31.688  35.889  1.00  0.00     0.074 A 
ATOM     62  C   UNL A   1      43.055  27.742  31.382  1.00  0.00     0.029 A 
ATOM     63  N   UNL A   1      41.825  29.194  32.535  1.00  0.00    -0.354 N 
ATOM     64  N   UNL A   1      41.205  30.916  34.895  1.00  0.00    -0.248 NA
ATOM     65  C   UNL A   1      41.743  31.675  37.039  1.00  0.00     0.031 C 
ATOM     66  C   UNL A   1      43.661  27.957  32.624  1.00  0.00     0.029 A 
ATOM     67  C   UNL A   1      42.916  28.892  33.328  1.00  0.00     0.049 A 
ATOM     68  H   UNL A   1      41.105  29.820  32.780  1.00  0.00     0.167 HD
ATOM     69  C   UNL A   1      42.412  30.353  35.280  1.00  0.00     0.074 A 
ATOM     70  C   UNL A   1      42.716  30.894  36.592  1.00  0.00     0.031 C 
ATOM     71  C   UNL A   1      43.199  29.470  34.618  1.00  0.00     0.034 A 
BRANCH  58  72
ATOM     72  C   UNL A   1      41.030  27.632  29.112  1.00  0.00     0.023 A 
ATOM     73  C   UNL A   1      40.251  26.461  29.007  1.00  0.00     0.012 A 
ATOM     74  C   UNL A   1      41.910  27.971  28.068  1.00  0.00     0.148 A 
ATOM     75  C   UNL A   1      40.372  25.624  27.899  1.00  0.00     0.002 A 
ATOM     76  C   UNL A   1      41.987  27.161  26.944  1.00  0.00     0.091 A 
ATOM     77  F   UNL A   1      42.661  29.073  28.200  1.00  0.00    -0.205 F 
ATOM     78  C   UNL A   1      41.231  25.980  26.863  1.00  0.00     0.022 A 
BRANCH  76  79
ATOM     79  S   UNL A   1      43.006  27.572  25.525  1.00  0.00     0.127 S 
ATOM     80  O   UNL A   1      43.274  26.249  24.962  1.00  0.00    -0.237 OA
ATOM     81  O   UNL A   1      42.099  28.401  24.731  1.00  0.00    -0.237 OA
ATOM     82  O   UNL A   1      44.171  28.269  26.050  1.00  0.00    -0.744 OA
ENDBRANCH  76  79
ENDBRANCH  58  72
BRANCH  59  83
ATOM     83  C   UNL A   1      39.379  33.428  37.185  1.00  0.00     0.023 A 
ATOM     84  C   UNL A   1      39.858  34.750  37.245  1.00  0.00     0.012 A 
ATOM     85  C   UNL A   1      38.628  32.916  38.258  1.00  0.00     0.148 A 
ATOM     86  C   UNL A   1      39.634  35.531  38.379  1.00  0.00     0.002 A 
ATOM     87  C   UNL A   1      38.359  33.717  39.358  1.00  0.00     0.091 A 
ATOM     88  F   UNL A   1      38.175  31.657  38.172  1.00  0.00    -0.205 F 
ATOM     89  C   UNL A   1      38.879  35.018  39.431  1.00  0.00     0.022 A 
BRANCH  87  90
ATOM     90  S   UNL A   1      37.293  33.180  40.698  1.00  0.00     0.127 S 
ATOM     91  O   UNL A   1      37.235  34.380  41.529  1.00  0.00    -0.237 OA
ATOM     92  O   UNL A   1      36.056  32.860  39.986  1.00  0.00    -0.237 OA
ATOM     93  O   UNL A   1      37.958  32.032  41.297  1.00  0.00    -0.744 OA
ENDBRANCH  87  90
ENDBRANCH  59  83
BRANCH  71  94
ATOM     94  C   UNL A   1      44.495  29.083  35.279  1.00  0.00     0.023 A 
ATOM     95  C   UNL A   1      45.699  29.723  34.927  1.00  0.00     0.012 A 
ATOM     96  C   UNL A   1      44.498  28.102  36.289  1.00  0.00     0.148 A 
ATOM     97  C   UNL A   1      46.898  29.351  35.532  1.00  0.00     0.002 A 
ATOM     98  C   UNL A   1      45.683  27.784  36.934  1.00  0.00     0.091 A 
ATOM     99  F   UNL A   1      43.342  27.496  36.596  1.00  0.00    -0.205 F 
ATOM    100  C   UNL A   1      46.888  28.391  36.542  1.00  0.00     0.022 A 
BRANCH  98 101
ATOM    101  S   UNL A   1      45.745  26.642  38.317  1.00  0.00     0.127 S 
ATOM    102  O   UNL A   1      45.687  25.350  37.636  1.00  0.00    -0.237 OA
ATOM    103  O   UNL A   1      47.041  26.960  38.917  1.00  0.00    -0.237 OA
ATOM    104  O   UNL A   1      44.596  26.958  39.154  1.00  0.00    -0.744 OA
ENDBRANCH  98 101
ENDBRANCH  71  94
ENDBRANCH  45  46
ENDBRANCH  37  40
ENDBRANCH  35  36
ENDBRANCH  34  35
ENDBRANCH   1  34
TORSDOF 19
ENDMDL
MODEL 3
REMARK VINA RESULT:     -15.6      1.873      2.275
REMARK SMILES CC(C)[C@H]1C(=O)Nc2ccccc2N1C(=O)N[C@H](Cc1ccccc1)C(=O)NCCCCNC(=O)c1ccc(-c2c3nc(c(-c4cccc(S(=O)(=O)[O-])c4F)c4ccc([nH]4)c(-c4cccc(S(=O)(=O)[O-])c4F)c4nc(c(-c5cccc(S(=O)(=O)[O-])c5F)c5ccc2[nH]5)C=C4)C=C3)cc1
REMARK SMILES IDX 30 1 29 2 28 3 26 4 27 5 18 7 17 8 15 9 16 10 14 12 4 13
REMARK SMILES IDX 5 14 6 15 7 16 13 17 8 18 12 20 9 21 11 22 10 23 2 24 1 25
REMARK SMILES IDX 3 26 19 27 20 28 21 29 25 30 22 31 24 32 23 33 31 34 32 35
REMARK SMILES IDX 33 36 34 37 35 39 36 40 37 41 98 42 38 43 97 44 39 45 40 46
REMARK SMILES IDX 41 47 91 48 42 49 96 50 90 51 92 52 43 53 95 54 89 55 88 56
REMARK SMILES IDX 44 58 76 59 56 60 75 61 57 62 60 63 74 64 93 65 58 66 59 67
REMARK SMILES IDX 73 69 94 70 61 71 45 72 46 73 54 74 47 75 49 76 55 77 48 78
REMARK SMILES IDX 50 79 51 80 52 81 53 82 77 83 78 84 86 85 79 86 81 87 87 88
REMARK SMILES IDX 80 89 82 90 83 91 84 92 85 93 62 94 63 95 71 96 64 97 66 98
REMARK SMILES IDX 72 99 65 100 67 101 68 102 69 103 70 104
REMARK H PARENT 28 6 17 11 7 19 33 38 92 57 60 68
REMARK Flexibility Score: inf
ROOT
ATOM      1  C   UNL A   1      31.375  29.996  26.114  1.00  0.00     0.023 C 
ENDROOT
BRANCH   1   2
ATOM      2  C   UNL A   1      31.311  29.191  24.086  1.00  0.00     0.116 C 
BRANCH   2   3
ATOM      3  N   UNL A   1      32.809  28.968  22.977  1.00  0.00    -0.354 N 
ATOM      4  C   UNL A   1      33.556  27.820  22.139  1.00  0.00     0.242 C 
ATOM      5  O   UNL A   1      34.438  28.209  21.362  1.00  0.00    -0.273 OA
ATOM      6  H   UNL A   1      33.286  29.823  22.877  1.00  0.00     0.163 HD
BRANCH   4   7
ATOM      7  C   UNL A   1      33.412  25.936  22.487  1.00  0.00     0.177 C 
BRANCH   7   8
ATOM      8  N   UNL A   1      31.806  25.023  22.460  1.00  0.00    -0.326 N 
ATOM      9  C   UNL A   1      31.109  23.718  23.293  1.00  0.00     0.323 C 
ATOM     10  O   UNL A   1      29.884  23.597  23.262  1.00  0.00    -0.248 OA
ATOM     11  H   UNL A   1      31.193  25.389  21.784  1.00  0.00     0.166 HD
BRANCH   9  12
ATOM     12  N   UNL A   1      32.127  22.860  24.343  1.00  0.00    -0.280 N 
ATOM     13  C   UNL A   1      32.439  23.432  26.078  1.00  0.00     0.184 C 
ATOM     14  C   UNL A   1      32.803  22.152  27.607  1.00  0.00     0.247 C 
ATOM     15  O   UNL A   1      32.754  22.381  28.809  1.00  0.00    -0.272 OA
ATOM     16  N   UNL A   1      33.189  20.506  26.950  1.00  0.00    -0.322 N 
ATOM     17  C   UNL A   1      32.478  21.190  24.031  1.00  0.00     0.070 A 
ATOM     18  C   UNL A   1      33.022  20.110  25.192  1.00  0.00     0.065 A 
ATOM     19  H   UNL A   1      33.499  19.806  27.569  1.00  0.00     0.170 HD
ATOM     20  C   UNL A   1      32.065  20.645  22.830  1.00  0.00     0.028 A 
ATOM     21  C   UNL A   1      33.560  18.948  24.685  1.00  0.00     0.028 A 
ATOM     22  C   UNL A   1      32.390  19.310  22.556  1.00  0.00     0.002 A 
ATOM     23  C   UNL A   1      33.240  18.557  23.384  1.00  0.00     0.002 A 
BRANCH  13  24
ATOM     24  C   UNL A   1      31.275  24.134  25.695  1.00  0.00     0.015 C 
ATOM     25  C   UNL A   1      30.099  23.066  26.548  1.00  0.00     0.010 C 
ATOM     26  C   UNL A   1      31.523  26.136  25.850  1.00  0.00     0.010 C 
ENDBRANCH  13  24
ENDBRANCH   9  12
ENDBRANCH   7   8
BRANCH   7  27
ATOM     27  C   UNL A   1      34.317  25.692  23.810  1.00  0.00     0.070 C 
BRANCH  27  28
ATOM     28  C   UNL A   1      35.015  24.407  24.170  1.00  0.00    -0.045 A 
ATOM     29  C   UNL A   1      35.425  24.230  25.516  1.00  0.00     0.004 A 
ATOM     30  C   UNL A   1      35.354  23.438  23.235  1.00  0.00     0.004 A 
ATOM     31  C   UNL A   1      36.200  23.139  25.899  1.00  0.00     0.000 A 
ATOM     32  C   UNL A   1      36.136  22.346  23.622  1.00  0.00     0.000 A 
ATOM     33  C   UNL A   1      36.575  22.206  24.942  1.00  0.00     0.000 A 
ENDBRANCH  27  28
ENDBRANCH   7  27
ENDBRANCH   4   7
ENDBRANCH   2   3
ENDBRANCH   1   2
BRANCH   1  34
ATOM     34  C   UNL A   1      31.476  31.757  26.604  1.00  0.00     0.023 C 
BRANCH  34  35
ATOM     35  C   UNL A   1      32.834  32.297  27.099  1.00  0.00     0.116 C 
BRANCH  35  36
ATOM     36  N   UNL A   1      32.604  33.569  27.731  1.00  0.00    -0.352 N 
ATOM     37  C   UNL A   1      33.308  34.228  28.687  1.00  0.00     0.251 C 
ATOM     38  H   UNL A   1      31.798  34.041  27.419  1.00  0.00     0.163 HD
ATOM     39  O   UNL A   1      32.902  35.310  29.101  1.00  0.00    -0.269 OA
BRANCH  37  40
ATOM     40  C   UNL A   1      34.521  33.634  29.269  1.00  0.00     0.039 A 
ATOM     41  C   UNL A   1      35.737  34.073  28.762  1.00  0.00     0.014 A 
ATOM     42  C   UNL A   1      34.486  32.624  30.235  1.00  0.00     0.014 A 
ATOM     43  C   UNL A   1      36.905  33.476  29.208  1.00  0.00     0.010 A 
ATOM     44  C   UNL A   1      35.638  31.999  30.663  1.00  0.00     0.010 A 
ATOM     45  C   UNL A   1      36.850  32.434  30.149  1.00  0.00    -0.014 A 
BRANCH  45  46
ATOM     46  C   UNL A   1      38.084  31.889  30.709  1.00  0.00     0.031 A 
ATOM     47  C   UNL A   1      38.594  32.363  32.025  1.00  0.00     0.074 A 
ATOM     48  C   UNL A   1      38.727  30.977  29.963  1.00  0.00     0.049 A 
ATOM     49  N   UNL A   1      39.571  31.873  32.733  1.00  0.00    -0.248 NA
ATOM     50  C   UNL A   1      37.942  33.544  32.619  1.00  0.00     0.031 C 
ATOM     51  C   UNL A   1      38.333  30.571  28.608  1.00  0.00     0.029 A 
ATOM     52  N   UNL A   1      39.827  30.223  30.235  1.00  0.00    -0.354 N 
ATOM     53  C   UNL A   1      39.651  32.675  33.860  1.00  0.00     0.074 A 
ATOM     54  C   UNL A   1      38.660  33.717  33.720  1.00  0.00     0.031 C 
ATOM     55  C   UNL A   1      39.149  29.594  28.192  1.00  0.00     0.029 A 
ATOM     56  C   UNL A   1      40.136  29.339  29.233  1.00  0.00     0.049 A 
ATOM     57  H   UNL A   1      40.348  30.303  31.067  1.00  0.00     0.167 HD
ATOM     58  C   UNL A   1      40.472  32.523  34.924  1.00  0.00     0.034 A 
ATOM     59  C   UNL A   1      41.114  28.420  29.176  1.00  0.00     0.034 A 
ATOM     60  C   UNL A   1      41.459  31.482  35.006  1.00  0.00     0.049 A 
ATOM     61  C   UNL A   1      41.994  28.265  30.379  1.00  0.00     0.074 A 
ATOM     62  C   UNL A   1      42.312  31.185  36.052  1.00  0.00     0.029 A 
ATOM     63  N   UNL A   1      41.747  30.585  33.986  1.00  0.00    -0.354 N 
ATOM     64  N   UNL A   1      41.964  28.924  31.514  1.00  0.00    -0.248 NA
ATOM     65  C   UNL A   1      43.016  27.216  30.313  1.00  0.00     0.031 C 
ATOM     66  C   UNL A   1      43.156  30.149  35.639  1.00  0.00     0.029 A 
ATOM     67  C   UNL A   1      42.778  29.747  34.367  1.00  0.00     0.049 A 
ATOM     68  H   UNL A   1      41.283  30.551  33.118  1.00  0.00     0.167 HD
ATOM     69  C   UNL A   1      42.935  28.344  32.315  1.00  0.00     0.074 A 
ATOM     70  C   UNL A   1      43.519  27.266  31.538  1.00  0.00     0.031 C 
ATOM     71  C   UNL A   1      43.316  28.668  33.576  1.00  0.00     0.034 A 
BRANCH  58  72
ATOM     72  C   UNL A   1      40.328  33.494  36.062  1.00  0.00     0.023 A 
ATOM     73  C   UNL A   1      40.813  34.812  35.935  1.00  0.00     0.012 A 
ATOM     74  C   UNL A   1      39.678  33.109  37.249  1.00  0.00     0.148 A 
ATOM     75  C   UNL A   1      40.685  35.721  36.984  1.00  0.00     0.002 A 
ATOM     76  C   UNL A   1      39.506  34.035  38.270  1.00  0.00     0.091 A 
ATOM     77  F   UNL A   1      39.249  31.845  37.361  1.00  0.00    -0.205 F 
ATOM     78  C   UNL A   1      40.022  35.336  38.146  1.00  0.00     0.022 A 
BRANCH  76  79
ATOM     79  S   UNL A   1      38.601  33.659  39.773  1.00  0.00     0.127 S 
ATOM     80  O   UNL A   1      38.687  34.929  40.494  1.00  0.00    -0.237 OA
ATOM     81  O   UNL A   1      37.272  33.340  39.254  1.00  0.00    -0.237 OA
ATOM     82  O   UNL A   1      39.298  32.544  40.398  1.00  0.00    -0.744 OA
ENDBRANCH  76  79
ENDBRANCH  58  72
BRANCH  59  83
ATOM     83  C   UNL A   1      41.264  27.567  27.970  1.00  0.00     0.023 A 
ATOM     84  C   UNL A   1      41.806  28.102  26.787  1.00  0.00     0.012 A 
ATOM     85  C   UNL A   1      40.889  26.212  28.007  1.00  0.00     0.148 A 
ATOM     86  C   UNL A   1      41.926  27.311  25.644  1.00  0.00     0.002 A 
ATOM     87  C   UNL A   1      41.064  25.415  26.885  1.00  0.00     0.091 A 
ATOM     88  F   UNL A   1      40.384  25.724  29.149  1.00  0.00    -0.205 F 
ATOM     89  C   UNL A   1      41.562  25.967  25.695  1.00  0.00     0.022 A 
BRANCH  87  90
ATOM     90  S   UNL A   1      40.740  23.650  26.901  1.00  0.00     0.127 S 
ATOM     91  O   UNL A   1      41.438  23.210  25.696  1.00  0.00    -0.237 OA
ATOM     92  O   UNL A   1      41.362  23.244  28.161  1.00  0.00    -0.237 OA
ATOM     93  O   UNL A   1      39.290  23.514  26.873  1.00  0.00    -0.744 OA
ENDBRANCH  87  90
ENDBRANCH  59  83
BRANCH  71  94
ATOM     94  C   UNL A   1      44.373  27.806  34.211  1.00  0.00     0.023 A 
ATOM     95  C   UNL A   1      45.732  28.168  34.140  1.00  0.00     0.012 A 
ATOM     96  C   UNL A   1      43.998  26.648  34.919  1.00  0.00     0.148 A 
ATOM     97  C   UNL A   1      46.708  27.359  34.718  1.00  0.00     0.002 A 
ATOM     98  C   UNL A   1      44.967  25.884  35.548  1.00  0.00     0.091 A 
ATOM     99  F   UNL A   1      42.699  26.316  34.959  1.00  0.00    -0.205 F 
ATOM    100  C   UNL A   1      46.325  26.224  35.431  1.00  0.00     0.022 A 
BRANCH  98 101
ATOM    101  S   UNL A   1      44.557  24.471  36.576  1.00  0.00     0.127 S 
ATOM    102  O   UNL A   1      45.876  24.053  37.046  1.00  0.00    -0.237 OA
ATOM    103  O   UNL A   1      43.706  25.076  37.601  1.00  0.00    -0.237 OA
ATOM    104  O   UNL A   1      43.875  23.522  35.706  1.00  0.00    -0.744 OA
ENDBRANCH  98 101
ENDBRANCH  71  94
ENDBRANCH  45  46
ENDBRANCH  37  40
ENDBRANCH  35  36
ENDBRANCH  34  35
ENDBRANCH   1  34
TORSDOF 19
ENDMDL
