MODEL 1
REMARK VINA RESULT:     -10.4      0.000      0.000
REMARK SMILES Cc1cc(C)cc(N2C(=O)NC(=O)/C(=C\c3ccc(OCC(=O)NCCCCNC(=O)c4ccc(-c5c6nc(c(-c7cccc(S(=O)(=O)[O-])c7F)c7ccc([nH]7)c(-c7cccc(S(=O)(=O)[O-])c7F)c7nc(c(-c8cccc(S(=O)(=O)[O-])c8F)c8ccc5[nH]8)C=C7)C=C6)cc4)c(Br)c3)C2=O)c1
REMARK SMILES IDX 26 1 25 2 24 3 22 4 23 5 21 7 20 8 19 9 16 10 17 11 97 12
REMARK SMILES IDX 18 13 95 14 96 15 15 16 8 17 9 18 98 19 10 20 11 21 14 22
REMARK SMILES IDX 99 23 12 24 13 26 7 27 1 28 2 29 3 30 100 31 4 32 5 33 6 34
REMARK SMILES IDX 27 35 28 36 29 37 30 38 31 40 32 41 33 42 94 43 34 44 93 45
REMARK SMILES IDX 35 46 36 47 37 48 87 49 38 50 92 51 86 52 88 53 39 54 91 55
REMARK SMILES IDX 85 56 84 57 40 59 72 60 52 61 71 62 53 63 56 64 70 65 89 66
REMARK SMILES IDX 54 67 55 68 69 70 90 71 57 72 41 73 42 74 50 75 43 76 45 77
REMARK SMILES IDX 51 78 44 79 46 80 47 81 48 82 49 83 73 84 74 85 82 86 75 87
REMARK SMILES IDX 77 88 83 89 76 90 78 91 79 92 80 93 81 94 58 95 59 96 67 97
REMARK SMILES IDX 60 98 62 99 68 100 61 101 63 102 64 103 65 104 66 105
REMARK H PARENT 24 6 11 25 29 39 88 58 56 69
REMARK Flexibility Score: inf
ROOT
ATOM      1  C   UNL A   1      36.675  32.968  31.600  1.00  0.00     0.023 C 
ENDROOT
BRANCH   1   2
ATOM      2  C   UNL A   1      37.484  34.247  31.397  1.00  0.00     0.116 C 
BRANCH   2   3
ATOM      3  N   UNL A   1      38.685  34.281  32.206  1.00  0.00    -0.353 N 
ATOM      4  C   UNL A   1      39.983  34.408  31.803  1.00  0.00     0.257 C 
ATOM      5  O   UNL A   1      40.848  34.580  32.662  1.00  0.00    -0.271 OA
ATOM      6  H   UNL A   1      38.546  34.202  33.178  1.00  0.00     0.163 HD
BRANCH   4   7
ATOM      7  C   UNL A   1      40.314  34.420  30.307  1.00  0.00     0.329 C 
BRANCH   7   8
ATOM      8  O   UNL A   1      41.639  34.175  29.886  1.00  0.00    -0.483 OA
BRANCH   8   9
ATOM      9  C   UNL A   1      42.344  35.102  29.172  1.00  0.00     0.134 A 
ATOM     10  C   UNL A   1      43.326  37.240  27.608  1.00  0.00    -0.023 A 
ATOM     11  C   UNL A   1      41.985  36.883  27.531  1.00  0.00     0.012 A 
ATOM     12  C   UNL A   1      44.181  36.510  28.437  1.00  0.00     0.027 A 
ATOM     13  C   UNL A   1      41.504  35.830  28.312  1.00  0.00     0.048 A 
ATOM     14  C   UNL A   1      43.695  35.463  29.241  1.00  0.00     0.060 A 
ATOM     15  Br  UNL A   1      44.968  34.778  30.474  1.00  0.00    -0.047 Br
BRANCH  10  16
ATOM     16  C   UNL A   1      43.844  38.418  26.908  1.00  0.00     0.027 C 
ATOM     17  N   UNL A   1      44.835  41.943  27.140  1.00  0.00    -0.228 N 
ATOM     18  C   UNL A   1      44.473  42.266  28.442  1.00  0.00     0.335 C 
ATOM     19  C   UNL A   1      44.629  40.685  26.560  1.00  0.00     0.272 C 
ATOM     20  O   UNL A   1      44.587  43.372  28.973  1.00  0.00    -0.247 OA
ATOM     21  N   UNL A   1      43.894  41.281  29.184  1.00  0.00    -0.273 N 
ATOM     22  C   UNL A   1      43.997  39.653  27.434  1.00  0.00     0.106 C 
ATOM     23  O   UNL A   1      44.987  40.380  25.423  1.00  0.00    -0.268 OA
ATOM     24  C   UNL A   1      43.614  40.000  28.820  1.00  0.00     0.264 C 
ATOM     25  H   UNL A   1      43.644  41.529  30.104  1.00  0.00     0.175 HD
ATOM     26  O   UNL A   1      43.083  39.251  29.626  1.00  0.00    -0.269 OA
BRANCH  17  27
ATOM     27  C   UNL A   1      45.463  42.961  26.344  1.00  0.00     0.054 A 
ATOM     28  C   UNL A   1      44.524  45.462  23.619  1.00  0.00     0.044 C 
ATOM     29  C   UNL A   1      45.326  44.673  24.610  1.00  0.00    -0.049 A 
ATOM     30  C   UNL A   1      46.682  44.962  24.800  1.00  0.00     0.007 A 
ATOM     31  C   UNL A   1      44.733  43.654  25.366  1.00  0.00     0.030 A 
ATOM     32  C   UNL A   1      47.437  44.265  25.750  1.00  0.00    -0.049 A 
ATOM     33  C   UNL A   1      48.894  44.573  25.928  1.00  0.00     0.044 C 
ATOM     34  C   UNL A   1      46.813  43.287  26.535  1.00  0.00     0.030 A 
ENDBRANCH  17  27
ENDBRANCH  10  16
ENDBRANCH   8   9
ENDBRANCH   7   8
ENDBRANCH   4   7
ENDBRANCH   2   3
ENDBRANCH   1   2
BRANCH   1  35
ATOM     35  C   UNL A   1      35.353  32.901  30.831  1.00  0.00     0.023 C 
BRANCH  35  36
ATOM     36  C   UNL A   1      35.436  33.220  29.343  1.00  0.00     0.116 C 
BRANCH  36  37
ATOM     37  N   UNL A   1      34.535  32.411  28.536  1.00  0.00    -0.352 N 
ATOM     38  C   UNL A   1      34.722  31.147  28.024  1.00  0.00     0.251 C 
ATOM     39  H   UNL A   1      33.667  32.827  28.325  1.00  0.00     0.163 HD
ATOM     40  O   UNL A   1      33.895  30.671  27.251  1.00  0.00    -0.269 OA
BRANCH  38  41
ATOM     41  C   UNL A   1      35.936  30.380  28.381  1.00  0.00     0.039 A 
ATOM     42  C   UNL A   1      37.057  30.469  27.552  1.00  0.00     0.014 A 
ATOM     43  C   UNL A   1      35.980  29.602  29.540  1.00  0.00     0.014 A 
ATOM     44  C   UNL A   1      38.251  29.849  27.932  1.00  0.00     0.010 A 
ATOM     45  C   UNL A   1      37.189  29.047  29.953  1.00  0.00     0.010 A 
ATOM     46  C   UNL A   1      38.341  29.174  29.161  1.00  0.00    -0.014 A 
BRANCH  46  47
ATOM     47  C   UNL A   1      39.637  28.641  29.661  1.00  0.00     0.031 A 
ATOM     48  C   UNL A   1      40.376  29.345  30.768  1.00  0.00     0.074 A 
ATOM     49  C   UNL A   1      40.203  27.584  29.042  1.00  0.00     0.049 A 
ATOM     50  N   UNL A   1      41.553  29.078  31.271  1.00  0.00    -0.248 NA
ATOM     51  C   UNL A   1      39.717  30.515  31.374  1.00  0.00     0.031 C 
ATOM     52  C   UNL A   1      39.623  26.856  27.911  1.00  0.00     0.029 A 
ATOM     53  N   UNL A   1      41.409  26.960  29.251  1.00  0.00    -0.354 N 
ATOM     54  C   UNL A   1      41.798  30.069  32.215  1.00  0.00     0.074 A 
ATOM     55  C   UNL A   1      40.651  30.951  32.208  1.00  0.00     0.031 C 
ATOM     56  C   UNL A   1      40.471  25.890  27.525  1.00  0.00     0.029 A 
ATOM     57  C   UNL A   1      41.675  25.955  28.347  1.00  0.00     0.049 A 
ATOM     58  H   UNL A   1      42.025  27.207  29.978  1.00  0.00     0.167 HD
ATOM     59  C   UNL A   1      42.874  30.220  33.023  1.00  0.00     0.034 A 
ATOM     60  C   UNL A   1      42.771  25.189  28.182  1.00  0.00     0.034 A 
ATOM     61  C   UNL A   1      43.992  29.316  33.058  1.00  0.00     0.049 A 
ATOM     62  C   UNL A   1      43.944  25.376  29.107  1.00  0.00     0.074 A 
ATOM     63  C   UNL A   1      45.069  29.321  33.927  1.00  0.00     0.029 A 
ATOM     64  N   UNL A   1      44.193  28.267  32.177  1.00  0.00    -0.354 N 
ATOM     65  N   UNL A   1      44.074  26.199  30.119  1.00  0.00    -0.248 NA
ATOM     66  C   UNL A   1      45.113  24.511  28.886  1.00  0.00     0.031 C 
ATOM     67  C   UNL A   1      45.947  28.306  33.539  1.00  0.00     0.029 A 
ATOM     68  C   UNL A   1      45.394  27.640  32.457  1.00  0.00     0.049 A 
ATOM     69  H   UNL A   1      43.574  28.008  31.457  1.00  0.00     0.167 HD
ATOM     70  C   UNL A   1      45.319  25.927  30.674  1.00  0.00     0.074 A 
ATOM     71  C   UNL A   1      45.895  24.846  29.903  1.00  0.00     0.031 C 
ATOM     72  C   UNL A   1      45.936  26.529  31.719  1.00  0.00     0.034 A 
BRANCH  59  73
ATOM     73  C   UNL A   1      42.895  31.393  33.967  1.00  0.00     0.023 A 
ATOM     74  C   UNL A   1      43.519  32.596  33.581  1.00  0.00     0.012 A 
ATOM     75  C   UNL A   1      42.205  31.334  35.195  1.00  0.00     0.148 A 
ATOM     76  C   UNL A   1      43.477  33.714  34.412  1.00  0.00     0.002 A 
ATOM     77  C   UNL A   1      42.130  32.466  35.996  1.00  0.00     0.091 A 
ATOM     78  F   UNL A   1      41.634  30.175  35.551  1.00  0.00    -0.205 F 
ATOM     79  C   UNL A   1      42.773  33.653  35.612  1.00  0.00     0.022 A 
BRANCH  77  80
ATOM     80  S   UNL A   1      41.177  32.516  37.519  1.00  0.00     0.127 S 
ATOM     81  O   UNL A   1      41.935  31.601  38.371  1.00  0.00    -0.237 OA
ATOM     82  O   UNL A   1      41.278  33.926  37.896  1.00  0.00    -0.237 OA
ATOM     83  O   UNL A   1      39.834  32.072  37.171  1.00  0.00    -0.744 OA
ENDBRANCH  77  80
ENDBRANCH  59  73
BRANCH  60  84
ATOM     84  C   UNL A   1      42.813  24.150  27.111  1.00  0.00     0.023 A 
ATOM     85  C   UNL A   1      43.464  24.435  25.894  1.00  0.00     0.012 A 
ATOM     86  C   UNL A   1      42.206  22.892  27.284  1.00  0.00     0.148 A 
ATOM     87  C   UNL A   1      43.469  23.505  24.854  1.00  0.00     0.002 A 
ATOM     88  C   UNL A   1      42.267  21.947  26.266  1.00  0.00     0.091 A 
ATOM     89  F   UNL A   1      41.580  22.641  28.443  1.00  0.00    -0.205 F 
ATOM     90  C   UNL A   1      42.878  22.259  25.042  1.00  0.00     0.022 A 
BRANCH  88  91
ATOM     91  S   UNL A   1      41.650  20.273  26.470  1.00  0.00     0.127 S 
ATOM     92  O   UNL A   1      40.206  20.472  26.371  1.00  0.00    -0.237 OA
ATOM     93  O   UNL A   1      42.257  19.586  25.329  1.00  0.00    -0.237 OA
ATOM     94  O   UNL A   1      42.143  19.829  27.767  1.00  0.00    -0.744 OA
ENDBRANCH  88  91
ENDBRANCH  60  84
BRANCH  72  95
ATOM     95  C   UNL A   1      47.294  26.018  32.128  1.00  0.00     0.023 A 
ATOM     96  C   UNL A   1      48.453  26.539  31.520  1.00  0.00     0.012 A 
ATOM     97  C   UNL A   1      47.421  25.089  33.178  1.00  0.00     0.148 A 
ATOM     98  C   UNL A   1      49.717  26.121  31.934  1.00  0.00     0.002 A 
ATOM     99  C   UNL A   1      48.684  24.718  33.622  1.00  0.00     0.091 A 
ATOM    100  F   UNL A   1      46.304  24.595  33.734  1.00  0.00    -0.205 F 
ATOM    101  C   UNL A   1      49.833  25.223  32.992  1.00  0.00     0.022 A 
BRANCH  99 102
ATOM    102  S   UNL A   1      48.937  23.646  35.041  1.00  0.00     0.127 S 
ATOM    103  O   UNL A   1      48.212  24.364  36.089  1.00  0.00    -0.237 OA
ATOM    104  O   UNL A   1      48.304  22.403  34.603  1.00  0.00    -0.237 OA
ATOM    105  O   UNL A   1      50.379  23.560  35.233  1.00  0.00    -0.744 OA
ENDBRANCH  99 102
ENDBRANCH  72  95
ENDBRANCH  46  47
ENDBRANCH  38  41
ENDBRANCH  36  37
ENDBRANCH  35  36
ENDBRANCH   1  35
TORSDOF 18
ENDMDL
MODEL 2
REMARK VINA RESULT:     -10.3      4.716     10.294
REMARK SMILES Cc1cc(C)cc(N2C(=O)NC(=O)/C(=C\c3ccc(OCC(=O)NCCCCNC(=O)c4ccc(-c5c6nc(c(-c7cccc(S(=O)(=O)[O-])c7F)c7ccc([nH]7)c(-c7cccc(S(=O)(=O)[O-])c7F)c7nc(c(-c8cccc(S(=O)(=O)[O-])c8F)c8ccc5[nH]8)C=C7)C=C6)cc4)c(Br)c3)C2=O)c1
REMARK SMILES IDX 26 1 25 2 24 3 22 4 23 5 21 7 20 8 19 9 16 10 17 11 97 12
REMARK SMILES IDX 18 13 95 14 96 15 15 16 8 17 9 18 98 19 10 20 11 21 14 22
REMARK SMILES IDX 99 23 12 24 13 26 7 27 1 28 2 29 3 30 100 31 4 32 5 33 6 34
REMARK SMILES IDX 27 35 28 36 29 37 30 38 31 40 32 41 33 42 94 43 34 44 93 45
REMARK SMILES IDX 35 46 36 47 37 48 87 49 38 50 92 51 86 52 88 53 39 54 91 55
REMARK SMILES IDX 85 56 84 57 40 59 72 60 52 61 71 62 53 63 56 64 70 65 89 66
REMARK SMILES IDX 54 67 55 68 69 70 90 71 57 72 41 73 42 74 50 75 43 76 45 77
REMARK SMILES IDX 51 78 44 79 46 80 47 81 48 82 49 83 73 84 74 85 82 86 75 87
REMARK SMILES IDX 77 88 83 89 76 90 78 91 79 92 80 93 81 94 58 95 59 96 67 97
REMARK SMILES IDX 60 98 62 99 68 100 61 101 63 102 64 103 65 104 66 105
REMARK H PARENT 24 6 11 25 29 39 88 58 56 69
REMARK Flexibility Score: inf
ROOT
ATOM      1  C   UNL A   1      40.256  35.661  40.679  1.00  0.00     0.023 C 
ENDROOT
BRANCH   1   2
ATOM      2  C   UNL A   1      39.210  34.995  39.789  1.00  0.00     0.116 C 
BRANCH   2   3
ATOM      3  N   UNL A   1      38.891  33.648  40.217  1.00  0.00    -0.353 N 
ATOM      4  C   UNL A   1      38.139  32.706  39.578  1.00  0.00     0.257 C 
ATOM      5  O   UNL A   1      38.123  31.562  40.034  1.00  0.00    -0.271 OA
ATOM      6  H   UNL A   1      39.268  33.377  41.085  1.00  0.00     0.163 HD
BRANCH   4   7
ATOM      7  C   UNL A   1      37.413  33.069  38.278  1.00  0.00     0.329 C 
BRANCH   7   8
ATOM      8  O   UNL A   1      38.113  33.744  37.255  1.00  0.00    -0.483 OA
BRANCH   8   9
ATOM      9  C   UNL A   1      38.695  33.067  36.221  1.00  0.00     0.134 A 
ATOM     10  C   UNL A   1      39.534  31.292  34.189  1.00  0.00    -0.023 A 
ATOM     11  C   UNL A   1      38.773  30.819  35.253  1.00  0.00     0.012 A 
ATOM     12  C   UNL A   1      39.903  32.639  34.159  1.00  0.00     0.027 A 
ATOM     13  C   UNL A   1      38.355  31.703  36.250  1.00  0.00     0.048 A 
ATOM     14  C   UNL A   1      39.465  33.535  35.150  1.00  0.00     0.060 A 
ATOM     15  Br  UNL A   1      39.867  35.355  34.780  1.00  0.00    -0.047 Br
BRANCH  10  16
ATOM     16  C   UNL A   1      39.882  30.429  33.057  1.00  0.00     0.027 C 
ATOM     17  N   UNL A   1      38.897  29.119  29.775  1.00  0.00    -0.228 N 
ATOM     18  C   UNL A   1      37.611  29.625  29.629  1.00  0.00     0.335 C 
ATOM     19  C   UNL A   1      39.696  29.329  30.905  1.00  0.00     0.272 C 
ATOM     20  O   UNL A   1      36.855  29.421  28.677  1.00  0.00    -0.247 OA
ATOM     21  N   UNL A   1      37.124  30.377  30.655  1.00  0.00    -0.273 N 
ATOM     22  C   UNL A   1      39.100  30.169  31.986  1.00  0.00     0.106 C 
ATOM     23  O   UNL A   1      40.851  28.921  31.021  1.00  0.00    -0.268 OA
ATOM     24  C   UNL A   1      37.732  30.708  31.826  1.00  0.00     0.264 C 
ATOM     25  H   UNL A   1      36.211  30.727  30.533  1.00  0.00     0.175 HD
ATOM     26  O   UNL A   1      37.133  31.395  32.639  1.00  0.00    -0.269 OA
BRANCH  17  27
ATOM     27  C   UNL A   1      39.438  28.337  28.698  1.00  0.00     0.054 A 
ATOM     28  C   UNL A   1      41.528  28.850  25.546  1.00  0.00     0.044 C 
ATOM     29  C   UNL A   1      40.709  28.196  26.619  1.00  0.00    -0.049 A 
ATOM     30  C   UNL A   1      40.511  26.811  26.602  1.00  0.00     0.007 A 
ATOM     31  C   UNL A   1      40.146  28.954  27.654  1.00  0.00     0.030 A 
ATOM     32  C   UNL A   1      39.784  26.179  27.617  1.00  0.00    -0.049 A 
ATOM     33  C   UNL A   1      39.565  24.695  27.574  1.00  0.00     0.044 C 
ATOM     34  C   UNL A   1      39.277  26.945  28.673  1.00  0.00     0.030 A 
ENDBRANCH  17  27
ENDBRANCH  10  16
ENDBRANCH   8   9
ENDBRANCH   7   8
ENDBRANCH   4   7
ENDBRANCH   2   3
ENDBRANCH   1   2
BRANCH   1  35
ATOM     35  C   UNL A   1      41.478  36.221  39.946  1.00  0.00     0.023 C 
BRANCH  35  36
ATOM     36  C   UNL A   1      42.558  35.207  39.588  1.00  0.00     0.116 C 
BRANCH  36  37
ATOM     37  N   UNL A   1      42.571  34.052  40.474  1.00  0.00    -0.352 N 
ATOM     38  C   UNL A   1      42.677  32.716  40.162  1.00  0.00     0.251 C 
ATOM     39  H   UNL A   1      42.492  34.256  41.435  1.00  0.00     0.163 HD
ATOM     40  O   UNL A   1      42.537  31.869  41.040  1.00  0.00    -0.269 OA
BRANCH  38  41
ATOM     41  C   UNL A   1      42.923  32.304  38.763  1.00  0.00     0.039 A 
ATOM     42  C   UNL A   1      44.240  32.242  38.301  1.00  0.00     0.014 A 
ATOM     43  C   UNL A   1      41.867  31.950  37.920  1.00  0.00     0.014 A 
ATOM     44  C   UNL A   1      44.504  31.741  37.022  1.00  0.00     0.010 A 
ATOM     45  C   UNL A   1      42.136  31.384  36.676  1.00  0.00     0.010 A 
ATOM     46  C   UNL A   1      43.457  31.261  36.218  1.00  0.00    -0.014 A 
BRANCH  46  47
ATOM     47  C   UNL A   1      43.722  30.581  34.921  1.00  0.00     0.031 A 
ATOM     48  C   UNL A   1      43.551  31.322  33.622  1.00  0.00     0.074 A 
ATOM     49  C   UNL A   1      44.012  29.263  34.911  1.00  0.00     0.049 A 
ATOM     50  N   UNL A   1      43.652  30.870  32.399  1.00  0.00    -0.248 NA
ATOM     51  C   UNL A   1      43.198  32.748  33.706  1.00  0.00     0.031 C 
ATOM     52  C   UNL A   1      44.137  28.415  36.099  1.00  0.00     0.029 A 
ATOM     53  N   UNL A   1      44.217  28.396  33.865  1.00  0.00    -0.354 N 
ATOM     54  C   UNL A   1      43.330  31.938  31.570  1.00  0.00     0.074 A 
ATOM     55  C   UNL A   1      43.018  33.060  32.430  1.00  0.00     0.031 C 
ATOM     56  C   UNL A   1      44.394  27.154  35.717  1.00  0.00     0.029 A 
ATOM     57  C   UNL A   1      44.407  27.090  34.259  1.00  0.00     0.049 A 
ATOM     58  H   UNL A   1      44.227  28.681  32.923  1.00  0.00     0.167 HD
ATOM     59  C   UNL A   1      43.310  31.984  30.217  1.00  0.00     0.034 A 
ATOM     60  C   UNL A   1      44.551  25.964  33.532  1.00  0.00     0.034 A 
ATOM     61  C   UNL A   1      43.664  30.880  29.366  1.00  0.00     0.049 A 
ATOM     62  C   UNL A   1      44.537  26.054  32.029  1.00  0.00     0.074 A 
ATOM     63  C   UNL A   1      43.789  30.868  27.988  1.00  0.00     0.029 A 
ATOM     64  N   UNL A   1      43.920  29.591  29.803  1.00  0.00    -0.354 N 
ATOM     65  N   UNL A   1      44.418  27.114  31.267  1.00  0.00    -0.248 NA
ATOM     66  C   UNL A   1      44.702  24.797  31.284  1.00  0.00     0.031 C 
ATOM     67  C   UNL A   1      44.073  29.560  27.587  1.00  0.00     0.029 A 
ATOM     68  C   UNL A   1      44.169  28.767  28.719  1.00  0.00     0.049 A 
ATOM     69  H   UNL A   1      43.924  29.304  30.744  1.00  0.00     0.167 HD
ATOM     70  C   UNL A   1      44.530  26.657  29.959  1.00  0.00     0.074 A 
ATOM     71  C   UNL A   1      44.751  25.229  30.031  1.00  0.00     0.031 C 
ATOM     72  C   UNL A   1      44.442  27.356  28.802  1.00  0.00     0.034 A 
BRANCH  59  73
ATOM     73  C   UNL A   1      42.921  33.279  29.555  1.00  0.00     0.023 A 
ATOM     74  C   UNL A   1      41.582  33.716  29.598  1.00  0.00     0.012 A 
ATOM     75  C   UNL A   1      43.902  34.111  28.980  1.00  0.00     0.148 A 
ATOM     76  C   UNL A   1      41.221  34.949  29.058  1.00  0.00     0.002 A 
ATOM     77  C   UNL A   1      43.543  35.358  28.486  1.00  0.00     0.091 A 
ATOM     78  F   UNL A   1      45.166  33.668  28.933  1.00  0.00    -0.205 F 
ATOM     79  C   UNL A   1      42.203  35.775  28.514  1.00  0.00     0.022 A 
BRANCH  77  80
ATOM     80  S   UNL A   1      44.743  36.530  27.842  1.00  0.00     0.127 S 
ATOM     81  O   UNL A   1      45.220  35.837  26.647  1.00  0.00    -0.237 OA
ATOM     82  O   UNL A   1      43.911  37.704  27.576  1.00  0.00    -0.237 OA
ATOM     83  O   UNL A   1      45.735  36.711  28.893  1.00  0.00    -0.744 OA
ENDBRANCH  77  80
ENDBRANCH  59  73
BRANCH  60  84
ATOM     84  C   UNL A   1      44.747  24.648  34.207  1.00  0.00     0.023 A 
ATOM     85  C   UNL A   1      43.633  23.815  34.440  1.00  0.00     0.012 A 
ATOM     86  C   UNL A   1      46.020  24.221  34.629  1.00  0.00     0.148 A 
ATOM     87  C   UNL A   1      43.778  22.606  35.121  1.00  0.00     0.002 A 
ATOM     88  C   UNL A   1      46.167  22.987  35.252  1.00  0.00     0.091 A 
ATOM     89  F   UNL A   1      47.067  25.031  34.411  1.00  0.00    -0.205 F 
ATOM     90  C   UNL A   1      45.045  22.188  35.519  1.00  0.00     0.022 A 
BRANCH  88  91
ATOM     91  S   UNL A   1      47.775  22.311  35.680  1.00  0.00     0.127 S 
ATOM     92  O   UNL A   1      48.427  22.242  34.375  1.00  0.00    -0.237 OA
ATOM     93  O   UNL A   1      48.304  23.337  36.580  1.00  0.00    -0.237 OA
ATOM     94  O   UNL A   1      47.503  21.033  36.323  1.00  0.00    -0.744 OA
ENDBRANCH  88  91
ENDBRANCH  60  84
BRANCH  72  95
ATOM     95  C   UNL A   1      44.621  26.605  27.507  1.00  0.00     0.023 A 
ATOM     96  C   UNL A   1      43.524  25.944  26.921  1.00  0.00     0.012 A 
ATOM     97  C   UNL A   1      45.855  26.633  26.829  1.00  0.00     0.148 A 
ATOM     98  C   UNL A   1      43.660  25.300  25.692  1.00  0.00     0.002 A 
ATOM     99  C   UNL A   1      45.969  26.036  25.580  1.00  0.00     0.091 A 
ATOM    100  F   UNL A   1      46.890  27.257  27.412  1.00  0.00    -0.205 F 
ATOM    101  C   UNL A   1      44.877  25.357  25.016  1.00  0.00     0.022 A 
BRANCH  99 102
ATOM    102  S   UNL A   1      47.464  26.141  24.589  1.00  0.00     0.127 S 
ATOM    103  O   UNL A   1      48.497  26.251  25.619  1.00  0.00    -0.237 OA
ATOM    104  O   UNL A   1      47.448  24.867  23.872  1.00  0.00    -0.237 OA
ATOM    105  O   UNL A   1      47.307  27.318  23.743  1.00  0.00    -0.744 OA
ENDBRANCH  99 102
ENDBRANCH  72  95
ENDBRANCH  46  47
ENDBRANCH  38  41
ENDBRANCH  36  37
ENDBRANCH  35  36
ENDBRANCH   1  35
TORSDOF 18
ENDMDL
MODEL 3
REMARK VINA RESULT:     -10.3      4.945     10.088
REMARK SMILES Cc1cc(C)cc(N2C(=O)NC(=O)/C(=C\c3ccc(OCC(=O)NCCCCNC(=O)c4ccc(-c5c6nc(c(-c7cccc(S(=O)(=O)[O-])c7F)c7ccc([nH]7)c(-c7cccc(S(=O)(=O)[O-])c7F)c7nc(c(-c8cccc(S(=O)(=O)[O-])c8F)c8ccc5[nH]8)C=C7)C=C6)cc4)c(Br)c3)C2=O)c1
REMARK SMILES IDX 26 1 25 2 24 3 22 4 23 5 21 7 20 8 19 9 16 10 17 11 97 12
REMARK SMILES IDX 18 13 95 14 96 15 15 16 8 17 9 18 98 19 10 20 11 21 14 22
REMARK SMILES IDX 99 23 12 24 13 26 7 27 1 28 2 29 3 30 100 31 4 32 5 33 6 34
REMARK SMILES IDX 27 35 28 36 29 37 30 38 31 40 32 41 33 42 94 43 34 44 93 45
REMARK SMILES IDX 35 46 36 47 37 48 87 49 38 50 92 51 86 52 88 53 39 54 91 55
REMARK SMILES IDX 85 56 84 57 40 59 72 60 52 61 71 62 53 63 56 64 70 65 89 66
REMARK SMILES IDX 54 67 55 68 69 70 90 71 57 72 41 73 42 74 50 75 43 76 45 77
REMARK SMILES IDX 51 78 44 79 46 80 47 81 48 82 49 83 73 84 74 85 82 86 75 87
REMARK SMILES IDX 77 88 83 89 76 90 78 91 79 92 80 93 81 94 58 95 59 96 67 97
REMARK SMILES IDX 60 98 62 99 68 100 61 101 63 102 64 103 65 104 66 105
REMARK H PARENT 24 6 11 25 29 39 88 58 56 69
REMARK Flexibility Score: inf
ROOT
ATOM      1  C   UNL A   1      37.271  33.791  33.261  1.00  0.00     0.023 C 
ENDROOT
BRANCH   1   2
ATOM      2  C   UNL A   1      35.926  34.487  33.458  1.00  0.00     0.116 C 
BRANCH   2   3
ATOM      3  N   UNL A   1      35.238  34.734  32.207  1.00  0.00    -0.353 N 
ATOM      4  C   UNL A   1      34.754  33.830  31.306  1.00  0.00     0.257 C 
ATOM      5  O   UNL A   1      34.054  34.243  30.381  1.00  0.00    -0.271 OA
ATOM      6  H   UNL A   1      35.101  35.681  31.977  1.00  0.00     0.163 HD
BRANCH   4   7
ATOM      7  C   UNL A   1      35.021  32.335  31.514  1.00  0.00     0.329 C 
BRANCH   7   8
ATOM      8  O   UNL A   1      35.418  31.540  30.417  1.00  0.00    -0.483 OA
BRANCH   8   9
ATOM      9  C   UNL A   1      36.704  31.102  30.281  1.00  0.00     0.134 A 
ATOM     10  C   UNL A   1      39.141  29.721  29.911  1.00  0.00    -0.023 A 
ATOM     11  C   UNL A   1      37.985  29.015  30.224  1.00  0.00     0.012 A 
ATOM     12  C   UNL A   1      39.087  31.114  29.817  1.00  0.00     0.027 A 
ATOM     13  C   UNL A   1      36.782  29.703  30.399  1.00  0.00     0.048 A 
ATOM     14  C   UNL A   1      37.873  31.807  29.971  1.00  0.00     0.060 A 
ATOM     15  Br  UNL A   1      37.980  33.657  29.552  1.00  0.00    -0.047 Br
BRANCH  10  16
ATOM     16  C   UNL A   1      40.394  29.030  29.592  1.00  0.00     0.027 C 
ATOM     17  N   UNL A   1      42.679  27.867  26.969  1.00  0.00    -0.228 N 
ATOM     18  C   UNL A   1      41.973  28.163  25.809  1.00  0.00     0.335 C 
ATOM     19  C   UNL A   1      42.197  28.108  28.260  1.00  0.00     0.272 C 
ATOM     20  O   UNL A   1      42.336  27.920  24.657  1.00  0.00    -0.247 OA
ATOM     21  N   UNL A   1      40.744  28.731  25.963  1.00  0.00    -0.273 N 
ATOM     22  C   UNL A   1      40.847  28.739  28.353  1.00  0.00     0.106 C 
ATOM     23  O   UNL A   1      42.835  27.888  29.290  1.00  0.00    -0.268 OA
ATOM     24  C   UNL A   1      40.099  29.055  27.116  1.00  0.00     0.264 C 
ATOM     25  H   UNL A   1      40.259  28.934  25.130  1.00  0.00     0.175 HD
ATOM     26  O   UNL A   1      38.988  29.559  27.060  1.00  0.00    -0.269 OA
BRANCH  17  27
ATOM     27  C   UNL A   1      43.984  27.283  26.830  1.00  0.00     0.054 A 
ATOM     28  C   UNL A   1      46.099  24.560  28.466  1.00  0.00     0.044 C 
ATOM     29  C   UNL A   1      45.672  25.681  27.566  1.00  0.00    -0.049 A 
ATOM     30  C   UNL A   1      46.526  26.128  26.552  1.00  0.00     0.007 A 
ATOM     31  C   UNL A   1      44.416  26.282  27.715  1.00  0.00     0.030 A 
ATOM     32  C   UNL A   1      46.128  27.144  25.676  1.00  0.00    -0.049 A 
ATOM     33  C   UNL A   1      47.063  27.625  24.606  1.00  0.00     0.044 C 
ATOM     34  C   UNL A   1      44.847  27.695  25.805  1.00  0.00     0.030 A 
ENDBRANCH  17  27
ENDBRANCH  10  16
ENDBRANCH   8   9
ENDBRANCH   7   8
ENDBRANCH   4   7
ENDBRANCH   2   3
ENDBRANCH   1   2
BRANCH   1  35
ATOM     35  C   UNL A   1      38.495  34.595  33.707  1.00  0.00     0.023 C 
BRANCH  35  36
ATOM     36  C   UNL A   1      39.279  34.012  34.877  1.00  0.00     0.116 C 
BRANCH  36  37
ATOM     37  N   UNL A   1      38.513  33.049  35.653  1.00  0.00    -0.352 N 
ATOM     38  C   UNL A   1      38.655  31.683  35.731  1.00  0.00     0.251 C 
ATOM     39  H   UNL A   1      37.789  33.430  36.202  1.00  0.00     0.163 HD
ATOM     40  O   UNL A   1      37.827  31.015  36.344  1.00  0.00    -0.269 OA
BRANCH  38  41
ATOM     41  C   UNL A   1      39.787  31.019  35.047  1.00  0.00     0.039 A 
ATOM     42  C   UNL A   1      39.518  30.157  33.981  1.00  0.00     0.014 A 
ATOM     43  C   UNL A   1      41.107  31.268  35.433  1.00  0.00     0.014 A 
ATOM     44  C   UNL A   1      40.576  29.614  33.245  1.00  0.00     0.010 A 
ATOM     45  C   UNL A   1      42.156  30.785  34.654  1.00  0.00     0.010 A 
ATOM     46  C   UNL A   1      41.903  29.963  33.545  1.00  0.00    -0.014 A 
BRANCH  46  47
ATOM     47  C   UNL A   1      43.035  29.526  32.684  1.00  0.00     0.031 A 
ATOM     48  C   UNL A   1      43.929  28.393  33.115  1.00  0.00     0.074 A 
ATOM     49  C   UNL A   1      43.324  30.222  31.565  1.00  0.00     0.049 A 
ATOM     50  N   UNL A   1      45.009  27.935  32.539  1.00  0.00    -0.248 NA
ATOM     51  C   UNL A   1      43.576  27.702  34.366  1.00  0.00     0.031 C 
ATOM     52  C   UNL A   1      42.578  31.383  31.074  1.00  0.00     0.029 A 
ATOM     53  N   UNL A   1      44.345  30.079  30.655  1.00  0.00    -0.354 N 
ATOM     54  C   UNL A   1      45.493  26.937  33.377  1.00  0.00     0.074 A 
ATOM     55  C   UNL A   1      44.594  26.863  34.508  1.00  0.00     0.031 C 
ATOM     56  C   UNL A   1      43.165  31.847  29.959  1.00  0.00     0.029 A 
ATOM     57  C   UNL A   1      44.353  31.049  29.678  1.00  0.00     0.049 A 
ATOM     58  H   UNL A   1      45.006  29.352  30.699  1.00  0.00     0.167 HD
ATOM     59  C   UNL A   1      46.578  26.144  33.211  1.00  0.00     0.034 A 
ATOM     60  C   UNL A   1      45.231  31.286  28.682  1.00  0.00     0.034 A 
ATOM     61  C   UNL A   1      47.444  26.190  32.064  1.00  0.00     0.049 A 
ATOM     62  C   UNL A   1      46.420  30.376  28.520  1.00  0.00     0.074 A 
ATOM     63  C   UNL A   1      48.496  25.346  31.752  1.00  0.00     0.029 A 
ATOM     64  N   UNL A   1      47.380  27.139  31.058  1.00  0.00    -0.354 N 
ATOM     65  N   UNL A   1      46.751  29.318  29.219  1.00  0.00    -0.248 NA
ATOM     66  C   UNL A   1      47.343  30.677  27.415  1.00  0.00     0.031 C 
ATOM     67  C   UNL A   1      49.099  25.816  30.582  1.00  0.00     0.029 A 
ATOM     68  C   UNL A   1      48.396  26.924  30.142  1.00  0.00     0.049 A 
ATOM     69  H   UNL A   1      46.712  27.860  31.003  1.00  0.00     0.167 HD
ATOM     70  C   UNL A   1      47.897  28.809  28.619  1.00  0.00     0.074 A 
ATOM     71  C   UNL A   1      48.189  29.658  27.485  1.00  0.00     0.031 C 
ATOM     72  C   UNL A   1      48.648  27.743  28.985  1.00  0.00     0.034 A 
BRANCH  59  73
ATOM     73  C   UNL A   1      46.888  25.130  34.280  1.00  0.00     0.023 A 
ATOM     74  C   UNL A   1      47.661  25.500  35.398  1.00  0.00     0.012 A 
ATOM     75  C   UNL A   1      46.325  23.838  34.224  1.00  0.00     0.148 A 
ATOM     76  C   UNL A   1      47.890  24.594  36.432  1.00  0.00     0.002 A 
ATOM     77  C   UNL A   1      46.519  22.957  35.280  1.00  0.00     0.091 A 
ATOM     78  F   UNL A   1      45.608  23.501  33.143  1.00  0.00    -0.205 F 
ATOM     79  C   UNL A   1      47.309  23.329  36.379  1.00  0.00     0.022 A 
BRANCH  77  80
ATOM     80  S   UNL A   1      45.746  21.337  35.347  1.00  0.00     0.127 S 
ATOM     81  O   UNL A   1      44.362  21.657  34.999  1.00  0.00    -0.237 OA
ATOM     82  O   UNL A   1      46.481  20.604  34.316  1.00  0.00    -0.237 OA
ATOM     83  O   UNL A   1      45.948  20.849  36.704  1.00  0.00    -0.744 OA
ENDBRANCH  77  80
ENDBRANCH  59  73
BRANCH  60  84
ATOM     84  C   UNL A   1      45.014  32.420  27.737  1.00  0.00     0.023 A 
ATOM     85  C   UNL A   1      44.343  32.188  26.519  1.00  0.00     0.012 A 
ATOM     86  C   UNL A   1      45.474  33.718  28.028  1.00  0.00     0.148 A 
ATOM     87  C   UNL A   1      44.177  33.216  25.590  1.00  0.00     0.002 A 
ATOM     88  C   UNL A   1      45.252  34.752  27.125  1.00  0.00     0.091 A 
ATOM     89  F   UNL A   1      46.122  33.918  29.185  1.00  0.00    -0.205 F 
ATOM     90  C   UNL A   1      44.624  34.499  25.896  1.00  0.00     0.022 A 
BRANCH  88  91
ATOM     91  S   UNL A   1      45.675  36.457  27.494  1.00  0.00     0.127 S 
ATOM     92  O   UNL A   1      47.133  36.400  27.542  1.00  0.00    -0.237 OA
ATOM     93  O   UNL A   1      45.123  37.162  26.336  1.00  0.00    -0.237 OA
ATOM     94  O   UNL A   1      45.009  36.763  28.753  1.00  0.00    -0.744 OA
ENDBRANCH  88  91
ENDBRANCH  60  84
BRANCH  72  95
ATOM     95  C   UNL A   1      49.844  27.396  28.135  1.00  0.00     0.023 A 
ATOM     96  C   UNL A   1      49.704  26.500  27.058  1.00  0.00     0.012 A 
ATOM     97  C   UNL A   1      51.082  28.032  28.351  1.00  0.00     0.148 A 
ATOM     98  C   UNL A   1      50.787  26.220  26.225  1.00  0.00     0.002 A 
ATOM     99  C   UNL A   1      52.141  27.789  27.485  1.00  0.00     0.091 A 
ATOM    100  F   UNL A   1      51.197  28.872  29.391  1.00  0.00    -0.205 F 
ATOM    101  C   UNL A   1      52.000  26.874  26.430  1.00  0.00     0.022 A 
BRANCH  99 102
ATOM    102  S   UNL A   1      53.710  28.657  27.607  1.00  0.00     0.127 S 
ATOM    103  O   UNL A   1      54.308  28.027  28.784  1.00  0.00    -0.237 OA
ATOM    104  O   UNL A   1      54.351  28.314  26.339  1.00  0.00    -0.237 OA
ATOM    105  O   UNL A   1      53.381  30.069  27.762  1.00  0.00    -0.744 OA
ENDBRANCH  99 102
ENDBRANCH  72  95
ENDBRANCH  46  47
ENDBRANCH  38  41
ENDBRANCH  36  37
ENDBRANCH  35  36
ENDBRANCH   1  35
TORSDOF 18
ENDMDL
