MODEL 1
REMARK VINA RESULT:     -13.4      0.000      0.000
REMARK SMILES COC(=O)c1ccc(C)c(NC(=O)[C@H]2CC=CC[C@H]2C(=O)NCCCCNC(=O)c2ccc(-c3c4nc(c(-c5cccc(S(=O)(=O)[O-])c5F)c5ccc([nH]5)c(-c5cccc(S(=O)(=O)[O-])c5F)c5nc(c(-c6cccc(S(=O)(=O)[O-])c6F)c6ccc3[nH]6)C=C5)C=C4)cc2)c1
REMARK SMILES IDX 24 1 23 2 22 3 20 4 21 5 19 7 14 8 15 9 16 10 18 11 17 12
REMARK SMILES IDX 12 13 11 14 13 16 10 17 5 18 6 19 93 20 7 21 8 22 9 23 3 24
REMARK SMILES IDX 4 25 2 26 1 27 25 28 26 29 27 30 28 31 29 33 30 34 31 35
REMARK SMILES IDX 92 36 32 37 91 38 33 39 34 40 35 41 85 42 36 43 90 44 84 45
REMARK SMILES IDX 86 46 37 47 89 48 83 49 82 50 38 52 70 53 50 54 69 55 51 56
REMARK SMILES IDX 54 57 68 58 87 59 52 60 53 61 67 63 88 64 55 65 39 66 40 67
REMARK SMILES IDX 48 68 41 69 43 70 49 71 42 72 44 73 45 74 46 75 47 76 71 77
REMARK SMILES IDX 72 78 80 79 73 80 75 81 81 82 74 83 76 84 77 85 78 86 79 87
REMARK SMILES IDX 56 88 57 89 65 90 58 91 60 92 66 93 59 94 61 95 62 96 63 97
REMARK SMILES IDX 64 98
REMARK H PARENT 22 6 11 15 27 32 86 51 54 62
REMARK Flexibility Score: inf
ROOT
ATOM      1  C   UNL A   1      39.991  21.707  26.357  1.00  0.00     0.023 C 
ENDROOT
BRANCH   1   2
ATOM      2  C   UNL A   1      37.990  22.540  25.911  1.00  0.00     0.116 C 
BRANCH   2   3
ATOM      3  N   UNL A   1      37.349  23.036  24.532  1.00  0.00    -0.356 N 
ATOM      4  C   UNL A   1      36.207  22.751  23.862  1.00  0.00     0.224 C 
ATOM      5  O   UNL A   1      36.228  22.951  22.639  1.00  0.00    -0.275 OA
ATOM      6  H   UNL A   1      37.911  23.697  24.067  1.00  0.00     0.163 HD
BRANCH   4   7
ATOM      7  C   UNL A   1      34.907  22.296  24.510  1.00  0.00     0.095 C 
ATOM      8  C   UNL A   1      33.624  23.151  24.570  1.00  0.00     0.095 C 
ATOM      9  C   UNL A   1      32.838  22.637  25.827  1.00  0.00     0.041 C 
ATOM     10  C   UNL A   1      32.718  21.129  25.870  1.00  0.00    -0.030 C 
ATOM     11  C   UNL A   1      34.673  20.795  24.336  1.00  0.00     0.041 C 
ATOM     12  C   UNL A   1      33.522  20.309  25.174  1.00  0.00    -0.030 C 
BRANCH   8  13
ATOM     13  C   UNL A   1      32.594  23.145  23.429  1.00  0.00     0.228 C 
ATOM     14  N   UNL A   1      31.474  23.929  23.461  1.00  0.00    -0.326 N 
ATOM     15  H   UNL A   1      30.590  23.503  23.389  1.00  0.00     0.169 HD
ATOM     16  O   UNL A   1      32.634  22.343  22.489  1.00  0.00    -0.274 OA
BRANCH  14  17
ATOM     17  C   UNL A   1      31.551  25.311  23.595  1.00  0.00     0.044 A 
ATOM     18  C   UNL A   1      31.017  27.596  25.619  1.00  0.00     0.062 A 
ATOM     19  C   UNL A   1      31.086  28.796  24.244  1.00  0.00     0.016 A 
ATOM     20  C   UNL A   1      31.210  25.860  25.256  1.00  0.00     0.042 A 
ATOM     21  C   UNL A   1      31.478  28.232  22.549  1.00  0.00     0.006 A 
ATOM     22  C   UNL A   1      31.698  26.458  22.233  1.00  0.00    -0.027 A 
ATOM     23  C   UNL A   1      32.163  25.954  20.903  1.00  0.00     0.046 C 
BRANCH  18  24
ATOM     24  C   UNL A   1      31.702  27.785  26.935  1.00  0.00     0.337 C 
ATOM     25  O   UNL A   1      31.057  27.832  27.967  1.00  0.00    -0.246 OA
BRANCH  24  26
ATOM     26  O   UNL A   1      32.908  28.361  26.767  1.00  0.00    -0.465 OA
ATOM     27  C   UNL A   1      32.963  29.714  27.247  1.00  0.00     0.282 C 
ENDBRANCH  24  26
ENDBRANCH  18  24
ENDBRANCH  14  17
ENDBRANCH   8  13
ENDBRANCH   4   7
ENDBRANCH   2   3
ENDBRANCH   1   2
BRANCH   1  28
ATOM     28  C   UNL A   1      40.728  20.035  26.315  1.00  0.00     0.023 C 
BRANCH  28  29
ATOM     29  C   UNL A   1      42.188  19.393  26.321  1.00  0.00     0.116 C 
BRANCH  29  30
ATOM     30  N   UNL A   1      43.398  20.180  26.450  1.00  0.00    -0.352 N 
ATOM     31  C   UNL A   1      43.706  21.349  25.764  1.00  0.00     0.251 C 
ATOM     32  H   UNL A   1      44.071  19.853  27.090  1.00  0.00     0.163 HD
ATOM     33  O   UNL A   1      43.665  21.525  24.560  1.00  0.00    -0.269 OA
BRANCH  31  34
ATOM     34  C   UNL A   1      43.904  22.448  26.746  1.00  0.00     0.039 A 
ATOM     35  C   UNL A   1      43.403  22.502  28.045  1.00  0.00     0.014 A 
ATOM     36  C   UNL A   1      44.433  23.586  26.134  1.00  0.00     0.014 A 
ATOM     37  C   UNL A   1      43.285  23.756  28.656  1.00  0.00     0.010 A 
ATOM     38  C   UNL A   1      44.158  24.815  26.649  1.00  0.00     0.010 A 
ATOM     39  C   UNL A   1      43.566  24.900  27.906  1.00  0.00    -0.014 A 
BRANCH  39  40
ATOM     40  C   UNL A   1      43.631  26.248  28.420  1.00  0.00     0.031 A 
ATOM     41  C   UNL A   1      42.347  26.964  28.464  1.00  0.00     0.074 A 
ATOM     42  C   UNL A   1      44.722  26.621  29.124  1.00  0.00     0.049 A 
ATOM     43  N   UNL A   1      42.223  28.238  28.549  1.00  0.00    -0.248 NA
ATOM     44  C   UNL A   1      41.069  26.260  28.354  1.00  0.00     0.031 C 
ATOM     45  C   UNL A   1      44.818  27.668  30.129  1.00  0.00     0.029 A 
ATOM     46  N   UNL A   1      46.042  26.185  28.960  1.00  0.00    -0.354 N 
ATOM     47  C   UNL A   1      40.889  28.481  28.819  1.00  0.00     0.074 A 
ATOM     48  C   UNL A   1      40.202  27.262  28.494  1.00  0.00     0.031 C 
ATOM     49  C   UNL A   1      46.113  27.989  30.287  1.00  0.00     0.029 A 
ATOM     50  C   UNL A   1      46.853  27.301  29.242  1.00  0.00     0.049 A 
ATOM     51  H   UNL A   1      46.341  25.284  28.701  1.00  0.00     0.167 HD
ATOM     52  C   UNL A   1      40.556  29.610  29.503  1.00  0.00     0.034 A 
ATOM     53  C   UNL A   1      47.598  27.922  28.276  1.00  0.00     0.034 A 
ATOM     54  C   UNL A   1      41.779  30.376  29.811  1.00  0.00     0.049 A 
ATOM     55  C   UNL A   1      47.112  29.325  27.949  1.00  0.00     0.074 A 
ATOM     56  C   UNL A   1      42.589  30.483  30.931  1.00  0.00     0.029 A 
ATOM     57  N   UNL A   1      42.529  30.870  28.759  1.00  0.00    -0.354 N 
ATOM     58  N   UNL A   1      46.184  29.975  28.596  1.00  0.00    -0.248 NA
ATOM     59  C   UNL A   1      47.575  30.041  26.762  1.00  0.00     0.031 C 
ATOM     60  C   UNL A   1      43.845  31.032  30.520  1.00  0.00     0.029 A 
ATOM     61  C   UNL A   1      43.785  31.295  29.163  1.00  0.00     0.049 A 
ATOM     62  H   UNL A   1      42.208  30.914  27.829  1.00  0.00     0.167 HD
ATOM     63  C   UNL A   1      45.785  31.054  27.846  1.00  0.00     0.074 A 
ATOM     64  C   UNL A   1      46.709  31.064  26.721  1.00  0.00     0.031 C 
ATOM     65  C   UNL A   1      44.682  31.816  28.136  1.00  0.00     0.034 A 
BRANCH  52  66
ATOM     66  C   UNL A   1      39.209  29.889  30.158  1.00  0.00     0.023 A 
ATOM     67  C   UNL A   1      38.673  28.857  30.959  1.00  0.00     0.012 A 
ATOM     68  C   UNL A   1      38.409  31.055  30.049  1.00  0.00     0.148 A 
ATOM     69  C   UNL A   1      37.402  28.931  31.540  1.00  0.00     0.002 A 
ATOM     70  C   UNL A   1      37.115  31.112  30.583  1.00  0.00     0.091 A 
ATOM     71  F   UNL A   1      38.909  32.165  29.503  1.00  0.00    -0.205 F 
ATOM     72  C   UNL A   1      36.609  30.046  31.329  1.00  0.00     0.022 A 
BRANCH  70  73
ATOM     73  S   UNL A   1      36.005  32.511  30.319  1.00  0.00     0.127 S 
ATOM     74  O   UNL A   1      34.747  32.015  30.883  1.00  0.00    -0.237 OA
ATOM     75  O   UNL A   1      36.642  33.570  31.100  1.00  0.00    -0.237 OA
ATOM     76  O   UNL A   1      35.962  32.734  28.880  1.00  0.00    -0.744 OA
ENDBRANCH  70  73
ENDBRANCH  52  66
BRANCH  53  77
ATOM     77  C   UNL A   1      48.134  26.977  27.255  1.00  0.00     0.023 A 
ATOM     78  C   UNL A   1      47.451  26.934  26.018  1.00  0.00     0.012 A 
ATOM     79  C   UNL A   1      49.467  26.524  27.336  1.00  0.00     0.148 A 
ATOM     80  C   UNL A   1      48.131  26.589  24.858  1.00  0.00     0.002 A 
ATOM     81  C   UNL A   1      50.143  26.219  26.169  1.00  0.00     0.091 A 
ATOM     82  F   UNL A   1      50.079  26.522  28.525  1.00  0.00    -0.205 F 
ATOM     83  C   UNL A   1      49.481  26.271  24.939  1.00  0.00     0.022 A 
BRANCH  81  84
ATOM     84  S   UNL A   1      51.922  25.988  26.096  1.00  0.00     0.127 S 
ATOM     85  O   UNL A   1      52.032  24.534  26.126  1.00  0.00    -0.237 OA
ATOM     86  O   UNL A   1      52.236  26.600  24.805  1.00  0.00    -0.237 OA
ATOM     87  O   UNL A   1      52.450  26.692  27.253  1.00  0.00    -0.744 OA
ENDBRANCH  81  84
ENDBRANCH  53  77
BRANCH  65  88
ATOM     88  C   UNL A   1      44.308  33.083  27.373  1.00  0.00     0.023 A 
ATOM     89  C   UNL A   1      44.151  33.070  25.975  1.00  0.00     0.012 A 
ATOM     90  C   UNL A   1      44.203  34.356  27.995  1.00  0.00     0.148 A 
ATOM     91  C   UNL A   1      43.737  34.199  25.260  1.00  0.00     0.002 A 
ATOM     92  C   UNL A   1      43.828  35.487  27.282  1.00  0.00     0.091 A 
ATOM     93  F   UNL A   1      44.522  34.508  29.281  1.00  0.00    -0.205 F 
ATOM     94  C   UNL A   1      43.552  35.405  25.918  1.00  0.00     0.022 A 
BRANCH  92  95
ATOM     95  S   UNL A   1      43.737  37.114  28.044  1.00  0.00     0.127 S 
ATOM     96  O   UNL A   1      43.819  37.986  26.872  1.00  0.00    -0.237 OA
ATOM     97  O   UNL A   1      42.422  37.071  28.684  1.00  0.00    -0.237 OA
ATOM     98  O   UNL A   1      44.862  37.206  28.963  1.00  0.00    -0.744 OA
ENDBRANCH  92  95
ENDBRANCH  65  88
ENDBRANCH  39  40
ENDBRANCH  31  34
ENDBRANCH  29  30
ENDBRANCH  28  29
ENDBRANCH   1  28
TORSDOF 18
ENDMDL
MODEL 2
REMARK VINA RESULT:     -13.4      1.851      3.943
REMARK SMILES COC(=O)c1ccc(C)c(NC(=O)[C@H]2CC=CC[C@H]2C(=O)NCCCCNC(=O)c2ccc(-c3c4nc(c(-c5cccc(S(=O)(=O)[O-])c5F)c5ccc([nH]5)c(-c5cccc(S(=O)(=O)[O-])c5F)c5nc(c(-c6cccc(S(=O)(=O)[O-])c6F)c6ccc3[nH]6)C=C5)C=C4)cc2)c1
REMARK SMILES IDX 24 1 23 2 22 3 20 4 21 5 19 7 14 8 15 9 16 10 18 11 17 12
REMARK SMILES IDX 12 13 11 14 13 16 10 17 5 18 6 19 93 20 7 21 8 22 9 23 3 24
REMARK SMILES IDX 4 25 2 26 1 27 25 28 26 29 27 30 28 31 29 33 30 34 31 35
REMARK SMILES IDX 92 36 32 37 91 38 33 39 34 40 35 41 85 42 36 43 90 44 84 45
REMARK SMILES IDX 86 46 37 47 89 48 83 49 82 50 38 52 70 53 50 54 69 55 51 56
REMARK SMILES IDX 54 57 68 58 87 59 52 60 53 61 67 63 88 64 55 65 39 66 40 67
REMARK SMILES IDX 48 68 41 69 43 70 49 71 42 72 44 73 45 74 46 75 47 76 71 77
REMARK SMILES IDX 72 78 80 79 73 80 75 81 81 82 74 83 76 84 77 85 78 86 79 87
REMARK SMILES IDX 56 88 57 89 65 90 58 91 60 92 66 93 59 94 61 95 62 96 63 97
REMARK SMILES IDX 64 98
REMARK H PARENT 22 6 11 15 27 32 86 51 54 62
REMARK Flexibility Score: inf
ROOT
ATOM      1  C   UNL A   1      39.702  21.532  26.578  1.00  0.00     0.023 C 
ENDROOT
BRANCH   1   2
ATOM      2  C   UNL A   1      37.914  22.577  25.797  1.00  0.00     0.116 C 
BRANCH   2   3
ATOM      3  N   UNL A   1      37.522  23.002  24.306  1.00  0.00    -0.356 N 
ATOM      4  C   UNL A   1      36.351  23.178  23.648  1.00  0.00     0.224 C 
ATOM      5  O   UNL A   1      36.395  23.063  22.415  1.00  0.00    -0.275 OA
ATOM      6  H   UNL A   1      38.308  23.176  23.740  1.00  0.00     0.163 HD
BRANCH   4   7
ATOM      7  C   UNL A   1      35.037  23.585  24.302  1.00  0.00     0.095 C 
ATOM      8  C   UNL A   1      33.832  22.640  24.486  1.00  0.00     0.095 C 
ATOM      9  C   UNL A   1      32.573  23.573  24.542  1.00  0.00     0.041 C 
ATOM     10  C   UNL A   1      32.746  24.738  25.494  1.00  0.00    -0.030 C 
ATOM     11  C   UNL A   1      35.247  24.589  25.435  1.00  0.00     0.041 C 
ATOM     12  C   UNL A   1      33.945  25.167  25.917  1.00  0.00    -0.030 C 
BRANCH   8  13
ATOM     13  C   UNL A   1      33.703  21.725  25.715  1.00  0.00     0.228 C 
ATOM     14  N   UNL A   1      32.831  20.672  25.744  1.00  0.00    -0.326 N 
ATOM     15  H   UNL A   1      32.150  20.633  26.454  1.00  0.00     0.169 HD
ATOM     16  O   UNL A   1      34.262  21.960  26.793  1.00  0.00    -0.274 OA
BRANCH  14  17
ATOM     17  C   UNL A   1      32.880  19.654  24.797  1.00  0.00     0.044 A 
ATOM     18  C   UNL A   1      34.180  16.894  24.253  1.00  0.00     0.062 A 
ATOM     19  C   UNL A   1      33.727  17.058  22.490  1.00  0.00     0.016 A 
ATOM     20  C   UNL A   1      33.782  18.227  25.369  1.00  0.00     0.042 A 
ATOM     21  C   UNL A   1      32.766  18.504  21.917  1.00  0.00     0.006 A 
ATOM     22  C   UNL A   1      32.356  19.820  23.098  1.00  0.00    -0.027 A 
ATOM     23  C   UNL A   1      31.450  20.951  22.722  1.00  0.00     0.046 C 
BRANCH  18  24
ATOM     24  C   UNL A   1      33.981  15.652  25.059  1.00  0.00     0.337 C 
ATOM     25  O   UNL A   1      34.936  14.995  25.432  1.00  0.00    -0.246 OA
BRANCH  24  26
ATOM     26  O   UNL A   1      32.745  15.151  24.867  1.00  0.00    -0.465 OA
ATOM     27  C   UNL A   1      32.041  14.888  26.093  1.00  0.00     0.282 C 
ENDBRANCH  24  26
ENDBRANCH  18  24
ENDBRANCH  14  17
ENDBRANCH   8  13
ENDBRANCH   4   7
ENDBRANCH   2   3
ENDBRANCH   1   2
BRANCH   1  28
ATOM     28  C   UNL A   1      40.490  19.915  26.258  1.00  0.00     0.023 C 
BRANCH  28  29
ATOM     29  C   UNL A   1      41.922  19.242  26.466  1.00  0.00     0.116 C 
BRANCH  29  30
ATOM     30  N   UNL A   1      43.136  20.010  26.660  1.00  0.00    -0.352 N 
ATOM     31  C   UNL A   1      43.520  21.149  25.962  1.00  0.00     0.251 C 
ATOM     32  H   UNL A   1      43.752  19.691  27.359  1.00  0.00     0.163 HD
ATOM     33  O   UNL A   1      43.572  21.285  24.753  1.00  0.00    -0.269 OA
BRANCH  31  34
ATOM     34  C   UNL A   1      43.668  22.276  26.921  1.00  0.00     0.039 A 
ATOM     35  C   UNL A   1      43.062  22.390  28.171  1.00  0.00     0.014 A 
ATOM     36  C   UNL A   1      44.280  23.377  26.318  1.00  0.00     0.014 A 
ATOM     37  C   UNL A   1      42.931  23.667  28.728  1.00  0.00     0.010 A 
ATOM     38  C   UNL A   1      44.000  24.631  26.768  1.00  0.00     0.010 A 
ATOM     39  C   UNL A   1      43.308  24.776  27.967  1.00  0.00    -0.014 A 
BRANCH  39  40
ATOM     40  C   UNL A   1      43.370  26.140  28.439  1.00  0.00     0.031 A 
ATOM     41  C   UNL A   1      42.088  26.861  28.441  1.00  0.00     0.074 A 
ATOM     42  C   UNL A   1      44.450  26.531  29.149  1.00  0.00     0.049 A 
ATOM     43  N   UNL A   1      41.968  28.138  28.484  1.00  0.00    -0.248 NA
ATOM     44  C   UNL A   1      40.809  26.158  28.332  1.00  0.00     0.031 C 
ATOM     45  C   UNL A   1      44.535  27.608  30.122  1.00  0.00     0.029 A 
ATOM     46  N   UNL A   1      45.772  26.085  29.019  1.00  0.00    -0.354 N 
ATOM     47  C   UNL A   1      40.631  28.394  28.726  1.00  0.00     0.074 A 
ATOM     48  C   UNL A   1      39.944  27.167  28.427  1.00  0.00     0.031 C 
ATOM     49  C   UNL A   1      45.829  27.929  30.291  1.00  0.00     0.029 A 
ATOM     50  C   UNL A   1      46.582  27.206  29.279  1.00  0.00     0.049 A 
ATOM     51  H   UNL A   1      46.071  25.175  28.793  1.00  0.00     0.167 HD
ATOM     52  C   UNL A   1      40.291  29.544  29.368  1.00  0.00     0.034 A 
ATOM     53  C   UNL A   1      47.345  27.794  28.307  1.00  0.00     0.034 A 
ATOM     54  C   UNL A   1      41.512  30.315  29.672  1.00  0.00     0.049 A 
ATOM     55  C   UNL A   1      46.869  29.188  27.928  1.00  0.00     0.074 A 
ATOM     56  C   UNL A   1      42.305  30.453  30.801  1.00  0.00     0.029 A 
ATOM     57  N   UNL A   1      42.281  30.774  28.617  1.00  0.00    -0.354 N 
ATOM     58  N   UNL A   1      45.934  29.861  28.540  1.00  0.00    -0.248 NA
ATOM     59  C   UNL A   1      47.354  29.865  26.727  1.00  0.00     0.031 C 
ATOM     60  C   UNL A   1      43.570  30.986  30.393  1.00  0.00     0.029 A 
ATOM     61  C   UNL A   1      43.532  31.207  29.028  1.00  0.00     0.049 A 
ATOM     62  H   UNL A   1      41.974  30.790  27.682  1.00  0.00     0.167 HD
ATOM     63  C   UNL A   1      45.552  30.918  27.751  1.00  0.00     0.074 A 
ATOM     64  C   UNL A   1      46.493  30.890  26.641  1.00  0.00     0.031 C 
ATOM     65  C   UNL A   1      44.447  31.692  28.000  1.00  0.00     0.034 A 
BRANCH  52  66
ATOM     66  C   UNL A   1      38.935  29.848  29.993  1.00  0.00     0.023 A 
ATOM     67  C   UNL A   1      38.458  28.919  30.944  1.00  0.00     0.012 A 
ATOM     68  C   UNL A   1      38.075  30.943  29.725  1.00  0.00     0.148 A 
ATOM     69  C   UNL A   1      37.188  29.013  31.524  1.00  0.00     0.002 A 
ATOM     70  C   UNL A   1      36.783  31.013  30.262  1.00  0.00     0.091 A 
ATOM     71  F   UNL A   1      38.514  31.985  29.016  1.00  0.00    -0.205 F 
ATOM     72  C   UNL A   1      36.337  30.044  31.162  1.00  0.00     0.022 A 
BRANCH  70  73
ATOM     73  S   UNL A   1      35.601  32.300  29.811  1.00  0.00     0.127 S 
ATOM     74  O   UNL A   1      34.858  31.665  28.720  1.00  0.00    -0.237 OA
ATOM     75  O   UNL A   1      34.836  32.470  31.045  1.00  0.00    -0.237 OA
ATOM     76  O   UNL A   1      36.389  33.455  29.398  1.00  0.00    -0.744 OA
ENDBRANCH  70  73
ENDBRANCH  52  66
BRANCH  53  77
ATOM     77  C   UNL A   1      47.893  26.816  27.324  1.00  0.00     0.023 A 
ATOM     78  C   UNL A   1      47.094  26.549  26.190  1.00  0.00     0.012 A 
ATOM     79  C   UNL A   1      49.277  26.546  27.286  1.00  0.00     0.148 A 
ATOM     80  C   UNL A   1      47.685  26.165  24.994  1.00  0.00     0.002 A 
ATOM     81  C   UNL A   1      49.859  26.201  26.080  1.00  0.00     0.091 A 
ATOM     82  F   UNL A   1      50.008  26.754  28.386  1.00  0.00    -0.205 F 
ATOM     83  C   UNL A   1      49.068  26.031  24.941  1.00  0.00     0.022 A 
BRANCH  81  84
ATOM     84  S   UNL A   1      51.634  26.189  25.814  1.00  0.00     0.127 S 
ATOM     85  O   UNL A   1      52.041  27.420  26.484  1.00  0.00    -0.237 OA
ATOM     86  O   UNL A   1      52.018  24.959  26.507  1.00  0.00    -0.237 OA
ATOM     87  O   UNL A   1      51.808  26.161  24.371  1.00  0.00    -0.744 OA
ENDBRANCH  81  84
ENDBRANCH  53  77
BRANCH  65  88
ATOM     88  C   UNL A   1      44.090  32.936  27.192  1.00  0.00     0.023 A 
ATOM     89  C   UNL A   1      44.050  32.903  25.786  1.00  0.00     0.012 A 
ATOM     90  C   UNL A   1      43.886  34.210  27.786  1.00  0.00     0.148 A 
ATOM     91  C   UNL A   1      43.654  34.008  25.025  1.00  0.00     0.002 A 
ATOM     92  C   UNL A   1      43.530  35.319  27.031  1.00  0.00     0.091 A 
ATOM     93  F   UNL A   1      44.092  34.388  29.092  1.00  0.00    -0.205 F 
ATOM     94  C   UNL A   1      43.370  35.212  25.650  1.00  0.00     0.022 A 
BRANCH  92  95
ATOM     95  S   UNL A   1      43.314  36.949  27.761  1.00  0.00     0.127 S 
ATOM     96  O   UNL A   1      44.703  37.393  27.889  1.00  0.00    -0.237 OA
ATOM     97  O   UNL A   1      42.544  37.640  26.727  1.00  0.00    -0.237 OA
ATOM     98  O   UNL A   1      42.610  36.749  29.019  1.00  0.00    -0.744 OA
ENDBRANCH  92  95
ENDBRANCH  65  88
ENDBRANCH  39  40
ENDBRANCH  31  34
ENDBRANCH  29  30
ENDBRANCH  28  29
ENDBRANCH   1  28
TORSDOF 18
ENDMDL
MODEL 3
REMARK VINA RESULT:     -12.9      5.451      8.956
REMARK SMILES COC(=O)c1ccc(C)c(NC(=O)[C@H]2CC=CC[C@H]2C(=O)NCCCCNC(=O)c2ccc(-c3c4nc(c(-c5cccc(S(=O)(=O)[O-])c5F)c5ccc([nH]5)c(-c5cccc(S(=O)(=O)[O-])c5F)c5nc(c(-c6cccc(S(=O)(=O)[O-])c6F)c6ccc3[nH]6)C=C5)C=C4)cc2)c1
REMARK SMILES IDX 24 1 23 2 22 3 20 4 21 5 19 7 14 8 15 9 16 10 18 11 17 12
REMARK SMILES IDX 12 13 11 14 13 16 10 17 5 18 6 19 93 20 7 21 8 22 9 23 3 24
REMARK SMILES IDX 4 25 2 26 1 27 25 28 26 29 27 30 28 31 29 33 30 34 31 35
REMARK SMILES IDX 92 36 32 37 91 38 33 39 34 40 35 41 85 42 36 43 90 44 84 45
REMARK SMILES IDX 86 46 37 47 89 48 83 49 82 50 38 52 70 53 50 54 69 55 51 56
REMARK SMILES IDX 54 57 68 58 87 59 52 60 53 61 67 63 88 64 55 65 39 66 40 67
REMARK SMILES IDX 48 68 41 69 43 70 49 71 42 72 44 73 45 74 46 75 47 76 71 77
REMARK SMILES IDX 72 78 80 79 73 80 75 81 81 82 74 83 76 84 77 85 78 86 79 87
REMARK SMILES IDX 56 88 57 89 65 90 58 91 60 92 66 93 59 94 61 95 62 96 63 97
REMARK SMILES IDX 64 98
REMARK H PARENT 22 6 11 15 27 32 86 51 54 62
REMARK Flexibility Score: inf
ROOT
ATOM      1  C   UNL A   1      33.154  29.253  25.253  1.00  0.00     0.023 C 
ENDROOT
BRANCH   1   2
ATOM      2  C   UNL A   1      34.361  28.641  23.502  1.00  0.00     0.116 C 
BRANCH   2   3
ATOM      3  N   UNL A   1      33.998  27.701  22.260  1.00  0.00    -0.356 N 
ATOM      4  C   UNL A   1      33.076  26.733  22.043  1.00  0.00     0.224 C 
ATOM      5  O   UNL A   1      33.349  25.906  21.162  1.00  0.00    -0.275 OA
ATOM      6  H   UNL A   1      34.573  27.863  21.478  1.00  0.00     0.163 HD
BRANCH   4   7
ATOM      7  C   UNL A   1      31.721  26.650  22.732  1.00  0.00     0.095 C 
ATOM      8  C   UNL A   1      31.319  25.536  23.721  1.00  0.00     0.095 C 
ATOM      9  C   UNL A   1      29.755  25.450  23.640  1.00  0.00     0.041 C 
ATOM     10  C   UNL A   1      29.084  26.804  23.746  1.00  0.00    -0.030 C 
ATOM     11  C   UNL A   1      31.157  28.034  23.056  1.00  0.00     0.041 C 
ATOM     12  C   UNL A   1      29.726  27.960  23.515  1.00  0.00    -0.030 C 
BRANCH   8  13
ATOM     13  C   UNL A   1      31.633  25.637  25.223  1.00  0.00     0.228 C 
ATOM     14  N   UNL A   1      31.865  24.528  25.989  1.00  0.00    -0.326 N 
ATOM     15  H   UNL A   1      31.303  24.367  26.780  1.00  0.00     0.169 HD
ATOM     16  O   UNL A   1      31.558  26.695  25.859  1.00  0.00    -0.274 OA
BRANCH  14  17
ATOM     17  C   UNL A   1      32.874  23.622  25.679  1.00  0.00     0.044 A 
ATOM     18  C   UNL A   1      33.499  20.587  25.657  1.00  0.00     0.062 A 
ATOM     19  C   UNL A   1      35.278  20.981  25.516  1.00  0.00     0.016 A 
ATOM     20  C   UNL A   1      32.330  21.928  25.780  1.00  0.00     0.042 A 
ATOM     21  C   UNL A   1      35.827  22.719  25.371  1.00  0.00     0.006 A 
ATOM     22  C   UNL A   1      34.596  24.049  25.469  1.00  0.00    -0.027 A 
ATOM     23  C   UNL A   1      34.966  25.475  25.210  1.00  0.00     0.046 C 
BRANCH  18  24
ATOM     24  C   UNL A   1      32.801  19.549  24.839  1.00  0.00     0.337 C 
ATOM     25  O   UNL A   1      32.316  19.835  23.759  1.00  0.00    -0.246 OA
BRANCH  24  26
ATOM     26  O   UNL A   1      32.377  18.534  25.616  1.00  0.00    -0.465 OA
ATOM     27  C   UNL A   1      32.231  17.295  24.902  1.00  0.00     0.282 C 
ENDBRANCH  24  26
ENDBRANCH  18  24
ENDBRANCH  14  17
ENDBRANCH   8  13
ENDBRANCH   4   7
ENDBRANCH   2   3
ENDBRANCH   1   2
BRANCH   1  28
ATOM     28  C   UNL A   1      33.533  29.718  26.979  1.00  0.00     0.023 C 
BRANCH  28  29
ATOM     29  C   UNL A   1      34.116  30.985  27.755  1.00  0.00     0.116 C 
BRANCH  29  30
ATOM     30  N   UNL A   1      35.441  31.521  27.511  1.00  0.00    -0.352 N 
ATOM     31  C   UNL A   1      35.914  32.772  27.890  1.00  0.00     0.251 C 
ATOM     32  H   UNL A   1      36.070  30.938  27.027  1.00  0.00     0.163 HD
ATOM     33  O   UNL A   1      35.389  33.849  27.678  1.00  0.00    -0.269 OA
BRANCH  31  34
ATOM     34  C   UNL A   1      37.082  32.593  28.793  1.00  0.00     0.039 A 
ATOM     35  C   UNL A   1      37.304  31.528  29.664  1.00  0.00     0.014 A 
ATOM     36  C   UNL A   1      37.833  33.766  28.889  1.00  0.00     0.014 A 
ATOM     37  C   UNL A   1      38.175  31.726  30.742  1.00  0.00     0.010 A 
ATOM     38  C   UNL A   1      38.537  34.022  30.025  1.00  0.00     0.010 A 
ATOM     39  C   UNL A   1      38.693  33.004  30.963  1.00  0.00    -0.014 A 
BRANCH  39  40
ATOM     40  C   UNL A   1      39.707  33.346  31.934  1.00  0.00     0.031 A 
ATOM     41  C   UNL A   1      39.202  33.928  33.187  1.00  0.00     0.074 A 
ATOM     42  C   UNL A   1      40.939  32.811  31.800  1.00  0.00     0.049 A 
ATOM     43  N   UNL A   1      39.910  34.604  34.016  1.00  0.00    -0.248 NA
ATOM     44  C   UNL A   1      37.792  33.826  33.571  1.00  0.00     0.031 C 
ATOM     45  C   UNL A   1      41.928  32.580  32.840  1.00  0.00     0.029 A 
ATOM     46  N   UNL A   1      41.608  32.479  30.615  1.00  0.00    -0.354 N 
ATOM     47  C   UNL A   1      39.143  34.742  35.158  1.00  0.00     0.074 A 
ATOM     48  C   UNL A   1      37.798  34.425  34.761  1.00  0.00     0.031 C 
ATOM     49  C   UNL A   1      43.130  32.422  32.259  1.00  0.00     0.029 A 
ATOM     50  C   UNL A   1      42.968  32.753  30.853  1.00  0.00     0.049 A 
ATOM     51  H   UNL A   1      41.209  32.127  29.787  1.00  0.00     0.167 HD
ATOM     52  C   UNL A   1      39.773  34.887  36.356  1.00  0.00     0.034 A 
ATOM     53  C   UNL A   1      43.631  33.762  30.208  1.00  0.00     0.034 A 
ATOM     54  C   UNL A   1      41.234  34.873  36.146  1.00  0.00     0.049 A 
ATOM     55  C   UNL A   1      44.034  34.903  31.129  1.00  0.00     0.074 A 
ATOM     56  C   UNL A   1      42.212  33.898  36.262  1.00  0.00     0.029 A 
ATOM     57  N   UNL A   1      41.799  35.880  35.383  1.00  0.00    -0.354 N 
ATOM     58  N   UNL A   1      43.921  34.903  32.429  1.00  0.00    -0.248 NA
ATOM     59  C   UNL A   1      44.483  36.191  30.604  1.00  0.00     0.031 C 
ATOM     60  C   UNL A   1      43.365  34.336  35.536  1.00  0.00     0.029 A 
ATOM     61  C   UNL A   1      43.103  35.589  35.013  1.00  0.00     0.049 A 
ATOM     62  H   UNL A   1      41.328  36.707  35.131  1.00  0.00     0.167 HD
ATOM     63  C   UNL A   1      44.075  36.186  32.893  1.00  0.00     0.074 A 
ATOM     64  C   UNL A   1      44.453  36.948  31.711  1.00  0.00     0.031 C 
ATOM     65  C   UNL A   1      43.800  36.566  34.183  1.00  0.00     0.034 A 
BRANCH  52  66
ATOM     66  C   UNL A   1      39.126  34.738  37.727  1.00  0.00     0.023 A 
ATOM     67  C   UNL A   1      39.385  35.766  38.660  1.00  0.00     0.012 A 
ATOM     68  C   UNL A   1      38.305  33.681  38.196  1.00  0.00     0.148 A 
ATOM     69  C   UNL A   1      38.943  35.715  39.986  1.00  0.00     0.002 A 
ATOM     70  C   UNL A   1      37.906  33.598  39.536  1.00  0.00     0.091 A 
ATOM     71  F   UNL A   1      37.821  32.776  37.343  1.00  0.00    -0.205 F 
ATOM     72  C   UNL A   1      38.227  34.617  40.434  1.00  0.00     0.022 A 
BRANCH  70  73
ATOM     73  S   UNL A   1      37.008  32.184  40.207  1.00  0.00     0.127 S 
ATOM     74  O   UNL A   1      38.071  31.187  40.356  1.00  0.00    -0.237 OA
ATOM     75  O   UNL A   1      36.491  32.710  41.470  1.00  0.00    -0.237 OA
ATOM     76  O   UNL A   1      35.999  31.830  39.216  1.00  0.00    -0.744 OA
ENDBRANCH  70  73
ENDBRANCH  52  66
BRANCH  53  77
ATOM     77  C   UNL A   1      43.169  33.960  28.804  1.00  0.00     0.023 A 
ATOM     78  C   UNL A   1      42.391  35.114  28.556  1.00  0.00     0.012 A 
ATOM     79  C   UNL A   1      43.837  33.323  27.739  1.00  0.00     0.148 A 
ATOM     80  C   UNL A   1      42.401  35.705  27.300  1.00  0.00     0.002 A 
ATOM     81  C   UNL A   1      43.871  33.942  26.503  1.00  0.00     0.091 A 
ATOM     82  F   UNL A   1      44.525  32.202  27.984  1.00  0.00    -0.205 F 
ATOM     83  C   UNL A   1      43.172  35.134  26.295  1.00  0.00     0.022 A 
BRANCH  81  84
ATOM     84  S   UNL A   1      44.974  33.435  25.180  1.00  0.00     0.127 S 
ATOM     85  O   UNL A   1      44.073  33.424  24.033  1.00  0.00    -0.237 OA
ATOM     86  O   UNL A   1      45.947  34.528  25.185  1.00  0.00    -0.237 OA
ATOM     87  O   UNL A   1      45.500  32.143  25.590  1.00  0.00    -0.744 OA
ENDBRANCH  81  84
ENDBRANCH  53  77
BRANCH  65  88
ATOM     88  C   UNL A   1      44.082  37.962  34.728  1.00  0.00     0.023 A 
ATOM     89  C   UNL A   1      44.777  38.144  35.938  1.00  0.00     0.012 A 
ATOM     90  C   UNL A   1      43.577  39.144  34.122  1.00  0.00     0.148 A 
ATOM     91  C   UNL A   1      45.112  39.413  36.423  1.00  0.00     0.002 A 
ATOM     92  C   UNL A   1      43.876  40.405  34.621  1.00  0.00     0.091 A 
ATOM     93  F   UNL A   1      42.746  39.068  33.082  1.00  0.00    -0.205 F 
ATOM     94  C   UNL A   1      44.682  40.546  35.751  1.00  0.00     0.022 A 
BRANCH  92  95
ATOM     95  S   UNL A   1      43.207  41.908  33.894  1.00  0.00     0.127 S 
ATOM     96  O   UNL A   1      43.883  41.926  32.597  1.00  0.00    -0.237 OA
ATOM     97  O   UNL A   1      41.778  41.601  33.836  1.00  0.00    -0.237 OA
ATOM     98  O   UNL A   1      43.563  42.997  34.792  1.00  0.00    -0.744 OA
ENDBRANCH  92  95
ENDBRANCH  65  88
ENDBRANCH  39  40
ENDBRANCH  31  34
ENDBRANCH  29  30
ENDBRANCH  28  29
ENDBRANCH   1  28
TORSDOF 18
ENDMDL
