MODEL 1
REMARK VINA RESULT:     -11.4      0.000      0.000
REMARK SMILES COc1ccc2c(C[NH2+]Cc3cccs3)c(C(=O)NCCCCNC(=O)c3ccc(-c4c5nc(c(-c6cccc(S(=O)(=O)[O-])c6F)c6ccc([nH]6)c(-c6cccc(S(=O)(=O)[O-])c6F)c6nc(c(-c7cccc(S(=O)(=O)[O-])c7F)c7ccc4[nH]7)C=C6)C=C5)cc3)[nH]c2c1
REMARK SMILES IDX 21 1 20 2 19 3 17 4 18 5 16 7 3 8 4 9 92 10 5 11 91 12 6 13
REMARK SMILES IDX 90 14 7 15 2 17 1 18 8 19 9 20 10 23 11 24 12 25 15 26 13 27
REMARK SMILES IDX 14 28 22 29 23 30 24 31 25 32 26 34 27 35 28 36 89 37 29 38
REMARK SMILES IDX 88 39 30 40 31 41 32 42 82 43 33 44 87 45 81 46 83 47 34 48
REMARK SMILES IDX 86 49 80 50 79 51 35 53 67 54 47 55 66 56 48 57 51 58 65 59
REMARK SMILES IDX 84 60 49 61 50 62 64 64 85 65 52 66 36 67 37 68 45 69 38 70
REMARK SMILES IDX 40 71 46 72 39 73 41 74 42 75 43 76 44 77 68 78 69 79 77 80
REMARK SMILES IDX 70 81 72 82 78 83 71 84 73 85 74 86 75 87 76 88 53 89 54 90
REMARK SMILES IDX 62 91 55 92 57 93 63 94 56 95 58 96 59 97 60 98 61 99
REMARK H PARENT 19 6 90 16 9 21 9 22 24 33 83 52 51 63
REMARK Flexibility Score: inf
ROOT
ATOM      1  C   UNL A   1      37.351  22.397  24.902  1.00  0.00     0.023 C 
ENDROOT
BRANCH   1   2
ATOM      2  C   UNL A   1      36.800  22.882  26.243  1.00  0.00     0.116 C 
BRANCH   2   3
ATOM      3  N   UNL A   1      35.634  23.711  26.036  1.00  0.00    -0.351 N 
ATOM      4  C   UNL A   1      34.377  23.487  25.547  1.00  0.00     0.268 C 
ATOM      5  O   UNL A   1      33.688  24.503  25.427  1.00  0.00    -0.268 OA
ATOM      6  H   UNL A   1      35.778  24.646  26.308  1.00  0.00     0.163 HD
BRANCH   4   7
ATOM      7  C   UNL A   1      33.886  22.161  25.201  1.00  0.00     0.114 A 
ATOM      8  C   UNL A   1      32.450  17.772  24.890  1.00  0.00     0.120 A 
ATOM      9  C   UNL A   1      32.150  18.152  23.584  1.00  0.00     0.047 A 
ATOM     10  C   UNL A   1      32.983  18.679  25.808  1.00  0.00     0.073 A 
ATOM     11  C   UNL A   1      32.419  19.458  23.153  1.00  0.00     0.015 A 
ATOM     12  C   UNL A   1      33.262  19.973  25.348  1.00  0.00     0.050 A 
ATOM     13  C   UNL A   1      32.993  20.385  24.050  1.00  0.00     0.009 A 
ATOM     14  N   UNL A   1      33.840  21.039  25.995  1.00  0.00    -0.350 N 
ATOM     15  C   UNL A   1      33.398  21.757  23.950  1.00  0.00     0.045 A 
ATOM     16  H   UNL A   1      34.180  21.004  26.917  1.00  0.00     0.167 HD
BRANCH   8  17
ATOM     17  O   UNL A   1      32.184  16.506  25.347  1.00  0.00    -0.497 OA
ATOM     18  C   UNL A   1      33.339  15.674  25.262  1.00  0.00     0.278 C 
ENDBRANCH   8  17
BRANCH  15  19
ATOM     19  C   UNL A   1      33.305  22.599  22.712  1.00  0.00     0.300 C 
BRANCH  19  20
ATOM     20  N   UNL A   1      32.075  23.382  22.795  1.00  0.00    -0.338 N 
ATOM     21  H   UNL A   1      31.803  23.463  23.774  1.00  0.00     0.346 HD
ATOM     22  H   UNL A   1      31.359  22.903  22.251  1.00  0.00     0.346 HD
BRANCH  20  23
ATOM     23  C   UNL A   1      32.244  24.723  22.239  1.00  0.00     0.308 C 
BRANCH  23  24
ATOM     24  C   UNL A   1      31.422  25.763  22.953  1.00  0.00     0.059 A 
ATOM     25  C   UNL A   1      30.196  25.601  23.570  1.00  0.00     0.021 A 
ATOM     26  S   UNL A   1      31.967  27.390  23.066  1.00  0.00    -0.143 S 
ATOM     27  C   UNL A   1      29.729  26.803  24.175  1.00  0.00     0.012 A 
ATOM     28  C   UNL A   1      30.608  27.846  23.996  1.00  0.00     0.065 A 
ENDBRANCH  23  24
ENDBRANCH  20  23
ENDBRANCH  19  20
ENDBRANCH  15  19
ENDBRANCH   4   7
ENDBRANCH   2   3
ENDBRANCH   1   2
BRANCH   1  29
ATOM     29  C   UNL A   1      38.115  21.067  24.986  1.00  0.00     0.023 C 
BRANCH  29  30
ATOM     30  C   UNL A   1      39.189  20.994  26.071  1.00  0.00     0.116 C 
BRANCH  30  31
ATOM     31  N   UNL A   1      40.010  19.793  25.983  1.00  0.00    -0.352 N 
ATOM     32  C   UNL A   1      41.375  19.676  26.077  1.00  0.00     0.251 C 
ATOM     33  H   UNL A   1      39.520  18.952  25.838  1.00  0.00     0.163 HD
ATOM     34  O   UNL A   1      41.920  18.594  25.871  1.00  0.00    -0.269 OA
BRANCH  32  35
ATOM     35  C   UNL A   1      42.183  20.872  26.387  1.00  0.00     0.039 A 
ATOM     36  C   UNL A   1      42.627  21.676  25.334  1.00  0.00     0.014 A 
ATOM     37  C   UNL A   1      42.449  21.224  27.713  1.00  0.00     0.014 A 
ATOM     38  C   UNL A   1      43.265  22.885  25.616  1.00  0.00     0.010 A 
ATOM     39  C   UNL A   1      43.035  22.456  27.991  1.00  0.00     0.010 A 
ATOM     40  C   UNL A   1      43.430  23.307  26.946  1.00  0.00    -0.014 A 
BRANCH  40  41
ATOM     41  C   UNL A   1      43.939  24.664  27.268  1.00  0.00     0.031 A 
ATOM     42  C   UNL A   1      43.014  25.723  27.797  1.00  0.00     0.074 A 
ATOM     43  C   UNL A   1      45.217  24.969  26.967  1.00  0.00     0.049 A 
ATOM     44  N   UNL A   1      43.267  26.978  28.057  1.00  0.00    -0.248 NA
ATOM     45  C   UNL A   1      41.617  25.328  28.044  1.00  0.00     0.031 C 
ATOM     46  C   UNL A   1      46.189  24.050  26.368  1.00  0.00     0.029 A 
ATOM     47  N   UNL A   1      45.911  26.147  27.090  1.00  0.00    -0.354 N 
ATOM     48  C   UNL A   1      42.061  27.535  28.463  1.00  0.00     0.074 A 
ATOM     49  C   UNL A   1      41.068  26.483  28.397  1.00  0.00     0.031 C 
ATOM     50  C   UNL A   1      47.347  24.700  26.168  1.00  0.00     0.029 A 
ATOM     51  C   UNL A   1      47.195  26.087  26.597  1.00  0.00     0.049 A 
ATOM     52  H   UNL A   1      45.527  26.960  27.492  1.00  0.00     0.167 HD
ATOM     53  C   UNL A   1      41.809  28.799  28.877  1.00  0.00     0.034 A 
ATOM     54  C   UNL A   1      48.139  27.042  26.488  1.00  0.00     0.034 A 
ATOM     55  C   UNL A   1      42.808  29.826  28.988  1.00  0.00     0.049 A 
ATOM     56  C   UNL A   1      47.836  28.427  26.990  1.00  0.00     0.074 A 
ATOM     57  C   UNL A   1      42.674  31.101  29.509  1.00  0.00     0.029 A 
ATOM     58  N   UNL A   1      44.121  29.705  28.563  1.00  0.00    -0.354 N 
ATOM     59  N   UNL A   1      46.743  28.881  27.551  1.00  0.00    -0.248 NA
ATOM     60  C   UNL A   1      48.910  29.426  26.873  1.00  0.00     0.031 C 
ATOM     61  C   UNL A   1      43.902  31.759  29.378  1.00  0.00     0.029 A 
ATOM     62  C   UNL A   1      44.804  30.888  28.790  1.00  0.00     0.049 A 
ATOM     63  H   UNL A   1      44.511  28.896  28.158  1.00  0.00     0.167 HD
ATOM     64  C   UNL A   1      47.003  30.206  27.878  1.00  0.00     0.074 A 
ATOM     65  C   UNL A   1      48.369  30.475  27.479  1.00  0.00     0.031 C 
ATOM     66  C   UNL A   1      46.179  31.126  28.437  1.00  0.00     0.034 A 
BRANCH  53  67
ATOM     67  C   UNL A   1      40.406  29.135  29.306  1.00  0.00     0.023 A 
ATOM     68  C   UNL A   1      39.474  29.568  28.341  1.00  0.00     0.012 A 
ATOM     69  C   UNL A   1      39.984  28.931  30.634  1.00  0.00     0.148 A 
ATOM     70  C   UNL A   1      38.149  29.814  28.695  1.00  0.00     0.002 A 
ATOM     71  C   UNL A   1      38.652  29.142  30.971  1.00  0.00     0.091 A 
ATOM     72  F   UNL A   1      40.891  28.537  31.540  1.00  0.00    -0.205 F 
ATOM     73  C   UNL A   1      37.736  29.590  30.005  1.00  0.00     0.022 A 
BRANCH  71  74
ATOM     74  S   UNL A   1      38.001  28.812  32.613  1.00  0.00     0.127 S 
ATOM     75  O   UNL A   1      36.628  29.302  32.488  1.00  0.00    -0.237 OA
ATOM     76  O   UNL A   1      38.123  27.357  32.705  1.00  0.00    -0.237 OA
ATOM     77  O   UNL A   1      38.844  29.556  33.538  1.00  0.00    -0.744 OA
ENDBRANCH  71  74
ENDBRANCH  53  67
BRANCH  54  78
ATOM     78  C   UNL A   1      49.480  26.711  25.928  1.00  0.00     0.023 A 
ATOM     79  C   UNL A   1      50.387  25.967  26.707  1.00  0.00     0.012 A 
ATOM     80  C   UNL A   1      49.858  27.113  24.633  1.00  0.00     0.148 A 
ATOM     81  C   UNL A   1      51.659  25.662  26.223  1.00  0.00     0.002 A 
ATOM     82  C   UNL A   1      51.107  26.757  24.134  1.00  0.00     0.091 A 
ATOM     83  F   UNL A   1      48.991  27.836  23.910  1.00  0.00    -0.205 F 
ATOM     84  C   UNL A   1      52.015  26.047  24.933  1.00  0.00     0.022 A 
BRANCH  82  85
ATOM     85  S   UNL A   1      51.584  27.098  22.436  1.00  0.00     0.127 S 
ATOM     86  O   UNL A   1      51.891  28.525  22.492  1.00  0.00    -0.237 OA
ATOM     87  O   UNL A   1      52.745  26.225  22.260  1.00  0.00    -0.237 OA
ATOM     88  O   UNL A   1      50.430  26.721  21.631  1.00  0.00    -0.744 OA
ENDBRANCH  82  85
ENDBRANCH  54  78
BRANCH  66  89
ATOM     89  C   UNL A   1      46.730  32.509  28.665  1.00  0.00     0.023 A 
ATOM     90  C   UNL A   1      47.332  32.820  29.900  1.00  0.00     0.012 A 
ATOM     91  C   UNL A   1      46.718  33.472  27.638  1.00  0.00     0.148 A 
ATOM     92  C   UNL A   1      47.888  34.078  30.120  1.00  0.00     0.002 A 
ATOM     93  C   UNL A   1      47.316  34.709  27.849  1.00  0.00     0.091 A 
ATOM     94  F   UNL A   1      46.124  33.163  26.476  1.00  0.00    -0.205 F 
ATOM     95  C   UNL A   1      47.891  35.018  29.091  1.00  0.00     0.022 A 
BRANCH  93  96
ATOM     96  S   UNL A   1      47.447  35.947  26.553  1.00  0.00     0.127 S 
ATOM     97  O   UNL A   1      46.048  36.316  26.351  1.00  0.00    -0.237 OA
ATOM     98  O   UNL A   1      48.265  36.980  27.191  1.00  0.00    -0.237 OA
ATOM     99  O   UNL A   1      48.089  35.282  25.427  1.00  0.00    -0.744 OA
ENDBRANCH  93  96
ENDBRANCH  66  89
ENDBRANCH  40  41
ENDBRANCH  32  35
ENDBRANCH  30  31
ENDBRANCH  29  30
ENDBRANCH   1  29
TORSDOF 19
ENDMDL
MODEL 2
REMARK VINA RESULT:     -11.3      2.382      8.291
REMARK SMILES COc1ccc2c(C[NH2+]Cc3cccs3)c(C(=O)NCCCCNC(=O)c3ccc(-c4c5nc(c(-c6cccc(S(=O)(=O)[O-])c6F)c6ccc([nH]6)c(-c6cccc(S(=O)(=O)[O-])c6F)c6nc(c(-c7cccc(S(=O)(=O)[O-])c7F)c7ccc4[nH]7)C=C6)C=C5)cc3)[nH]c2c1
REMARK SMILES IDX 21 1 20 2 19 3 17 4 18 5 16 7 3 8 4 9 92 10 5 11 91 12 6 13
REMARK SMILES IDX 90 14 7 15 2 17 1 18 8 19 9 20 10 23 11 24 12 25 15 26 13 27
REMARK SMILES IDX 14 28 22 29 23 30 24 31 25 32 26 34 27 35 28 36 89 37 29 38
REMARK SMILES IDX 88 39 30 40 31 41 32 42 82 43 33 44 87 45 81 46 83 47 34 48
REMARK SMILES IDX 86 49 80 50 79 51 35 53 67 54 47 55 66 56 48 57 51 58 65 59
REMARK SMILES IDX 84 60 49 61 50 62 64 64 85 65 52 66 36 67 37 68 45 69 38 70
REMARK SMILES IDX 40 71 46 72 39 73 41 74 42 75 43 76 44 77 68 78 69 79 77 80
REMARK SMILES IDX 70 81 72 82 78 83 71 84 73 85 74 86 75 87 76 88 53 89 54 90
REMARK SMILES IDX 62 91 55 92 57 93 63 94 56 95 58 96 59 97 60 98 61 99
REMARK H PARENT 19 6 90 16 9 21 9 22 24 33 83 52 51 63
REMARK Flexibility Score: inf
ROOT
ATOM      1  C   UNL A   1      39.514  23.065  26.779  1.00  0.00     0.023 C 
ENDROOT
BRANCH   1   2
ATOM      2  C   UNL A   1      38.255  23.799  26.317  1.00  0.00     0.116 C 
BRANCH   2   3
ATOM      3  N   UNL A   1      37.918  23.417  24.965  1.00  0.00    -0.351 N 
ATOM      4  C   UNL A   1      36.745  23.230  24.287  1.00  0.00     0.268 C 
ATOM      5  O   UNL A   1      36.880  22.787  23.145  1.00  0.00    -0.268 OA
ATOM      6  H   UNL A   1      38.712  23.253  24.406  1.00  0.00     0.163 HD
BRANCH   4   7
ATOM      7  C   UNL A   1      35.442  23.535  24.861  1.00  0.00     0.114 A 
ATOM      8  C   UNL A   1      31.322  25.163  26.202  1.00  0.00     0.120 A 
ATOM      9  C   UNL A   1      31.287  23.972  26.921  1.00  0.00     0.047 A 
ATOM     10  C   UNL A   1      32.400  25.482  25.373  1.00  0.00     0.073 A 
ATOM     11  C   UNL A   1      32.364  23.078  26.854  1.00  0.00     0.015 A 
ATOM     12  C   UNL A   1      33.474  24.583  25.339  1.00  0.00     0.050 A 
ATOM     13  C   UNL A   1      33.484  23.393  26.053  1.00  0.00     0.009 A 
ATOM     14  N   UNL A   1      34.676  24.663  24.678  1.00  0.00    -0.350 N 
ATOM     15  C   UNL A   1      34.727  22.738  25.767  1.00  0.00     0.045 A 
ATOM     16  H   UNL A   1      34.956  25.435  24.136  1.00  0.00     0.167 HD
BRANCH   8  17
ATOM     17  O   UNL A   1      30.276  26.050  26.233  1.00  0.00    -0.497 OA
ATOM     18  C   UNL A   1      29.633  26.134  24.963  1.00  0.00     0.278 C 
ENDBRANCH   8  17
BRANCH  15  19
ATOM     19  C   UNL A   1      35.167  21.425  26.344  1.00  0.00     0.300 C 
BRANCH  19  20
ATOM     20  N   UNL A   1      34.134  20.438  26.048  1.00  0.00    -0.338 N 
ATOM     21  H   UNL A   1      33.219  20.880  26.141  1.00  0.00     0.346 HD
ATOM     22  H   UNL A   1      34.239  19.665  26.704  1.00  0.00     0.346 HD
BRANCH  20  23
ATOM     23  C   UNL A   1      34.263  19.903  24.694  1.00  0.00     0.308 C 
BRANCH  23  24
ATOM     24  C   UNL A   1      33.916  18.440  24.604  1.00  0.00     0.059 A 
ATOM     25  C   UNL A   1      34.465  17.486  23.770  1.00  0.00     0.021 A 
ATOM     26  S   UNL A   1      32.689  17.765  25.602  1.00  0.00    -0.143 S 
ATOM     27  C   UNL A   1      33.911  16.191  23.986  1.00  0.00     0.012 A 
ATOM     28  C   UNL A   1      32.951  16.199  24.972  1.00  0.00     0.065 A 
ENDBRANCH  23  24
ENDBRANCH  20  23
ENDBRANCH  19  20
ENDBRANCH  15  19
ENDBRANCH   4   7
ENDBRANCH   2   3
ENDBRANCH   1   2
BRANCH   1  29
ATOM     29  C   UNL A   1      39.682  21.668  26.164  1.00  0.00     0.023 C 
BRANCH  29  30
ATOM     30  C   UNL A   1      40.455  20.663  27.017  1.00  0.00     0.116 C 
BRANCH  30  31
ATOM     31  N   UNL A   1      41.339  19.809  26.234  1.00  0.00    -0.352 N 
ATOM     32  C   UNL A   1      42.548  20.119  25.659  1.00  0.00     0.251 C 
ATOM     33  H   UNL A   1      41.028  18.885  26.099  1.00  0.00     0.163 HD
ATOM     34  O   UNL A   1      43.116  19.305  24.936  1.00  0.00    -0.269 OA
BRANCH  32  35
ATOM     35  C   UNL A   1      43.135  21.454  25.889  1.00  0.00     0.039 A 
ATOM     36  C   UNL A   1      43.120  22.384  24.846  1.00  0.00     0.014 A 
ATOM     37  C   UNL A   1      43.644  21.799  27.143  1.00  0.00     0.014 A 
ATOM     38  C   UNL A   1      43.536  23.694  25.089  1.00  0.00     0.010 A 
ATOM     39  C   UNL A   1      44.006  23.118  27.397  1.00  0.00     0.010 A 
ATOM     40  C   UNL A   1      43.937  24.083  26.378  1.00  0.00    -0.014 A 
BRANCH  40  41
ATOM     41  C   UNL A   1      44.211  25.505  26.705  1.00  0.00     0.031 A 
ATOM     42  C   UNL A   1      45.600  26.064  26.585  1.00  0.00     0.074 A 
ATOM     43  C   UNL A   1      43.219  26.258  27.223  1.00  0.00     0.049 A 
ATOM     44  N   UNL A   1      46.035  27.255  26.902  1.00  0.00    -0.248 NA
ATOM     45  C   UNL A   1      46.641  25.162  26.066  1.00  0.00     0.031 C 
ATOM     46  C   UNL A   1      41.849  25.800  27.469  1.00  0.00     0.029 A 
ATOM     47  N   UNL A   1      43.218  27.555  27.672  1.00  0.00    -0.354 N 
ATOM     48  C   UNL A   1      47.402  27.239  26.656  1.00  0.00     0.074 A 
ATOM     49  C   UNL A   1      47.730  25.911  26.181  1.00  0.00     0.031 C 
ATOM     50  C   UNL A   1      41.145  26.796  28.031  1.00  0.00     0.029 A 
ATOM     51  C   UNL A   1      42.016  27.952  28.211  1.00  0.00     0.049 A 
ATOM     52  H   UNL A   1      44.004  28.146  27.615  1.00  0.00     0.167 HD
ATOM     53  C   UNL A   1      48.297  28.246  26.789  1.00  0.00     0.034 A 
ATOM     54  C   UNL A   1      41.659  29.111  28.799  1.00  0.00     0.034 A 
ATOM     55  C   UNL A   1      47.958  29.577  27.214  1.00  0.00     0.049 A 
ATOM     56  C   UNL A   1      42.669  30.221  28.898  1.00  0.00     0.074 A 
ATOM     57  C   UNL A   1      48.773  30.695  27.266  1.00  0.00     0.029 A 
ATOM     58  N   UNL A   1      46.711  29.970  27.669  1.00  0.00    -0.354 N 
ATOM     59  N   UNL A   1      43.910  30.246  28.481  1.00  0.00    -0.248 NA
ATOM     60  C   UNL A   1      42.220  31.474  29.524  1.00  0.00     0.031 C 
ATOM     61  C   UNL A   1      48.021  31.760  27.775  1.00  0.00     0.029 A 
ATOM     62  C   UNL A   1      46.736  31.309  28.024  1.00  0.00     0.049 A 
ATOM     63  H   UNL A   1      45.921  29.384  27.731  1.00  0.00     0.167 HD
ATOM     64  C   UNL A   1      44.383  31.522  28.766  1.00  0.00     0.074 A 
ATOM     65  C   UNL A   1      43.285  32.251  29.366  1.00  0.00     0.031 C 
ATOM     66  C   UNL A   1      45.622  32.037  28.571  1.00  0.00     0.034 A 
BRANCH  53  67
ATOM     67  C   UNL A   1      49.729  27.973  26.413  1.00  0.00     0.023 A 
ATOM     68  C   UNL A   1      50.106  28.017  25.055  1.00  0.00     0.012 A 
ATOM     69  C   UNL A   1      50.713  27.770  27.399  1.00  0.00     0.148 A 
ATOM     70  C   UNL A   1      51.437  27.843  24.683  1.00  0.00     0.002 A 
ATOM     71  C   UNL A   1      52.044  27.636  27.023  1.00  0.00     0.091 A 
ATOM     72  F   UNL A   1      50.330  27.713  28.683  1.00  0.00    -0.205 F 
ATOM     73  C   UNL A   1      52.407  27.665  25.665  1.00  0.00     0.022 A 
BRANCH  71  74
ATOM     74  S   UNL A   1      53.381  27.475  28.214  1.00  0.00     0.127 S 
ATOM     75  O   UNL A   1      53.251  28.720  28.970  1.00  0.00    -0.237 OA
ATOM     76  O   UNL A   1      52.991  26.272  28.950  1.00  0.00    -0.237 OA
ATOM     77  O   UNL A   1      54.602  27.345  27.434  1.00  0.00    -0.744 OA
ENDBRANCH  71  74
ENDBRANCH  53  67
BRANCH  54  78
ATOM     78  C   UNL A   1      40.265  29.304  29.290  1.00  0.00     0.023 A 
ATOM     79  C   UNL A   1      39.265  29.711  28.385  1.00  0.00     0.012 A 
ATOM     80  C   UNL A   1      39.919  29.077  30.637  1.00  0.00     0.148 A 
ATOM     81  C   UNL A   1      37.956  29.924  28.818  1.00  0.00     0.002 A 
ATOM     82  C   UNL A   1      38.601  29.237  31.049  1.00  0.00     0.091 A 
ATOM     83  F   UNL A   1      40.885  28.708  31.490  1.00  0.00    -0.205 F 
ATOM     84  C   UNL A   1      37.621  29.677  30.147  1.00  0.00     0.022 A 
BRANCH  82  85
ATOM     85  S   UNL A   1      38.067  28.808  32.710  1.00  0.00     0.127 S 
ATOM     86  O   UNL A   1      36.692  29.301  32.720  1.00  0.00    -0.237 OA
ATOM     87  O   UNL A   1      38.199  27.351  32.710  1.00  0.00    -0.237 OA
ATOM     88  O   UNL A   1      38.999  29.487  33.600  1.00  0.00    -0.744 OA
ENDBRANCH  82  85
ENDBRANCH  54  78
BRANCH  66  89
ATOM     89  C   UNL A   1      45.859  33.462  28.996  1.00  0.00     0.023 A 
ATOM     90  C   UNL A   1      46.332  33.728  30.296  1.00  0.00     0.012 A 
ATOM     91  C   UNL A   1      45.683  34.527  28.091  1.00  0.00     0.148 A 
ATOM     92  C   UNL A   1      46.600  35.035  30.699  1.00  0.00     0.002 A 
ATOM     93  C   UNL A   1      45.997  35.823  28.484  1.00  0.00     0.091 A 
ATOM     94  F   UNL A   1      45.214  34.254  26.865  1.00  0.00    -0.205 F 
ATOM     95  C   UNL A   1      46.445  36.080  29.790  1.00  0.00     0.022 A 
BRANCH  93  96
ATOM     96  S   UNL A   1      45.914  37.217  27.355  1.00  0.00     0.127 S 
ATOM     97  O   UNL A   1      46.577  36.678  26.168  1.00  0.00    -0.237 OA
ATOM     98  O   UNL A   1      44.471  37.416  27.210  1.00  0.00    -0.237 OA
ATOM     99  O   UNL A   1      46.610  38.312  28.017  1.00  0.00    -0.744 OA
ENDBRANCH  93  96
ENDBRANCH  66  89
ENDBRANCH  40  41
ENDBRANCH  32  35
ENDBRANCH  30  31
ENDBRANCH  29  30
ENDBRANCH   1  29
TORSDOF 19
ENDMDL
MODEL 3
REMARK VINA RESULT:     -11.2      2.041      3.841
REMARK SMILES COc1ccc2c(C[NH2+]Cc3cccs3)c(C(=O)NCCCCNC(=O)c3ccc(-c4c5nc(c(-c6cccc(S(=O)(=O)[O-])c6F)c6ccc([nH]6)c(-c6cccc(S(=O)(=O)[O-])c6F)c6nc(c(-c7cccc(S(=O)(=O)[O-])c7F)c7ccc4[nH]7)C=C6)C=C5)cc3)[nH]c2c1
REMARK SMILES IDX 21 1 20 2 19 3 17 4 18 5 16 7 3 8 4 9 92 10 5 11 91 12 6 13
REMARK SMILES IDX 90 14 7 15 2 17 1 18 8 19 9 20 10 23 11 24 12 25 15 26 13 27
REMARK SMILES IDX 14 28 22 29 23 30 24 31 25 32 26 34 27 35 28 36 89 37 29 38
REMARK SMILES IDX 88 39 30 40 31 41 32 42 82 43 33 44 87 45 81 46 83 47 34 48
REMARK SMILES IDX 86 49 80 50 79 51 35 53 67 54 47 55 66 56 48 57 51 58 65 59
REMARK SMILES IDX 84 60 49 61 50 62 64 64 85 65 52 66 36 67 37 68 45 69 38 70
REMARK SMILES IDX 40 71 46 72 39 73 41 74 42 75 43 76 44 77 68 78 69 79 77 80
REMARK SMILES IDX 70 81 72 82 78 83 71 84 73 85 74 86 75 87 76 88 53 89 54 90
REMARK SMILES IDX 62 91 55 92 57 93 63 94 56 95 58 96 59 97 60 98 61 99
REMARK H PARENT 19 6 90 16 9 21 9 22 24 33 83 52 51 63
REMARK Flexibility Score: inf
ROOT
ATOM      1  C   UNL A   1      39.149  22.906  26.438  1.00  0.00     0.023 C 
ENDROOT
BRANCH   1   2
ATOM      2  C   UNL A   1      37.915  23.689  25.991  1.00  0.00     0.116 C 
BRANCH   2   3
ATOM      3  N   UNL A   1      37.611  23.401  24.608  1.00  0.00    -0.351 N 
ATOM      4  C   UNL A   1      36.454  23.240  23.896  1.00  0.00     0.268 C 
ATOM      5  O   UNL A   1      36.620  22.885  22.726  1.00  0.00    -0.268 OA
ATOM      6  H   UNL A   1      38.418  23.297  24.054  1.00  0.00     0.163 HD
BRANCH   4   7
ATOM      7  C   UNL A   1      35.134  23.472  24.466  1.00  0.00     0.114 A 
ATOM      8  C   UNL A   1      30.920  24.860  25.781  1.00  0.00     0.120 A 
ATOM      9  C   UNL A   1      30.961  23.683  26.522  1.00  0.00     0.047 A 
ATOM     10  C   UNL A   1      31.975  25.231  24.945  1.00  0.00     0.073 A 
ATOM     11  C   UNL A   1      32.092  22.858  26.471  1.00  0.00     0.015 A 
ATOM     12  C   UNL A   1      33.104  24.402  24.926  1.00  0.00     0.050 A 
ATOM     13  C   UNL A   1      33.190  23.228  25.663  1.00  0.00     0.009 A 
ATOM     14  N   UNL A   1      34.299  24.546  24.262  1.00  0.00    -0.350 N 
ATOM     15  C   UNL A   1      34.472  22.649  25.387  1.00  0.00     0.045 A 
ATOM     16  H   UNL A   1      34.529  25.324  23.705  1.00  0.00     0.167 HD
BRANCH   8  17
ATOM     17  O   UNL A   1      29.820  25.680  25.797  1.00  0.00    -0.497 OA
ATOM     18  C   UNL A   1      29.757  26.481  24.619  1.00  0.00     0.278 C 
ENDBRANCH   8  17
BRANCH  15  19
ATOM     19  C   UNL A   1      34.994  21.377  25.988  1.00  0.00     0.300 C 
BRANCH  19  20
ATOM     20  N   UNL A   1      34.925  20.338  24.966  1.00  0.00    -0.338 N 
ATOM     21  H   UNL A   1      35.590  19.601  25.199  1.00  0.00     0.346 HD
ATOM     22  H   UNL A   1      35.146  20.764  24.067  1.00  0.00     0.346 HD
BRANCH  20  23
ATOM     23  C   UNL A   1      33.588  19.755  24.872  1.00  0.00     0.308 C 
BRANCH  23  24
ATOM     24  C   UNL A   1      33.610  18.260  24.689  1.00  0.00     0.059 A 
ATOM     25  C   UNL A   1      34.321  17.528  23.756  1.00  0.00     0.021 A 
ATOM     26  S   UNL A   1      32.664  17.237  25.695  1.00  0.00    -0.143 S 
ATOM     27  C   UNL A   1      34.123  16.125  23.901  1.00  0.00     0.012 A 
ATOM     28  C   UNL A   1      33.263  15.829  24.934  1.00  0.00     0.065 A 
ENDBRANCH  23  24
ENDBRANCH  20  23
ENDBRANCH  19  20
ENDBRANCH  15  19
ENDBRANCH   4   7
ENDBRANCH   2   3
ENDBRANCH   1   2
BRANCH   1  29
ATOM     29  C   UNL A   1      39.270  21.515  25.796  1.00  0.00     0.023 C 
BRANCH  29  30
ATOM     30  C   UNL A   1      39.548  20.367  26.765  1.00  0.00     0.116 C 
BRANCH  30  31
ATOM     31  N   UNL A   1      40.499  19.394  26.241  1.00  0.00    -0.352 N 
ATOM     32  C   UNL A   1      41.841  19.551  25.994  1.00  0.00     0.251 C 
ATOM     33  H   UNL A   1      40.131  18.505  26.038  1.00  0.00     0.163 HD
ATOM     34  O   UNL A   1      42.479  18.655  25.446  1.00  0.00    -0.269 OA
BRANCH  32  35
ATOM     35  C   UNL A   1      42.499  20.823  26.356  1.00  0.00     0.039 A 
ATOM     36  C   UNL A   1      42.869  21.703  25.336  1.00  0.00     0.014 A 
ATOM     37  C   UNL A   1      42.693  21.164  27.697  1.00  0.00     0.014 A 
ATOM     38  C   UNL A   1      43.356  22.969  25.666  1.00  0.00     0.010 A 
ATOM     39  C   UNL A   1      43.127  22.445  28.022  1.00  0.00     0.010 A 
ATOM     40  C   UNL A   1      43.443  23.367  27.010  1.00  0.00    -0.014 A 
BRANCH  40  41
ATOM     41  C   UNL A   1      43.785  24.763  27.381  1.00  0.00     0.031 A 
ATOM     42  C   UNL A   1      42.740  25.683  27.947  1.00  0.00     0.074 A 
ATOM     43  C   UNL A   1      45.016  25.232  27.092  1.00  0.00     0.049 A 
ATOM     44  N   UNL A   1      42.840  26.950  28.251  1.00  0.00    -0.248 NA
ATOM     45  C   UNL A   1      41.403  25.113  28.179  1.00  0.00     0.031 C 
ATOM     46  C   UNL A   1      46.089  24.460  26.461  1.00  0.00     0.029 A 
ATOM     47  N   UNL A   1      45.562  26.481  27.257  1.00  0.00    -0.354 N 
ATOM     48  C   UNL A   1      41.577  27.340  28.676  1.00  0.00     0.074 A 
ATOM     49  C   UNL A   1      40.719  26.179  28.573  1.00  0.00     0.031 C 
ATOM     50  C   UNL A   1      47.159  25.253  26.285  1.00  0.00     0.029 A 
ATOM     51  C   UNL A   1      46.841  26.594  26.763  1.00  0.00     0.049 A 
ATOM     52  H   UNL A   1      45.083  27.226  27.688  1.00  0.00     0.167 HD
ATOM     53  C   UNL A   1      41.175  28.549  29.135  1.00  0.00     0.034 A 
ATOM     54  C   UNL A   1      47.662  27.661  26.689  1.00  0.00     0.034 A 
ATOM     55  C   UNL A   1      42.042  29.686  29.284  1.00  0.00     0.049 A 
ATOM     56  C   UNL A   1      47.196  28.980  27.241  1.00  0.00     0.074 A 
ATOM     57  C   UNL A   1      41.756  30.916  29.850  1.00  0.00     0.029 A 
ATOM     58  N   UNL A   1      43.358  29.740  28.855  1.00  0.00    -0.354 N 
ATOM     59  N   UNL A   1      46.057  29.277  27.816  1.00  0.00    -0.248 NA
ATOM     60  C   UNL A   1      48.139  30.105  27.160  1.00  0.00     0.031 C 
ATOM     61  C   UNL A   1      42.895  31.722  29.743  1.00  0.00     0.029 A 
ATOM     62  C   UNL A   1      43.894  30.988  29.126  1.00  0.00     0.049 A 
ATOM     63  H   UNL A   1      43.843  28.999  28.422  1.00  0.00     0.167 HD
ATOM     64  C   UNL A   1      46.156  30.612  28.191  1.00  0.00     0.074 A 
ATOM     65  C   UNL A   1      47.478  31.058  27.803  1.00  0.00     0.031 C 
ATOM     66  C   UNL A   1      45.228  31.404  28.782  1.00  0.00     0.034 A 
BRANCH  53  67
ATOM     67  C   UNL A   1      39.743  28.697  29.575  1.00  0.00     0.023 A 
ATOM     68  C   UNL A   1      39.371  28.277  30.868  1.00  0.00     0.012 A 
ATOM     69  C   UNL A   1      38.793  29.336  28.754  1.00  0.00     0.148 A 
ATOM     70  C   UNL A   1      38.071  28.470  31.330  1.00  0.00     0.002 A 
ATOM     71  C   UNL A   1      37.509  29.560  29.236  1.00  0.00     0.091 A 
ATOM     72  F   UNL A   1      39.164  29.712  27.521  1.00  0.00    -0.205 F 
ATOM     73  C   UNL A   1      37.145  29.121  30.520  1.00  0.00     0.022 A 
BRANCH  71  74
ATOM     74  S   UNL A   1      36.262  30.455  28.302  1.00  0.00     0.127 S 
ATOM     75  O   UNL A   1      35.125  30.420  29.222  1.00  0.00    -0.237 OA
ATOM     76  O   UNL A   1      36.881  31.772  28.148  1.00  0.00    -0.237 OA
ATOM     77  O   UNL A   1      36.081  29.716  27.061  1.00  0.00    -0.744 OA
ENDBRANCH  71  74
ENDBRANCH  53  67
BRANCH  54  78
ATOM     78  C   UNL A   1      49.031  27.514  26.119  1.00  0.00     0.023 A 
ATOM     79  C   UNL A   1      50.104  27.196  26.974  1.00  0.00     0.012 A 
ATOM     80  C   UNL A   1      49.277  27.676  24.741  1.00  0.00     0.148 A 
ATOM     81  C   UNL A   1      51.401  27.077  26.476  1.00  0.00     0.002 A 
ATOM     82  C   UNL A   1      50.564  27.500  24.243  1.00  0.00     0.091 A 
ATOM     83  F   UNL A   1      48.250  27.997  23.943  1.00  0.00    -0.205 F 
ATOM     84  C   UNL A   1      51.630  27.218  25.109  1.00  0.00     0.022 A 
BRANCH  82  85
ATOM     85  S   UNL A   1      50.912  27.530  22.481  1.00  0.00     0.127 S 
ATOM     86  O   UNL A   1      52.235  26.915  22.426  1.00  0.00    -0.237 OA
ATOM     87  O   UNL A   1      49.828  26.711  21.937  1.00  0.00    -0.237 OA
ATOM     88  O   UNL A   1      50.841  28.935  22.101  1.00  0.00    -0.744 OA
ENDBRANCH  82  85
ENDBRANCH  54  78
BRANCH  66  89
ATOM     89  C   UNL A   1      45.608  32.834  29.060  1.00  0.00     0.023 A 
ATOM     90  C   UNL A   1      46.219  33.163  30.286  1.00  0.00     0.012 A 
ATOM     91  C   UNL A   1      45.428  33.834  28.085  1.00  0.00     0.148 A 
ATOM     92  C   UNL A   1      46.620  34.472  30.549  1.00  0.00     0.002 A 
ATOM     93  C   UNL A   1      45.872  35.128  28.336  1.00  0.00     0.091 A 
ATOM     94  F   UNL A   1      44.828  33.505  26.932  1.00  0.00    -0.205 F 
ATOM     95  C   UNL A   1      46.458  35.450  29.570  1.00  0.00     0.022 A 
BRANCH  93  96
ATOM     96  S   UNL A   1      45.788  36.430  27.101  1.00  0.00     0.127 S 
ATOM     97  O   UNL A   1      46.716  37.419  27.648  1.00  0.00    -0.237 OA
ATOM     98  O   UNL A   1      46.265  35.748  25.896  1.00  0.00    -0.237 OA
ATOM     99  O   UNL A   1      44.393  36.842  27.048  1.00  0.00    -0.744 OA
ENDBRANCH  93  96
ENDBRANCH  66  89
ENDBRANCH  40  41
ENDBRANCH  32  35
ENDBRANCH  30  31
ENDBRANCH  29  30
ENDBRANCH   1  29
TORSDOF 19
ENDMDL
