MODEL 1
REMARK VINA RESULT:     -12.4      0.000      0.000
REMARK SMILES Cc1ccc(S(=O)(=O)Nc2cc3c(cc2C(=O)NCCCCNC(=O)c2ccc(-c4c5nc(c(-c6cccc(S(=O)(=O)[O-])c6F)c6ccc([nH]6)c(-c6cccc(S(=O)(=O)[O-])c6F)c6nc(c(-c7cccc(S(=O)(=O)[O-])c7F)c7ccc4[nH]7)C=C6)C=C5)cc2)OCCO3)s1
REMARK SMILES IDX 20 1 19 2 18 3 16 4 17 5 15 7 10 8 11 9 12 10 14 11 13 12
REMARK SMILES IDX 92 13 89 14 91 15 90 16 9 17 6 19 7 20 8 21 5 22 1 23 2 24
REMARK SMILES IDX 3 25 93 26 4 27 21 28 22 29 23 30 24 31 25 33 26 34 27 35
REMARK SMILES IDX 88 36 28 37 87 38 29 39 30 40 31 41 81 42 32 43 86 44 80 45
REMARK SMILES IDX 82 46 33 47 85 48 79 49 78 50 34 52 66 53 46 54 65 55 47 56
REMARK SMILES IDX 50 57 64 58 83 59 48 60 49 61 63 63 84 64 51 65 35 66 36 67
REMARK SMILES IDX 44 68 37 69 39 70 45 71 38 72 40 73 41 74 42 75 43 76 67 77
REMARK SMILES IDX 68 78 76 79 69 80 71 81 77 82 70 83 72 84 73 85 74 86 75 87
REMARK SMILES IDX 52 88 53 89 61 90 54 91 56 92 62 93 55 94 57 95 58 96 59 97
REMARK SMILES IDX 60 98
REMARK H PARENT 18 6 9 18 23 32 82 51 50 62
REMARK Flexibility Score: inf
ROOT
ATOM      1  C   UNL A   1      31.783  30.494  26.909  1.00  0.00     0.023 C 
ENDROOT
BRANCH   1   2
ATOM      2  C   UNL A   1      33.187  29.953  26.679  1.00  0.00     0.116 C 
BRANCH   2   3
ATOM      3  N   UNL A   1      33.554  29.732  25.290  1.00  0.00    -0.352 N 
ATOM      4  C   UNL A   1      33.315  28.667  24.449  1.00  0.00     0.253 C 
ATOM      5  O   UNL A   1      33.568  28.788  23.255  1.00  0.00    -0.269 OA
ATOM      6  H   UNL A   1      34.060  30.470  24.880  1.00  0.00     0.163 HD
BRANCH   4   7
ATOM      7  C   UNL A   1      32.790  27.377  24.970  1.00  0.00     0.067 A 
ATOM      8  C   UNL A   1      31.404  27.117  24.987  1.00  0.00     0.066 A 
ATOM      9  C   UNL A   1      30.939  25.854  25.378  1.00  0.00     0.078 A 
ATOM     10  C   UNL A   1      31.847  24.855  25.727  1.00  0.00     0.163 A 
ATOM     11  C   UNL A   1      33.678  26.406  25.445  1.00  0.00     0.066 A 
ATOM     12  C   UNL A   1      33.215  25.132  25.748  1.00  0.00     0.162 A 
ATOM     13  O   UNL A   1      31.332  23.617  26.019  1.00  0.00    -0.486 OA
ATOM     14  O   UNL A   1      34.170  24.188  26.025  1.00  0.00    -0.486 OA
ATOM     15  C   UNL A   1      32.320  22.738  26.574  1.00  0.00     0.271 C 
ATOM     16  C   UNL A   1      33.644  22.870  25.840  1.00  0.00     0.271 C 
BRANCH   8  17
ATOM     17  N   UNL A   1      30.463  28.135  24.628  1.00  0.00    -0.278 N 
ATOM     18  H   UNL A   1      30.322  28.913  25.214  1.00  0.00     0.180 HD
BRANCH  17  19
ATOM     19  S   UNL A   1      29.601  27.984  23.188  1.00  0.00     0.271 S 
ATOM     20  O   UNL A   1      28.436  27.182  23.460  1.00  0.00    -0.200 OA
ATOM     21  O   UNL A   1      30.551  27.575  22.167  1.00  0.00    -0.200 OA
BRANCH  19  22
ATOM     22  C   UNL A   1      29.071  29.599  22.664  1.00  0.00     0.140 A 
ATOM     23  C   UNL A   1      28.630  33.491  22.925  1.00  0.00     0.056 C 
ATOM     24  C   UNL A   1      28.663  32.033  22.609  1.00  0.00     0.003 A 
ATOM     25  C   UNL A   1      28.055  31.380  21.556  1.00  0.00     0.016 A 
ATOM     26  S   UNL A   1      29.533  30.945  23.605  1.00  0.00    -0.127 S 
ATOM     27  C   UNL A   1      28.306  29.982  21.577  1.00  0.00     0.034 A 
ENDBRANCH  19  22
ENDBRANCH  17  19
ENDBRANCH   8  17
ENDBRANCH   4   7
ENDBRANCH   2   3
ENDBRANCH   1   2
BRANCH   1  28
ATOM     28  C   UNL A   1      31.609  32.005  26.895  1.00  0.00     0.023 C 
BRANCH  28  29
ATOM     29  C   UNL A   1      32.859  32.815  27.208  1.00  0.00     0.116 C 
BRANCH  29  30
ATOM     30  N   UNL A   1      32.577  34.158  27.687  1.00  0.00    -0.352 N 
ATOM     31  C   UNL A   1      33.166  34.865  28.708  1.00  0.00     0.251 C 
ATOM     32  H   UNL A   1      31.857  34.632  27.210  1.00  0.00     0.163 HD
ATOM     33  O   UNL A   1      32.727  35.973  29.006  1.00  0.00    -0.269 OA
BRANCH  31  34
ATOM     34  C   UNL A   1      34.296  34.283  29.466  1.00  0.00     0.039 A 
ATOM     35  C   UNL A   1      34.016  33.464  30.564  1.00  0.00     0.014 A 
ATOM     36  C   UNL A   1      35.621  34.537  29.103  1.00  0.00     0.014 A 
ATOM     37  C   UNL A   1      35.062  32.858  31.263  1.00  0.00     0.010 A 
ATOM     38  C   UNL A   1      36.655  33.862  29.743  1.00  0.00     0.010 A 
ATOM     39  C   UNL A   1      36.391  33.034  30.842  1.00  0.00    -0.014 A 
BRANCH  39  40
ATOM     40  C   UNL A   1      37.518  32.389  31.559  1.00  0.00     0.031 A 
ATOM     41  C   UNL A   1      38.282  31.270  30.903  1.00  0.00     0.074 A 
ATOM     42  C   UNL A   1      37.799  32.746  32.827  1.00  0.00     0.049 A 
ATOM     43  N   UNL A   1      39.275  30.561  31.376  1.00  0.00    -0.248 NA
ATOM     44  C   UNL A   1      37.851  30.867  29.554  1.00  0.00     0.031 C 
ATOM     45  C   UNL A   1      37.061  33.740  33.611  1.00  0.00     0.029 A 
ATOM     46  N   UNL A   1      38.766  32.295  33.691  1.00  0.00    -0.354 N 
ATOM     47  C   UNL A   1      39.551  29.604  30.408  1.00  0.00     0.074 A 
ATOM     48  C   UNL A   1      38.598  29.795  29.338  1.00  0.00     0.031 C 
ATOM     49  C   UNL A   1      37.607  33.828  34.834  1.00  0.00     0.029 A 
ATOM     50  C   UNL A   1      38.725  32.894  34.928  1.00  0.00     0.049 A 
ATOM     51  H   UNL A   1      39.427  31.608  33.446  1.00  0.00     0.167 HD
ATOM     52  C   UNL A   1      40.535  28.674  30.389  1.00  0.00     0.034 A 
ATOM     53  C   UNL A   1      39.511  32.720  36.008  1.00  0.00     0.034 A 
ATOM     54  C   UNL A   1      41.529  28.539  31.417  1.00  0.00     0.049 A 
ATOM     55  C   UNL A   1      40.675  31.770  35.915  1.00  0.00     0.074 A 
ATOM     56  C   UNL A   1      42.633  27.706  31.449  1.00  0.00     0.029 A 
ATOM     57  N   UNL A   1      41.543  29.269  32.596  1.00  0.00    -0.354 N 
ATOM     58  N   UNL A   1      41.033  31.001  34.914  1.00  0.00    -0.248 NA
ATOM     59  C   UNL A   1      41.574  31.702  37.076  1.00  0.00     0.031 C 
ATOM     60  C   UNL A   1      43.317  27.935  32.647  1.00  0.00     0.029 A 
ATOM     61  C   UNL A   1      42.642  28.915  33.359  1.00  0.00     0.049 A 
ATOM     62  H   UNL A   1      40.871  29.940  32.853  1.00  0.00     0.167 HD
ATOM     63  C   UNL A   1      42.217  30.388  35.308  1.00  0.00     0.074 A 
ATOM     64  C   UNL A   1      42.526  30.891  36.632  1.00  0.00     0.031 C 
ATOM     65  C   UNL A   1      42.971  29.477  34.644  1.00  0.00     0.034 A 
BRANCH  52  66
ATOM     66  C   UNL A   1      40.626  27.785  29.176  1.00  0.00     0.023 A 
ATOM     67  C   UNL A   1      39.812  26.634  29.102  1.00  0.00     0.012 A 
ATOM     68  C   UNL A   1      41.485  28.092  28.104  1.00  0.00     0.148 A 
ATOM     69  C   UNL A   1      39.883  25.782  28.001  1.00  0.00     0.002 A 
ATOM     70  C   UNL A   1      41.518  27.259  26.990  1.00  0.00     0.091 A 
ATOM     71  F   UNL A   1      42.272  29.173  28.200  1.00  0.00    -0.205 F 
ATOM     72  C   UNL A   1      40.728  26.099  26.943  1.00  0.00     0.022 A 
BRANCH  70  73
ATOM     73  S   UNL A   1      42.519  27.630  25.545  1.00  0.00     0.127 S 
ATOM     74  O   UNL A   1      43.861  27.686  26.121  1.00  0.00    -0.237 OA
ATOM     75  O   UNL A   1      42.273  26.469  24.688  1.00  0.00    -0.237 OA
ATOM     76  O   UNL A   1      42.002  28.885  25.018  1.00  0.00    -0.744 OA
ENDBRANCH  70  73
ENDBRANCH  52  66
BRANCH  53  77
ATOM     77  C   UNL A   1      39.292  33.555  37.222  1.00  0.00     0.023 A 
ATOM     78  C   UNL A   1      39.769  34.881  37.237  1.00  0.00     0.012 A 
ATOM     79  C   UNL A   1      38.576  33.070  38.333  1.00  0.00     0.148 A 
ATOM     80  C   UNL A   1      39.561  35.700  38.347  1.00  0.00     0.002 A 
ATOM     81  C   UNL A   1      38.330  33.908  39.416  1.00  0.00     0.091 A 
ATOM     82  F   UNL A   1      38.140  31.803  38.305  1.00  0.00    -0.205 F 
ATOM     83  C   UNL A   1      38.834  35.218  39.431  1.00  0.00     0.022 A 
BRANCH  81  84
ATOM     84  S   UNL A   1      37.290  33.416  40.797  1.00  0.00     0.127 S 
ATOM     85  O   UNL A   1      37.153  34.671  41.531  1.00  0.00    -0.237 OA
ATOM     86  O   UNL A   1      36.075  32.963  40.117  1.00  0.00    -0.237 OA
ATOM     87  O   UNL A   1      38.023  32.356  41.478  1.00  0.00    -0.744 OA
ENDBRANCH  81  84
ENDBRANCH  53  77
BRANCH  65  88
ATOM     88  C   UNL A   1      44.226  28.987  35.314  1.00  0.00     0.023 A 
ATOM     89  C   UNL A   1      45.450  29.636  35.060  1.00  0.00     0.012 A 
ATOM     90  C   UNL A   1      44.180  27.938  36.252  1.00  0.00     0.148 A 
ATOM     91  C   UNL A   1      46.614  29.228  35.708  1.00  0.00     0.002 A 
ATOM     92  C   UNL A   1      45.336  27.566  36.926  1.00  0.00     0.091 A 
ATOM     93  F   UNL A   1      43.010  27.315  36.465  1.00  0.00    -0.205 F 
ATOM     94  C   UNL A   1      46.557  28.203  36.650  1.00  0.00     0.022 A 
BRANCH  92  95
ATOM     95  S   UNL A   1      45.316  26.317  38.219  1.00  0.00     0.127 S 
ATOM     96  O   UNL A   1      44.341  26.871  39.156  1.00  0.00    -0.237 OA
ATOM     97  O   UNL A   1      44.863  25.123  37.503  1.00  0.00    -0.237 OA
ATOM     98  O   UNL A   1      46.689  26.236  38.703  1.00  0.00    -0.744 OA
ENDBRANCH  92  95
ENDBRANCH  65  88
ENDBRANCH  39  40
ENDBRANCH  31  34
ENDBRANCH  29  30
ENDBRANCH  28  29
ENDBRANCH   1  28
TORSDOF 17
ENDMDL
MODEL 2
REMARK VINA RESULT:     -12.2      0.968      7.650
REMARK SMILES Cc1ccc(S(=O)(=O)Nc2cc3c(cc2C(=O)NCCCCNC(=O)c2ccc(-c4c5nc(c(-c6cccc(S(=O)(=O)[O-])c6F)c6ccc([nH]6)c(-c6cccc(S(=O)(=O)[O-])c6F)c6nc(c(-c7cccc(S(=O)(=O)[O-])c7F)c7ccc4[nH]7)C=C6)C=C5)cc2)OCCO3)s1
REMARK SMILES IDX 20 1 19 2 18 3 16 4 17 5 15 7 10 8 11 9 12 10 14 11 13 12
REMARK SMILES IDX 92 13 89 14 91 15 90 16 9 17 6 19 7 20 8 21 5 22 1 23 2 24
REMARK SMILES IDX 3 25 93 26 4 27 21 28 22 29 23 30 24 31 25 33 26 34 27 35
REMARK SMILES IDX 88 36 28 37 87 38 29 39 30 40 31 41 81 42 32 43 86 44 80 45
REMARK SMILES IDX 82 46 33 47 85 48 79 49 78 50 34 52 66 53 46 54 65 55 47 56
REMARK SMILES IDX 50 57 64 58 83 59 48 60 49 61 63 63 84 64 51 65 35 66 36 67
REMARK SMILES IDX 44 68 37 69 39 70 45 71 38 72 40 73 41 74 42 75 43 76 67 77
REMARK SMILES IDX 68 78 76 79 69 80 71 81 77 82 70 83 72 84 73 85 74 86 75 87
REMARK SMILES IDX 52 88 53 89 61 90 54 91 56 92 62 93 55 94 57 95 58 96 59 97
REMARK SMILES IDX 60 98
REMARK H PARENT 18 6 9 18 23 32 82 51 50 62
REMARK Flexibility Score: inf
ROOT
ATOM      1  C   UNL A   1      31.904  30.420  26.813  1.00  0.00     0.023 C 
ENDROOT
BRANCH   1   2
ATOM      2  C   UNL A   1      33.311  29.908  26.539  1.00  0.00     0.116 C 
BRANCH   2   3
ATOM      3  N   UNL A   1      33.634  29.681  25.141  1.00  0.00    -0.352 N 
ATOM      4  C   UNL A   1      33.294  28.653  24.289  1.00  0.00     0.253 C 
ATOM      5  O   UNL A   1      33.536  28.773  23.091  1.00  0.00    -0.269 OA
ATOM      6  H   UNL A   1      34.193  30.381  24.733  1.00  0.00     0.163 HD
BRANCH   4   7
ATOM      7  C   UNL A   1      32.673  27.403  24.799  1.00  0.00     0.067 A 
ATOM      8  C   UNL A   1      31.270  27.269  24.866  1.00  0.00     0.066 A 
ATOM      9  C   UNL A   1      30.707  26.043  25.246  1.00  0.00     0.078 A 
ATOM     10  C   UNL A   1      31.532  24.956  25.533  1.00  0.00     0.163 A 
ATOM     11  C   UNL A   1      33.485  26.342  25.213  1.00  0.00     0.066 A 
ATOM     12  C   UNL A   1      32.920  25.107  25.504  1.00  0.00     0.162 A 
ATOM     13  O   UNL A   1      30.917  23.763  25.816  1.00  0.00    -0.486 OA
ATOM     14  O   UNL A   1      33.794  24.073  25.719  1.00  0.00    -0.486 OA
ATOM     15  C   UNL A   1      31.841  22.782  26.308  1.00  0.00     0.271 C 
ATOM     16  C   UNL A   1      33.142  22.814  25.524  1.00  0.00     0.271 C 
BRANCH   8  17
ATOM     17  N   UNL A   1      30.414  28.378  24.572  1.00  0.00    -0.278 N 
ATOM     18  H   UNL A   1      30.355  29.141  25.190  1.00  0.00     0.180 HD
BRANCH  17  19
ATOM     19  S   UNL A   1      29.509  28.359  23.150  1.00  0.00     0.271 S 
ATOM     20  O   UNL A   1      28.339  27.553  23.389  1.00  0.00    -0.200 OA
ATOM     21  O   UNL A   1      30.423  28.023  22.071  1.00  0.00    -0.200 OA
BRANCH  19  22
ATOM     22  C   UNL A   1      28.991  30.020  22.777  1.00  0.00     0.140 A 
ATOM     23  C   UNL A   1      27.624  32.930  20.527  1.00  0.00     0.056 C 
ATOM     24  C   UNL A   1      28.162  32.003  21.563  1.00  0.00     0.003 A 
ATOM     25  C   UNL A   1      28.572  32.311  22.845  1.00  0.00     0.016 A 
ATOM     26  S   UNL A   1      28.334  30.331  21.233  1.00  0.00    -0.127 S 
ATOM     27  C   UNL A   1      29.031  31.166  23.549  1.00  0.00     0.034 A 
ENDBRANCH  19  22
ENDBRANCH  17  19
ENDBRANCH   8  17
ENDBRANCH   4   7
ENDBRANCH   2   3
ENDBRANCH   1   2
BRANCH   1  28
ATOM     28  C   UNL A   1      31.710  31.929  26.860  1.00  0.00     0.023 C 
BRANCH  28  29
ATOM     29  C   UNL A   1      32.939  32.739  27.246  1.00  0.00     0.116 C 
BRANCH  29  30
ATOM     30  N   UNL A   1      32.623  34.019  27.860  1.00  0.00    -0.352 N 
ATOM     31  C   UNL A   1      33.243  34.667  28.900  1.00  0.00     0.251 C 
ATOM     32  H   UNL A   1      31.850  34.490  27.472  1.00  0.00     0.163 HD
ATOM     33  O   UNL A   1      32.770  35.720  29.323  1.00  0.00    -0.269 OA
BRANCH  31  34
ATOM     34  C   UNL A   1      34.448  34.087  29.532  1.00  0.00     0.039 A 
ATOM     35  C   UNL A   1      34.291  33.287  30.668  1.00  0.00     0.014 A 
ATOM     36  C   UNL A   1      35.724  34.322  29.014  1.00  0.00     0.014 A 
ATOM     37  C   UNL A   1      35.407  32.682  31.251  1.00  0.00     0.010 A 
ATOM     38  C   UNL A   1      36.821  33.648  29.541  1.00  0.00     0.010 A 
ATOM     39  C   UNL A   1      36.679  32.839  30.677  1.00  0.00    -0.014 A 
BRANCH  39  40
ATOM     40  C   UNL A   1      37.877  32.194  31.269  1.00  0.00     0.031 A 
ATOM     41  C   UNL A   1      38.474  32.742  32.538  1.00  0.00     0.074 A 
ATOM     42  C   UNL A   1      38.477  31.175  30.625  1.00  0.00     0.049 A 
ATOM     43  N   UNL A   1      39.532  32.338  33.192  1.00  0.00    -0.248 NA
ATOM     44  C   UNL A   1      37.820  33.921  33.130  1.00  0.00     0.031 C 
ATOM     45  C   UNL A   1      38.059  30.626  29.333  1.00  0.00     0.029 A 
ATOM     46  N   UNL A   1      39.584  30.435  30.957  1.00  0.00    -0.354 N 
ATOM     47  C   UNL A   1      39.697  33.239  34.237  1.00  0.00     0.074 A 
ATOM     48  C   UNL A   1      38.655  34.233  34.109  1.00  0.00     0.031 C 
ATOM     49  C   UNL A   1      38.894  29.633  28.987  1.00  0.00     0.029 A 
ATOM     50  C   UNL A   1      39.911  29.479  30.024  1.00  0.00     0.049 A 
ATOM     51  H   UNL A   1      40.097  30.576  31.785  1.00  0.00     0.167 HD
ATOM     52  C   UNL A   1      40.608  33.221  35.239  1.00  0.00     0.034 A 
ATOM     53  C   UNL A   1      40.906  28.572  30.015  1.00  0.00     0.034 A 
ATOM     54  C   UNL A   1      41.592  32.188  35.407  1.00  0.00     0.049 A 
ATOM     55  C   UNL A   1      41.829  28.493  31.202  1.00  0.00     0.074 A 
ATOM     56  C   UNL A   1      42.491  32.011  36.443  1.00  0.00     0.029 A 
ATOM     57  N   UNL A   1      41.798  31.146  34.516  1.00  0.00    -0.354 N 
ATOM     58  N   UNL A   1      41.853  29.243  32.278  1.00  0.00    -0.248 NA
ATOM     59  C   UNL A   1      42.823  27.411  31.202  1.00  0.00     0.031 C 
ATOM     60  C   UNL A   1      43.240  30.859  36.179  1.00  0.00     0.029 A 
ATOM     61  C   UNL A   1      42.802  30.315  34.981  1.00  0.00     0.049 A 
ATOM     62  H   UNL A   1      41.302  31.015  33.676  1.00  0.00     0.167 HD
ATOM     63  C   UNL A   1      42.837  28.703  33.098  1.00  0.00     0.074 A 
ATOM     64  C   UNL A   1      43.371  27.549  32.402  1.00  0.00     0.031 C 
ATOM     65  C   UNL A   1      43.272  29.132  34.308  1.00  0.00     0.034 A 
BRANCH  52  66
ATOM     66  C   UNL A   1      40.525  34.314  36.273  1.00  0.00     0.023 A 
ATOM     67  C   UNL A   1      40.950  35.616  35.935  1.00  0.00     0.012 A 
ATOM     68  C   UNL A   1      40.006  34.069  37.558  1.00  0.00     0.148 A 
ATOM     69  C   UNL A   1      40.900  36.647  36.872  1.00  0.00     0.002 A 
ATOM     70  C   UNL A   1      39.921  35.113  38.474  1.00  0.00     0.091 A 
ATOM     71  F   UNL A   1      39.631  32.822  37.874  1.00  0.00    -0.205 F 
ATOM     72  C   UNL A   1      40.378  36.397  38.137  1.00  0.00     0.022 A 
BRANCH  70  73
ATOM     73  S   UNL A   1      39.189  34.903  40.102  1.00  0.00     0.127 S 
ATOM     74  O   UNL A   1      39.067  36.288  40.552  1.00  0.00    -0.237 OA
ATOM     75  O   UNL A   1      37.917  34.249  39.792  1.00  0.00    -0.237 OA
ATOM     76  O   UNL A   1      40.123  34.074  40.850  1.00  0.00    -0.744 OA
ENDBRANCH  70  73
ENDBRANCH  52  66
BRANCH  53  77
ATOM     77  C   UNL A   1      41.000  27.590  28.898  1.00  0.00     0.023 A 
ATOM     78  C   UNL A   1      40.112  26.497  28.870  1.00  0.00     0.012 A 
ATOM     79  C   UNL A   1      41.919  27.756  27.844  1.00  0.00     0.148 A 
ATOM     80  C   UNL A   1      40.155  25.570  27.828  1.00  0.00     0.002 A 
ATOM     81  C   UNL A   1      41.922  26.856  26.783  1.00  0.00     0.091 A 
ATOM     82  F   UNL A   1      42.763  28.796  27.893  1.00  0.00    -0.205 F 
ATOM     83  C   UNL A   1      41.051  25.756  26.780  1.00  0.00     0.022 A 
BRANCH  81  84
ATOM     84  S   UNL A   1      42.950  27.090  25.327  1.00  0.00     0.127 S 
ATOM     85  O   UNL A   1      44.268  27.296  25.921  1.00  0.00    -0.237 OA
ATOM     86  O   UNL A   1      42.781  25.814  24.628  1.00  0.00    -0.237 OA
ATOM     87  O   UNL A   1      42.381  28.234  24.627  1.00  0.00    -0.744 OA
ENDBRANCH  81  84
ENDBRANCH  53  77
BRANCH  65  88
ATOM     88  C   UNL A   1      44.356  28.336  34.983  1.00  0.00     0.023 A 
ATOM     89  C   UNL A   1      45.703  28.559  34.636  1.00  0.00     0.012 A 
ATOM     90  C   UNL A   1      44.048  27.425  36.012  1.00  0.00     0.148 A 
ATOM     91  C   UNL A   1      46.724  27.866  35.284  1.00  0.00     0.002 A 
ATOM     92  C   UNL A   1      45.074  26.770  36.682  1.00  0.00     0.091 A 
ATOM     93  F   UNL A   1      42.758  27.207  36.313  1.00  0.00    -0.205 F 
ATOM     94  C   UNL A   1      46.412  26.982  36.314  1.00  0.00     0.022 A 
BRANCH  92  95
ATOM     95  S   UNL A   1      44.749  25.689  38.081  1.00  0.00     0.127 S 
ATOM     96  O   UNL A   1      44.171  24.517  37.426  1.00  0.00    -0.237 OA
ATOM     97  O   UNL A   1      46.085  25.478  38.639  1.00  0.00    -0.237 OA
ATOM     98  O   UNL A   1      43.851  26.439  38.951  1.00  0.00    -0.744 OA
ENDBRANCH  92  95
ENDBRANCH  65  88
ENDBRANCH  39  40
ENDBRANCH  31  34
ENDBRANCH  29  30
ENDBRANCH  28  29
ENDBRANCH   1  28
TORSDOF 17
ENDMDL
MODEL 3
REMARK VINA RESULT:     -11.9      5.252      8.314
REMARK SMILES Cc1ccc(S(=O)(=O)Nc2cc3c(cc2C(=O)NCCCCNC(=O)c2ccc(-c4c5nc(c(-c6cccc(S(=O)(=O)[O-])c6F)c6ccc([nH]6)c(-c6cccc(S(=O)(=O)[O-])c6F)c6nc(c(-c7cccc(S(=O)(=O)[O-])c7F)c7ccc4[nH]7)C=C6)C=C5)cc2)OCCO3)s1
REMARK SMILES IDX 20 1 19 2 18 3 16 4 17 5 15 7 10 8 11 9 12 10 14 11 13 12
REMARK SMILES IDX 92 13 89 14 91 15 90 16 9 17 6 19 7 20 8 21 5 22 1 23 2 24
REMARK SMILES IDX 3 25 93 26 4 27 21 28 22 29 23 30 24 31 25 33 26 34 27 35
REMARK SMILES IDX 88 36 28 37 87 38 29 39 30 40 31 41 81 42 32 43 86 44 80 45
REMARK SMILES IDX 82 46 33 47 85 48 79 49 78 50 34 52 66 53 46 54 65 55 47 56
REMARK SMILES IDX 50 57 64 58 83 59 48 60 49 61 63 63 84 64 51 65 35 66 36 67
REMARK SMILES IDX 44 68 37 69 39 70 45 71 38 72 40 73 41 74 42 75 43 76 67 77
REMARK SMILES IDX 68 78 76 79 69 80 71 81 77 82 70 83 72 84 73 85 74 86 75 87
REMARK SMILES IDX 52 88 53 89 61 90 54 91 56 92 62 93 55 94 57 95 58 96 59 97
REMARK SMILES IDX 60 98
REMARK H PARENT 18 6 9 18 23 32 82 51 50 62
REMARK Flexibility Score: inf
ROOT
ATOM      1  C   UNL A   1      35.093  22.477  26.410  1.00  0.00     0.023 C 
ENDROOT
BRANCH   1   2
ATOM      2  C   UNL A   1      33.855  22.646  27.280  1.00  0.00     0.116 C 
BRANCH   2   3
ATOM      3  N   UNL A   1      32.878  23.609  26.801  1.00  0.00    -0.352 N 
ATOM      4  C   UNL A   1      31.944  23.525  25.792  1.00  0.00     0.253 C 
ATOM      5  O   UNL A   1      31.099  24.409  25.692  1.00  0.00    -0.269 OA
ATOM      6  H   UNL A   1      32.884  24.469  27.281  1.00  0.00     0.163 HD
BRANCH   4   7
ATOM      7  C   UNL A   1      31.966  22.405  24.814  1.00  0.00     0.067 A 
ATOM      8  C   UNL A   1      32.009  22.661  23.427  1.00  0.00     0.066 A 
ATOM      9  C   UNL A   1      32.141  21.593  22.528  1.00  0.00     0.078 A 
ATOM     10  C   UNL A   1      32.252  20.289  23.008  1.00  0.00     0.163 A 
ATOM     11  C   UNL A   1      31.950  21.083  25.269  1.00  0.00     0.066 A 
ATOM     12  C   UNL A   1      32.168  20.039  24.379  1.00  0.00     0.162 A 
ATOM     13  O   UNL A   1      32.463  19.299  22.081  1.00  0.00    -0.486 OA
ATOM     14  O   UNL A   1      32.324  18.793  24.929  1.00  0.00    -0.486 OA
ATOM     15  C   UNL A   1      32.341  17.989  22.653  1.00  0.00     0.271 C 
ATOM     16  C   UNL A   1      33.004  17.923  24.018  1.00  0.00     0.271 C 
BRANCH   8  17
ATOM     17  N   UNL A   1      31.898  23.997  22.924  1.00  0.00    -0.278 N 
ATOM     18  H   UNL A   1      31.042  24.479  22.975  1.00  0.00     0.180 HD
BRANCH  17  19
ATOM     19  S   UNL A   1      33.253  24.732  22.245  1.00  0.00     0.271 S 
ATOM     20  O   UNL A   1      33.022  24.849  20.828  1.00  0.00    -0.200 OA
ATOM     21  O   UNL A   1      34.417  24.017  22.742  1.00  0.00    -0.200 OA
BRANCH  19  22
ATOM     22  C   UNL A   1      33.425  26.365  22.930  1.00  0.00     0.140 A 
ATOM     23  C   UNL A   1      33.878  29.034  25.772  1.00  0.00     0.056 C 
ATOM     24  C   UNL A   1      33.692  28.221  24.535  1.00  0.00     0.003 A 
ATOM     25  C   UNL A   1      33.479  28.673  23.249  1.00  0.00     0.016 A 
ATOM     26  S   UNL A   1      33.731  26.510  24.602  1.00  0.00    -0.127 S 
ATOM     27  C   UNL A   1      33.344  27.604  22.322  1.00  0.00     0.034 A 
ENDBRANCH  19  22
ENDBRANCH  17  19
ENDBRANCH   8  17
ENDBRANCH   4   7
ENDBRANCH   2   3
ENDBRANCH   1   2
BRANCH   1  28
ATOM     28  C   UNL A   1      35.840  23.742  26.013  1.00  0.00     0.023 C 
BRANCH  28  29
ATOM     29  C   UNL A   1      37.034  23.539  25.091  1.00  0.00     0.116 C 
BRANCH  29  30
ATOM     30  N   UNL A   1      37.994  22.568  25.589  1.00  0.00    -0.352 N 
ATOM     31  C   UNL A   1      39.128  22.763  26.340  1.00  0.00     0.251 C 
ATOM     32  H   UNL A   1      37.803  21.631  25.353  1.00  0.00     0.163 HD
ATOM     33  O   UNL A   1      39.853  21.806  26.598  1.00  0.00    -0.269 OA
BRANCH  31  34
ATOM     34  C   UNL A   1      39.494  24.121  26.804  1.00  0.00     0.039 A 
ATOM     35  C   UNL A   1      39.257  24.459  28.139  1.00  0.00     0.014 A 
ATOM     36  C   UNL A   1      40.067  25.054  25.937  1.00  0.00     0.014 A 
ATOM     37  C   UNL A   1      39.644  25.714  28.616  1.00  0.00     0.010 A 
ATOM     38  C   UNL A   1      40.532  26.267  26.434  1.00  0.00     0.010 A 
ATOM     39  C   UNL A   1      40.306  26.619  27.772  1.00  0.00    -0.014 A 
BRANCH  39  40
ATOM     40  C   UNL A   1      40.740  27.952  28.259  1.00  0.00     0.031 A 
ATOM     41  C   UNL A   1      42.205  28.297  28.297  1.00  0.00     0.074 A 
ATOM     42  C   UNL A   1      39.830  28.816  28.748  1.00  0.00     0.049 A 
ATOM     43  N   UNL A   1      42.783  29.392  28.716  1.00  0.00    -0.248 NA
ATOM     44  C   UNL A   1      43.147  27.262  27.839  1.00  0.00     0.031 C 
ATOM     45  C   UNL A   1      38.393  28.556  28.868  1.00  0.00     0.029 A 
ATOM     46  N   UNL A   1      39.981  30.080  29.260  1.00  0.00    -0.354 N 
ATOM     47  C   UNL A   1      44.150  29.160  28.619  1.00  0.00     0.074 A 
ATOM     48  C   UNL A   1      44.316  27.806  28.139  1.00  0.00     0.031 C 
ATOM     49  C   UNL A   1      37.796  29.629  29.411  1.00  0.00     0.029 A 
ATOM     50  C   UNL A   1      38.804  30.649  29.686  1.00  0.00     0.049 A 
ATOM     51  H   UNL A   1      40.852  30.536  29.317  1.00  0.00     0.167 HD
ATOM     52  C   UNL A   1      45.177  30.008  28.866  1.00  0.00     0.034 A 
ATOM     53  C   UNL A   1      38.564  31.862  30.221  1.00  0.00     0.034 A 
ATOM     54  C   UNL A   1      45.005  31.376  29.267  1.00  0.00     0.049 A 
ATOM     55  C   UNL A   1      39.707  32.830  30.369  1.00  0.00     0.074 A 
ATOM     56  C   UNL A   1      45.968  32.354  29.440  1.00  0.00     0.029 A 
ATOM     57  N   UNL A   1      43.781  31.965  29.547  1.00  0.00    -0.354 N 
ATOM     58  N   UNL A   1      40.978  32.654  30.096  1.00  0.00    -0.248 NA
ATOM     59  C   UNL A   1      39.377  34.181  30.846  1.00  0.00     0.031 C 
ATOM     60  C   UNL A   1      45.325  33.536  29.823  1.00  0.00     0.029 A 
ATOM     61  C   UNL A   1      43.961  33.296  29.882  1.00  0.00     0.049 A 
ATOM     62  H   UNL A   1      42.912  31.505  29.513  1.00  0.00     0.167 HD
ATOM     63  C   UNL A   1      41.592  33.878  30.331  1.00  0.00     0.074 A 
ATOM     64  C   UNL A   1      40.550  34.794  30.749  1.00  0.00     0.031 C 
ATOM     65  C   UNL A   1      42.903  34.210  30.228  1.00  0.00     0.034 A 
BRANCH  52  66
ATOM     66  C   UNL A   1      46.573  29.493  28.632  1.00  0.00     0.023 A 
ATOM     67  C   UNL A   1      47.179  29.691  27.373  1.00  0.00     0.012 A 
ATOM     68  C   UNL A   1      47.296  28.845  29.651  1.00  0.00     0.148 A 
ATOM     69  C   UNL A   1      48.464  29.214  27.118  1.00  0.00     0.002 A 
ATOM     70  C   UNL A   1      48.593  28.409  29.402  1.00  0.00     0.091 A 
ATOM     71  F   UNL A   1      46.698  28.640  30.833  1.00  0.00    -0.205 F 
ATOM     72  C   UNL A   1      49.173  28.582  28.134  1.00  0.00     0.022 A 
BRANCH  70  73
ATOM     73  S   UNL A   1      49.613  27.654  30.674  1.00  0.00     0.127 S 
ATOM     74  O   UNL A   1      48.884  26.415  30.941  1.00  0.00    -0.237 OA
ATOM     75  O   UNL A   1      50.891  27.472  29.984  1.00  0.00    -0.237 OA
ATOM     76  O   UNL A   1      49.653  28.613  31.769  1.00  0.00    -0.744 OA
ENDBRANCH  70  73
ENDBRANCH  52  66
BRANCH  53  77
ATOM     77  C   UNL A   1      37.166  32.264  30.539  1.00  0.00     0.023 A 
ATOM     78  C   UNL A   1      36.695  32.122  31.860  1.00  0.00     0.012 A 
ATOM     79  C   UNL A   1      36.320  32.832  29.566  1.00  0.00     0.148 A 
ATOM     80  C   UNL A   1      35.399  32.511  32.200  1.00  0.00     0.002 A 
ATOM     81  C   UNL A   1      35.047  33.263  29.924  1.00  0.00     0.091 A 
ATOM     82  F   UNL A   1      36.782  32.950  28.313  1.00  0.00    -0.205 F 
ATOM     83  C   UNL A   1      34.580  33.091  31.237  1.00  0.00     0.022 A 
BRANCH  81  84
ATOM     84  S   UNL A   1      33.972  34.140  28.782  1.00  0.00     0.127 S 
ATOM     85  O   UNL A   1      32.891  34.574  29.663  1.00  0.00    -0.237 OA
ATOM     86  O   UNL A   1      34.846  35.213  28.304  1.00  0.00    -0.237 OA
ATOM     87  O   UNL A   1      33.610  33.166  27.761  1.00  0.00    -0.744 OA
ENDBRANCH  81  84
ENDBRANCH  53  77
BRANCH  65  88
ATOM     88  C   UNL A   1      43.289  35.632  30.535  1.00  0.00     0.023 A 
ATOM     89  C   UNL A   1      43.387  36.569  29.489  1.00  0.00     0.012 A 
ATOM     90  C   UNL A   1      43.479  36.056  31.865  1.00  0.00     0.148 A 
ATOM     91  C   UNL A   1      43.696  37.901  29.758  1.00  0.00     0.002 A 
ATOM     92  C   UNL A   1      43.743  37.394  32.129  1.00  0.00     0.091 A 
ATOM     93  F   UNL A   1      43.405  35.146  32.848  1.00  0.00    -0.205 F 
ATOM     94  C   UNL A   1      43.862  38.317  31.077  1.00  0.00     0.022 A 
BRANCH  92  95
ATOM     95  S   UNL A   1      43.876  38.017  33.810  1.00  0.00     0.127 S 
ATOM     96  O   UNL A   1      42.544  37.735  34.340  1.00  0.00    -0.237 OA
ATOM     97  O   UNL A   1      44.944  37.190  34.374  1.00  0.00    -0.237 OA
ATOM     98  O   UNL A   1      44.221  39.427  33.676  1.00  0.00    -0.744 OA
ENDBRANCH  92  95
ENDBRANCH  65  88
ENDBRANCH  39  40
ENDBRANCH  31  34
ENDBRANCH  29  30
ENDBRANCH  28  29
ENDBRANCH   1  28
TORSDOF 17
ENDMDL
