MODEL 1
REMARK VINA RESULT:     -13.7      0.000      0.000
REMARK SMILES Cc1ccccc1[C@@H]1[NH2+][C@@H](C(=O)NCCCCNC(=O)c2ccc(-c3c4nc(c(-c5cccc(S(=O)(=O)[O-])c5F)c5ccc([nH]5)c(-c5cccc(S(=O)(=O)[O-])c5F)c5nc(c(-c6cccc(S(=O)(=O)[O-])c6F)c6ccc3[nH]6)C=C5)C=C4)cc2)CC2=c3ccccc3=N[C@@H]21
REMARK SMILES IDX 16 1 15 2 14 3 13 4 11 5 12 6 10 8 8 9 9 10 93 11 85 14
REMARK SMILES IDX 92 15 84 16 86 17 91 18 87 19 90 20 88 21 89 22 7 23 1 24
REMARK SMILES IDX 2 25 3 26 4 27 6 28 5 29 17 30 18 31 19 32 20 34 21 35 22 36
REMARK SMILES IDX 83 37 23 38 82 39 24 40 25 41 26 42 76 43 27 44 81 45 75 46
REMARK SMILES IDX 77 47 28 48 80 49 74 50 73 51 29 53 61 54 41 55 60 56 42 57
REMARK SMILES IDX 45 58 59 59 78 60 43 61 44 62 58 64 79 65 46 66 30 67 31 68
REMARK SMILES IDX 39 69 32 70 34 71 40 72 33 73 35 74 36 75 37 76 38 77 62 78
REMARK SMILES IDX 63 79 71 80 64 81 66 82 72 83 65 84 67 85 68 86 69 87 70 88
REMARK SMILES IDX 47 89 48 90 56 91 49 92 51 93 57 94 50 95 52 96 53 97 54 98
REMARK SMILES IDX 55 99
REMARK H PARENT 13 7 9 12 9 13 18 33 77 52 45 63
REMARK Flexibility Score: inf
ROOT
ATOM      1  C   UNL A   1      33.141  30.589  26.874  1.00  0.00     0.023 C 
ENDROOT
BRANCH   1   2
ATOM      2  C   UNL A   1      32.210  29.453  26.353  1.00  0.00     0.023 C 
BRANCH   2   3
ATOM      3  C   UNL A   1      32.295  28.638  25.016  1.00  0.00     0.116 C 
BRANCH   3   4
ATOM      4  N   UNL A   1      33.475  28.469  24.102  1.00  0.00    -0.351 N 
ATOM      5  C   UNL A   1      33.674  27.781  22.877  1.00  0.00     0.278 C 
ATOM      6  O   UNL A   1      34.507  28.129  22.048  1.00  0.00    -0.268 OA
ATOM      7  H   UNL A   1      34.282  28.934  24.421  1.00  0.00     0.163 HD
BRANCH   5   8
ATOM      8  C   UNL A   1      32.924  26.457  22.841  1.00  0.00     0.277 C 
ATOM      9  C   UNL A   1      34.021  24.165  23.211  1.00  0.00     0.243 C 
ATOM     10  N   UNL A   1      33.987  25.603  23.308  1.00  0.00    -0.327 N 
ATOM     11  C   UNL A   1      32.526  23.604  23.398  1.00  0.00     0.196 C 
ATOM     12  H   UNL A   1      34.823  25.924  22.817  1.00  0.00     0.347 HD
ATOM     13  H   UNL A   1      33.867  25.708  24.315  1.00  0.00     0.347 HD
ATOM     14  C   UNL A   1      31.506  24.602  22.758  1.00  0.00    -0.024 C 
ATOM     15  N   UNL A   1      32.034  23.482  24.808  1.00  0.00    -0.270 NA
ATOM     16  C   UNL A   1      32.078  25.697  21.832  1.00  0.00     0.109 C 
ATOM     17  C   UNL A   1      30.500  24.877  23.607  1.00  0.00     0.002 A 
ATOM     18  C   UNL A   1      30.925  24.168  24.837  1.00  0.00     0.066 A 
ATOM     19  C   UNL A   1      29.634  26.033  23.698  1.00  0.00     0.010 A 
ATOM     20  C   UNL A   1      30.118  24.470  26.058  1.00  0.00     0.028 A 
ATOM     21  C   UNL A   1      29.087  26.360  24.880  1.00  0.00     0.001 A 
ATOM     22  C   UNL A   1      29.274  25.521  26.047  1.00  0.00     0.002 A 
BRANCH   9  23
ATOM     23  C   UNL A   1      35.406  23.831  23.903  1.00  0.00     0.015 A 
ATOM     24  C   UNL A   1      34.799  24.960  26.106  1.00  0.00     0.045 C 
ATOM     25  C   UNL A   1      35.678  24.098  25.254  1.00  0.00    -0.042 A 
ATOM     26  C   UNL A   1      36.724  23.394  25.923  1.00  0.00     0.004 A 
ATOM     27  C   UNL A   1      37.518  22.432  25.294  1.00  0.00     0.000 A 
ATOM     28  C   UNL A   1      36.290  22.859  23.308  1.00  0.00     0.010 A 
ATOM     29  C   UNL A   1      37.305  22.170  23.967  1.00  0.00     0.001 A 
ENDBRANCH   9  23
ENDBRANCH   5   8
ENDBRANCH   3   4
ENDBRANCH   2   3
ENDBRANCH   1   2
BRANCH   1  30
ATOM     30  C   UNL A   1      34.519  30.152  27.321  1.00  0.00     0.116 C 
BRANCH  30  31
ATOM     31  N   UNL A   1      35.335  31.165  28.006  1.00  0.00    -0.352 N 
ATOM     32  C   UNL A   1      36.590  30.960  28.580  1.00  0.00     0.251 C 
ATOM     33  H   UNL A   1      34.962  32.074  28.064  1.00  0.00     0.163 HD
ATOM     34  O   UNL A   1      37.182  31.849  29.185  1.00  0.00    -0.269 OA
BRANCH  32  35
ATOM     35  C   UNL A   1      37.196  29.624  28.376  1.00  0.00     0.039 A 
ATOM     36  C   UNL A   1      37.493  28.885  29.524  1.00  0.00     0.014 A 
ATOM     37  C   UNL A   1      37.892  29.425  27.184  1.00  0.00     0.014 A 
ATOM     38  C   UNL A   1      38.680  28.165  29.565  1.00  0.00     0.010 A 
ATOM     39  C   UNL A   1      39.120  28.800  27.257  1.00  0.00     0.010 A 
ATOM     40  C   UNL A   1      39.540  28.237  28.470  1.00  0.00    -0.014 A 
BRANCH  40  41
ATOM     41  C   UNL A   1      40.859  27.629  28.462  1.00  0.00     0.031 A 
ATOM     42  C   UNL A   1      40.896  26.172  28.291  1.00  0.00     0.074 A 
ATOM     43  C   UNL A   1      41.993  28.341  28.625  1.00  0.00     0.049 A 
ATOM     44  N   UNL A   1      41.806  25.401  28.772  1.00  0.00    -0.248 NA
ATOM     45  C   UNL A   1      39.811  25.467  27.622  1.00  0.00     0.031 C 
ATOM     46  C   UNL A   1      43.365  27.879  28.437  1.00  0.00     0.029 A 
ATOM     47  N   UNL A   1      42.134  29.587  29.236  1.00  0.00    -0.354 N 
ATOM     48  C   UNL A   1      41.574  24.142  28.259  1.00  0.00     0.074 A 
ATOM     49  C   UNL A   1      40.273  24.218  27.641  1.00  0.00     0.031 C 
ATOM     50  C   UNL A   1      44.188  28.667  29.149  1.00  0.00     0.029 A 
ATOM     51  C   UNL A   1      43.351  29.553  29.943  1.00  0.00     0.049 A 
ATOM     52  H   UNL A   1      41.505  30.343  29.183  1.00  0.00     0.167 HD
ATOM     53  C   UNL A   1      42.584  23.230  28.269  1.00  0.00     0.034 A 
ATOM     54  C   UNL A   1      43.454  29.764  31.289  1.00  0.00     0.034 A 
ATOM     55  C   UNL A   1      43.748  23.757  28.999  1.00  0.00     0.049 A 
ATOM     56  C   UNL A   1      44.108  28.604  32.014  1.00  0.00     0.074 A 
ATOM     57  C   UNL A   1      44.891  24.420  28.577  1.00  0.00     0.029 A 
ATOM     58  N   UNL A   1      43.674  23.944  30.377  1.00  0.00    -0.354 N 
ATOM     59  N   UNL A   1      44.348  27.442  31.471  1.00  0.00    -0.248 NA
ATOM     60  C   UNL A   1      44.482  28.645  33.426  1.00  0.00     0.031 C 
ATOM     61  C   UNL A   1      45.456  25.080  29.700  1.00  0.00     0.029 A 
ATOM     62  C   UNL A   1      44.680  24.797  30.813  1.00  0.00     0.049 A 
ATOM     63  H   UNL A   1      43.001  23.527  30.962  1.00  0.00     0.167 HD
ATOM     64  C   UNL A   1      44.715  26.551  32.445  1.00  0.00     0.074 A 
ATOM     65  C   UNL A   1      44.881  27.378  33.630  1.00  0.00     0.031 C 
ATOM     66  C   UNL A   1      44.766  25.201  32.214  1.00  0.00     0.034 A 
BRANCH  53  67
ATOM     67  C   UNL A   1      42.653  22.058  27.299  1.00  0.00     0.023 A 
ATOM     68  C   UNL A   1      41.721  21.014  27.489  1.00  0.00     0.012 A 
ATOM     69  C   UNL A   1      43.612  21.846  26.281  1.00  0.00     0.148 A 
ATOM     70  C   UNL A   1      41.805  19.796  26.806  1.00  0.00     0.002 A 
ATOM     71  C   UNL A   1      43.748  20.603  25.654  1.00  0.00     0.091 A 
ATOM     72  F   UNL A   1      44.341  22.869  25.830  1.00  0.00    -0.205 F 
ATOM     73  C   UNL A   1      42.845  19.573  25.919  1.00  0.00     0.022 A 
BRANCH  71  74
ATOM     74  S   UNL A   1      45.123  20.220  24.551  1.00  0.00     0.127 S 
ATOM     75  O   UNL A   1      45.041  18.761  24.449  1.00  0.00    -0.237 OA
ATOM     76  O   UNL A   1      44.755  20.935  23.332  1.00  0.00    -0.237 OA
ATOM     77  O   UNL A   1      46.325  20.698  25.224  1.00  0.00    -0.744 OA
ENDBRANCH  71  74
ENDBRANCH  53  67
BRANCH  54  78
ATOM     78  C   UNL A   1      42.339  30.586  31.852  1.00  0.00     0.023 A 
ATOM     79  C   UNL A   1      42.164  31.884  31.318  1.00  0.00     0.012 A 
ATOM     80  C   UNL A   1      41.263  29.988  32.530  1.00  0.00     0.148 A 
ATOM     81  C   UNL A   1      40.893  32.457  31.260  1.00  0.00     0.002 A 
ATOM     82  C   UNL A   1      40.006  30.585  32.485  1.00  0.00     0.091 A 
ATOM     83  F   UNL A   1      41.455  28.816  33.149  1.00  0.00    -0.205 F 
ATOM     84  C   UNL A   1      39.802  31.778  31.781  1.00  0.00     0.022 A 
BRANCH  82  85
ATOM     85  S   UNL A   1      38.595  29.810  33.273  1.00  0.00     0.127 S 
ATOM     86  O   UNL A   1      37.487  30.510  32.630  1.00  0.00    -0.237 OA
ATOM     87  O   UNL A   1      38.738  28.407  32.886  1.00  0.00    -0.237 OA
ATOM     88  O   UNL A   1      38.799  30.064  34.691  1.00  0.00    -0.744 OA
ENDBRANCH  82  85
ENDBRANCH  54  78
BRANCH  66  89
ATOM     89  C   UNL A   1      44.900  24.146  33.299  1.00  0.00     0.023 A 
ATOM     90  C   UNL A   1      43.849  23.265  33.626  1.00  0.00     0.012 A 
ATOM     91  C   UNL A   1      46.142  23.914  33.943  1.00  0.00     0.148 A 
ATOM     92  C   UNL A   1      43.983  22.277  34.607  1.00  0.00     0.002 A 
ATOM     93  C   UNL A   1      46.304  22.850  34.829  1.00  0.00     0.091 A 
ATOM     94  F   UNL A   1      47.175  24.737  33.718  1.00  0.00    -0.205 F 
ATOM     95  C   UNL A   1      45.218  22.056  35.198  1.00  0.00     0.022 A 
BRANCH  93  96
ATOM     96  S   UNL A   1      47.937  22.363  35.405  1.00  0.00     0.127 S 
ATOM     97  O   UNL A   1      48.123  23.230  36.566  1.00  0.00    -0.237 OA
ATOM     98  O   UNL A   1      47.750  20.947  35.726  1.00  0.00    -0.237 OA
ATOM     99  O   UNL A   1      48.823  22.603  34.273  1.00  0.00    -0.744 OA
ENDBRANCH  93  96
ENDBRANCH  66  89
ENDBRANCH  40  41
ENDBRANCH  32  35
ENDBRANCH  30  31
ENDBRANCH   1  30
TORSDOF 15
ENDMDL
MODEL 2
REMARK VINA RESULT:     -13.4      1.267      3.115
REMARK SMILES Cc1ccccc1[C@@H]1[NH2+][C@@H](C(=O)NCCCCNC(=O)c2ccc(-c3c4nc(c(-c5cccc(S(=O)(=O)[O-])c5F)c5ccc([nH]5)c(-c5cccc(S(=O)(=O)[O-])c5F)c5nc(c(-c6cccc(S(=O)(=O)[O-])c6F)c6ccc3[nH]6)C=C5)C=C4)cc2)CC2=c3ccccc3=N[C@@H]21
REMARK SMILES IDX 16 1 15 2 14 3 13 4 11 5 12 6 10 8 8 9 9 10 93 11 85 14
REMARK SMILES IDX 92 15 84 16 86 17 91 18 87 19 90 20 88 21 89 22 7 23 1 24
REMARK SMILES IDX 2 25 3 26 4 27 6 28 5 29 17 30 18 31 19 32 20 34 21 35 22 36
REMARK SMILES IDX 83 37 23 38 82 39 24 40 25 41 26 42 76 43 27 44 81 45 75 46
REMARK SMILES IDX 77 47 28 48 80 49 74 50 73 51 29 53 61 54 41 55 60 56 42 57
REMARK SMILES IDX 45 58 59 59 78 60 43 61 44 62 58 64 79 65 46 66 30 67 31 68
REMARK SMILES IDX 39 69 32 70 34 71 40 72 33 73 35 74 36 75 37 76 38 77 62 78
REMARK SMILES IDX 63 79 71 80 64 81 66 82 72 83 65 84 67 85 68 86 69 87 70 88
REMARK SMILES IDX 47 89 48 90 56 91 49 92 51 93 57 94 50 95 52 96 53 97 54 98
REMARK SMILES IDX 55 99
REMARK H PARENT 13 7 9 12 9 13 18 33 77 52 45 63
REMARK Flexibility Score: inf
ROOT
ATOM      1  C   UNL A   1      33.590  29.253  26.420  1.00  0.00     0.023 C 
ENDROOT
BRANCH   1   2
ATOM      2  C   UNL A   1      32.510  28.154  26.186  1.00  0.00     0.023 C 
BRANCH   2   3
ATOM      3  C   UNL A   1      32.613  26.604  26.404  1.00  0.00     0.116 C 
BRANCH   3   4
ATOM      4  N   UNL A   1      31.525  25.645  26.797  1.00  0.00    -0.351 N 
ATOM      5  C   UNL A   1      31.379  24.236  26.697  1.00  0.00     0.278 C 
ATOM      6  O   UNL A   1      30.687  23.585  27.471  1.00  0.00    -0.268 OA
ATOM      7  H   UNL A   1      30.750  26.087  27.212  1.00  0.00     0.163 HD
BRANCH   5   8
ATOM      8  C   UNL A   1      31.967  23.695  25.402  1.00  0.00     0.277 C 
ATOM      9  C   UNL A   1      31.779  24.873  23.128  1.00  0.00     0.243 C 
ATOM     10  N   UNL A   1      31.728  24.847  24.569  1.00  0.00    -0.327 N 
ATOM     11  C   UNL A   1      32.936  23.869  22.638  1.00  0.00     0.196 C 
ATOM     12  H   UNL A   1      30.787  25.161  24.809  1.00  0.00     0.347 HD
ATOM     13  H   UNL A   1      32.561  25.394  24.783  1.00  0.00     0.347 HD
ATOM     14  C   UNL A   1      33.000  22.634  23.595  1.00  0.00    -0.024 C 
ATOM     15  N   UNL A   1      34.336  24.399  22.682  1.00  0.00    -0.270 NA
ATOM     16  C   UNL A   1      31.817  22.434  24.567  1.00  0.00     0.109 C 
ATOM     17  C   UNL A   1      34.263  22.393  23.990  1.00  0.00     0.002 A 
ATOM     18  C   UNL A   1      34.999  23.537  23.402  1.00  0.00     0.066 A 
ATOM     19  C   UNL A   1      34.768  21.736  25.177  1.00  0.00     0.010 A 
ATOM     20  C   UNL A   1      36.414  23.685  23.857  1.00  0.00     0.028 A 
ATOM     21  C   UNL A   1      35.986  22.058  25.644  1.00  0.00     0.001 A 
ATOM     22  C   UNL A   1      36.839  22.985  24.927  1.00  0.00     0.002 A 
BRANCH   9  23
ATOM     23  C   UNL A   1      31.453  26.393  22.825  1.00  0.00     0.015 A 
ATOM     24  C   UNL A   1      29.110  26.291  23.823  1.00  0.00     0.045 C 
ATOM     25  C   UNL A   1      30.283  27.034  23.264  1.00  0.00    -0.042 A 
ATOM     26  C   UNL A   1      30.244  28.457  23.360  1.00  0.00     0.004 A 
ATOM     27  C   UNL A   1      31.329  29.273  23.033  1.00  0.00     0.000 A 
ATOM     28  C   UNL A   1      32.517  27.298  22.465  1.00  0.00     0.010 A 
ATOM     29  C   UNL A   1      32.476  28.686  22.568  1.00  0.00     0.001 A 
ENDBRANCH   9  23
ENDBRANCH   5   8
ENDBRANCH   3   4
ENDBRANCH   2   3
ENDBRANCH   1   2
BRANCH   1  30
ATOM     30  C   UNL A   1      33.838  29.631  27.863  1.00  0.00     0.116 C 
BRANCH  30  31
ATOM     31  N   UNL A   1      34.663  30.826  28.093  1.00  0.00    -0.352 N 
ATOM     32  C   UNL A   1      36.017  30.839  28.429  1.00  0.00     0.251 C 
ATOM     33  H   UNL A   1      34.218  31.700  28.001  1.00  0.00     0.163 HD
ATOM     34  O   UNL A   1      36.620  31.882  28.660  1.00  0.00    -0.269 OA
BRANCH  32  35
ATOM     35  C   UNL A   1      36.704  29.527  28.441  1.00  0.00     0.039 A 
ATOM     36  C   UNL A   1      37.166  29.069  29.677  1.00  0.00     0.014 A 
ATOM     37  C   UNL A   1      37.296  29.116  27.246  1.00  0.00     0.014 A 
ATOM     38  C   UNL A   1      38.405  28.443  29.735  1.00  0.00     0.010 A 
ATOM     39  C   UNL A   1      38.571  28.593  27.311  1.00  0.00     0.010 A 
ATOM     40  C   UNL A   1      39.148  28.328  28.560  1.00  0.00    -0.014 A 
BRANCH  40  41
ATOM     41  C   UNL A   1      40.503  27.808  28.533  1.00  0.00     0.031 A 
ATOM     42  C   UNL A   1      40.635  26.358  28.346  1.00  0.00     0.074 A 
ATOM     43  C   UNL A   1      41.590  28.591  28.694  1.00  0.00     0.049 A 
ATOM     44  N   UNL A   1      41.598  25.644  28.809  1.00  0.00    -0.248 NA
ATOM     45  C   UNL A   1      39.592  25.590  27.678  1.00  0.00     0.031 C 
ATOM     46  C   UNL A   1      42.987  28.222  28.487  1.00  0.00     0.029 A 
ATOM     47  N   UNL A   1      41.655  29.837  29.318  1.00  0.00    -0.354 N 
ATOM     48  C   UNL A   1      41.444  24.378  28.284  1.00  0.00     0.074 A 
ATOM     49  C   UNL A   1      40.135  24.374  27.679  1.00  0.00     0.031 C 
ATOM     50  C   UNL A   1      43.764  29.055  29.200  1.00  0.00     0.029 A 
ATOM     51  C   UNL A   1      42.879  29.876  30.012  1.00  0.00     0.049 A 
ATOM     52  H   UNL A   1      40.977  30.551  29.279  1.00  0.00     0.167 HD
ATOM     53  C   UNL A   1      42.511  23.534  28.274  1.00  0.00     0.034 A 
ATOM     54  C   UNL A   1      42.981  30.078  31.359  1.00  0.00     0.034 A 
ATOM     55  C   UNL A   1      43.646  24.129  28.999  1.00  0.00     0.049 A 
ATOM     56  C   UNL A   1      43.718  28.956  32.066  1.00  0.00     0.074 A 
ATOM     57  C   UNL A   1      44.738  24.869  28.574  1.00  0.00     0.029 A 
ATOM     58  N   UNL A   1      43.574  24.295  30.380  1.00  0.00    -0.354 N 
ATOM     59  N   UNL A   1      44.028  27.819  31.507  1.00  0.00    -0.248 NA
ATOM     60  C   UNL A   1      44.102  29.006  33.474  1.00  0.00     0.031 C 
ATOM     61  C   UNL A   1      45.270  25.553  29.699  1.00  0.00     0.029 A 
ATOM     62  C   UNL A   1      44.526  25.208  30.816  1.00  0.00     0.049 A 
ATOM     63  H   UNL A   1      42.936  23.829  30.966  1.00  0.00     0.167 HD
ATOM     64  C   UNL A   1      44.462  26.943  32.468  1.00  0.00     0.074 A 
ATOM     65  C   UNL A   1      44.585  27.766  33.660  1.00  0.00     0.031 C 
ATOM     66  C   UNL A   1      44.599  25.602  32.221  1.00  0.00     0.034 A 
BRANCH  53  67
ATOM     67  C   UNL A   1      42.647  22.380  27.290  1.00  0.00     0.023 A 
ATOM     68  C   UNL A   1      41.871  21.227  27.544  1.00  0.00     0.012 A 
ATOM     69  C   UNL A   1      43.541  22.289  26.197  1.00  0.00     0.148 A 
ATOM     70  C   UNL A   1      42.050  20.029  26.844  1.00  0.00     0.002 A 
ATOM     71  C   UNL A   1      43.779  21.072  25.549  1.00  0.00     0.091 A 
ATOM     72  F   UNL A   1      44.099  23.395  25.699  1.00  0.00    -0.205 F 
ATOM     73  C   UNL A   1      43.036  19.938  25.875  1.00  0.00     0.022 A 
BRANCH  71  74
ATOM     74  S   UNL A   1      45.098  20.864  24.336  1.00  0.00     0.127 S 
ATOM     75  O   UNL A   1      44.698  21.798  23.281  1.00  0.00    -0.237 OA
ATOM     76  O   UNL A   1      46.283  21.269  25.088  1.00  0.00    -0.237 OA
ATOM     77  O   UNL A   1      45.056  19.463  23.932  1.00  0.00    -0.744 OA
ENDBRANCH  71  74
ENDBRANCH  53  67
BRANCH  54  78
ATOM     78  C   UNL A   1      41.820  30.819  31.943  1.00  0.00     0.023 A 
ATOM     79  C   UNL A   1      41.543  32.100  31.411  1.00  0.00     0.012 A 
ATOM     80  C   UNL A   1      40.803  30.146  32.640  1.00  0.00     0.148 A 
ATOM     81  C   UNL A   1      40.233  32.580  31.376  1.00  0.00     0.002 A 
ATOM     82  C   UNL A   1      39.505  30.651  32.617  1.00  0.00     0.091 A 
ATOM     83  F   UNL A   1      41.089  28.992  33.256  1.00  0.00    -0.205 F 
ATOM     84  C   UNL A   1      39.204  31.825  31.917  1.00  0.00     0.022 A 
BRANCH  82  85
ATOM     85  S   UNL A   1      38.168  29.778  33.431  1.00  0.00     0.127 S 
ATOM     86  O   UNL A   1      38.468  30.041  34.836  1.00  0.00    -0.237 OA
ATOM     87  O   UNL A   1      36.978  30.460  32.922  1.00  0.00    -0.237 OA
ATOM     88  O   UNL A   1      38.313  28.404  32.973  1.00  0.00    -0.744 OA
ENDBRANCH  82  85
ENDBRANCH  54  78
BRANCH  66  89
ATOM     89  C   UNL A   1      44.813  24.547  33.292  1.00  0.00     0.023 A 
ATOM     90  C   UNL A   1      43.838  23.575  33.597  1.00  0.00     0.012 A 
ATOM     91  C   UNL A   1      46.065  24.411  33.945  1.00  0.00     0.148 A 
ATOM     92  C   UNL A   1      44.047  22.588  34.566  1.00  0.00     0.002 A 
ATOM     93  C   UNL A   1      46.310  23.352  34.818  1.00  0.00     0.091 A 
ATOM     94  F   UNL A   1      47.026  25.321  33.741  1.00  0.00    -0.205 F 
ATOM     95  C   UNL A   1      45.291  22.464  35.165  1.00  0.00     0.022 A 
BRANCH  93  96
ATOM     96  S   UNL A   1      47.973  22.997  35.402  1.00  0.00     0.127 S 
ATOM     97  O   UNL A   1      48.735  22.970  34.155  1.00  0.00    -0.237 OA
ATOM     98  O   UNL A   1      48.258  24.146  36.263  1.00  0.00    -0.237 OA
ATOM     99  O   UNL A   1      47.860  21.732  36.117  1.00  0.00    -0.744 OA
ENDBRANCH  93  96
ENDBRANCH  66  89
ENDBRANCH  40  41
ENDBRANCH  32  35
ENDBRANCH  30  31
ENDBRANCH   1  30
TORSDOF 15
ENDMDL
MODEL 3
REMARK VINA RESULT:     -13.2      3.971      5.691
REMARK SMILES Cc1ccccc1[C@@H]1[NH2+][C@@H](C(=O)NCCCCNC(=O)c2ccc(-c3c4nc(c(-c5cccc(S(=O)(=O)[O-])c5F)c5ccc([nH]5)c(-c5cccc(S(=O)(=O)[O-])c5F)c5nc(c(-c6cccc(S(=O)(=O)[O-])c6F)c6ccc3[nH]6)C=C5)C=C4)cc2)CC2=c3ccccc3=N[C@@H]21
REMARK SMILES IDX 16 1 15 2 14 3 13 4 11 5 12 6 10 8 8 9 9 10 93 11 85 14
REMARK SMILES IDX 92 15 84 16 86 17 91 18 87 19 90 20 88 21 89 22 7 23 1 24
REMARK SMILES IDX 2 25 3 26 4 27 6 28 5 29 17 30 18 31 19 32 20 34 21 35 22 36
REMARK SMILES IDX 83 37 23 38 82 39 24 40 25 41 26 42 76 43 27 44 81 45 75 46
REMARK SMILES IDX 77 47 28 48 80 49 74 50 73 51 29 53 61 54 41 55 60 56 42 57
REMARK SMILES IDX 45 58 59 59 78 60 43 61 44 62 58 64 79 65 46 66 30 67 31 68
REMARK SMILES IDX 39 69 32 70 34 71 40 72 33 73 35 74 36 75 37 76 38 77 62 78
REMARK SMILES IDX 63 79 71 80 64 81 66 82 72 83 65 84 67 85 68 86 69 87 70 88
REMARK SMILES IDX 47 89 48 90 56 91 49 92 51 93 57 94 50 95 52 96 53 97 54 98
REMARK SMILES IDX 55 99
REMARK H PARENT 13 7 9 12 9 13 18 33 77 52 45 63
REMARK Flexibility Score: inf
ROOT
ATOM      1  C   UNL A   1      34.732  32.906  28.151  1.00  0.00     0.023 C 
ENDROOT
BRANCH   1   2
ATOM      2  C   UNL A   1      34.505  31.418  27.747  1.00  0.00     0.023 C 
BRANCH   2   3
ATOM      3  C   UNL A   1      33.287  30.769  27.004  1.00  0.00     0.116 C 
BRANCH   3   4
ATOM      4  N   UNL A   1      32.238  29.848  27.561  1.00  0.00    -0.351 N 
ATOM      5  C   UNL A   1      31.674  28.624  27.116  1.00  0.00     0.278 C 
ATOM      6  O   UNL A   1      31.212  27.789  27.885  1.00  0.00    -0.268 OA
ATOM      7  H   UNL A   1      31.864  30.160  28.416  1.00  0.00     0.163 HD
BRANCH   5   8
ATOM      8  C   UNL A   1      31.493  28.598  25.605  1.00  0.00     0.277 C 
ATOM      9  C   UNL A   1      31.335  26.451  24.207  1.00  0.00     0.243 C 
ATOM     10  N   UNL A   1      31.272  27.183  25.447  1.00  0.00    -0.327 N 
ATOM     11  C   UNL A   1      30.780  27.393  23.028  1.00  0.00     0.196 C 
ATOM     12  H   UNL A   1      31.956  26.735  26.057  1.00  0.00     0.347 HD
ATOM     13  H   UNL A   1      30.268  27.141  25.624  1.00  0.00     0.347 HD
ATOM     14  C   UNL A   1      31.184  28.877  23.306  1.00  0.00    -0.024 C 
ATOM     15  N   UNL A   1      29.291  27.472  22.887  1.00  0.00    -0.270 NA
ATOM     16  C   UNL A   1      32.249  29.125  24.396  1.00  0.00     0.109 C 
ATOM     17  C   UNL A   1      30.126  29.698  23.180  1.00  0.00     0.002 A 
ATOM     18  C   UNL A   1      29.015  28.745  22.948  1.00  0.00     0.066 A 
ATOM     19  C   UNL A   1      29.862  30.992  23.775  1.00  0.00     0.010 A 
ATOM     20  C   UNL A   1      27.646  29.340  22.995  1.00  0.00     0.028 A 
ATOM     21  C   UNL A   1      28.593  31.388  23.963  1.00  0.00     0.001 A 
ATOM     22  C   UNL A   1      27.482  30.581  23.495  1.00  0.00     0.002 A 
BRANCH   9  23
ATOM     23  C   UNL A   1      30.986  24.982  24.685  1.00  0.00     0.015 A 
ATOM     24  C   UNL A   1      32.317  23.852  22.828  1.00  0.00     0.045 C 
ATOM     25  C   UNL A   1      31.548  23.830  24.112  1.00  0.00    -0.042 A 
ATOM     26  C   UNL A   1      31.559  22.603  24.842  1.00  0.00     0.004 A 
ATOM     27  C   UNL A   1      31.026  22.477  26.127  1.00  0.00     0.000 A 
ATOM     28  C   UNL A   1      30.419  24.768  25.994  1.00  0.00     0.010 A 
ATOM     29  C   UNL A   1      30.439  23.571  26.705  1.00  0.00     0.001 A 
ENDBRANCH   9  23
ENDBRANCH   5   8
ENDBRANCH   3   4
ENDBRANCH   2   3
ENDBRANCH   1   2
BRANCH   1  30
ATOM     30  C   UNL A   1      34.998  33.153  29.620  1.00  0.00     0.116 C 
BRANCH  30  31
ATOM     31  N   UNL A   1      33.928  33.821  30.374  1.00  0.00    -0.352 N 
ATOM     32  C   UNL A   1      33.966  34.165  31.726  1.00  0.00     0.251 C 
ATOM     33  H   UNL A   1      33.108  34.048  29.880  1.00  0.00     0.163 HD
ATOM     34  O   UNL A   1      33.005  34.672  32.296  1.00  0.00    -0.269 OA
BRANCH  32  35
ATOM     35  C   UNL A   1      35.250  33.935  32.428  1.00  0.00     0.039 A 
ATOM     36  C   UNL A   1      36.302  34.801  32.118  1.00  0.00     0.014 A 
ATOM     37  C   UNL A   1      35.487  32.642  32.897  1.00  0.00     0.014 A 
ATOM     38  C   UNL A   1      37.581  34.277  31.990  1.00  0.00     0.010 A 
ATOM     39  C   UNL A   1      36.734  32.098  32.667  1.00  0.00     0.010 A 
ATOM     40  C   UNL A   1      37.756  32.901  32.144  1.00  0.00    -0.014 A 
BRANCH  40  41
ATOM     41  C   UNL A   1      39.024  32.236  31.904  1.00  0.00     0.031 A 
ATOM     42  C   UNL A   1      38.960  30.974  31.158  1.00  0.00     0.074 A 
ATOM     43  C   UNL A   1      40.200  32.721  32.354  1.00  0.00     0.049 A 
ATOM     44  N   UNL A   1      39.787  30.000  31.294  1.00  0.00    -0.248 NA
ATOM     45  C   UNL A   1      37.856  30.695  30.249  1.00  0.00     0.031 C 
ATOM     46  C   UNL A   1      41.540  32.257  32.008  1.00  0.00     0.029 A 
ATOM     47  N   UNL A   1      40.406  33.598  33.419  1.00  0.00    -0.354 N 
ATOM     48  C   UNL A   1      39.485  29.080  30.313  1.00  0.00     0.074 A 
ATOM     49  C   UNL A   1      38.222  29.510  29.765  1.00  0.00     0.031 C 
ATOM     50  C   UNL A   1      42.388  32.617  32.988  1.00  0.00     0.029 A 
ATOM     51  C   UNL A   1      41.584  33.178  34.064  1.00  0.00     0.049 A 
ATOM     52  H   UNL A   1      39.839  34.363  33.670  1.00  0.00     0.167 HD
ATOM     53  C   UNL A   1      40.422  28.157  29.963  1.00  0.00     0.034 A 
ATOM     54  C   UNL A   1      41.642  32.818  35.381  1.00  0.00     0.034 A 
ATOM     55  C   UNL A   1      41.589  28.243  30.857  1.00  0.00     0.049 A 
ATOM     56  C   UNL A   1      42.175  31.412  35.581  1.00  0.00     0.074 A 
ATOM     57  C   UNL A   1      42.796  28.917  30.751  1.00  0.00     0.029 A 
ATOM     58  N   UNL A   1      41.468  27.863  32.191  1.00  0.00    -0.354 N 
ATOM     59  N   UNL A   1      42.352  30.552  34.616  1.00  0.00    -0.248 NA
ATOM     60  C   UNL A   1      42.488  30.849  36.892  1.00  0.00     0.031 C 
ATOM     61  C   UNL A   1      43.357  29.017  32.052  1.00  0.00     0.029 A 
ATOM     62  C   UNL A   1      42.514  28.379  32.946  1.00  0.00     0.049 A 
ATOM     63  H   UNL A   1      40.740  27.306  32.550  1.00  0.00     0.167 HD
ATOM     64  C   UNL A   1      42.607  29.316  35.150  1.00  0.00     0.074 A 
ATOM     65  C   UNL A   1      42.781  29.578  36.569  1.00  0.00     0.031 C 
ATOM     66  C   UNL A   1      42.567  28.175  34.392  1.00  0.00     0.034 A 
BRANCH  53  67
ATOM     67  C   UNL A   1      40.446  27.474  28.603  1.00  0.00     0.023 A 
ATOM     68  C   UNL A   1      39.509  26.439  28.388  1.00  0.00     0.012 A 
ATOM     69  C   UNL A   1      41.370  27.691  27.553  1.00  0.00     0.148 A 
ATOM     70  C   UNL A   1      39.557  25.599  27.271  1.00  0.00     0.002 A 
ATOM     71  C   UNL A   1      41.472  26.806  26.475  1.00  0.00     0.091 A 
ATOM     72  F   UNL A   1      42.096  28.811  27.527  1.00  0.00    -0.205 F 
ATOM     73  C   UNL A   1      40.566  25.754  26.334  1.00  0.00     0.022 A 
BRANCH  71  74
ATOM     74  S   UNL A   1      42.806  26.902  25.266  1.00  0.00     0.127 S 
ATOM     75  O   UNL A   1      43.993  26.987  26.120  1.00  0.00    -0.237 OA
ATOM     76  O   UNL A   1      42.668  25.640  24.545  1.00  0.00    -0.237 OA
ATOM     77  O   UNL A   1      42.555  28.106  24.483  1.00  0.00    -0.744 OA
ENDBRANCH  71  74
ENDBRANCH  53  67
BRANCH  54  78
ATOM     78  C   UNL A   1      40.568  33.437  36.217  1.00  0.00     0.023 A 
ATOM     79  C   UNL A   1      39.472  32.614  36.566  1.00  0.00     0.012 A 
ATOM     80  C   UNL A   1      40.813  34.589  36.982  1.00  0.00     0.148 A 
ATOM     81  C   UNL A   1      38.797  32.812  37.771  1.00  0.00     0.002 A 
ATOM     82  C   UNL A   1      40.113  34.787  38.170  1.00  0.00     0.091 A 
ATOM     83  F   UNL A   1      41.767  35.442  36.586  1.00  0.00    -0.205 F 
ATOM     84  C   UNL A   1      39.163  33.857  38.606  1.00  0.00     0.022 A 
BRANCH  82  85
ATOM     85  S   UNL A   1      40.455  36.206  39.209  1.00  0.00     0.127 S 
ATOM     86  O   UNL A   1      39.750  37.264  38.490  1.00  0.00    -0.237 OA
ATOM     87  O   UNL A   1      39.850  35.827  40.485  1.00  0.00    -0.237 OA
ATOM     88  O   UNL A   1      41.908  36.284  39.235  1.00  0.00    -0.744 OA
ENDBRANCH  82  85
ENDBRANCH  54  78
BRANCH  66  89
ATOM     89  C   UNL A   1      42.573  26.765  34.957  1.00  0.00     0.023 A 
ATOM     90  C   UNL A   1      41.451  26.209  35.605  1.00  0.00     0.012 A 
ATOM     91  C   UNL A   1      43.672  25.895  34.740  1.00  0.00     0.148 A 
ATOM     92  C   UNL A   1      41.450  24.901  36.102  1.00  0.00     0.002 A 
ATOM     93  C   UNL A   1      43.618  24.557  35.128  1.00  0.00     0.091 A 
ATOM     94  F   UNL A   1      44.791  26.363  34.171  1.00  0.00    -0.205 F 
ATOM     95  C   UNL A   1      42.528  24.067  35.848  1.00  0.00     0.022 A 
BRANCH  93  96
ATOM     96  S   UNL A   1      44.866  23.382  34.583  1.00  0.00     0.127 S 
ATOM     97  O   UNL A   1      44.853  23.574  33.134  1.00  0.00    -0.237 OA
ATOM     98  O   UNL A   1      46.074  23.871  35.251  1.00  0.00    -0.237 OA
ATOM     99  O   UNL A   1      44.402  22.088  35.067  1.00  0.00    -0.744 OA
ENDBRANCH  93  96
ENDBRANCH  66  89
ENDBRANCH  40  41
ENDBRANCH  32  35
ENDBRANCH  30  31
ENDBRANCH   1  30
TORSDOF 15
ENDMDL
