MODEL 1
REMARK VINA RESULT:     -12.2      0.000      0.000
REMARK SMILES CCc1cc(Nc2ccc(C(=O)NCCCCNC(=O)c3ccc(-c4c5nc(c(-c6cccc(S(=O)(=O)[O-])c6F)c6ccc([nH]6)c(-c6cccc(S(=O)(=O)[O-])c6F)c6nc(c(-c7cccc(S(=O)(=O)[O-])c7F)c7ccc4[nH]7)C=C6)C=C5)cc3)cc2)nc(C(C)C)n1
REMARK SMILES IDX 15 1 14 2 13 3 11 4 12 5 10 7 7 8 8 9 85 10 9 11 84 12 6 13
REMARK SMILES IDX 5 15 3 16 4 17 91 18 87 19 86 20 2 21 1 22 88 23 89 24 90 25
REMARK SMILES IDX 16 26 17 27 18 28 19 29 20 31 21 32 22 33 83 34 23 35 82 36
REMARK SMILES IDX 24 37 25 38 26 39 76 40 27 41 81 42 75 43 77 44 28 45 80 46
REMARK SMILES IDX 74 47 73 48 29 50 61 51 41 52 60 53 42 54 45 55 59 56 78 57
REMARK SMILES IDX 43 58 44 59 58 61 79 62 46 63 30 64 31 65 39 66 32 67 34 68
REMARK SMILES IDX 40 69 33 70 35 71 36 72 37 73 38 74 62 75 63 76 71 77 64 78
REMARK SMILES IDX 66 79 72 80 65 81 67 82 68 83 69 84 70 85 47 86 48 87 56 88
REMARK SMILES IDX 49 89 51 90 57 91 50 92 52 93 53 94 54 95 55 96
REMARK H PARENT 13 6 6 14 18 30 77 49 45 60
REMARK Flexibility Score: inf
ROOT
ATOM      1  C   UNL A   1      33.766  28.434  24.261  1.00  0.00     0.023 C 
ENDROOT
BRANCH   1   2
ATOM      2  C   UNL A   1      33.532  28.270  22.757  1.00  0.00     0.116 C 
BRANCH   2   3
ATOM      3  N   UNL A   1      32.139  28.512  22.440  1.00  0.00    -0.352 N 
ATOM      4  C   UNL A   1      31.022  27.722  22.547  1.00  0.00     0.251 C 
ATOM      5  O   UNL A   1      29.947  28.195  22.181  1.00  0.00    -0.269 OA
ATOM      6  H   UNL A   1      31.959  29.411  22.081  1.00  0.00     0.163 HD
BRANCH   4   7
ATOM      7  C   UNL A   1      31.041  26.354  23.140  1.00  0.00     0.039 A 
ATOM      8  C   UNL A   1      31.165  23.872  24.482  1.00  0.00     0.040 A 
ATOM      9  C   UNL A   1      30.646  24.997  25.125  1.00  0.00     0.027 A 
ATOM     10  C   UNL A   1      31.555  23.984  23.147  1.00  0.00     0.027 A 
ATOM     11  C   UNL A   1      30.602  26.231  24.467  1.00  0.00     0.016 A 
ATOM     12  C   UNL A   1      31.451  25.200  22.470  1.00  0.00     0.016 A 
BRANCH   8  13
ATOM     13  N   UNL A   1      31.258  22.649  25.151  1.00  0.00    -0.340 N 
ATOM     14  H   UNL A   1      30.488  22.398  25.711  1.00  0.00     0.168 HD
BRANCH  13  15
ATOM     15  C   UNL A   1      32.324  21.735  25.115  1.00  0.00     0.134 A 
ATOM     16  C   UNL A   1      34.621  21.263  25.419  1.00  0.00     0.046 A 
ATOM     17  C   UNL A   1      33.585  22.174  25.471  1.00  0.00     0.071 A 
ATOM     18  N   UNL A   1      34.423  19.994  25.004  1.00  0.00    -0.238 NA
ATOM     19  C   UNL A   1      33.171  19.644  24.657  1.00  0.00     0.133 A 
ATOM     20  N   UNL A   1      32.112  20.469  24.717  1.00  0.00    -0.216 NA
BRANCH  16  21
ATOM     21  C   UNL A   1      36.046  21.615  25.762  1.00  0.00     0.053 C 
ATOM     22  C   UNL A   1      36.401  23.096  25.769  1.00  0.00     0.011 C 
ENDBRANCH  16  21
BRANCH  19  23
ATOM     23  C   UNL A   1      32.935  18.254  24.108  1.00  0.00     0.051 C 
ATOM     24  C   UNL A   1      32.293  18.322  22.722  1.00  0.00     0.016 C 
ATOM     25  C   UNL A   1      34.229  17.442  24.071  1.00  0.00     0.016 C 
ENDBRANCH  19  23
ENDBRANCH  13  15
ENDBRANCH   8  13
ENDBRANCH   4   7
ENDBRANCH   2   3
ENDBRANCH   1   2
BRANCH   1  26
ATOM     26  C   UNL A   1      32.858  29.479  24.918  1.00  0.00     0.023 C 
BRANCH  26  27
ATOM     27  C   UNL A   1      33.141  29.729  26.395  1.00  0.00     0.116 C 
BRANCH  27  28
ATOM     28  N   UNL A   1      32.966  31.121  26.777  1.00  0.00    -0.352 N 
ATOM     29  C   UNL A   1      33.749  31.895  27.599  1.00  0.00     0.251 C 
ATOM     30  H   UNL A   1      32.178  31.570  26.395  1.00  0.00     0.163 HD
ATOM     31  O   UNL A   1      33.373  33.015  27.918  1.00  0.00    -0.269 OA
BRANCH  29  32
ATOM     32  C   UNL A   1      35.023  31.354  28.118  1.00  0.00     0.039 A 
ATOM     33  C   UNL A   1      36.150  32.178  28.102  1.00  0.00     0.014 A 
ATOM     34  C   UNL A   1      35.109  30.053  28.620  1.00  0.00     0.014 A 
ATOM     35  C   UNL A   1      37.352  31.708  28.630  1.00  0.00     0.010 A 
ATOM     36  C   UNL A   1      36.286  29.618  29.224  1.00  0.00     0.010 A 
ATOM     37  C   UNL A   1      37.424  30.435  29.223  1.00  0.00    -0.014 A 
BRANCH  37  38
ATOM     38  C   UNL A   1      38.687  29.977  29.854  1.00  0.00     0.031 A 
ATOM     39  C   UNL A   1      39.122  30.508  31.194  1.00  0.00     0.074 A 
ATOM     40  C   UNL A   1      39.464  29.093  29.197  1.00  0.00     0.049 A 
ATOM     41  N   UNL A   1      40.148  30.153  31.924  1.00  0.00    -0.248 NA
ATOM     42  C   UNL A   1      38.319  31.594  31.780  1.00  0.00     0.031 C 
ATOM     43  C   UNL A   1      39.207  28.583  27.848  1.00  0.00     0.029 A 
ATOM     44  N   UNL A   1      40.628  28.470  29.569  1.00  0.00    -0.354 N 
ATOM     45  C   UNL A   1      40.129  30.983  33.039  1.00  0.00     0.074 A 
ATOM     46  C   UNL A   1      39.015  31.890  32.870  1.00  0.00     0.031 C 
ATOM     47  C   UNL A   1      40.165  27.702  27.520  1.00  0.00     0.029 A 
ATOM     48  C   UNL A   1      41.117  27.604  28.621  1.00  0.00     0.049 A 
ATOM     49  H   UNL A   1      41.070  28.629  30.435  1.00  0.00     0.167 HD
ATOM     50  C   UNL A   1      40.943  30.971  34.121  1.00  0.00     0.034 A 
ATOM     51  C   UNL A   1      42.205  26.812  28.639  1.00  0.00     0.034 A 
ATOM     52  C   UNL A   1      42.034  30.049  34.297  1.00  0.00     0.049 A 
ATOM     53  C   UNL A   1      43.057  26.773  29.878  1.00  0.00     0.074 A 
ATOM     54  C   UNL A   1      42.863  29.895  35.395  1.00  0.00     0.029 A 
ATOM     55  N   UNL A   1      42.459  29.135  33.345  1.00  0.00    -0.354 N 
ATOM     56  N   UNL A   1      42.915  27.438  30.999  1.00  0.00    -0.248 NA
ATOM     57  C   UNL A   1      44.193  25.843  29.869  1.00  0.00     0.031 C 
ATOM     58  C   UNL A   1      43.812  28.911  35.091  1.00  0.00     0.029 A 
ATOM     59  C   UNL A   1      43.548  28.423  33.822  1.00  0.00     0.049 A 
ATOM     60  H   UNL A   1      42.048  29.010  32.460  1.00  0.00     0.167 HD
ATOM     61  C   UNL A   1      43.924  26.984  31.840  1.00  0.00     0.074 A 
ATOM     62  C   UNL A   1      44.645  25.961  31.109  1.00  0.00     0.031 C 
ATOM     63  C   UNL A   1      44.238  27.387  33.097  1.00  0.00     0.034 A 
BRANCH  50  64
ATOM     64  C   UNL A   1      40.656  31.958  35.225  1.00  0.00     0.023 A 
ATOM     65  C   UNL A   1      41.487  33.086  35.390  1.00  0.00     0.012 A 
ATOM     66  C   UNL A   1      39.533  31.803  36.061  1.00  0.00     0.148 A 
ATOM     67  C   UNL A   1      41.229  34.022  36.389  1.00  0.00     0.002 A 
ATOM     68  C   UNL A   1      39.254  32.766  37.025  1.00  0.00     0.091 A 
ATOM     69  F   UNL A   1      38.765  30.715  35.906  1.00  0.00    -0.205 F 
ATOM     70  C   UNL A   1      40.107  33.869  37.199  1.00  0.00     0.022 A 
BRANCH  68  71
ATOM     71  S   UNL A   1      37.788  32.706  38.062  1.00  0.00     0.127 S 
ATOM     72  O   UNL A   1      36.722  32.881  37.077  1.00  0.00    -0.237 OA
ATOM     73  O   UNL A   1      37.874  31.363  38.635  1.00  0.00    -0.237 OA
ATOM     74  O   UNL A   1      37.931  33.789  39.025  1.00  0.00    -0.744 OA
ENDBRANCH  68  71
ENDBRANCH  50  64
BRANCH  51  75
ATOM     75  C   UNL A   1      42.510  25.936  27.471  1.00  0.00     0.023 A 
ATOM     76  C   UNL A   1      43.286  26.436  26.407  1.00  0.00     0.012 A 
ATOM     77  C   UNL A   1      42.051  24.606  27.421  1.00  0.00     0.148 A 
ATOM     78  C   UNL A   1      43.567  25.640  25.296  1.00  0.00     0.002 A 
ATOM     79  C   UNL A   1      42.385  23.800  26.340  1.00  0.00     0.091 A 
ATOM     80  F   UNL A   1      41.307  24.153  28.439  1.00  0.00    -0.205 F 
ATOM     81  C   UNL A   1      43.124  24.320  25.267  1.00  0.00     0.022 A 
BRANCH  79  82
ATOM     82  S   UNL A   1      41.976  22.052  26.282  1.00  0.00     0.127 S 
ATOM     83  O   UNL A   1      40.525  22.089  26.126  1.00  0.00    -0.237 OA
ATOM     84  O   UNL A   1      42.714  21.610  25.098  1.00  0.00    -0.237 OA
ATOM     85  O   UNL A   1      42.463  21.493  27.536  1.00  0.00    -0.744 OA
ENDBRANCH  79  82
ENDBRANCH  51  75
BRANCH  63  86
ATOM     86  C   UNL A   1      45.398  26.699  33.772  1.00  0.00     0.023 A 
ATOM     87  C   UNL A   1      46.699  27.227  33.650  1.00  0.00     0.012 A 
ATOM     88  C   UNL A   1      45.196  25.540  34.547  1.00  0.00     0.148 A 
ATOM     89  C   UNL A   1      47.787  26.582  34.237  1.00  0.00     0.002 A 
ATOM     90  C   UNL A   1      46.276  24.935  35.178  1.00  0.00     0.091 A 
ATOM     91  F   UNL A   1      43.955  25.039  34.640  1.00  0.00    -0.205 F 
ATOM     92  C   UNL A   1      47.574  25.442  35.007  1.00  0.00     0.022 A 
BRANCH  90  93
ATOM     93  S   UNL A   1      46.079  23.522  36.269  1.00  0.00     0.127 S 
ATOM     94  O   UNL A   1      45.128  24.035  37.254  1.00  0.00    -0.237 OA
ATOM     95  O   UNL A   1      45.534  22.506  35.367  1.00  0.00    -0.237 OA
ATOM     96  O   UNL A   1      47.411  23.222  36.778  1.00  0.00    -0.744 OA
ENDBRANCH  90  93
ENDBRANCH  63  86
ENDBRANCH  37  38
ENDBRANCH  29  32
ENDBRANCH  27  28
ENDBRANCH  26  27
ENDBRANCH   1  26
TORSDOF 18
ENDMDL
MODEL 2
REMARK VINA RESULT:     -12.2      1.340      2.205
REMARK SMILES CCc1cc(Nc2ccc(C(=O)NCCCCNC(=O)c3ccc(-c4c5nc(c(-c6cccc(S(=O)(=O)[O-])c6F)c6ccc([nH]6)c(-c6cccc(S(=O)(=O)[O-])c6F)c6nc(c(-c7cccc(S(=O)(=O)[O-])c7F)c7ccc4[nH]7)C=C6)C=C5)cc3)cc2)nc(C(C)C)n1
REMARK SMILES IDX 15 1 14 2 13 3 11 4 12 5 10 7 7 8 8 9 85 10 9 11 84 12 6 13
REMARK SMILES IDX 5 15 3 16 4 17 91 18 87 19 86 20 2 21 1 22 88 23 89 24 90 25
REMARK SMILES IDX 16 26 17 27 18 28 19 29 20 31 21 32 22 33 83 34 23 35 82 36
REMARK SMILES IDX 24 37 25 38 26 39 76 40 27 41 81 42 75 43 77 44 28 45 80 46
REMARK SMILES IDX 74 47 73 48 29 50 61 51 41 52 60 53 42 54 45 55 59 56 78 57
REMARK SMILES IDX 43 58 44 59 58 61 79 62 46 63 30 64 31 65 39 66 32 67 34 68
REMARK SMILES IDX 40 69 33 70 35 71 36 72 37 73 38 74 62 75 63 76 71 77 64 78
REMARK SMILES IDX 66 79 72 80 65 81 67 82 68 83 69 84 70 85 47 86 48 87 56 88
REMARK SMILES IDX 49 89 51 90 57 91 50 92 52 93 53 94 54 95 55 96
REMARK H PARENT 13 6 6 14 18 30 77 49 45 60
REMARK Flexibility Score: inf
ROOT
ATOM      1  C   UNL A   1      32.362  29.260  23.734  1.00  0.00     0.023 C 
ENDROOT
BRANCH   1   2
ATOM      2  C   UNL A   1      31.739  28.234  22.785  1.00  0.00     0.116 C 
BRANCH   2   3
ATOM      3  N   UNL A   1      30.304  28.183  22.979  1.00  0.00    -0.352 N 
ATOM      4  C   UNL A   1      29.479  27.209  23.482  1.00  0.00     0.251 C 
ATOM      5  O   UNL A   1      28.271  27.440  23.515  1.00  0.00    -0.269 OA
ATOM      6  H   UNL A   1      29.831  28.999  22.697  1.00  0.00     0.163 HD
BRANCH   4   7
ATOM      7  C   UNL A   1      29.980  25.921  24.044  1.00  0.00     0.039 A 
ATOM      8  C   UNL A   1      31.077  23.625  25.269  1.00  0.00     0.040 A 
ATOM      9  C   UNL A   1      30.661  24.709  26.045  1.00  0.00     0.027 A 
ATOM     10  C   UNL A   1      30.878  23.674  23.889  1.00  0.00     0.027 A 
ATOM     11  C   UNL A   1      30.135  25.854  25.436  1.00  0.00     0.016 A 
ATOM     12  C   UNL A   1      30.293  24.790  23.289  1.00  0.00     0.016 A 
BRANCH   8  13
ATOM     13  N   UNL A   1      31.650  22.500  25.867  1.00  0.00    -0.340 N 
ATOM     14  H   UNL A   1      31.198  22.156  26.671  1.00  0.00     0.168 HD
BRANCH  13  15
ATOM     15  C   UNL A   1      32.795  21.801  25.450  1.00  0.00     0.134 A 
ATOM     16  C   UNL A   1      33.828  19.777  24.799  1.00  0.00     0.046 A 
ATOM     17  C   UNL A   1      32.689  20.447  25.198  1.00  0.00     0.071 A 
ATOM     18  N   UNL A   1      35.015  20.409  24.688  1.00  0.00    -0.238 NA
ATOM     19  C   UNL A   1      35.044  21.726  24.967  1.00  0.00     0.133 A 
ATOM     20  N   UNL A   1      33.968  22.445  25.326  1.00  0.00    -0.216 NA
BRANCH  16  21
ATOM     21  C   UNL A   1      33.856  18.297  24.512  1.00  0.00     0.053 C 
ATOM     22  C   UNL A   1      32.942  17.800  23.399  1.00  0.00     0.011 C 
ENDBRANCH  16  21
BRANCH  19  23
ATOM     23  C   UNL A   1      36.376  22.442  24.933  1.00  0.00     0.051 C 
ATOM     24  C   UNL A   1      36.690  22.934  23.519  1.00  0.00     0.016 C 
ATOM     25  C   UNL A   1      36.415  23.595  25.935  1.00  0.00     0.016 C 
ENDBRANCH  19  23
ENDBRANCH  13  15
ENDBRANCH   8  13
ENDBRANCH   4   7
ENDBRANCH   2   3
ENDBRANCH   1   2
BRANCH   1  26
ATOM     26  C   UNL A   1      33.116  28.636  24.912  1.00  0.00     0.023 C 
BRANCH  26  27
ATOM     27  C   UNL A   1      32.610  29.060  26.288  1.00  0.00     0.116 C 
BRANCH  27  28
ATOM     28  N   UNL A   1      32.411  30.495  26.399  1.00  0.00    -0.352 N 
ATOM     29  C   UNL A   1      33.177  31.423  27.063  1.00  0.00     0.251 C 
ATOM     30  H   UNL A   1      31.619  30.852  25.936  1.00  0.00     0.163 HD
ATOM     31  O   UNL A   1      32.782  32.577  27.164  1.00  0.00    -0.269 OA
BRANCH  29  32
ATOM     32  C   UNL A   1      34.455  31.010  27.680  1.00  0.00     0.039 A 
ATOM     33  C   UNL A   1      35.445  31.977  27.868  1.00  0.00     0.014 A 
ATOM     34  C   UNL A   1      34.679  29.688  28.075  1.00  0.00     0.014 A 
ATOM     35  C   UNL A   1      36.641  31.623  28.491  1.00  0.00     0.010 A 
ATOM     36  C   UNL A   1      35.837  29.359  28.774  1.00  0.00     0.010 A 
ATOM     37  C   UNL A   1      36.837  30.319  28.977  1.00  0.00    -0.014 A 
BRANCH  37  38
ATOM     38  C   UNL A   1      38.081  29.974  29.710  1.00  0.00     0.031 A 
ATOM     39  C   UNL A   1      38.325  30.484  31.105  1.00  0.00     0.074 A 
ATOM     40  C   UNL A   1      39.013  29.217  29.098  1.00  0.00     0.049 A 
ATOM     41  N   UNL A   1      39.314  30.211  31.917  1.00  0.00    -0.248 NA
ATOM     42  C   UNL A   1      37.351  31.442  31.651  1.00  0.00     0.031 C 
ATOM     43  C   UNL A   1      38.943  28.748  27.712  1.00  0.00     0.029 A 
ATOM     44  N   UNL A   1      40.202  28.710  29.558  1.00  0.00    -0.354 N 
ATOM     45  C   UNL A   1      39.095  30.977  33.056  1.00  0.00     0.074 A 
ATOM     46  C   UNL A   1      37.904  31.760  32.814  1.00  0.00     0.031 C 
ATOM     47  C   UNL A   1      40.023  27.998  27.445  1.00  0.00     0.029 A 
ATOM     48  C   UNL A   1      40.874  27.952  28.629  1.00  0.00     0.049 A 
ATOM     49  H   UNL A   1      40.541  28.875  30.468  1.00  0.00     0.167 HD
ATOM     50  C   UNL A   1      39.801  31.003  34.212  1.00  0.00     0.034 A 
ATOM     51  C   UNL A   1      42.041  27.287  28.723  1.00  0.00     0.034 A 
ATOM     52  C   UNL A   1      40.971  30.202  34.458  1.00  0.00     0.049 A 
ATOM     53  C   UNL A   1      42.773  27.284  30.036  1.00  0.00     0.074 A 
ATOM     54  C   UNL A   1      41.707  30.087  35.624  1.00  0.00     0.029 A 
ATOM     55  N   UNL A   1      41.586  29.389  33.517  1.00  0.00    -0.354 N 
ATOM     56  N   UNL A   1      42.452  27.872  31.163  1.00  0.00    -0.248 NA
ATOM     57  C   UNL A   1      44.006  26.488  30.103  1.00  0.00     0.031 C 
ATOM     58  C   UNL A   1      42.789  29.233  35.377  1.00  0.00     0.029 A 
ATOM     59  C   UNL A   1      42.701  28.781  34.070  1.00  0.00     0.049 A 
ATOM     60  H   UNL A   1      41.276  29.263  32.591  1.00  0.00     0.167 HD
ATOM     61  C   UNL A   1      43.424  27.493  32.081  1.00  0.00     0.074 A 
ATOM     62  C   UNL A   1      44.324  26.595  31.385  1.00  0.00     0.031 C 
ATOM     63  C   UNL A   1      43.572  27.866  33.377  1.00  0.00     0.034 A 
BRANCH  50  64
ATOM     64  C   UNL A   1      39.301  31.896  35.319  1.00  0.00     0.023 A 
ATOM     65  C   UNL A   1      38.360  31.400  36.247  1.00  0.00     0.012 A 
ATOM     66  C   UNL A   1      39.802  33.203  35.479  1.00  0.00     0.148 A 
ATOM     67  C   UNL A   1      37.900  32.200  37.291  1.00  0.00     0.002 A 
ATOM     68  C   UNL A   1      39.373  33.978  36.551  1.00  0.00     0.091 A 
ATOM     69  F   UNL A   1      40.678  33.667  34.576  1.00  0.00    -0.205 F 
ATOM     70  C   UNL A   1      38.414  33.484  37.450  1.00  0.00     0.022 A 
BRANCH  68  71
ATOM     71  S   UNL A   1      40.036  35.613  36.893  1.00  0.00     0.127 S 
ATOM     72  O   UNL A   1      39.546  36.376  35.745  1.00  0.00    -0.237 OA
ATOM     73  O   UNL A   1      39.392  35.944  38.164  1.00  0.00    -0.237 OA
ATOM     74  O   UNL A   1      41.481  35.455  36.966  1.00  0.00    -0.744 OA
ENDBRANCH  68  71
ENDBRANCH  50  64
BRANCH  51  75
ATOM     75  C   UNL A   1      42.552  26.510  27.558  1.00  0.00     0.023 A 
ATOM     76  C   UNL A   1      43.414  27.128  26.630  1.00  0.00     0.012 A 
ATOM     77  C   UNL A   1      42.204  25.158  27.377  1.00  0.00     0.148 A 
ATOM     78  C   UNL A   1      43.888  26.424  25.522  1.00  0.00     0.002 A 
ATOM     79  C   UNL A   1      42.728  24.446  26.305  1.00  0.00     0.091 A 
ATOM     80  F   UNL A   1      41.377  24.592  28.266  1.00  0.00    -0.205 F 
ATOM     81  C   UNL A   1      43.553  25.083  25.365  1.00  0.00     0.022 A 
BRANCH  79  82
ATOM     82  S   UNL A   1      42.462  22.682  26.101  1.00  0.00     0.127 S 
ATOM     83  O   UNL A   1      43.141  22.140  27.275  1.00  0.00    -0.237 OA
ATOM     84  O   UNL A   1      41.002  22.592  26.136  1.00  0.00    -0.237 OA
ATOM     85  O   UNL A   1      43.054  22.341  24.815  1.00  0.00    -0.744 OA
ENDBRANCH  79  82
ENDBRANCH  51  75
BRANCH  63  86
ATOM     86  C   UNL A   1      44.736  27.280  34.135  1.00  0.00     0.023 A 
ATOM     87  C   UNL A   1      45.991  27.922  34.106  1.00  0.00     0.012 A 
ATOM     88  C   UNL A   1      44.582  26.104  34.895  1.00  0.00     0.148 A 
ATOM     89  C   UNL A   1      47.086  27.373  34.772  1.00  0.00     0.002 A 
ATOM     90  C   UNL A   1      45.664  25.594  35.603  1.00  0.00     0.091 A 
ATOM     91  F   UNL A   1      43.387  25.495  34.899  1.00  0.00    -0.205 F 
ATOM     92  C   UNL A   1      46.920  26.215  35.526  1.00  0.00     0.022 A 
BRANCH  90  93
ATOM     93  S   UNL A   1      45.515  24.163  36.679  1.00  0.00     0.127 S 
ATOM     94  O   UNL A   1      46.905  23.936  37.068  1.00  0.00    -0.237 OA
ATOM     95  O   UNL A   1      44.657  24.671  37.752  1.00  0.00    -0.237 OA
ATOM     96  O   UNL A   1      44.908  23.116  35.870  1.00  0.00    -0.744 OA
ENDBRANCH  90  93
ENDBRANCH  63  86
ENDBRANCH  37  38
ENDBRANCH  29  32
ENDBRANCH  27  28
ENDBRANCH  26  27
ENDBRANCH   1  26
TORSDOF 18
ENDMDL
MODEL 3
REMARK VINA RESULT:     -12.1      4.949     10.035
REMARK SMILES CCc1cc(Nc2ccc(C(=O)NCCCCNC(=O)c3ccc(-c4c5nc(c(-c6cccc(S(=O)(=O)[O-])c6F)c6ccc([nH]6)c(-c6cccc(S(=O)(=O)[O-])c6F)c6nc(c(-c7cccc(S(=O)(=O)[O-])c7F)c7ccc4[nH]7)C=C6)C=C5)cc3)cc2)nc(C(C)C)n1
REMARK SMILES IDX 15 1 14 2 13 3 11 4 12 5 10 7 7 8 8 9 85 10 9 11 84 12 6 13
REMARK SMILES IDX 5 15 3 16 4 17 91 18 87 19 86 20 2 21 1 22 88 23 89 24 90 25
REMARK SMILES IDX 16 26 17 27 18 28 19 29 20 31 21 32 22 33 83 34 23 35 82 36
REMARK SMILES IDX 24 37 25 38 26 39 76 40 27 41 81 42 75 43 77 44 28 45 80 46
REMARK SMILES IDX 74 47 73 48 29 50 61 51 41 52 60 53 42 54 45 55 59 56 78 57
REMARK SMILES IDX 43 58 44 59 58 61 79 62 46 63 30 64 31 65 39 66 32 67 34 68
REMARK SMILES IDX 40 69 33 70 35 71 36 72 37 73 38 74 62 75 63 76 71 77 64 78
REMARK SMILES IDX 66 79 72 80 65 81 67 82 68 83 69 84 70 85 47 86 48 87 56 88
REMARK SMILES IDX 49 89 51 90 57 91 50 92 52 93 53 94 54 95 55 96
REMARK H PARENT 13 6 6 14 18 30 77 49 45 60
REMARK Flexibility Score: inf
ROOT
ATOM      1  C   UNL A   1      35.382  21.515  26.004  1.00  0.00     0.023 C 
ENDROOT
BRANCH   1   2
ATOM      2  C   UNL A   1      35.362  20.361  24.998  1.00  0.00     0.116 C 
BRANCH   2   3
ATOM      3  N   UNL A   1      34.217  19.507  25.241  1.00  0.00    -0.352 N 
ATOM      4  C   UNL A   1      32.867  19.731  25.142  1.00  0.00     0.251 C 
ATOM      5  O   UNL A   1      32.109  18.806  25.431  1.00  0.00    -0.269 OA
ATOM      6  H   UNL A   1      34.450  18.596  25.533  1.00  0.00     0.163 HD
BRANCH   4   7
ATOM      7  C   UNL A   1      32.283  21.009  24.643  1.00  0.00     0.039 A 
ATOM      8  C   UNL A   1      30.973  23.382  23.850  1.00  0.00     0.040 A 
ATOM      9  C   UNL A   1      31.004  23.009  25.195  1.00  0.00     0.027 A 
ATOM     10  C   UNL A   1      31.657  22.598  22.921  1.00  0.00     0.027 A 
ATOM     11  C   UNL A   1      31.637  21.823  25.585  1.00  0.00     0.016 A 
ATOM     12  C   UNL A   1      32.343  21.450  23.320  1.00  0.00     0.016 A 
BRANCH   8  13
ATOM     13  N   UNL A   1      30.299  24.539  23.448  1.00  0.00    -0.340 N 
ATOM     14  H   UNL A   1      29.440  24.404  22.987  1.00  0.00     0.168 HD
BRANCH  13  15
ATOM     15  C   UNL A   1      30.706  25.870  23.630  1.00  0.00     0.134 A 
ATOM     16  C   UNL A   1      32.303  27.430  24.410  1.00  0.00     0.046 A 
ATOM     17  C   UNL A   1      31.926  26.114  24.232  1.00  0.00     0.071 A 
ATOM     18  N   UNL A   1      31.499  28.449  24.041  1.00  0.00    -0.238 NA
ATOM     19  C   UNL A   1      30.318  28.134  23.477  1.00  0.00     0.133 A 
ATOM     20  N   UNL A   1      29.905  26.878  23.243  1.00  0.00    -0.216 NA
BRANCH  16  21
ATOM     21  C   UNL A   1      33.597  27.834  25.069  1.00  0.00     0.053 C 
ATOM     22  C   UNL A   1      33.516  28.268  26.526  1.00  0.00     0.011 C 
ENDBRANCH  16  21
BRANCH  19  23
ATOM     23  C   UNL A   1      29.361  29.254  23.132  1.00  0.00     0.051 C 
ATOM     24  C   UNL A   1      29.812  29.979  21.863  1.00  0.00     0.016 C 
ATOM     25  C   UNL A   1      27.930  28.740  22.989  1.00  0.00     0.016 C 
ENDBRANCH  19  23
ENDBRANCH  13  15
ENDBRANCH   8  13
ENDBRANCH   4   7
ENDBRANCH   2   3
ENDBRANCH   1   2
BRANCH   1  26
ATOM     26  C   UNL A   1      35.543  22.895  25.360  1.00  0.00     0.023 C 
BRANCH  26  27
ATOM     27  C   UNL A   1      36.920  23.525  25.541  1.00  0.00     0.116 C 
BRANCH  27  28
ATOM     28  N   UNL A   1      37.931  22.566  25.954  1.00  0.00    -0.352 N 
ATOM     29  C   UNL A   1      39.145  22.797  26.554  1.00  0.00     0.251 C 
ATOM     30  H   UNL A   1      37.717  21.621  25.779  1.00  0.00     0.163 HD
ATOM     31  O   UNL A   1      39.932  21.874  26.710  1.00  0.00    -0.269 OA
BRANCH  29  32
ATOM     32  C   UNL A   1      39.503  24.168  26.976  1.00  0.00     0.039 A 
ATOM     33  C   UNL A   1      39.280  24.534  28.305  1.00  0.00     0.014 A 
ATOM     34  C   UNL A   1      40.058  25.084  26.078  1.00  0.00     0.014 A 
ATOM     35  C   UNL A   1      39.654  25.805  28.740  1.00  0.00     0.010 A 
ATOM     36  C   UNL A   1      40.509  26.319  26.535  1.00  0.00     0.010 A 
ATOM     37  C   UNL A   1      40.299  26.699  27.867  1.00  0.00    -0.014 A 
BRANCH  37  38
ATOM     38  C   UNL A   1      40.765  28.019  28.361  1.00  0.00     0.031 A 
ATOM     39  C   UNL A   1      42.227  28.377  28.354  1.00  0.00     0.074 A 
ATOM     40  C   UNL A   1      39.862  28.891  28.849  1.00  0.00     0.049 A 
ATOM     41  N   UNL A   1      42.795  29.513  28.668  1.00  0.00    -0.248 NA
ATOM     42  C   UNL A   1      43.177  27.321  27.969  1.00  0.00     0.031 C 
ATOM     43  C   UNL A   1      38.430  28.624  29.008  1.00  0.00     0.029 A 
ATOM     44  N   UNL A   1      40.010  30.177  29.305  1.00  0.00    -0.354 N 
ATOM     45  C   UNL A   1      44.164  29.303  28.542  1.00  0.00     0.074 A 
ATOM     46  C   UNL A   1      44.344  27.919  28.166  1.00  0.00     0.031 C 
ATOM     47  C   UNL A   1      37.828  29.720  29.494  1.00  0.00     0.029 A 
ATOM     48  C   UNL A   1      38.830  30.759  29.706  1.00  0.00     0.049 A 
ATOM     49  H   UNL A   1      40.879  30.638  29.342  1.00  0.00     0.167 HD
ATOM     50  C   UNL A   1      45.177  30.189  28.694  1.00  0.00     0.034 A 
ATOM     51  C   UNL A   1      38.583  31.994  30.181  1.00  0.00     0.034 A 
ATOM     52  C   UNL A   1      44.990  31.573  29.044  1.00  0.00     0.049 A 
ATOM     53  C   UNL A   1      39.717  32.976  30.282  1.00  0.00     0.074 A 
ATOM     54  C   UNL A   1      45.941  32.574  29.135  1.00  0.00     0.029 A 
ATOM     55  N   UNL A   1      43.773  32.148  29.374  1.00  0.00    -0.354 N 
ATOM     56  N   UNL A   1      40.982  32.810  29.983  1.00  0.00    -0.248 NA
ATOM     57  C   UNL A   1      39.380  34.329  30.742  1.00  0.00     0.031 C 
ATOM     58  C   UNL A   1      45.303  33.746  29.557  1.00  0.00     0.029 A 
ATOM     59  C   UNL A   1      43.948  33.487  29.685  1.00  0.00     0.049 A 
ATOM     60  H   UNL A   1      42.910  31.675  29.387  1.00  0.00     0.167 HD
ATOM     61  C   UNL A   1      41.587  34.044  30.190  1.00  0.00     0.074 A 
ATOM     62  C   UNL A   1      40.539  34.955  30.604  1.00  0.00     0.031 C 
ATOM     63  C   UNL A   1      42.893  34.391  30.066  1.00  0.00     0.034 A 
BRANCH  50  64
ATOM     64  C   UNL A   1      46.580  29.700  28.437  1.00  0.00     0.023 A 
ATOM     65  C   UNL A   1      47.150  29.849  27.156  1.00  0.00     0.012 A 
ATOM     66  C   UNL A   1      47.356  29.147  29.476  1.00  0.00     0.148 A 
ATOM     67  C   UNL A   1      48.453  29.423  26.901  1.00  0.00     0.002 A 
ATOM     68  C   UNL A   1      48.671  28.769  29.226  1.00  0.00     0.091 A 
ATOM     69  F   UNL A   1      46.793  28.992  30.682  1.00  0.00    -0.205 F 
ATOM     70  C   UNL A   1      49.216  28.895  27.938  1.00  0.00     0.022 A 
BRANCH  68  71
ATOM     71  S   UNL A   1      49.766  28.155  30.511  1.00  0.00     0.127 S 
ATOM     72  O   UNL A   1      51.018  27.988  29.777  1.00  0.00    -0.237 OA
ATOM     73  O   UNL A   1      49.763  29.262  31.469  1.00  0.00    -0.237 OA
ATOM     74  O   UNL A   1      49.161  26.925  31.002  1.00  0.00    -0.744 OA
ENDBRANCH  68  71
ENDBRANCH  50  64
BRANCH  51  75
ATOM     75  C   UNL A   1      37.189  32.393  30.530  1.00  0.00     0.023 A 
ATOM     76  C   UNL A   1      36.729  32.237  31.852  1.00  0.00     0.012 A 
ATOM     77  C   UNL A   1      36.327  32.944  29.563  1.00  0.00     0.148 A 
ATOM     78  C   UNL A   1      35.422  32.586  32.196  1.00  0.00     0.002 A 
ATOM     79  C   UNL A   1      35.047  33.345  29.926  1.00  0.00     0.091 A 
ATOM     80  F   UNL A   1      36.782  33.075  28.310  1.00  0.00    -0.205 F 
ATOM     81  C   UNL A   1      34.586  33.148  31.236  1.00  0.00     0.022 A 
BRANCH  79  82
ATOM     82  S   UNL A   1      33.952  34.204  28.791  1.00  0.00     0.127 S 
ATOM     83  O   UNL A   1      32.881  34.641  29.683  1.00  0.00    -0.237 OA
ATOM     84  O   UNL A   1      34.816  35.274  28.292  1.00  0.00    -0.237 OA
ATOM     85  O   UNL A   1      33.575  33.219  27.787  1.00  0.00    -0.744 OA
ENDBRANCH  79  82
ENDBRANCH  51  75
BRANCH  63  86
ATOM     86  C   UNL A   1      43.256  35.825  30.357  1.00  0.00     0.023 A 
ATOM     87  C   UNL A   1      43.705  36.192  31.642  1.00  0.00     0.012 A 
ATOM     88  C   UNL A   1      43.175  36.807  29.350  1.00  0.00     0.148 A 
ATOM     89  C   UNL A   1      44.009  37.521  31.936  1.00  0.00     0.002 A 
ATOM     90  C   UNL A   1      43.535  38.119  29.634  1.00  0.00     0.091 A 
ATOM     91  F   UNL A   1      42.730  36.446  28.137  1.00  0.00    -0.205 F 
ATOM     92  C   UNL A   1      43.933  38.481  30.931  1.00  0.00     0.022 A 
BRANCH  90  93
ATOM     93  S   UNL A   1      43.562  39.399  28.375  1.00  0.00     0.127 S 
ATOM     94  O   UNL A   1      44.526  38.857  27.419  1.00  0.00    -0.237 OA
ATOM     95  O   UNL A   1      42.175  39.403  27.906  1.00  0.00    -0.237 OA
ATOM     96  O   UNL A   1      43.971  40.620  29.056  1.00  0.00    -0.744 OA
ENDBRANCH  90  93
ENDBRANCH  63  86
ENDBRANCH  37  38
ENDBRANCH  29  32
ENDBRANCH  27  28
ENDBRANCH  26  27
ENDBRANCH   1  26
TORSDOF 18
ENDMDL
