MODEL 1
REMARK VINA RESULT:     -13.4      0.000      0.000
REMARK SMILES C[C@H]1[C@@H](C(=O)NCCCCNC(=O)c2ccc(-c3c4nc(c(-c5cccc(S(=O)(=O)[O-])c5F)c5ccc([nH]5)c(-c5cccc(S(=O)(=O)[O-])c5F)c5nc(c(-c6cccc(S(=O)(=O)[O-])c6F)c6ccc3[nH]6)C=C5)C=C4)cc2)CCN1C(=O)c1cc2cc(F)ccc2s1
REMARK SMILES IDX 9 1 8 2 7 3 6 4 4 5 5 6 3 8 1 9 2 10 79 11 77 12 78 13 80 14
REMARK SMILES IDX 81 15 82 16 83 17 91 18 84 19 90 20 85 21 89 22 86 23 88 24
REMARK SMILES IDX 87 25 10 26 11 27 12 28 13 30 14 31 15 32 76 33 16 34 75 35
REMARK SMILES IDX 17 36 18 37 19 38 69 39 20 40 74 41 68 42 70 43 21 44 73 45
REMARK SMILES IDX 67 46 66 47 22 49 54 50 34 51 53 52 35 53 38 54 52 55 71 56
REMARK SMILES IDX 36 57 37 58 51 60 72 61 39 62 23 63 24 64 32 65 25 66 27 67
REMARK SMILES IDX 33 68 26 69 28 70 29 71 30 72 31 73 55 74 56 75 64 76 57 77
REMARK SMILES IDX 59 78 65 79 58 80 60 81 61 82 62 83 63 84 40 85 41 86 49 87
REMARK SMILES IDX 42 88 44 89 50 90 43 91 45 92 46 93 47 94 48 95
REMARK H PARENT 6 7 11 29 70 48 38 59
REMARK Flexibility Score: inf
ROOT
ATOM      1  C   UNL A   1      36.520  21.522  24.488  1.00  0.00     0.023 C 
ENDROOT
BRANCH   1   2
ATOM      2  C   UNL A   1      36.041  20.176  25.005  1.00  0.00     0.023 C 
BRANCH   2   3
ATOM      3  C   UNL A   1      34.521  19.991  25.016  1.00  0.00     0.116 C 
BRANCH   3   4
ATOM      4  N   UNL A   1      33.990  20.619  26.201  1.00  0.00    -0.356 N 
ATOM      5  C   UNL A   1      33.511  21.873  26.389  1.00  0.00     0.225 C 
ATOM      6  O   UNL A   1      33.412  22.232  27.567  1.00  0.00    -0.275 OA
ATOM      7  H   UNL A   1      33.974  20.045  27.000  1.00  0.00     0.163 HD
BRANCH   5   8
ATOM      8  C   UNL A   1      32.969  22.727  25.230  1.00  0.00     0.102 C 
ATOM      9  C   UNL A   1      34.168  25.060  25.661  1.00  0.00     0.032 C 
ATOM     10  C   UNL A   1      32.935  24.275  25.285  1.00  0.00     0.094 C 
ATOM     11  N   UNL A   1      31.734  24.614  26.052  1.00  0.00    -0.334 N 
ATOM     12  C   UNL A   1      31.446  22.464  25.148  1.00  0.00     0.037 C 
ATOM     13  C   UNL A   1      30.897  23.434  26.189  1.00  0.00     0.121 C 
BRANCH  11  14
ATOM     14  C   UNL A   1      31.106  25.838  25.879  1.00  0.00     0.264 C 
ATOM     15  O   UNL A   1      31.014  26.642  26.808  1.00  0.00    -0.268 OA
BRANCH  14  16
ATOM     16  C   UNL A   1      30.627  26.186  24.561  1.00  0.00     0.093 A 
ATOM     17  C   UNL A   1      29.311  26.332  24.173  1.00  0.00     0.034 A 
ATOM     18  S   UNL A   1      31.676  26.902  23.419  1.00  0.00    -0.130 S 
ATOM     19  C   UNL A   1      29.173  27.517  23.375  1.00  0.00    -0.004 A 
ATOM     20  C   UNL A   1      30.420  27.989  22.945  1.00  0.00     0.035 A 
ATOM     21  C   UNL A   1      28.028  28.302  23.116  1.00  0.00     0.048 A 
ATOM     22  C   UNL A   1      30.561  29.221  22.282  1.00  0.00     0.022 A 
ATOM     23  C   UNL A   1      28.187  29.564  22.553  1.00  0.00     0.123 A 
ATOM     24  C   UNL A   1      29.429  30.027  22.146  1.00  0.00     0.041 A 
ATOM     25  F   UNL A   1      27.121  30.370  22.453  1.00  0.00    -0.207 F 
ENDBRANCH  14  16
ENDBRANCH  11  14
ENDBRANCH   5   8
ENDBRANCH   3   4
ENDBRANCH   2   3
ENDBRANCH   1   2
BRANCH   1  26
ATOM     26  C   UNL A   1      37.738  22.054  25.218  1.00  0.00     0.116 C 
BRANCH  26  27
ATOM     27  N   UNL A   1      38.701  21.022  25.592  1.00  0.00    -0.352 N 
ATOM     28  C   UNL A   1      39.817  21.155  26.392  1.00  0.00     0.251 C 
ATOM     29  H   UNL A   1      38.534  20.123  25.228  1.00  0.00     0.163 HD
ATOM     30  O   UNL A   1      40.577  20.220  26.574  1.00  0.00    -0.269 OA
BRANCH  28  31
ATOM     31  C   UNL A   1      40.087  22.484  26.978  1.00  0.00     0.039 A 
ATOM     32  C   UNL A   1      41.091  22.609  27.938  1.00  0.00     0.014 A 
ATOM     33  C   UNL A   1      39.448  23.611  26.456  1.00  0.00     0.014 A 
ATOM     34  C   UNL A   1      41.519  23.884  28.312  1.00  0.00     0.010 A 
ATOM     35  C   UNL A   1      39.954  24.869  26.744  1.00  0.00     0.010 A 
ATOM     36  C   UNL A   1      40.988  25.021  27.680  1.00  0.00    -0.014 A 
BRANCH  36  37
ATOM     37  C   UNL A   1      41.490  26.385  27.977  1.00  0.00     0.031 A 
ATOM     38  C   UNL A   1      42.903  26.753  27.612  1.00  0.00     0.074 A 
ATOM     39  C   UNL A   1      40.721  27.250  28.671  1.00  0.00     0.049 A 
ATOM     40  N   UNL A   1      43.561  27.852  27.868  1.00  0.00    -0.248 NA
ATOM     41  C   UNL A   1      43.699  25.731  26.909  1.00  0.00     0.031 C 
ATOM     42  C   UNL A   1      39.373  26.974  29.177  1.00  0.00     0.029 A 
ATOM     43  N   UNL A   1      40.976  28.530  29.095  1.00  0.00    -0.354 N 
ATOM     44  C   UNL A   1      44.854  27.634  27.406  1.00  0.00     0.074 A 
ATOM     45  C   UNL A   1      44.902  26.281  26.901  1.00  0.00     0.031 C 
ATOM     46  C   UNL A   1      38.915  28.056  29.826  1.00  0.00     0.029 A 
ATOM     47  C   UNL A   1      39.942  29.094  29.807  1.00  0.00     0.049 A 
ATOM     48  H   UNL A   1      41.818  29.001  28.907  1.00  0.00     0.167 HD
ATOM     49  C   UNL A   1      45.896  28.495  27.364  1.00  0.00     0.034 A 
ATOM     50  C   UNL A   1      39.834  30.311  30.374  1.00  0.00     0.034 A 
ATOM     51  C   UNL A   1      45.817  29.864  27.788  1.00  0.00     0.049 A 
ATOM     52  C   UNL A   1      40.975  31.283  30.230  1.00  0.00     0.074 A 
ATOM     53  C   UNL A   1      46.776  30.855  27.682  1.00  0.00     0.029 A 
ATOM     54  N   UNL A   1      44.710  30.438  28.392  1.00  0.00    -0.354 N 
ATOM     55  N   UNL A   1      42.130  31.115  29.634  1.00  0.00    -0.248 NA
ATOM     56  C   UNL A   1      40.783  32.625  30.799  1.00  0.00     0.031 C 
ATOM     57  C   UNL A   1      46.249  32.029  28.228  1.00  0.00     0.029 A 
ATOM     58  C   UNL A   1      44.959  31.771  28.665  1.00  0.00     0.049 A 
ATOM     59  H   UNL A   1      43.871  29.966  28.598  1.00  0.00     0.167 HD
ATOM     60  C   UNL A   1      42.789  32.335  29.725  1.00  0.00     0.074 A 
ATOM     61  C   UNL A   1      41.892  33.241  30.415  1.00  0.00     0.031 C 
ATOM     62  C   UNL A   1      44.029  32.673  29.295  1.00  0.00     0.034 A 
BRANCH  49  63
ATOM     63  C   UNL A   1      47.185  27.998  26.763  1.00  0.00     0.023 A 
ATOM     64  C   UNL A   1      48.226  27.571  27.614  1.00  0.00     0.012 A 
ATOM     65  C   UNL A   1      47.356  27.921  25.369  1.00  0.00     0.148 A 
ATOM     66  C   UNL A   1      49.432  27.114  27.088  1.00  0.00     0.002 A 
ATOM     67  C   UNL A   1      48.546  27.419  24.850  1.00  0.00     0.091 A 
ATOM     68  F   UNL A   1      46.367  28.355  24.576  1.00  0.00    -0.205 F 
ATOM     69  C   UNL A   1      49.587  27.028  25.708  1.00  0.00     0.022 A 
BRANCH  67  70
ATOM     70  S   UNL A   1      48.815  27.197  23.089  1.00  0.00     0.127 S 
ATOM     71  O   UNL A   1      50.275  27.242  23.007  1.00  0.00    -0.237 OA
ATOM     72  O   UNL A   1      48.232  25.876  22.851  1.00  0.00    -0.237 OA
ATOM     73  O   UNL A   1      48.117  28.295  22.436  1.00  0.00    -0.744 OA
ENDBRANCH  67  70
ENDBRANCH  49  63
BRANCH  50  74
ATOM     74  C   UNL A   1      38.564  30.713  31.046  1.00  0.00     0.023 A 
ATOM     75  C   UNL A   1      38.407  30.458  32.423  1.00  0.00     0.012 A 
ATOM     76  C   UNL A   1      37.534  31.370  30.348  1.00  0.00     0.148 A 
ATOM     77  C   UNL A   1      37.232  30.819  33.086  1.00  0.00     0.002 A 
ATOM     78  C   UNL A   1      36.387  31.774  31.025  1.00  0.00     0.091 A 
ATOM     79  F   UNL A   1      37.696  31.595  29.037  1.00  0.00    -0.205 F 
ATOM     80  C   UNL A   1      36.228  31.485  32.389  1.00  0.00     0.022 A 
BRANCH  78  81
ATOM     81  S   UNL A   1      35.101  32.752  30.239  1.00  0.00     0.127 S 
ATOM     82  O   UNL A   1      34.190  32.999  31.353  1.00  0.00    -0.237 OA
ATOM     83  O   UNL A   1      35.846  33.923  29.779  1.00  0.00    -0.237 OA
ATOM     84  O   UNL A   1      34.580  31.915  29.165  1.00  0.00    -0.744 OA
ENDBRANCH  78  81
ENDBRANCH  50  74
BRANCH  62  85
ATOM     85  C   UNL A   1      44.489  34.086  29.526  1.00  0.00     0.023 A 
ATOM     86  C   UNL A   1      45.218  34.401  30.688  1.00  0.00     0.012 A 
ATOM     87  C   UNL A   1      44.277  35.080  28.549  1.00  0.00     0.148 A 
ATOM     88  C   UNL A   1      45.708  35.690  30.889  1.00  0.00     0.002 A 
ATOM     89  C   UNL A   1      44.808  36.350  28.734  1.00  0.00     0.091 A 
ATOM     90  F   UNL A   1      43.563  34.764  27.459  1.00  0.00    -0.205 F 
ATOM     91  C   UNL A   1      45.515  36.660  29.908  1.00  0.00     0.022 A 
BRANCH  89  92
ATOM     92  S   UNL A   1      44.691  37.629  27.479  1.00  0.00     0.127 S 
ATOM     93  O   UNL A   1      45.750  37.235  26.552  1.00  0.00    -0.237 OA
ATOM     94  O   UNL A   1      43.332  37.442  26.968  1.00  0.00    -0.237 OA
ATOM     95  O   UNL A   1      44.903  38.891  28.175  1.00  0.00    -0.744 OA
ENDBRANCH  89  92
ENDBRANCH  62  85
ENDBRANCH  36  37
ENDBRANCH  28  31
ENDBRANCH  26  27
ENDBRANCH   1  26
TORSDOF 16
ENDMDL
MODEL 2
REMARK VINA RESULT:     -13.3      5.352     10.763
REMARK SMILES C[C@H]1[C@@H](C(=O)NCCCCNC(=O)c2ccc(-c3c4nc(c(-c5cccc(S(=O)(=O)[O-])c5F)c5ccc([nH]5)c(-c5cccc(S(=O)(=O)[O-])c5F)c5nc(c(-c6cccc(S(=O)(=O)[O-])c6F)c6ccc3[nH]6)C=C5)C=C4)cc2)CCN1C(=O)c1cc2cc(F)ccc2s1
REMARK SMILES IDX 9 1 8 2 7 3 6 4 4 5 5 6 3 8 1 9 2 10 79 11 77 12 78 13 80 14
REMARK SMILES IDX 81 15 82 16 83 17 91 18 84 19 90 20 85 21 89 22 86 23 88 24
REMARK SMILES IDX 87 25 10 26 11 27 12 28 13 30 14 31 15 32 76 33 16 34 75 35
REMARK SMILES IDX 17 36 18 37 19 38 69 39 20 40 74 41 68 42 70 43 21 44 73 45
REMARK SMILES IDX 67 46 66 47 22 49 54 50 34 51 53 52 35 53 38 54 52 55 71 56
REMARK SMILES IDX 36 57 37 58 51 60 72 61 39 62 23 63 24 64 32 65 25 66 27 67
REMARK SMILES IDX 33 68 26 69 28 70 29 71 30 72 31 73 55 74 56 75 64 76 57 77
REMARK SMILES IDX 59 78 65 79 58 80 60 81 61 82 62 83 63 84 40 85 41 86 49 87
REMARK SMILES IDX 42 88 44 89 50 90 43 91 45 92 46 93 47 94 48 95
REMARK H PARENT 6 7 11 29 70 48 38 59
REMARK Flexibility Score: inf
ROOT
ATOM      1  C   UNL A   1      31.573  31.196  26.145  1.00  0.00     0.023 C 
ENDROOT
BRANCH   1   2
ATOM      2  C   UNL A   1      31.768  29.822  25.526  1.00  0.00     0.023 C 
BRANCH   2   3
ATOM      3  C   UNL A   1      30.997  29.585  24.225  1.00  0.00     0.116 C 
BRANCH   3   4
ATOM      4  N   UNL A   1      31.936  29.217  23.194  1.00  0.00    -0.356 N 
ATOM      5  C   UNL A   1      32.574  28.043  22.967  1.00  0.00     0.225 C 
ATOM      6  O   UNL A   1      33.546  28.105  22.207  1.00  0.00    -0.275 OA
ATOM      7  H   UNL A   1      32.148  29.934  22.554  1.00  0.00     0.163 HD
BRANCH   5   8
ATOM      8  C   UNL A   1      32.028  26.699  23.481  1.00  0.00     0.102 C 
ATOM      9  C   UNL A   1      33.938  25.941  25.166  1.00  0.00     0.032 C 
ATOM     10  C   UNL A   1      32.946  25.604  24.079  1.00  0.00     0.094 C 
ATOM     11  N   UNL A   1      33.512  24.896  22.929  1.00  0.00    -0.334 N 
ATOM     12  C   UNL A   1      31.510  25.920  22.248  1.00  0.00     0.037 C 
ATOM     13  C   UNL A   1      32.782  25.263  21.726  1.00  0.00     0.121 C 
BRANCH  11  14
ATOM     14  C   UNL A   1      33.947  23.585  23.049  1.00  0.00     0.264 C 
ATOM     15  O   UNL A   1      35.123  23.284  22.844  1.00  0.00    -0.268 OA
BRANCH  14  16
ATOM     16  C   UNL A   1      33.003  22.585  23.497  1.00  0.00     0.093 A 
ATOM     17  C   UNL A   1      32.385  21.628  22.720  1.00  0.00     0.034 A 
ATOM     18  S   UNL A   1      32.883  22.188  25.154  1.00  0.00    -0.130 S 
ATOM     19  C   UNL A   1      32.423  20.362  23.394  1.00  0.00    -0.004 A 
ATOM     20  C   UNL A   1      32.761  20.514  24.745  1.00  0.00     0.035 A 
ATOM     21  C   UNL A   1      32.324  19.056  22.867  1.00  0.00     0.048 A 
ATOM     22  C   UNL A   1      33.017  19.411  25.577  1.00  0.00     0.022 A 
ATOM     23  C   UNL A   1      32.677  17.974  23.667  1.00  0.00     0.123 A 
ATOM     24  C   UNL A   1      33.026  18.140  24.998  1.00  0.00     0.041 A 
ATOM     25  F   UNL A   1      32.734  16.752  23.121  1.00  0.00    -0.207 F 
ENDBRANCH  14  16
ENDBRANCH  11  14
ENDBRANCH   5   8
ENDBRANCH   3   4
ENDBRANCH   2   3
ENDBRANCH   1   2
BRANCH   1  26
ATOM     26  C   UNL A   1      32.556  31.505  27.258  1.00  0.00     0.116 C 
BRANCH  26  27
ATOM     27  N   UNL A   1      32.707  32.931  27.535  1.00  0.00    -0.352 N 
ATOM     28  C   UNL A   1      33.804  33.580  28.061  1.00  0.00     0.251 C 
ATOM     29  H   UNL A   1      31.931  33.497  27.320  1.00  0.00     0.163 HD
ATOM     30  O   UNL A   1      33.775  34.775  28.302  1.00  0.00    -0.269 OA
BRANCH  28  31
ATOM     31  C   UNL A   1      34.997  32.768  28.372  1.00  0.00     0.039 A 
ATOM     32  C   UNL A   1      36.262  33.345  28.244  1.00  0.00     0.014 A 
ATOM     33  C   UNL A   1      34.842  31.499  28.934  1.00  0.00     0.014 A 
ATOM     34  C   UNL A   1      37.370  32.677  28.766  1.00  0.00     0.010 A 
ATOM     35  C   UNL A   1      35.926  30.895  29.552  1.00  0.00     0.010 A 
ATOM     36  C   UNL A   1      37.202  31.472  29.468  1.00  0.00    -0.014 A 
BRANCH  36  37
ATOM     37  C   UNL A   1      38.342  30.786  30.125  1.00  0.00     0.031 A 
ATOM     38  C   UNL A   1      38.722  31.159  31.533  1.00  0.00     0.074 A 
ATOM     39  C   UNL A   1      39.101  29.917  29.425  1.00  0.00     0.049 A 
ATOM     40  N   UNL A   1      39.737  30.751  32.249  1.00  0.00    -0.248 NA
ATOM     41  C   UNL A   1      37.880  32.162  32.209  1.00  0.00     0.031 C 
ATOM     42  C   UNL A   1      38.899  29.553  28.019  1.00  0.00     0.029 A 
ATOM     43  N   UNL A   1      40.211  29.201  29.795  1.00  0.00    -0.354 N 
ATOM     44  C   UNL A   1      39.682  31.480  33.430  1.00  0.00     0.074 A 
ATOM     45  C   UNL A   1      38.567  32.393  33.316  1.00  0.00     0.031 C 
ATOM     46  C   UNL A   1      39.844  28.672  27.652  1.00  0.00     0.029 A 
ATOM     47  C   UNL A   1      40.732  28.425  28.784  1.00  0.00     0.049 A 
ATOM     48  H   UNL A   1      40.599  29.238  30.698  1.00  0.00     0.167 HD
ATOM     49  C   UNL A   1      40.461  31.372  34.531  1.00  0.00     0.034 A 
ATOM     50  C   UNL A   1      41.800  27.605  28.776  1.00  0.00     0.034 A 
ATOM     51  C   UNL A   1      41.512  30.405  34.672  1.00  0.00     0.049 A 
ATOM     52  C   UNL A   1      42.593  27.432  30.044  1.00  0.00     0.074 A 
ATOM     53  C   UNL A   1      42.285  30.129  35.784  1.00  0.00     0.029 A 
ATOM     54  N   UNL A   1      41.931  29.546  33.668  1.00  0.00    -0.354 N 
ATOM     55  N   UNL A   1      42.418  28.005  31.210  1.00  0.00    -0.248 NA
ATOM     56  C   UNL A   1      43.704  26.470  30.009  1.00  0.00     0.031 C 
ATOM     57  C   UNL A   1      43.178  29.107  35.450  1.00  0.00     0.029 A 
ATOM     58  C   UNL A   1      42.953  28.738  34.134  1.00  0.00     0.049 A 
ATOM     59  H   UNL A   1      41.558  29.517  32.757  1.00  0.00     0.167 HD
ATOM     60  C   UNL A   1      43.372  27.451  32.055  1.00  0.00     0.074 A 
ATOM     61  C   UNL A   1      44.108  26.478  31.272  1.00  0.00     0.031 C 
ATOM     62  C   UNL A   1      43.629  27.732  33.356  1.00  0.00     0.034 A 
BRANCH  49  63
ATOM     63  C   UNL A   1      40.146  32.271  35.697  1.00  0.00     0.023 A 
ATOM     64  C   UNL A   1      40.875  33.466  35.867  1.00  0.00     0.012 A 
ATOM     65  C   UNL A   1      39.114  31.956  36.602  1.00  0.00     0.148 A 
ATOM     66  C   UNL A   1      40.612  34.314  36.940  1.00  0.00     0.002 A 
ATOM     67  C   UNL A   1      38.825  32.831  37.644  1.00  0.00     0.091 A 
ATOM     68  F   UNL A   1      38.449  30.804  36.440  1.00  0.00    -0.205 F 
ATOM     69  C   UNL A   1      39.581  34.002  37.821  1.00  0.00     0.022 A 
BRANCH  67  70
ATOM     70  S   UNL A   1      37.467  32.557  38.788  1.00  0.00     0.127 S 
ATOM     71  O   UNL A   1      37.811  33.473  39.875  1.00  0.00    -0.237 OA
ATOM     72  O   UNL A   1      36.308  32.963  37.993  1.00  0.00    -0.237 OA
ATOM     73  O   UNL A   1      37.507  31.142  39.124  1.00  0.00    -0.744 OA
ENDBRANCH  67  70
ENDBRANCH  49  63
BRANCH  50  74
ATOM     74  C   UNL A   1      42.125  26.812  27.554  1.00  0.00     0.023 A 
ATOM     75  C   UNL A   1      42.748  27.454  26.466  1.00  0.00     0.012 A 
ATOM     76  C   UNL A   1      41.855  25.433  27.474  1.00  0.00     0.148 A 
ATOM     77  C   UNL A   1      43.066  26.745  25.306  1.00  0.00     0.002 A 
ATOM     78  C   UNL A   1      42.221  24.721  26.336  1.00  0.00     0.091 A 
ATOM     79  F   UNL A   1      41.251  24.842  28.514  1.00  0.00    -0.205 F 
ATOM     80  C   UNL A   1      42.811  25.378  25.245  1.00  0.00     0.022 A 
BRANCH  78  81
ATOM     81  S   UNL A   1      42.050  22.936  26.222  1.00  0.00     0.127 S 
ATOM     82  O   UNL A   1      42.678  22.657  24.934  1.00  0.00    -0.237 OA
ATOM     83  O   UNL A   1      42.807  22.482  27.390  1.00  0.00    -0.237 OA
ATOM     84  O   UNL A   1      40.617  22.678  26.302  1.00  0.00    -0.744 OA
ENDBRANCH  78  81
ENDBRANCH  50  74
BRANCH  62  85
ATOM     85  C   UNL A   1      44.731  26.964  34.033  1.00  0.00     0.023 A 
ATOM     86  C   UNL A   1      46.050  27.456  33.993  1.00  0.00     0.012 A 
ATOM     87  C   UNL A   1      44.444  25.806  34.783  1.00  0.00     0.148 A 
ATOM     88  C   UNL A   1      47.073  26.793  34.668  1.00  0.00     0.002 A 
ATOM     89  C   UNL A   1      45.460  25.177  35.492  1.00  0.00     0.091 A 
ATOM     90  F   UNL A   1      43.186  25.344  34.792  1.00  0.00    -0.205 F 
ATOM     91  C   UNL A   1      46.777  25.662  35.427  1.00  0.00     0.022 A 
BRANCH  89  92
ATOM     92  S   UNL A   1      45.149  23.775  36.571  1.00  0.00     0.127 S 
ATOM     93  O   UNL A   1      44.436  24.406  37.680  1.00  0.00    -0.237 OA
ATOM     94  O   UNL A   1      44.324  22.909  35.729  1.00  0.00    -0.237 OA
ATOM     95  O   UNL A   1      46.459  23.226  36.898  1.00  0.00    -0.744 OA
ENDBRANCH  89  92
ENDBRANCH  62  85
ENDBRANCH  36  37
ENDBRANCH  28  31
ENDBRANCH  26  27
ENDBRANCH   1  26
TORSDOF 16
ENDMDL
MODEL 3
REMARK VINA RESULT:     -13.3      1.254      7.559
REMARK SMILES C[C@H]1[C@@H](C(=O)NCCCCNC(=O)c2ccc(-c3c4nc(c(-c5cccc(S(=O)(=O)[O-])c5F)c5ccc([nH]5)c(-c5cccc(S(=O)(=O)[O-])c5F)c5nc(c(-c6cccc(S(=O)(=O)[O-])c6F)c6ccc3[nH]6)C=C5)C=C4)cc2)CCN1C(=O)c1cc2cc(F)ccc2s1
REMARK SMILES IDX 9 1 8 2 7 3 6 4 4 5 5 6 3 8 1 9 2 10 79 11 77 12 78 13 80 14
REMARK SMILES IDX 81 15 82 16 83 17 91 18 84 19 90 20 85 21 89 22 86 23 88 24
REMARK SMILES IDX 87 25 10 26 11 27 12 28 13 30 14 31 15 32 76 33 16 34 75 35
REMARK SMILES IDX 17 36 18 37 19 38 69 39 20 40 74 41 68 42 70 43 21 44 73 45
REMARK SMILES IDX 67 46 66 47 22 49 54 50 34 51 53 52 35 53 38 54 52 55 71 56
REMARK SMILES IDX 36 57 37 58 51 60 72 61 39 62 23 63 24 64 32 65 25 66 27 67
REMARK SMILES IDX 33 68 26 69 28 70 29 71 30 72 31 73 55 74 56 75 64 76 57 77
REMARK SMILES IDX 59 78 65 79 58 80 60 81 61 82 62 83 63 84 40 85 41 86 49 87
REMARK SMILES IDX 42 88 44 89 50 90 43 91 45 92 46 93 47 94 48 95
REMARK H PARENT 6 7 11 29 70 48 38 59
REMARK Flexibility Score: inf
ROOT
ATOM      1  C   UNL A   1      37.318  19.545  25.016  1.00  0.00     0.023 C 
ENDROOT
BRANCH   1   2
ATOM      2  C   UNL A   1      36.107  20.449  24.863  1.00  0.00     0.023 C 
BRANCH   2   3
ATOM      3  C   UNL A   1      36.074  21.650  25.812  1.00  0.00     0.116 C 
BRANCH   3   4
ATOM      4  N   UNL A   1      35.027  21.443  26.781  1.00  0.00    -0.356 N 
ATOM      5  C   UNL A   1      33.819  22.045  26.911  1.00  0.00     0.225 C 
ATOM      6  O   UNL A   1      33.263  21.891  28.003  1.00  0.00    -0.275 OA
ATOM      7  H   UNL A   1      35.220  20.754  27.457  1.00  0.00     0.163 HD
BRANCH   5   8
ATOM      8  C   UNL A   1      33.112  22.730  25.728  1.00  0.00     0.102 C 
ATOM      9  C   UNL A   1      34.418  25.040  25.573  1.00  0.00     0.032 C 
ATOM     10  C   UNL A   1      33.122  24.267  25.532  1.00  0.00     0.094 C 
ATOM     11  N   UNL A   1      32.072  24.781  26.414  1.00  0.00    -0.334 N 
ATOM     12  C   UNL A   1      31.591  22.532  25.934  1.00  0.00     0.037 C 
ATOM     13  C   UNL A   1      31.242  23.679  26.874  1.00  0.00     0.121 C 
BRANCH  11  14
ATOM     14  C   UNL A   1      31.451  25.991  26.145  1.00  0.00     0.264 C 
ATOM     15  O   UNL A   1      31.381  26.874  27.001  1.00  0.00    -0.268 OA
BRANCH  14  16
ATOM     16  C   UNL A   1      30.953  26.227  24.809  1.00  0.00     0.093 A 
ATOM     17  C   UNL A   1      29.633  26.221  24.408  1.00  0.00     0.034 A 
ATOM     18  S   UNL A   1      31.936  26.991  23.640  1.00  0.00    -0.130 S 
ATOM     19  C   UNL A   1      29.385  27.347  23.553  1.00  0.00    -0.004 A 
ATOM     20  C   UNL A   1      30.582  27.922  23.107  1.00  0.00     0.035 A 
ATOM     21  C   UNL A   1      28.170  28.000  23.250  1.00  0.00     0.048 A 
ATOM     22  C   UNL A   1      30.605  29.129  22.388  1.00  0.00     0.022 A 
ATOM     23  C   UNL A   1      28.206  29.244  22.629  1.00  0.00     0.123 A 
ATOM     24  C   UNL A   1      29.399  29.810  22.208  1.00  0.00     0.041 A 
ATOM     25  F   UNL A   1      27.066  29.932  22.485  1.00  0.00    -0.207 F 
ENDBRANCH  14  16
ENDBRANCH  11  14
ENDBRANCH   5   8
ENDBRANCH   3   4
ENDBRANCH   2   3
ENDBRANCH   1   2
BRANCH   1  26
ATOM     26  C   UNL A   1      38.582  20.283  25.413  1.00  0.00     0.116 C 
BRANCH  26  27
ATOM     27  N   UNL A   1      39.692  19.406  25.771  1.00  0.00    -0.352 N 
ATOM     28  C   UNL A   1      40.876  19.747  26.391  1.00  0.00     0.251 C 
ATOM     29  H   UNL A   1      39.583  18.455  25.541  1.00  0.00     0.163 HD
ATOM     30  O   UNL A   1      41.753  18.920  26.576  1.00  0.00    -0.269 OA
BRANCH  28  31
ATOM     31  C   UNL A   1      41.066  21.161  26.775  1.00  0.00     0.039 A 
ATOM     32  C   UNL A   1      41.560  21.456  28.046  1.00  0.00     0.014 A 
ATOM     33  C   UNL A   1      40.900  22.164  25.818  1.00  0.00     0.014 A 
ATOM     34  C   UNL A   1      41.974  22.758  28.328  1.00  0.00     0.010 A 
ATOM     35  C   UNL A   1      41.418  23.426  26.065  1.00  0.00     0.010 A 
ATOM     36  C   UNL A   1      41.953  23.740  27.323  1.00  0.00    -0.014 A 
BRANCH  36  37
ATOM     37  C   UNL A   1      42.480  25.107  27.556  1.00  0.00     0.031 A 
ATOM     38  C   UNL A   1      41.602  26.140  28.210  1.00  0.00     0.074 A 
ATOM     39  C   UNL A   1      43.695  25.452  27.080  1.00  0.00     0.049 A 
ATOM     40  N   UNL A   1      41.836  27.410  28.416  1.00  0.00    -0.248 NA
ATOM     41  C   UNL A   1      40.265  25.701  28.646  1.00  0.00     0.031 C 
ATOM     42  C   UNL A   1      44.598  24.571  26.334  1.00  0.00     0.029 A 
ATOM     43  N   UNL A   1      44.370  26.646  27.133  1.00  0.00    -0.354 N 
ATOM     44  C   UNL A   1      40.663  27.926  28.954  1.00  0.00     0.074 A 
ATOM     45  C   UNL A   1      39.703  26.846  28.996  1.00  0.00     0.031 C 
ATOM     46  C   UNL A   1      45.712  25.249  26.014  1.00  0.00     0.029 A 
ATOM     47  C   UNL A   1      45.595  26.618  26.508  1.00  0.00     0.049 A 
ATOM     48  H   UNL A   1      44.011  27.447  27.577  1.00  0.00     0.167 HD
ATOM     49  C   UNL A   1      40.419  29.173  29.415  1.00  0.00     0.034 A 
ATOM     50  C   UNL A   1      46.521  27.585  26.356  1.00  0.00     0.034 A 
ATOM     51  C   UNL A   1      41.403  30.218  29.451  1.00  0.00     0.049 A 
ATOM     52  C   UNL A   1      46.261  28.939  26.962  1.00  0.00     0.074 A 
ATOM     53  C   UNL A   1      41.299  31.481  30.002  1.00  0.00     0.029 A 
ATOM     54  N   UNL A   1      42.679  30.114  28.920  1.00  0.00    -0.354 N 
ATOM     55  N   UNL A   1      45.210  29.358  27.624  1.00  0.00    -0.248 NA
ATOM     56  C   UNL A   1      47.330  29.941  26.838  1.00  0.00     0.031 C 
ATOM     57  C   UNL A   1      42.512  32.145  29.798  1.00  0.00     0.029 A 
ATOM     58  C   UNL A   1      43.375  31.291  29.130  1.00  0.00     0.049 A 
ATOM     59  H   UNL A   1      43.037  29.321  28.459  1.00  0.00     0.167 HD
ATOM     60  C   UNL A   1      45.502  30.657  28.023  1.00  0.00     0.074 A 
ATOM     61  C   UNL A   1      46.840  30.947  27.548  1.00  0.00     0.031 C 
ATOM     62  C   UNL A   1      44.729  31.537  28.705  1.00  0.00     0.034 A 
BRANCH  49  63
ATOM     63  C   UNL A   1      39.055  29.447  29.993  1.00  0.00     0.023 A 
ATOM     64  C   UNL A   1      38.757  29.010  31.301  1.00  0.00     0.012 A 
ATOM     65  C   UNL A   1      38.085  30.161  29.265  1.00  0.00     0.148 A 
ATOM     66  C   UNL A   1      37.502  29.243  31.860  1.00  0.00     0.002 A 
ATOM     67  C   UNL A   1      36.851  30.430  29.846  1.00  0.00     0.091 A 
ATOM     68  F   UNL A   1      38.377  30.546  28.014  1.00  0.00    -0.205 F 
ATOM     69  C   UNL A   1      36.554  29.961  31.137  1.00  0.00     0.022 A 
BRANCH  67  70
ATOM     70  S   UNL A   1      35.590  31.413  29.028  1.00  0.00     0.127 S 
ATOM     71  O   UNL A   1      34.836  31.932  30.170  1.00  0.00    -0.237 OA
ATOM     72  O   UNL A   1      36.389  32.414  28.321  1.00  0.00    -0.237 OA
ATOM     73  O   UNL A   1      34.865  30.494  28.164  1.00  0.00    -0.744 OA
ENDBRANCH  67  70
ENDBRANCH  49  63
BRANCH  50  74
ATOM     74  C   UNL A   1      47.817  27.282  25.683  1.00  0.00     0.023 A 
ATOM     75  C   UNL A   1      48.874  26.744  26.443  1.00  0.00     0.012 A 
ATOM     76  C   UNL A   1      48.000  27.490  24.303  1.00  0.00     0.148 A 
ATOM     77  C   UNL A   1      50.102  26.449  25.848  1.00  0.00     0.002 A 
ATOM     78  C   UNL A   1      49.209  27.145  23.706  1.00  0.00     0.091 A 
ATOM     79  F   UNL A   1      46.987  28.014  23.599  1.00  0.00    -0.205 F 
ATOM     80  C   UNL A   1      50.266  26.640  24.479  1.00  0.00     0.022 A 
BRANCH  78  81
ATOM     81  S   UNL A   1      49.463  27.236  21.930  1.00  0.00     0.127 S 
ATOM     82  O   UNL A   1      49.197  28.646  21.661  1.00  0.00    -0.237 OA
ATOM     83  O   UNL A   1      50.866  26.837  21.802  1.00  0.00    -0.237 OA
ATOM     84  O   UNL A   1      48.518  26.287  21.354  1.00  0.00    -0.744 OA
ENDBRANCH  78  81
ENDBRANCH  50  74
BRANCH  62  85
ATOM     85  C   UNL A   1      45.311  32.890  29.009  1.00  0.00     0.023 A 
ATOM     86  C   UNL A   1      46.075  33.073  30.178  1.00  0.00     0.012 A 
ATOM     87  C   UNL A   1      45.176  33.954  28.095  1.00  0.00     0.148 A 
ATOM     88  C   UNL A   1      46.676  34.301  30.445  1.00  0.00     0.002 A 
ATOM     89  C   UNL A   1      45.817  35.161  28.345  1.00  0.00     0.091 A 
ATOM     90  F   UNL A   1      44.428  33.765  26.999  1.00  0.00    -0.205 F 
ATOM     91  C   UNL A   1      46.558  35.340  29.524  1.00  0.00     0.022 A 
BRANCH  89  92
ATOM     92  S   UNL A   1      45.799  36.517  27.167  1.00  0.00     0.127 S 
ATOM     93  O   UNL A   1      46.408  35.898  25.992  1.00  0.00    -0.237 OA
ATOM     94  O   UNL A   1      44.368  36.799  27.037  1.00  0.00    -0.237 OA
ATOM     95  O   UNL A   1      46.569  37.590  27.783  1.00  0.00    -0.744 OA
ENDBRANCH  89  92
ENDBRANCH  62  85
ENDBRANCH  36  37
ENDBRANCH  28  31
ENDBRANCH  26  27
ENDBRANCH   1  26
TORSDOF 16
ENDMDL
