MODEL 1
REMARK VINA RESULT:     -10.0      0.000      0.000
REMARK SMILES CC(C)C(=O)Nc1ccc2c([C@H](C(=O)NCCCCNC(=O)c3ccc(-c4c5nc(c(-c6cccc(S(=O)(=O)[O-])c6F)c6ccc([nH]6)c(-c6cccc(S(=O)(=O)[O-])c6F)c6nc(c(-c7cccc(S(=O)(=O)[O-])c7F)c7ccc4[nH]7)C=C6)C=C5)cc3)[NH+]3CC[NH+](CC(=O)N(C)C)CC3)c[nH]c2c1
REMARK SMILES IDX 17 1 16 2 15 3 13 4 14 5 12 7 11 8 7 9 8 10 101 11 9 12
REMARK SMILES IDX 100 13 10 14 99 15 98 16 6 18 4 19 5 20 2 22 1 23 3 24 86 25
REMARK SMILES IDX 87 26 97 27 88 29 96 30 89 31 90 33 91 34 92 35 93 36 94 37
REMARK SMILES IDX 95 38 18 39 19 40 20 41 21 42 22 44 23 45 24 46 85 47 25 48
REMARK SMILES IDX 84 49 26 50 27 51 28 52 78 53 29 54 83 55 77 56 79 57 30 58
REMARK SMILES IDX 82 59 76 60 75 61 31 63 63 64 43 65 62 66 44 67 47 68 61 69
REMARK SMILES IDX 80 70 45 71 46 72 60 74 81 75 48 76 32 77 33 78 41 79 34 80
REMARK SMILES IDX 36 81 42 82 35 83 37 84 38 85 39 86 40 87 64 88 65 89 73 90
REMARK SMILES IDX 66 91 68 92 74 93 67 94 69 95 70 96 71 97 72 98 49 99 50 100
REMARK SMILES IDX 58 101 51 102 53 103 59 104 52 105 54 106 55 107 56 108
REMARK SMILES IDX 57 109
REMARK H PARENT 15 6 99 17 6 21 86 28 89 32 20 43 79 62 47 73
REMARK Flexibility Score: inf
ROOT
ATOM      1  C   UNL A   1      35.072  33.466  31.937  1.00  0.00     0.023 C 
ENDROOT
BRANCH   1   2
ATOM      2  C   UNL A   1      34.670  32.646  30.689  1.00  0.00     0.116 C 
BRANCH   2   3
ATOM      3  N   UNL A   1      35.198  33.113  29.408  1.00  0.00    -0.351 N 
ATOM      4  C   UNL A   1      35.556  32.510  28.218  1.00  0.00     0.283 C 
ATOM      5  O   UNL A   1      35.885  33.294  27.320  1.00  0.00    -0.268 OA
ATOM      6  H   UNL A   1      35.330  34.088  29.389  1.00  0.00     0.163 HD
BRANCH   4   7
ATOM      7  C   UNL A   1      35.571  30.962  28.036  1.00  0.00     0.308 C 
BRANCH   7   8
ATOM      8  C   UNL A   1      36.451  30.177  28.997  1.00  0.00     0.044 A 
ATOM      9  C   UNL A   1      40.282  28.470  28.667  1.00  0.00     0.043 A 
ATOM     10  C   UNL A   1      39.792  29.063  27.510  1.00  0.00     0.027 A 
ATOM     11  C   UNL A   1      39.458  28.283  29.782  1.00  0.00     0.052 A 
ATOM     12  C   UNL A   1      38.529  29.655  27.494  1.00  0.00     0.013 A 
ATOM     13  C   UNL A   1      38.208  28.915  29.762  1.00  0.00     0.048 A 
ATOM     14  C   UNL A   1      37.742  29.633  28.662  1.00  0.00     0.009 A 
ATOM     15  N   UNL A   1      37.232  28.988  30.727  1.00  0.00    -0.361 N 
ATOM     16  C   UNL A   1      36.191  29.761  30.291  1.00  0.00     0.094 A 
ATOM     17  H   UNL A   1      37.276  28.546  31.605  1.00  0.00     0.166 HD
BRANCH   9  18
ATOM     18  N   UNL A   1      41.609  28.047  28.754  1.00  0.00    -0.326 N 
ATOM     19  C   UNL A   1      42.169  26.873  28.335  1.00  0.00     0.226 C 
ATOM     20  O   UNL A   1      43.354  26.670  28.631  1.00  0.00    -0.274 OA
ATOM     21  H   UNL A   1      42.230  28.684  29.177  1.00  0.00     0.169 HD
BRANCH  19  22
ATOM     22  C   UNL A   1      41.435  25.859  27.441  1.00  0.00     0.072 C 
ATOM     23  C   UNL A   1      40.142  25.308  28.028  1.00  0.00     0.018 C 
ATOM     24  C   UNL A   1      41.286  26.287  25.981  1.00  0.00     0.018 C 
ENDBRANCH  19  22
ENDBRANCH   9  18
ENDBRANCH   7   8
BRANCH   7  25
ATOM     25  N   UNL A   1      34.235  30.324  28.020  1.00  0.00    -0.312 N 
ATOM     26  C   UNL A   1      33.034  31.019  27.537  1.00  0.00     0.325 C 
ATOM     27  C   UNL A   1      34.239  28.954  27.577  1.00  0.00     0.325 C 
ATOM     28  H   UNL A   1      34.095  30.398  29.027  1.00  0.00     0.349 HD
ATOM     29  C   UNL A   1      32.439  30.629  26.149  1.00  0.00     0.325 C 
ATOM     30  C   UNL A   1      34.003  28.801  26.060  1.00  0.00     0.325 C 
ATOM     31  N   UNL A   1      32.700  29.277  25.631  1.00  0.00    -0.318 N 
ATOM     32  H   UNL A   1      32.720  29.395  24.619  1.00  0.00     0.348 HD
BRANCH  31  33
ATOM     33  C   UNL A   1      31.620  28.283  25.741  1.00  0.00     0.364 C 
BRANCH  33  34
ATOM     34  C   UNL A   1      31.569  27.251  24.606  1.00  0.00     0.277 C 
ATOM     35  O   UNL A   1      31.828  26.068  24.858  1.00  0.00    -0.268 OA
ATOM     36  N   UNL A   1      31.276  27.659  23.300  1.00  0.00    -0.344 N 
ATOM     37  C   UNL A   1      30.880  28.993  22.863  1.00  0.00     0.146 C 
ATOM     38  C   UNL A   1      31.450  26.683  22.236  1.00  0.00     0.146 C 
ENDBRANCH  33  34
ENDBRANCH  31  33
ENDBRANCH   7  25
ENDBRANCH   4   7
ENDBRANCH   2   3
ENDBRANCH   1   2
BRANCH   1  39
ATOM     39  C   UNL A   1      35.677  32.696  33.112  1.00  0.00     0.023 C 
BRANCH  39  40
ATOM     40  C   UNL A   1      36.672  33.518  33.904  1.00  0.00     0.116 C 
BRANCH  40  41
ATOM     41  N   UNL A   1      36.805  33.042  35.278  1.00  0.00    -0.352 N 
ATOM     42  C   UNL A   1      37.685  32.109  35.784  1.00  0.00     0.251 C 
ATOM     43  H   UNL A   1      36.184  33.439  35.930  1.00  0.00     0.163 HD
ATOM     44  O   UNL A   1      37.579  31.716  36.933  1.00  0.00    -0.269 OA
BRANCH  42  45
ATOM     45  C   UNL A   1      38.732  31.575  34.890  1.00  0.00     0.039 A 
ATOM     46  C   UNL A   1      38.384  30.666  33.888  1.00  0.00     0.014 A 
ATOM     47  C   UNL A   1      40.044  32.035  35.009  1.00  0.00     0.014 A 
ATOM     48  C   UNL A   1      39.347  30.270  32.958  1.00  0.00     0.010 A 
ATOM     49  C   UNL A   1      40.963  31.736  34.020  1.00  0.00     0.010 A 
ATOM     50  C   UNL A   1      40.633  30.831  32.999  1.00  0.00    -0.014 A 
BRANCH  50  51
ATOM     51  C   UNL A   1      41.693  30.477  32.027  1.00  0.00     0.031 A 
ATOM     52  C   UNL A   1      42.392  29.152  32.169  1.00  0.00     0.074 A 
ATOM     53  C   UNL A   1      42.120  31.389  31.133  1.00  0.00     0.049 A 
ATOM     54  N   UNL A   1      43.469  28.715  31.576  1.00  0.00    -0.248 NA
ATOM     55  C   UNL A   1      41.833  28.215  33.162  1.00  0.00     0.031 C 
ATOM     56  C   UNL A   1      41.567  32.733  30.959  1.00  0.00     0.029 A 
ATOM     57  N   UNL A   1      43.146  31.331  30.226  1.00  0.00    -0.354 N 
ATOM     58  C   UNL A   1      43.754  27.492  32.170  1.00  0.00     0.074 A 
ATOM     59  C   UNL A   1      42.767  27.279  33.204  1.00  0.00     0.031 C 
ATOM     60  C   UNL A   1      42.253  33.369  29.995  1.00  0.00     0.029 A 
ATOM     61  C   UNL A   1      43.316  32.496  29.513  1.00  0.00     0.049 A 
ATOM     62  H   UNL A   1      43.708  30.533  30.097  1.00  0.00     0.167 HD
ATOM     63  C   UNL A   1      44.729  26.606  31.860  1.00  0.00     0.034 A 
ATOM     64  C   UNL A   1      44.233  32.817  28.581  1.00  0.00     0.034 A 
ATOM     65  C   UNL A   1      45.656  26.799  30.779  1.00  0.00     0.049 A 
ATOM     66  C   UNL A   1      45.265  31.790  28.199  1.00  0.00     0.074 A 
ATOM     67  C   UNL A   1      46.618  25.931  30.302  1.00  0.00     0.029 A 
ATOM     68  N   UNL A   1      45.724  27.946  30.001  1.00  0.00    -0.354 N 
ATOM     69  N   UNL A   1      45.441  30.581  28.680  1.00  0.00    -0.248 NA
ATOM     70  C   UNL A   1      46.202  32.156  27.129  1.00  0.00     0.031 C 
ATOM     71  C   UNL A   1      47.278  26.559  29.239  1.00  0.00     0.029 A 
ATOM     72  C   UNL A   1      46.709  27.808  29.042  1.00  0.00     0.049 A 
ATOM     73  H   UNL A   1      45.153  28.739  30.113  1.00  0.00     0.167 HD
ATOM     74  C   UNL A   1      46.478  30.025  27.940  1.00  0.00     0.074 A 
ATOM     75  C   UNL A   1      46.884  31.028  26.975  1.00  0.00     0.031 C 
ATOM     76  C   UNL A   1      47.050  28.800  28.053  1.00  0.00     0.034 A 
BRANCH  63  77
ATOM     77  C   UNL A   1      44.793  25.333  32.666  1.00  0.00     0.023 A 
ATOM     78  C   UNL A   1      44.143  24.173  32.192  1.00  0.00     0.012 A 
ATOM     79  C   UNL A   1      45.491  25.278  33.888  1.00  0.00     0.148 A 
ATOM     80  C   UNL A   1      44.134  23.001  32.947  1.00  0.00     0.002 A 
ATOM     81  C   UNL A   1      45.522  24.089  34.609  1.00  0.00     0.091 A 
ATOM     82  F   UNL A   1      46.084  26.392  34.340  1.00  0.00    -0.205 F 
ATOM     83  C   UNL A   1      44.830  22.957  34.151  1.00  0.00     0.022 A 
BRANCH  81  84
ATOM     84  S   UNL A   1      46.464  23.910  36.128  1.00  0.00     0.127 S 
ATOM     85  O   UNL A   1      45.768  24.838  37.019  1.00  0.00    -0.237 OA
ATOM     86  O   UNL A   1      46.267  22.495  36.450  1.00  0.00    -0.237 OA
ATOM     87  O   UNL A   1      47.834  24.266  35.791  1.00  0.00    -0.744 OA
ENDBRANCH  81  84
ENDBRANCH  63  77
BRANCH  64  88
ATOM     88  C   UNL A   1      44.146  34.127  27.877  1.00  0.00     0.023 A 
ATOM     89  C   UNL A   1      43.338  34.228  26.727  1.00  0.00     0.012 A 
ATOM     90  C   UNL A   1      44.801  35.277  28.358  1.00  0.00     0.148 A 
ATOM     91  C   UNL A   1      43.202  35.443  26.054  1.00  0.00     0.002 A 
ATOM     92  C   UNL A   1      44.621  36.496  27.712  1.00  0.00     0.091 A 
ATOM     93  F   UNL A   1      45.565  35.159  29.453  1.00  0.00    -0.205 F 
ATOM     94  C   UNL A   1      43.834  36.577  26.553  1.00  0.00     0.022 A 
BRANCH  92  95
ATOM     95  S   UNL A   1      45.291  38.038  28.345  1.00  0.00     0.127 S 
ATOM     96  O   UNL A   1      44.734  38.074  29.695  1.00  0.00    -0.237 OA
ATOM     97  O   UNL A   1      46.730  37.787  28.278  1.00  0.00    -0.237 OA
ATOM     98  O   UNL A   1      44.816  39.076  27.439  1.00  0.00    -0.744 OA
ENDBRANCH  92  95
ENDBRANCH  64  88
BRANCH  76  99
ATOM     99  C   UNL A   1      48.141  28.447  27.078  1.00  0.00     0.023 A 
ATOM    100  C   UNL A   1      49.485  28.450  27.496  1.00  0.00     0.012 A 
ATOM    101  C   UNL A   1      47.819  28.018  25.776  1.00  0.00     0.148 A 
ATOM    102  C   UNL A   1      50.497  28.055  26.621  1.00  0.00     0.002 A 
ATOM    103  C   UNL A   1      48.825  27.578  24.927  1.00  0.00     0.091 A 
ATOM    104  F   UNL A   1      46.532  28.042  25.395  1.00  0.00    -0.205 F 
ATOM    105  C   UNL A   1      50.166  27.607  25.345  1.00  0.00     0.022 A 
BRANCH 103 106
ATOM    106  S   UNL A   1      48.481  26.886  23.306  1.00  0.00     0.127 S 
ATOM    107  O   UNL A   1      47.574  27.886  22.743  1.00  0.00    -0.237 OA
ATOM    108  O   UNL A   1      49.811  26.856  22.694  1.00  0.00    -0.237 OA
ATOM    109  O   UNL A   1      47.896  25.575  23.545  1.00  0.00    -0.744 OA
ENDBRANCH 103 106
ENDBRANCH  76  99
ENDBRANCH  50  51
ENDBRANCH  42  45
ENDBRANCH  40  41
ENDBRANCH  39  40
ENDBRANCH   1  39
TORSDOF 20
ENDMDL
MODEL 2
REMARK VINA RESULT:      -9.4      3.766      9.098
REMARK SMILES CC(C)C(=O)Nc1ccc2c([C@H](C(=O)NCCCCNC(=O)c3ccc(-c4c5nc(c(-c6cccc(S(=O)(=O)[O-])c6F)c6ccc([nH]6)c(-c6cccc(S(=O)(=O)[O-])c6F)c6nc(c(-c7cccc(S(=O)(=O)[O-])c7F)c7ccc4[nH]7)C=C6)C=C5)cc3)[NH+]3CC[NH+](CC(=O)N(C)C)CC3)c[nH]c2c1
REMARK SMILES IDX 17 1 16 2 15 3 13 4 14 5 12 7 11 8 7 9 8 10 101 11 9 12
REMARK SMILES IDX 100 13 10 14 99 15 98 16 6 18 4 19 5 20 2 22 1 23 3 24 86 25
REMARK SMILES IDX 87 26 97 27 88 29 96 30 89 31 90 33 91 34 92 35 93 36 94 37
REMARK SMILES IDX 95 38 18 39 19 40 20 41 21 42 22 44 23 45 24 46 85 47 25 48
REMARK SMILES IDX 84 49 26 50 27 51 28 52 78 53 29 54 83 55 77 56 79 57 30 58
REMARK SMILES IDX 82 59 76 60 75 61 31 63 63 64 43 65 62 66 44 67 47 68 61 69
REMARK SMILES IDX 80 70 45 71 46 72 60 74 81 75 48 76 32 77 33 78 41 79 34 80
REMARK SMILES IDX 36 81 42 82 35 83 37 84 38 85 39 86 40 87 64 88 65 89 73 90
REMARK SMILES IDX 66 91 68 92 74 93 67 94 69 95 70 96 71 97 72 98 49 99 50 100
REMARK SMILES IDX 58 101 51 102 53 103 59 104 52 105 54 106 55 107 56 108
REMARK SMILES IDX 57 109
REMARK H PARENT 15 6 99 17 6 21 86 28 89 32 20 43 79 62 47 73
REMARK Flexibility Score: inf
ROOT
ATOM      1  C   UNL A   1      39.177  35.291  38.534  1.00  0.00     0.023 C 
ENDROOT
BRANCH   1   2
ATOM      2  C   UNL A   1      39.201  34.910  37.035  1.00  0.00     0.116 C 
BRANCH   2   3
ATOM      3  N   UNL A   1      39.647  33.554  36.716  1.00  0.00    -0.351 N 
ATOM      4  C   UNL A   1      39.675  32.775  35.576  1.00  0.00     0.283 C 
ATOM      5  O   UNL A   1      40.231  31.679  35.714  1.00  0.00    -0.268 OA
ATOM      6  H   UNL A   1      40.012  33.086  37.501  1.00  0.00     0.163 HD
BRANCH   4   7
ATOM      7  C   UNL A   1      39.030  33.234  34.233  1.00  0.00     0.308 C 
BRANCH   7   8
ATOM      8  C   UNL A   1      39.732  32.790  32.959  1.00  0.00     0.044 A 
ATOM      9  C   UNL A   1      40.250  29.052  31.099  1.00  0.00     0.043 A 
ATOM     10  C   UNL A   1      39.585  29.024  32.318  1.00  0.00     0.027 A 
ATOM     11  C   UNL A   1      40.875  30.219  30.649  1.00  0.00     0.052 A 
ATOM     12  C   UNL A   1      39.361  30.200  33.034  1.00  0.00     0.013 A 
ATOM     13  C   UNL A   1      40.609  31.398  31.359  1.00  0.00     0.048 A 
ATOM     14  C   UNL A   1      39.831  31.423  32.516  1.00  0.00     0.009 A 
ATOM     15  N   UNL A   1      40.999  32.692  31.115  1.00  0.00    -0.361 N 
ATOM     16  C   UNL A   1      40.459  33.534  32.047  1.00  0.00     0.094 A 
ATOM     17  H   UNL A   1      41.584  32.972  30.374  1.00  0.00     0.166 HD
BRANCH   9  18
ATOM     18  N   UNL A   1      40.312  27.920  30.285  1.00  0.00    -0.326 N 
ATOM     19  C   UNL A   1      39.488  27.547  29.261  1.00  0.00     0.226 C 
ATOM     20  O   UNL A   1      39.672  26.431  28.759  1.00  0.00    -0.274 OA
ATOM     21  H   UNL A   1      41.056  27.302  30.475  1.00  0.00     0.169 HD
BRANCH  19  22
ATOM     22  C   UNL A   1      38.428  28.480  28.649  1.00  0.00     0.072 C 
ATOM     23  C   UNL A   1      37.439  29.066  29.649  1.00  0.00     0.018 C 
ATOM     24  C   UNL A   1      38.982  29.527  27.683  1.00  0.00     0.018 C 
ENDBRANCH  19  22
ENDBRANCH   9  18
ENDBRANCH   7   8
BRANCH   7  25
ATOM     25  N   UNL A   1      37.592  32.915  34.093  1.00  0.00    -0.312 N 
ATOM     26  C   UNL A   1      36.597  33.286  35.109  1.00  0.00     0.325 C 
ATOM     27  C   UNL A   1      37.065  33.126  32.770  1.00  0.00     0.325 C 
ATOM     28  H   UNL A   1      37.705  31.924  34.304  1.00  0.00     0.349 HD
ATOM     29  C   UNL A   1      35.622  34.469  34.819  1.00  0.00     0.325 C 
ATOM     30  C   UNL A   1      36.468  34.534  32.566  1.00  0.00     0.325 C 
ATOM     31  N   UNL A   1      35.322  34.801  33.418  1.00  0.00    -0.318 N 
ATOM     32  H   UNL A   1      35.159  35.806  33.427  1.00  0.00     0.348 HD
BRANCH  31  33
ATOM     33  C   UNL A   1      34.035  34.347  32.868  1.00  0.00     0.364 C 
BRANCH  33  34
ATOM     34  C   UNL A   1      33.707  34.869  31.464  1.00  0.00     0.277 C 
ATOM     35  O   UNL A   1      33.718  34.080  30.511  1.00  0.00    -0.268 OA
ATOM     36  N   UNL A   1      33.443  36.229  31.266  1.00  0.00    -0.344 N 
ATOM     37  C   UNL A   1      33.321  37.261  32.290  1.00  0.00     0.146 C 
ATOM     38  C   UNL A   1      33.351  36.704  29.894  1.00  0.00     0.146 C 
ENDBRANCH  33  34
ENDBRANCH  31  33
ENDBRANCH   7  25
ENDBRANCH   4   7
ENDBRANCH   2   3
ENDBRANCH   1   2
BRANCH   1  39
ATOM     39  C   UNL A   1      39.796  36.635  38.922  1.00  0.00     0.023 C 
BRANCH  39  40
ATOM     40  C   UNL A   1      41.174  36.493  39.532  1.00  0.00     0.116 C 
BRANCH  40  41
ATOM     41  N   UNL A   1      42.013  37.660  39.266  1.00  0.00    -0.352 N 
ATOM     42  C   UNL A   1      42.946  37.840  38.268  1.00  0.00     0.251 C 
ATOM     43  H   UNL A   1      41.896  38.418  39.883  1.00  0.00     0.163 HD
ATOM     44  O   UNL A   1      43.666  38.823  38.263  1.00  0.00    -0.269 OA
BRANCH  42  45
ATOM     45  C   UNL A   1      43.073  36.797  37.230  1.00  0.00     0.039 A 
ATOM     46  C   UNL A   1      42.059  36.643  36.280  1.00  0.00     0.014 A 
ATOM     47  C   UNL A   1      44.232  36.024  37.164  1.00  0.00     0.014 A 
ATOM     48  C   UNL A   1      42.244  35.754  35.220  1.00  0.00     0.010 A 
ATOM     49  C   UNL A   1      44.462  35.235  36.052  1.00  0.00     0.010 A 
ATOM     50  C   UNL A   1      43.462  35.072  35.082  1.00  0.00    -0.014 A 
BRANCH  50  51
ATOM     51  C   UNL A   1      43.734  34.135  33.966  1.00  0.00     0.031 A 
ATOM     52  C   UNL A   1      43.776  34.675  32.562  1.00  0.00     0.074 A 
ATOM     53  C   UNL A   1      43.791  32.810  34.197  1.00  0.00     0.049 A 
ATOM     54  N   UNL A   1      43.793  34.031  31.427  1.00  0.00    -0.248 NA
ATOM     55  C   UNL A   1      43.730  36.142  32.418  1.00  0.00     0.031 C 
ATOM     56  C   UNL A   1      43.684  32.171  35.510  1.00  0.00     0.029 A 
ATOM     57  N   UNL A   1      43.915  31.761  33.325  1.00  0.00    -0.354 N 
ATOM     58  C   UNL A   1      43.690  35.005  30.442  1.00  0.00     0.074 A 
ATOM     59  C   UNL A   1      43.560  36.278  31.113  1.00  0.00     0.031 C 
ATOM     60  C   UNL A   1      43.760  30.839  35.358  1.00  0.00     0.029 A 
ATOM     61  C   UNL A   1      43.879  30.529  33.937  1.00  0.00     0.049 A 
ATOM     62  H   UNL A   1      44.021  31.877  32.353  1.00  0.00     0.167 HD
ATOM     63  C   UNL A   1      43.737  34.858  29.097  1.00  0.00     0.034 A 
ATOM     64  C   UNL A   1      43.931  29.293  33.405  1.00  0.00     0.034 A 
ATOM     65  C   UNL A   1      43.943  33.594  28.449  1.00  0.00     0.049 A 
ATOM     66  C   UNL A   1      44.054  29.155  31.912  1.00  0.00     0.074 A 
ATOM     67  C   UNL A   1      44.112  33.332  27.102  1.00  0.00     0.029 A 
ATOM     68  N   UNL A   1      44.019  32.376  29.110  1.00  0.00    -0.354 N 
ATOM     69  N   UNL A   1      44.089  30.096  30.997  1.00  0.00    -0.248 NA
ATOM     70  C   UNL A   1      44.178  27.792  31.380  1.00  0.00     0.031 C 
ATOM     71  C   UNL A   1      44.278  31.950  26.949  1.00  0.00     0.029 A 
ATOM     72  C   UNL A   1      44.236  31.358  28.202  1.00  0.00     0.049 A 
ATOM     73  H   UNL A   1      43.932  32.256  30.083  1.00  0.00     0.167 HD
ATOM     74  C   UNL A   1      44.284  29.442  29.786  1.00  0.00     0.074 A 
ATOM     75  C   UNL A   1      44.367  28.027  30.087  1.00  0.00     0.031 C 
ATOM     76  C   UNL A   1      44.377  29.962  28.537  1.00  0.00     0.034 A 
BRANCH  63  77
ATOM     77  C   UNL A   1      43.620  36.107  28.258  1.00  0.00     0.023 A 
ATOM     78  C   UNL A   1      42.342  36.613  27.935  1.00  0.00     0.012 A 
ATOM     79  C   UNL A   1      44.763  36.779  27.788  1.00  0.00     0.148 A 
ATOM     80  C   UNL A   1      42.205  37.728  27.111  1.00  0.00     0.002 A 
ATOM     81  C   UNL A   1      44.618  37.923  27.010  1.00  0.00     0.091 A 
ATOM     82  F   UNL A   1      45.971  36.275  28.081  1.00  0.00    -0.205 F 
ATOM     83  C   UNL A   1      43.342  38.388  26.655  1.00  0.00     0.022 A 
BRANCH  81  84
ATOM     84  S   UNL A   1      46.024  38.890  26.448  1.00  0.00     0.127 S 
ATOM     85  O   UNL A   1      45.369  39.930  25.656  1.00  0.00    -0.237 OA
ATOM     86  O   UNL A   1      46.602  39.358  27.708  1.00  0.00    -0.237 OA
ATOM     87  O   UNL A   1      46.869  37.967  25.703  1.00  0.00    -0.744 OA
ENDBRANCH  81  84
ENDBRANCH  63  77
BRANCH  64  88
ATOM     88  C   UNL A   1      43.971  28.103  34.300  1.00  0.00     0.023 A 
ATOM     89  C   UNL A   1      45.223  27.568  34.663  1.00  0.00     0.012 A 
ATOM     90  C   UNL A   1      42.800  27.534  34.837  1.00  0.00     0.148 A 
ATOM     91  C   UNL A   1      45.309  26.473  35.524  1.00  0.00     0.002 A 
ATOM     92  C   UNL A   1      42.895  26.475  35.734  1.00  0.00     0.091 A 
ATOM     93  F   UNL A   1      41.619  28.058  34.479  1.00  0.00    -0.205 F 
ATOM     94  C   UNL A   1      44.146  25.934  36.067  1.00  0.00     0.022 A 
BRANCH  92  95
ATOM     95  S   UNL A   1      41.467  25.791  36.585  1.00  0.00     0.127 S 
ATOM     96  O   UNL A   1      40.642  25.341  35.466  1.00  0.00    -0.237 OA
ATOM     97  O   UNL A   1      42.074  24.721  37.374  1.00  0.00    -0.237 OA
ATOM     98  O   UNL A   1      40.916  26.886  37.373  1.00  0.00    -0.744 OA
ENDBRANCH  92  95
ENDBRANCH  64  88
BRANCH  76  99
ATOM     99  C   UNL A   1      44.634  29.010  27.402  1.00  0.00     0.023 A 
ATOM    100  C   UNL A   1      45.903  28.968  26.792  1.00  0.00     0.012 A 
ATOM    101  C   UNL A   1      43.643  28.090  27.007  1.00  0.00     0.148 A 
ATOM    102  C   UNL A   1      46.172  28.039  25.787  1.00  0.00     0.002 A 
ATOM    103  C   UNL A   1      43.935  27.135  26.042  1.00  0.00     0.091 A 
ATOM    104  F   UNL A   1      42.436  28.161  27.589  1.00  0.00    -0.205 F 
ATOM    105  C   UNL A   1      45.195  27.116  25.424  1.00  0.00     0.022 A 
BRANCH 103 106
ATOM    106  S   UNL A   1      42.773  25.843  25.587  1.00  0.00     0.127 S 
ATOM    107  O   UNL A   1      43.581  25.020  24.688  1.00  0.00    -0.237 OA
ATOM    108  O   UNL A   1      42.477  25.224  26.881  1.00  0.00    -0.237 OA
ATOM    109  O   UNL A   1      41.642  26.520  24.969  1.00  0.00    -0.744 OA
ENDBRANCH 103 106
ENDBRANCH  76  99
ENDBRANCH  50  51
ENDBRANCH  42  45
ENDBRANCH  40  41
ENDBRANCH  39  40
ENDBRANCH   1  39
TORSDOF 20
ENDMDL
MODEL 3
REMARK VINA RESULT:      -9.3      0.815      7.138
REMARK SMILES CC(C)C(=O)Nc1ccc2c([C@H](C(=O)NCCCCNC(=O)c3ccc(-c4c5nc(c(-c6cccc(S(=O)(=O)[O-])c6F)c6ccc([nH]6)c(-c6cccc(S(=O)(=O)[O-])c6F)c6nc(c(-c7cccc(S(=O)(=O)[O-])c7F)c7ccc4[nH]7)C=C6)C=C5)cc3)[NH+]3CC[NH+](CC(=O)N(C)C)CC3)c[nH]c2c1
REMARK SMILES IDX 17 1 16 2 15 3 13 4 14 5 12 7 11 8 7 9 8 10 101 11 9 12
REMARK SMILES IDX 100 13 10 14 99 15 98 16 6 18 4 19 5 20 2 22 1 23 3 24 86 25
REMARK SMILES IDX 87 26 97 27 88 29 96 30 89 31 90 33 91 34 92 35 93 36 94 37
REMARK SMILES IDX 95 38 18 39 19 40 20 41 21 42 22 44 23 45 24 46 85 47 25 48
REMARK SMILES IDX 84 49 26 50 27 51 28 52 78 53 29 54 83 55 77 56 79 57 30 58
REMARK SMILES IDX 82 59 76 60 75 61 31 63 63 64 43 65 62 66 44 67 47 68 61 69
REMARK SMILES IDX 80 70 45 71 46 72 60 74 81 75 48 76 32 77 33 78 41 79 34 80
REMARK SMILES IDX 36 81 42 82 35 83 37 84 38 85 39 86 40 87 64 88 65 89 73 90
REMARK SMILES IDX 66 91 68 92 74 93 67 94 69 95 70 96 71 97 72 98 49 99 50 100
REMARK SMILES IDX 58 101 51 102 53 103 59 104 52 105 54 106 55 107 56 108
REMARK SMILES IDX 57 109
REMARK H PARENT 15 6 99 17 6 21 86 28 89 32 20 43 79 62 47 73
REMARK Flexibility Score: inf
ROOT
ATOM      1  C   UNL A   1      34.238  33.639  31.996  1.00  0.00     0.023 C 
ENDROOT
BRANCH   1   2
ATOM      2  C   UNL A   1      35.029  32.601  31.166  1.00  0.00     0.116 C 
BRANCH   2   3
ATOM      3  N   UNL A   1      35.772  33.119  30.018  1.00  0.00    -0.351 N 
ATOM      4  C   UNL A   1      36.220  32.592  28.822  1.00  0.00     0.283 C 
ATOM      5  O   UNL A   1      36.749  33.411  28.063  1.00  0.00    -0.268 OA
ATOM      6  H   UNL A   1      36.011  34.068  30.122  1.00  0.00     0.163 HD
BRANCH   4   7
ATOM      7  C   UNL A   1      36.091  31.077  28.476  1.00  0.00     0.308 C 
BRANCH   7   8
ATOM      8  C   UNL A   1      36.880  30.114  29.350  1.00  0.00     0.044 A 
ATOM      9  C   UNL A   1      40.396  27.885  28.747  1.00  0.00     0.043 A 
ATOM     10  C   UNL A   1      39.956  28.612  27.649  1.00  0.00     0.027 A 
ATOM     11  C   UNL A   1      39.598  27.754  29.888  1.00  0.00     0.052 A 
ATOM     12  C   UNL A   1      38.796  29.384  27.724  1.00  0.00     0.013 A 
ATOM     13  C   UNL A   1      38.456  28.563  29.962  1.00  0.00     0.048 A 
ATOM     14  C   UNL A   1      38.061  29.408  28.926  1.00  0.00     0.009 A 
ATOM     15  N   UNL A   1      37.540  28.721  30.974  1.00  0.00    -0.361 N 
ATOM     16  C   UNL A   1      36.611  29.663  30.630  1.00  0.00     0.094 A 
ATOM     17  H   UNL A   1      37.551  28.225  31.824  1.00  0.00     0.166 HD
BRANCH   9  18
ATOM     18  N   UNL A   1      41.647  27.266  28.749  1.00  0.00    -0.326 N 
ATOM     19  C   UNL A   1      42.032  26.098  28.153  1.00  0.00     0.226 C 
ATOM     20  O   UNL A   1      43.174  25.685  28.395  1.00  0.00    -0.274 OA
ATOM     21  H   UNL A   1      42.353  27.738  29.250  1.00  0.00     0.169 HD
BRANCH  19  22
ATOM     22  C   UNL A   1      41.163  25.344  27.133  1.00  0.00     0.072 C 
ATOM     23  C   UNL A   1      41.932  24.427  26.191  1.00  0.00     0.018 C 
ATOM     24  C   UNL A   1      39.921  24.677  27.722  1.00  0.00     0.018 C 
ENDBRANCH  19  22
ENDBRANCH   9  18
ENDBRANCH   7   8
BRANCH   7  25
ATOM     25  N   UNL A   1      34.702  30.574  28.387  1.00  0.00    -0.312 N 
ATOM     26  C   UNL A   1      33.574  31.434  27.998  1.00  0.00     0.325 C 
ATOM     27  C   UNL A   1      34.580  29.276  27.778  1.00  0.00     0.325 C 
ATOM     28  H   UNL A   1      34.561  30.537  29.396  1.00  0.00     0.349 HD
ATOM     29  C   UNL A   1      32.956  31.276  26.575  1.00  0.00     0.325 C 
ATOM     30  C   UNL A   1      34.342  29.333  26.254  1.00  0.00     0.325 C 
ATOM     31  N   UNL A   1      33.092  29.980  25.893  1.00  0.00    -0.318 N 
ATOM     32  H   UNL A   1      33.131  30.219  24.904  1.00  0.00     0.348 HD
BRANCH  31  33
ATOM     33  C   UNL A   1      31.923  29.086  25.884  1.00  0.00     0.364 C 
BRANCH  33  34
ATOM     34  C   UNL A   1      31.306  28.837  24.502  1.00  0.00     0.277 C 
ATOM     35  O   UNL A   1      30.465  29.633  24.067  1.00  0.00    -0.268 OA
ATOM     36  N   UNL A   1      31.662  27.699  23.769  1.00  0.00    -0.344 N 
ATOM     37  C   UNL A   1      32.684  26.716  24.112  1.00  0.00     0.146 C 
ATOM     38  C   UNL A   1      30.893  27.402  22.571  1.00  0.00     0.146 C 
ENDBRANCH  33  34
ENDBRANCH  31  33
ENDBRANCH   7  25
ENDBRANCH   4   7
ENDBRANCH   2   3
ENDBRANCH   1   2
BRANCH   1  39
ATOM     39  C   UNL A   1      34.775  33.974  33.388  1.00  0.00     0.023 C 
BRANCH  39  40
ATOM     40  C   UNL A   1      36.184  33.469  33.612  1.00  0.00     0.116 C 
BRANCH  40  41
ATOM     41  N   UNL A   1      36.402  33.046  34.993  1.00  0.00    -0.352 N 
ATOM     42  C   UNL A   1      37.491  32.397  35.533  1.00  0.00     0.251 C 
ATOM     43  H   UNL A   1      35.673  33.252  35.622  1.00  0.00     0.163 HD
ATOM     44  O   UNL A   1      37.463  31.988  36.681  1.00  0.00    -0.269 OA
BRANCH  42  45
ATOM     45  C   UNL A   1      38.675  32.181  34.676  1.00  0.00     0.039 A 
ATOM     46  C   UNL A   1      39.948  32.461  35.177  1.00  0.00     0.014 A 
ATOM     47  C   UNL A   1      38.515  31.632  33.404  1.00  0.00     0.014 A 
ATOM     48  C   UNL A   1      41.071  32.126  34.418  1.00  0.00     0.010 A 
ATOM     49  C   UNL A   1      39.627  31.193  32.707  1.00  0.00     0.010 A 
ATOM     50  C   UNL A   1      40.916  31.457  33.195  1.00  0.00    -0.014 A 
BRANCH  50  51
ATOM     51  C   UNL A   1      42.065  31.048  32.353  1.00  0.00     0.031 A 
ATOM     52  C   UNL A   1      42.563  31.997  31.298  1.00  0.00     0.074 A 
ATOM     53  C   UNL A   1      42.548  29.794  32.437  1.00  0.00     0.049 A 
ATOM     54  N   UNL A   1      43.405  31.785  30.323  1.00  0.00    -0.248 NA
ATOM     55  C   UNL A   1      41.985  33.354  31.305  1.00  0.00     0.031 C 
ATOM     56  C   UNL A   1      42.087  28.766  33.371  1.00  0.00     0.029 A 
ATOM     57  N   UNL A   1      43.512  29.163  31.695  1.00  0.00    -0.354 N 
ATOM     58  C   UNL A   1      43.404  32.951  29.567  1.00  0.00     0.074 A 
ATOM     59  C   UNL A   1      42.442  33.847  30.166  1.00  0.00     0.031 C 
ATOM     60  C   UNL A   1      42.777  27.634  33.154  1.00  0.00     0.029 A 
ATOM     61  C   UNL A   1      43.698  27.844  32.042  1.00  0.00     0.049 A 
ATOM     62  H   UNL A   1      44.023  29.609  30.982  1.00  0.00     0.167 HD
ATOM     63  C   UNL A   1      44.164  33.263  28.491  1.00  0.00     0.034 A 
ATOM     64  C   UNL A   1      44.516  26.914  31.514  1.00  0.00     0.034 A 
ATOM     65  C   UNL A   1      45.170  32.389  27.956  1.00  0.00     0.049 A 
ATOM     66  C   UNL A   1      45.404  27.304  30.364  1.00  0.00     0.074 A 
ATOM     67  C   UNL A   1      46.072  32.633  26.937  1.00  0.00     0.029 A 
ATOM     68  N   UNL A   1      45.410  31.100  28.409  1.00  0.00    -0.354 N 
ATOM     69  N   UNL A   1      45.488  28.456  29.741  1.00  0.00    -0.248 NA
ATOM     70  C   UNL A   1      46.331  26.280  29.864  1.00  0.00     0.031 C 
ATOM     71  C   UNL A   1      46.852  31.483  26.767  1.00  0.00     0.029 A 
ATOM     72  C   UNL A   1      46.449  30.534  27.695  1.00  0.00     0.049 A 
ATOM     73  H   UNL A   1      44.915  30.654  29.133  1.00  0.00     0.167 HD
ATOM     74  C   UNL A   1      46.507  28.311  28.807  1.00  0.00     0.074 A 
ATOM     75  C   UNL A   1      47.014  26.961  28.953  1.00  0.00     0.031 C 
ATOM     76  C   UNL A   1      46.976  29.208  27.904  1.00  0.00     0.034 A 
BRANCH  63  77
ATOM     77  C   UNL A   1      43.966  34.625  27.873  1.00  0.00     0.023 A 
ATOM     78  C   UNL A   1      42.943  34.817  26.919  1.00  0.00     0.012 A 
ATOM     79  C   UNL A   1      44.785  35.713  28.229  1.00  0.00     0.148 A 
ATOM     80  C   UNL A   1      42.778  36.048  26.288  1.00  0.00     0.002 A 
ATOM     81  C   UNL A   1      44.579  36.953  27.633  1.00  0.00     0.091 A 
ATOM     82  F   UNL A   1      45.769  35.513  29.118  1.00  0.00    -0.205 F 
ATOM     83  C   UNL A   1      43.590  37.118  26.651  1.00  0.00     0.022 A 
BRANCH  81  84
ATOM     84  S   UNL A   1      45.519  38.412  28.098  1.00  0.00     0.127 S 
ATOM     85  O   UNL A   1      45.007  39.406  27.155  1.00  0.00    -0.237 OA
ATOM     86  O   UNL A   1      45.105  38.619  29.486  1.00  0.00    -0.237 OA
ATOM     87  O   UNL A   1      46.920  38.051  27.934  1.00  0.00    -0.744 OA
ENDBRANCH  81  84
ENDBRANCH  63  77
BRANCH  64  88
ATOM     88  C   UNL A   1      44.604  25.565  32.139  1.00  0.00     0.023 A 
ATOM     89  C   UNL A   1      43.920  24.491  31.535  1.00  0.00     0.012 A 
ATOM     90  C   UNL A   1      45.394  25.321  33.279  1.00  0.00     0.148 A 
ATOM     91  C   UNL A   1      44.001  23.203  32.067  1.00  0.00     0.002 A 
ATOM     92  C   UNL A   1      45.509  24.026  33.775  1.00  0.00     0.091 A 
ATOM     93  F   UNL A   1      46.035  26.356  33.839  1.00  0.00    -0.205 F 
ATOM     94  C   UNL A   1      44.802  22.970  33.180  1.00  0.00     0.022 A 
BRANCH  92  95
ATOM     95  S   UNL A   1      46.613  23.600  35.127  1.00  0.00     0.127 S 
ATOM     96  O   UNL A   1      46.372  22.166  35.268  1.00  0.00    -0.237 OA
ATOM     97  O   UNL A   1      47.918  23.954  34.570  1.00  0.00    -0.237 OA
ATOM     98  O   UNL A   1      46.194  24.423  36.254  1.00  0.00    -0.744 OA
ENDBRANCH  92  95
ENDBRANCH  64  88
BRANCH  76  99
ATOM     99  C   UNL A   1      48.130  28.786  27.036  1.00  0.00     0.023 A 
ATOM    100  C   UNL A   1      49.445  28.854  27.533  1.00  0.00     0.012 A 
ATOM    101  C   UNL A   1      47.896  28.231  25.762  1.00  0.00     0.148 A 
ATOM    102  C   UNL A   1      50.515  28.399  26.763  1.00  0.00     0.002 A 
ATOM    103  C   UNL A   1      48.960  27.733  25.023  1.00  0.00     0.091 A 
ATOM    104  F   UNL A   1      46.636  28.194  25.302  1.00  0.00    -0.205 F 
ATOM    105  C   UNL A   1      50.271  27.827  25.517  1.00  0.00     0.022 A 
BRANCH 103 106
ATOM    106  S   UNL A   1      48.728  26.887  23.456  1.00  0.00     0.127 S 
ATOM    107  O   UNL A   1      48.068  25.652  23.879  1.00  0.00    -0.237 OA
ATOM    108  O   UNL A   1      47.868  27.819  22.725  1.00  0.00    -0.237 OA
ATOM    109  O   UNL A   1      50.058  26.722  22.888  1.00  0.00    -0.744 OA
ENDBRANCH 103 106
ENDBRANCH  76  99
ENDBRANCH  50  51
ENDBRANCH  42  45
ENDBRANCH  40  41
ENDBRANCH  39  40
ENDBRANCH   1  39
TORSDOF 20
ENDMDL
