MODEL 1
REMARK VINA RESULT:     -12.3      0.000      0.000
REMARK SMILES Cc1cc2c(c(C)c1Br)C=C(C(=O)NCCCCNC(=O)c1ccc(-c3c4nc(c(-c5cccc(S(=O)(=O)[O-])c5F)c5ccc([nH]5)c(-c5cccc(S(=O)(=O)[O-])c5F)c5nc(c(-c6cccc(S(=O)(=O)[O-])c6F)c6ccc3[nH]6)C=C5)C=C4)cc1)[C@@H](C(F)(F)F)O2
REMARK SMILES IDX 17 1 16 2 15 3 14 4 12 5 13 6 11 8 1 9 2 10 3 11 8 12 4 13
REMARK SMILES IDX 6 14 9 15 5 16 90 17 7 18 10 19 85 20 86 21 87 22 88 23
REMARK SMILES IDX 89 24 18 25 19 26 20 27 21 29 22 30 23 31 84 32 24 33 83 34
REMARK SMILES IDX 25 35 26 36 27 37 77 38 28 39 82 40 76 41 78 42 29 43 81 44
REMARK SMILES IDX 75 45 74 46 30 48 62 49 42 50 61 51 43 52 46 53 60 54 79 55
REMARK SMILES IDX 44 56 45 57 59 59 80 60 47 61 31 62 32 63 40 64 33 65 35 66
REMARK SMILES IDX 41 67 34 68 36 69 37 70 38 71 39 72 63 73 64 74 72 75 65 76
REMARK SMILES IDX 67 77 73 78 66 79 68 80 69 81 70 82 71 83 48 84 49 85 57 86
REMARK SMILES IDX 50 87 52 88 58 89 51 90 53 91 54 92 55 93 56 94
REMARK H PARENT 14 7 19 28 78 47 46 58
REMARK Flexibility Score: inf
ROOT
ATOM      1  C   UNL A   1      31.139  32.017  26.415  1.00  0.00     0.023 C 
ENDROOT
BRANCH   1   2
ATOM      2  C   UNL A   1      31.157  30.784  25.509  1.00  0.00     0.023 C 
BRANCH   2   3
ATOM      3  C   UNL A   1      32.169  29.721  25.925  1.00  0.00     0.116 C 
BRANCH   3   4
ATOM      4  N   UNL A   1      33.175  29.499  24.902  1.00  0.00    -0.352 N 
ATOM      5  C   UNL A   1      33.635  28.454  24.176  1.00  0.00     0.251 C 
ATOM      6  O   UNL A   1      34.542  28.722  23.381  1.00  0.00    -0.270 OA
ATOM      7  H   UNL A   1      33.650  30.331  24.677  1.00  0.00     0.163 HD
BRANCH   5   8
ATOM      8  C   UNL A   1      33.133  27.050  24.266  1.00  0.00     0.067 C 
ATOM      9  C   UNL A   1      32.153  20.662  25.014  1.00  0.00     0.046 C 
ATOM     10  C   UNL A   1      32.738  22.049  24.958  1.00  0.00    -0.033 A 
ATOM     11  C   UNL A   1      31.842  23.106  24.762  1.00  0.00     0.051 A 
ATOM     12  C   UNL A   1      34.119  22.335  25.025  1.00  0.00     0.024 A 
ATOM     13  C   UNL A   1      32.296  24.414  24.650  1.00  0.00     0.128 A 
ATOM     14  C   UNL A   1      34.594  23.671  24.943  1.00  0.00    -0.026 A 
ATOM     15  Br  UNL A   1      35.344  20.875  25.211  1.00  0.00    -0.050 Br
ATOM     16  C   UNL A   1      33.656  24.717  24.751  1.00  0.00     0.021 A 
ATOM     17  O   UNL A   1      31.325  25.358  24.479  1.00  0.00    -0.475 OA
ATOM     18  C   UNL A   1      36.061  24.020  25.049  1.00  0.00     0.046 C 
ATOM     19  C   UNL A   1      34.032  26.134  24.673  1.00  0.00     0.026 C 
ATOM     20  C   UNL A   1      31.745  26.621  23.900  1.00  0.00     0.314 C 
BRANCH  20  21
ATOM     21  C   UNL A   1      31.511  26.587  22.377  1.00  0.00     0.429 C 
ATOM     22  F   UNL A   1      30.983  25.391  22.008  1.00  0.00    -0.167 F 
ATOM     23  F   UNL A   1      30.643  27.535  21.960  1.00  0.00    -0.167 F 
ATOM     24  F   UNL A   1      32.653  26.757  21.672  1.00  0.00    -0.167 F 
ENDBRANCH  20  21
ENDBRANCH   5   8
ENDBRANCH   3   4
ENDBRANCH   2   3
ENDBRANCH   1   2
BRANCH   1  25
ATOM     25  C   UNL A   1      32.476  32.372  27.066  1.00  0.00     0.116 C 
BRANCH  25  26
ATOM     26  N   UNL A   1      32.558  33.757  27.509  1.00  0.00    -0.352 N 
ATOM     27  C   UNL A   1      33.487  34.328  28.346  1.00  0.00     0.251 C 
ATOM     28  H   UNL A   1      31.860  34.360  27.168  1.00  0.00     0.163 HD
ATOM     29  O   UNL A   1      33.365  35.495  28.706  1.00  0.00    -0.269 OA
BRANCH  27  30
ATOM     30  C   UNL A   1      34.613  33.507  28.830  1.00  0.00     0.039 A 
ATOM     31  C   UNL A   1      35.918  33.934  28.578  1.00  0.00     0.014 A 
ATOM     32  C   UNL A   1      34.371  32.345  29.569  1.00  0.00     0.014 A 
ATOM     33  C   UNL A   1      36.989  33.223  29.122  1.00  0.00     0.010 A 
ATOM     34  C   UNL A   1      35.435  31.675  30.159  1.00  0.00     0.010 A 
ATOM     35  C   UNL A   1      36.753  32.105  29.938  1.00  0.00    -0.014 A 
BRANCH  35  36
ATOM     36  C   UNL A   1      37.866  31.354  30.565  1.00  0.00     0.031 A 
ATOM     37  C   UNL A   1      38.285  31.684  31.969  1.00  0.00     0.074 A 
ATOM     38  C   UNL A   1      38.550  30.445  29.843  1.00  0.00     0.049 A 
ATOM     39  N   UNL A   1      39.296  31.224  32.656  1.00  0.00    -0.248 NA
ATOM     40  C   UNL A   1      37.476  32.685  32.685  1.00  0.00     0.031 C 
ATOM     41  C   UNL A   1      38.267  30.081  28.453  1.00  0.00     0.029 A 
ATOM     42  N   UNL A   1      39.641  29.681  30.171  1.00  0.00    -0.354 N 
ATOM     43  C   UNL A   1      39.264  31.898  33.871  1.00  0.00     0.074 A 
ATOM     44  C   UNL A   1      38.156  32.825  33.813  1.00  0.00     0.031 C 
ATOM     45  C   UNL A   1      39.157  29.160  28.051  1.00  0.00     0.029 A 
ATOM     46  C   UNL A   1      40.092  28.891  29.140  1.00  0.00     0.049 A 
ATOM     47  H   UNL A   1      40.062  29.697  31.061  1.00  0.00     0.167 HD
ATOM     48  C   UNL A   1      40.063  31.733  34.951  1.00  0.00     0.034 A 
ATOM     49  C   UNL A   1      41.142  28.049  29.079  1.00  0.00     0.034 A 
ATOM     50  C   UNL A   1      41.133  30.776  35.019  1.00  0.00     0.049 A 
ATOM     51  C   UNL A   1      42.002  27.867  30.303  1.00  0.00     0.074 A 
ATOM     52  C   UNL A   1      41.965  30.492  36.087  1.00  0.00     0.029 A 
ATOM     53  N   UNL A   1      41.514  29.940  33.980  1.00  0.00    -0.354 N 
ATOM     54  N   UNL A   1      41.884  28.425  31.484  1.00  0.00    -0.248 NA
ATOM     55  C   UNL A   1      43.119  26.918  30.197  1.00  0.00     0.031 C 
ATOM     56  C   UNL A   1      42.855  29.488  35.691  1.00  0.00     0.029 A 
ATOM     57  C   UNL A   1      42.568  29.138  34.381  1.00  0.00     0.049 A 
ATOM     58  H   UNL A   1      41.097  29.922  33.089  1.00  0.00     0.167 HD
ATOM     59  C   UNL A   1      42.892  27.879  32.268  1.00  0.00     0.074 A 
ATOM     60  C   UNL A   1      43.595  26.923  31.435  1.00  0.00     0.031 C 
ATOM     61  C   UNL A   1      43.223  28.156  33.554  1.00  0.00     0.034 A 
BRANCH  48  62
ATOM     62  C   UNL A   1      39.762  32.558  36.173  1.00  0.00     0.023 A 
ATOM     63  C   UNL A   1      40.424  33.790  36.351  1.00  0.00     0.012 A 
ATOM     64  C   UNL A   1      38.788  32.156  37.108  1.00  0.00     0.148 A 
ATOM     65  C   UNL A   1      40.145  34.596  37.453  1.00  0.00     0.002 A 
ATOM     66  C   UNL A   1      38.483  32.985  38.181  1.00  0.00     0.091 A 
ATOM     67  F   UNL A   1      38.186  30.970  36.934  1.00  0.00    -0.205 F 
ATOM     68  C   UNL A   1      39.167  34.199  38.361  1.00  0.00     0.022 A 
BRANCH  66  69
ATOM     69  S   UNL A   1      37.188  32.604  39.367  1.00  0.00     0.127 S 
ATOM     70  O   UNL A   1      37.567  31.259  39.796  1.00  0.00    -0.237 OA
ATOM     71  O   UNL A   1      37.380  33.643  40.377  1.00  0.00    -0.237 OA
ATOM     72  O   UNL A   1      35.933  32.694  38.632  1.00  0.00    -0.744 OA
ENDBRANCH  66  69
ENDBRANCH  48  62
BRANCH  49  73
ATOM     73  C   UNL A   1      41.382  27.250  27.844  1.00  0.00     0.023 A 
ATOM     74  C   UNL A   1      41.984  27.874  26.733  1.00  0.00     0.012 A 
ATOM     75  C   UNL A   1      41.076  25.876  27.776  1.00  0.00     0.148 A 
ATOM     76  C   UNL A   1      42.255  27.153  25.570  1.00  0.00     0.002 A 
ATOM     77  C   UNL A   1      41.398  25.151  26.635  1.00  0.00     0.091 A 
ATOM     78  F   UNL A   1      40.491  25.303  28.837  1.00  0.00    -0.205 F 
ATOM     79  C   UNL A   1      41.974  25.790  25.525  1.00  0.00     0.022 A 
BRANCH  77  80
ATOM     80  S   UNL A   1      41.204  23.367  26.537  1.00  0.00     0.127 S 
ATOM     81  O   UNL A   1      42.085  23.030  25.423  1.00  0.00    -0.237 OA
ATOM     82  O   UNL A   1      41.680  22.938  27.853  1.00  0.00    -0.237 OA
ATOM     83  O   UNL A   1      39.782  23.140  26.312  1.00  0.00    -0.744 OA
ENDBRANCH  77  80
ENDBRANCH  49  73
BRANCH  61  84
ATOM     84  C   UNL A   1      44.391  27.417  34.153  1.00  0.00     0.023 A 
ATOM     85  C   UNL A   1      45.691  27.938  34.001  1.00  0.00     0.012 A 
ATOM     86  C   UNL A   1      44.194  26.269  34.945  1.00  0.00     0.148 A 
ATOM     87  C   UNL A   1      46.780  27.313  34.606  1.00  0.00     0.002 A 
ATOM     88  C   UNL A   1      45.278  25.679  35.583  1.00  0.00     0.091 A 
ATOM     89  F   UNL A   1      42.952  25.776  35.062  1.00  0.00    -0.205 F 
ATOM     90  C   UNL A   1      46.572  26.194  35.408  1.00  0.00     0.022 A 
BRANCH  88  91
ATOM     91  S   UNL A   1      45.085  24.297  36.715  1.00  0.00     0.127 S 
ATOM     92  O   UNL A   1      46.449  24.123  37.210  1.00  0.00    -0.237 OA
ATOM     93  O   UNL A   1      44.142  24.826  37.702  1.00  0.00    -0.237 OA
ATOM     94  O   UNL A   1      44.561  23.199  35.913  1.00  0.00    -0.744 OA
ENDBRANCH  88  91
ENDBRANCH  61  84
ENDBRANCH  35  36
ENDBRANCH  27  30
ENDBRANCH  25  26
ENDBRANCH   1  25
TORSDOF 15
ENDMDL
MODEL 2
REMARK VINA RESULT:     -12.3      1.645      7.785
REMARK SMILES Cc1cc2c(c(C)c1Br)C=C(C(=O)NCCCCNC(=O)c1ccc(-c3c4nc(c(-c5cccc(S(=O)(=O)[O-])c5F)c5ccc([nH]5)c(-c5cccc(S(=O)(=O)[O-])c5F)c5nc(c(-c6cccc(S(=O)(=O)[O-])c6F)c6ccc3[nH]6)C=C5)C=C4)cc1)[C@@H](C(F)(F)F)O2
REMARK SMILES IDX 17 1 16 2 15 3 14 4 12 5 13 6 11 8 1 9 2 10 3 11 8 12 4 13
REMARK SMILES IDX 6 14 9 15 5 16 90 17 7 18 10 19 85 20 86 21 87 22 88 23
REMARK SMILES IDX 89 24 18 25 19 26 20 27 21 29 22 30 23 31 84 32 24 33 83 34
REMARK SMILES IDX 25 35 26 36 27 37 77 38 28 39 82 40 76 41 78 42 29 43 81 44
REMARK SMILES IDX 75 45 74 46 30 48 62 49 42 50 61 51 43 52 46 53 60 54 79 55
REMARK SMILES IDX 44 56 45 57 59 59 80 60 47 61 31 62 32 63 40 64 33 65 35 66
REMARK SMILES IDX 41 67 34 68 36 69 37 70 38 71 39 72 63 73 64 74 72 75 65 76
REMARK SMILES IDX 67 77 73 78 66 79 68 80 69 81 70 82 71 83 48 84 49 85 57 86
REMARK SMILES IDX 50 87 52 88 58 89 51 90 53 91 54 92 55 93 56 94
REMARK H PARENT 14 7 19 28 78 47 46 58
REMARK Flexibility Score: inf
ROOT
ATOM      1  C   UNL A   1      32.007  31.199  26.814  1.00  0.00     0.023 C 
ENDROOT
BRANCH   1   2
ATOM      2  C   UNL A   1      32.179  29.720  27.167  1.00  0.00     0.023 C 
BRANCH   2   3
ATOM      3  C   UNL A   1      33.553  29.153  26.822  1.00  0.00     0.116 C 
BRANCH   3   4
ATOM      4  N   UNL A   1      33.826  29.221  25.398  1.00  0.00    -0.352 N 
ATOM      5  C   UNL A   1      33.728  28.395  24.331  1.00  0.00     0.251 C 
ATOM      6  O   UNL A   1      34.084  28.881  23.252  1.00  0.00    -0.270 OA
ATOM      7  H   UNL A   1      34.177  30.103  25.139  1.00  0.00     0.163 HD
BRANCH   5   8
ATOM      8  C   UNL A   1      33.230  26.986  24.369  1.00  0.00     0.067 C 
ATOM      9  C   UNL A   1      32.266  20.575  24.898  1.00  0.00     0.046 C 
ATOM     10  C   UNL A   1      32.845  21.965  24.894  1.00  0.00    -0.033 A 
ATOM     11  C   UNL A   1      31.948  23.024  24.720  1.00  0.00     0.051 A 
ATOM     12  C   UNL A   1      34.225  22.253  24.988  1.00  0.00     0.024 A 
ATOM     13  C   UNL A   1      32.399  24.337  24.656  1.00  0.00     0.128 A 
ATOM     14  C   UNL A   1      34.695  23.593  24.956  1.00  0.00    -0.026 A 
ATOM     15  Br  UNL A   1      35.453  20.793  25.144  1.00  0.00    -0.050 Br
ATOM     16  C   UNL A   1      33.756  24.642  24.785  1.00  0.00     0.021 A 
ATOM     17  O   UNL A   1      31.426  25.283  24.504  1.00  0.00    -0.475 OA
ATOM     18  C   UNL A   1      36.160  23.944  25.093  1.00  0.00     0.046 C 
ATOM     19  C   UNL A   1      34.128  26.061  24.758  1.00  0.00     0.026 C 
ATOM     20  C   UNL A   1      31.849  26.565  23.970  1.00  0.00     0.314 C 
BRANCH  20  21
ATOM     21  C   UNL A   1      31.635  26.579  22.445  1.00  0.00     0.429 C 
ATOM     22  F   UNL A   1      31.067  27.751  22.059  1.00  0.00    -0.167 F 
ATOM     23  F   UNL A   1      32.793  26.468  21.754  1.00  0.00    -0.167 F 
ATOM     24  F   UNL A   1      30.826  25.581  22.024  1.00  0.00    -0.167 F 
ENDBRANCH  20  21
ENDBRANCH   5   8
ENDBRANCH   3   4
ENDBRANCH   2   3
ENDBRANCH   1   2
BRANCH   1  25
ATOM     25  C   UNL A   1      33.152  32.114  27.247  1.00  0.00     0.116 C 
BRANCH  25  26
ATOM     26  N   UNL A   1      32.727  33.472  27.557  1.00  0.00    -0.352 N 
ATOM     27  C   UNL A   1      33.213  34.314  28.528  1.00  0.00     0.251 C 
ATOM     28  H   UNL A   1      31.998  33.832  27.002  1.00  0.00     0.163 HD
ATOM     29  O   UNL A   1      32.681  35.402  28.730  1.00  0.00    -0.269 OA
BRANCH  27  30
ATOM     30  C   UNL A   1      34.362  33.877  29.343  1.00  0.00     0.039 A 
ATOM     31  C   UNL A   1      34.142  32.998  30.406  1.00  0.00     0.014 A 
ATOM     32  C   UNL A   1      35.654  34.305  29.025  1.00  0.00     0.014 A 
ATOM     33  C   UNL A   1      35.232  32.496  31.116  1.00  0.00     0.010 A 
ATOM     34  C   UNL A   1      36.740  33.756  29.695  1.00  0.00     0.010 A 
ATOM     35  C   UNL A   1      36.540  32.851  30.748  1.00  0.00    -0.014 A 
BRANCH  35  36
ATOM     36  C   UNL A   1      37.721  32.302  31.456  1.00  0.00     0.031 A 
ATOM     37  C   UNL A   1      38.488  31.165  30.845  1.00  0.00     0.074 A 
ATOM     38  C   UNL A   1      38.043  32.766  32.680  1.00  0.00     0.049 A 
ATOM     39  N   UNL A   1      39.478  30.475  31.348  1.00  0.00    -0.248 NA
ATOM     40  C   UNL A   1      38.070  30.728  29.502  1.00  0.00     0.031 C 
ATOM     41  C   UNL A   1      37.336  33.830  33.394  1.00  0.00     0.029 A 
ATOM     42  N   UNL A   1      39.032  32.381  33.548  1.00  0.00    -0.354 N 
ATOM     43  C   UNL A   1      39.781  29.505  30.400  1.00  0.00     0.074 A 
ATOM     44  C   UNL A   1      38.847  29.672  29.308  1.00  0.00     0.031 C 
ATOM     45  C   UNL A   1      37.919  34.018  34.589  1.00  0.00     0.029 A 
ATOM     46  C   UNL A   1      39.018  33.068  34.740  1.00  0.00     0.049 A 
ATOM     47  H   UNL A   1      39.690  31.679  33.339  1.00  0.00     0.167 HD
ATOM     48  C   UNL A   1      40.770  28.583  30.421  1.00  0.00     0.034 A 
ATOM     49  C   UNL A   1      39.800  32.943  35.830  1.00  0.00     0.034 A 
ATOM     50  C   UNL A   1      41.725  28.453  31.487  1.00  0.00     0.049 A 
ATOM     51  C   UNL A   1      40.909  31.923  35.817  1.00  0.00     0.074 A 
ATOM     52  C   UNL A   1      42.800  27.588  31.577  1.00  0.00     0.029 A 
ATOM     53  N   UNL A   1      41.725  29.215  32.645  1.00  0.00    -0.354 N 
ATOM     54  N   UNL A   1      41.257  31.094  34.862  1.00  0.00    -0.248 NA
ATOM     55  C   UNL A   1      41.752  31.842  37.018  1.00  0.00     0.031 C 
ATOM     56  C   UNL A   1      43.447  27.822  32.795  1.00  0.00     0.029 A 
ATOM     57  C   UNL A   1      42.782  28.843  33.457  1.00  0.00     0.049 A 
ATOM     58  H   UNL A   1      41.068  29.918  32.859  1.00  0.00     0.167 HD
ATOM     59  C   UNL A   1      42.372  30.413  35.334  1.00  0.00     0.074 A 
ATOM     60  C   UNL A   1      42.658  30.946  36.651  1.00  0.00     0.031 C 
ATOM     61  C   UNL A   1      43.082  29.420  34.743  1.00  0.00     0.034 A 
BRANCH  48  62
ATOM     62  C   UNL A   1      40.915  27.688  29.218  1.00  0.00     0.023 A 
ATOM     63  C   UNL A   1      40.171  26.492  29.158  1.00  0.00     0.012 A 
ATOM     64  C   UNL A   1      41.728  28.052  28.127  1.00  0.00     0.148 A 
ATOM     65  C   UNL A   1      40.253  25.657  28.046  1.00  0.00     0.002 A 
ATOM     66  C   UNL A   1      41.772  27.236  27.003  1.00  0.00     0.091 A 
ATOM     67  F   UNL A   1      42.446  29.181  28.213  1.00  0.00    -0.205 F 
ATOM     68  C   UNL A   1      41.044  26.035  26.965  1.00  0.00     0.022 A 
BRANCH  66  69
ATOM     69  S   UNL A   1      42.700  27.666  25.525  1.00  0.00     0.127 S 
ATOM     70  O   UNL A   1      44.046  27.853  26.066  1.00  0.00    -0.237 OA
ATOM     71  O   UNL A   1      42.536  26.470  24.700  1.00  0.00    -0.237 OA
ATOM     72  O   UNL A   1      42.070  28.867  24.991  1.00  0.00    -0.744 OA
ENDBRANCH  66  69
ENDBRANCH  48  62
BRANCH  49  73
ATOM     73  C   UNL A   1      39.616  33.866  36.985  1.00  0.00     0.023 A 
ATOM     74  C   UNL A   1      39.981  35.219  36.843  1.00  0.00     0.012 A 
ATOM     75  C   UNL A   1      39.036  33.437  38.195  1.00  0.00     0.148 A 
ATOM     76  C   UNL A   1      39.795  36.123  37.889  1.00  0.00     0.002 A 
ATOM     77  C   UNL A   1      38.802  34.354  39.214  1.00  0.00     0.091 A 
ATOM     78  F   UNL A   1      38.707  32.144  38.317  1.00  0.00    -0.205 F 
ATOM     79  C   UNL A   1      39.194  35.694  39.069  1.00  0.00     0.022 A 
BRANCH  77  80
ATOM     80  S   UNL A   1      37.908  33.924  40.713  1.00  0.00     0.127 S 
ATOM     81  O   UNL A   1      38.879  33.085  41.410  1.00  0.00    -0.237 OA
ATOM     82  O   UNL A   1      37.681  35.238  41.317  1.00  0.00    -0.237 OA
ATOM     83  O   UNL A   1      36.695  33.253  40.267  1.00  0.00    -0.744 OA
ENDBRANCH  77  80
ENDBRANCH  49  73
BRANCH  61  84
ATOM     84  C   UNL A   1      44.247  28.842  35.504  1.00  0.00     0.023 A 
ATOM     85  C   UNL A   1      45.522  29.422  35.364  1.00  0.00     0.012 A 
ATOM     86  C   UNL A   1      44.061  27.794  36.427  1.00  0.00     0.148 A 
ATOM     87  C   UNL A   1      46.601  28.952  36.112  1.00  0.00     0.002 A 
ATOM     88  C   UNL A   1      45.130  27.363  37.203  1.00  0.00     0.091 A 
ATOM     89  F   UNL A   1      42.843  27.240  36.533  1.00  0.00    -0.205 F 
ATOM     90  C   UNL A   1      46.402  27.934  37.040  1.00  0.00     0.022 A 
BRANCH  88  91
ATOM     91  S   UNL A   1      44.937  26.127  38.494  1.00  0.00     0.127 S 
ATOM     92  O   UNL A   1      43.968  26.769  39.380  1.00  0.00    -0.237 OA
ATOM     93  O   UNL A   1      44.418  24.976  37.754  1.00  0.00    -0.237 OA
ATOM     94  O   UNL A   1      46.268  25.930  39.054  1.00  0.00    -0.744 OA
ENDBRANCH  88  91
ENDBRANCH  61  84
ENDBRANCH  35  36
ENDBRANCH  27  30
ENDBRANCH  25  26
ENDBRANCH   1  25
TORSDOF 15
ENDMDL
MODEL 3
REMARK VINA RESULT:     -12.1      6.214      9.513
REMARK SMILES Cc1cc2c(c(C)c1Br)C=C(C(=O)NCCCCNC(=O)c1ccc(-c3c4nc(c(-c5cccc(S(=O)(=O)[O-])c5F)c5ccc([nH]5)c(-c5cccc(S(=O)(=O)[O-])c5F)c5nc(c(-c6cccc(S(=O)(=O)[O-])c6F)c6ccc3[nH]6)C=C5)C=C4)cc1)[C@@H](C(F)(F)F)O2
REMARK SMILES IDX 17 1 16 2 15 3 14 4 12 5 13 6 11 8 1 9 2 10 3 11 8 12 4 13
REMARK SMILES IDX 6 14 9 15 5 16 90 17 7 18 10 19 85 20 86 21 87 22 88 23
REMARK SMILES IDX 89 24 18 25 19 26 20 27 21 29 22 30 23 31 84 32 24 33 83 34
REMARK SMILES IDX 25 35 26 36 27 37 77 38 28 39 82 40 76 41 78 42 29 43 81 44
REMARK SMILES IDX 75 45 74 46 30 48 62 49 42 50 61 51 43 52 46 53 60 54 79 55
REMARK SMILES IDX 44 56 45 57 59 59 80 60 47 61 31 62 32 63 40 64 33 65 35 66
REMARK SMILES IDX 41 67 34 68 36 69 37 70 38 71 39 72 63 73 64 74 72 75 65 76
REMARK SMILES IDX 67 77 73 78 66 79 68 80 69 81 70 82 71 83 48 84 49 85 57 86
REMARK SMILES IDX 50 87 52 88 58 89 51 90 53 91 54 92 55 93 56 94
REMARK H PARENT 14 7 19 28 78 47 46 58
REMARK Flexibility Score: inf
ROOT
ATOM      1  C   UNL A   1      37.810  20.348  25.036  1.00  0.00     0.023 C 
ENDROOT
BRANCH   1   2
ATOM      2  C   UNL A   1      37.053  21.562  24.493  1.00  0.00     0.023 C 
BRANCH   2   3
ATOM      3  C   UNL A   1      37.006  22.747  25.453  1.00  0.00     0.116 C 
BRANCH   3   4
ATOM      4  N   UNL A   1      36.025  22.554  26.506  1.00  0.00    -0.352 N 
ATOM      5  C   UNL A   1      34.742  22.913  26.741  1.00  0.00     0.251 C 
ATOM      6  O   UNL A   1      34.270  22.517  27.813  1.00  0.00    -0.270 OA
ATOM      7  H   UNL A   1      36.391  22.020  27.247  1.00  0.00     0.163 HD
BRANCH   5   8
ATOM      8  C   UNL A   1      33.887  23.725  25.823  1.00  0.00     0.067 C 
ATOM      9  C   UNL A   1      30.556  28.247  22.541  1.00  0.00     0.046 C 
ATOM     10  C   UNL A   1      31.446  27.507  23.505  1.00  0.00    -0.033 A 
ATOM     11  C   UNL A   1      31.704  26.162  23.222  1.00  0.00     0.051 A 
ATOM     12  C   UNL A   1      31.971  28.064  24.692  1.00  0.00     0.024 A 
ATOM     13  C   UNL A   1      32.475  25.388  24.081  1.00  0.00     0.128 A 
ATOM     14  C   UNL A   1      32.787  27.292  25.562  1.00  0.00    -0.026 A 
ATOM     15  Br  UNL A   1      31.545  29.882  25.114  1.00  0.00    -0.050 Br
ATOM     16  C   UNL A   1      33.033  25.933  25.240  1.00  0.00     0.021 A 
ATOM     17  O   UNL A   1      32.672  24.096  23.687  1.00  0.00    -0.475 OA
ATOM     18  C   UNL A   1      33.399  27.863  26.822  1.00  0.00     0.046 C 
ATOM     19  C   UNL A   1      33.876  25.051  26.055  1.00  0.00     0.026 C 
ATOM     20  C   UNL A   1      33.042  23.152  24.725  1.00  0.00     0.314 C 
BRANCH  20  21
ATOM     21  C   UNL A   1      31.777  22.448  25.250  1.00  0.00     0.429 C 
ATOM     22  F   UNL A   1      30.715  22.731  24.453  1.00  0.00    -0.167 F 
ATOM     23  F   UNL A   1      31.896  21.101  25.265  1.00  0.00    -0.167 F 
ATOM     24  F   UNL A   1      31.451  22.831  26.505  1.00  0.00    -0.167 F 
ENDBRANCH  20  21
ENDBRANCH   5   8
ENDBRANCH   3   4
ENDBRANCH   2   3
ENDBRANCH   1   2
BRANCH   1  25
ATOM     25  C   UNL A   1      39.118  20.663  25.762  1.00  0.00     0.116 C 
BRANCH  25  26
ATOM     26  N   UNL A   1      40.025  19.526  25.846  1.00  0.00    -0.352 N 
ATOM     27  C   UNL A   1      41.378  19.534  26.084  1.00  0.00     0.251 C 
ATOM     28  H   UNL A   1      39.618  18.640  25.713  1.00  0.00     0.163 HD
ATOM     29  O   UNL A   1      42.026  18.493  26.027  1.00  0.00    -0.269 OA
BRANCH  27  30
ATOM     30  C   UNL A   1      42.045  20.817  26.377  1.00  0.00     0.039 A 
ATOM     31  C   UNL A   1      42.383  21.661  25.317  1.00  0.00     0.014 A 
ATOM     32  C   UNL A   1      42.290  21.197  27.700  1.00  0.00     0.014 A 
ATOM     33  C   UNL A   1      42.916  22.921  25.588  1.00  0.00     0.010 A 
ATOM     34  C   UNL A   1      42.764  22.475  27.968  1.00  0.00     0.010 A 
ATOM     35  C   UNL A   1      43.085  23.347  26.916  1.00  0.00    -0.014 A 
BRANCH  35  36
ATOM     36  C   UNL A   1      43.610  24.695  27.237  1.00  0.00     0.031 A 
ATOM     37  C   UNL A   1      42.672  25.755  27.739  1.00  0.00     0.074 A 
ATOM     38  C   UNL A   1      44.903  24.986  26.993  1.00  0.00     0.049 A 
ATOM     39  N   UNL A   1      42.906  27.019  27.974  1.00  0.00    -0.248 NA
ATOM     40  C   UNL A   1      41.278  25.346  27.984  1.00  0.00     0.031 C 
ATOM     41  C   UNL A   1      45.893  24.052  26.455  1.00  0.00     0.029 A 
ATOM     42  N   UNL A   1      45.597  26.159  27.141  1.00  0.00    -0.354 N 
ATOM     43  C   UNL A   1      41.688  27.563  28.364  1.00  0.00     0.074 A 
ATOM     44  C   UNL A   1      40.709  26.500  28.299  1.00  0.00     0.031 C 
ATOM     45  C   UNL A   1      47.070  24.686  26.325  1.00  0.00     0.029 A 
ATOM     46  C   UNL A   1      46.910  26.078  26.738  1.00  0.00     0.049 A 
ATOM     47  H   UNL A   1      45.195  26.982  27.501  1.00  0.00     0.167 HD
ATOM     48  C   UNL A   1      41.418  28.823  28.774  1.00  0.00     0.034 A 
ATOM     49  C   UNL A   1      47.873  27.020  26.703  1.00  0.00     0.034 A 
ATOM     50  C   UNL A   1      42.405  29.862  28.881  1.00  0.00     0.049 A 
ATOM     51  C   UNL A   1      47.551  28.410  27.187  1.00  0.00     0.074 A 
ATOM     52  C   UNL A   1      42.243  31.157  29.339  1.00  0.00     0.029 A 
ATOM     53  N   UNL A   1      43.740  29.723  28.534  1.00  0.00    -0.354 N 
ATOM     54  N   UNL A   1      46.422  28.875  27.666  1.00  0.00    -0.248 NA
ATOM     55  C   UNL A   1      48.641  29.395  27.155  1.00  0.00     0.031 C 
ATOM     56  C   UNL A   1      43.481  31.804  29.263  1.00  0.00     0.029 A 
ATOM     57  C   UNL A   1      44.416  30.907  28.769  1.00  0.00     0.049 A 
ATOM     58  H   UNL A   1      44.147  28.902  28.173  1.00  0.00     0.167 HD
ATOM     59  C   UNL A   1      46.670  30.197  28.015  1.00  0.00     0.074 A 
ATOM     60  C   UNL A   1      48.067  30.450  27.719  1.00  0.00     0.031 C 
ATOM     61  C   UNL A   1      45.818  31.125  28.516  1.00  0.00     0.034 A 
BRANCH  48  62
ATOM     62  C   UNL A   1      40.009  29.128  29.207  1.00  0.00     0.023 A 
ATOM     63  C   UNL A   1      39.021  29.350  28.225  1.00  0.00     0.012 A 
ATOM     64  C   UNL A   1      39.644  29.133  30.567  1.00  0.00     0.148 A 
ATOM     65  C   UNL A   1      37.699  29.601  28.588  1.00  0.00     0.002 A 
ATOM     66  C   UNL A   1      38.316  29.341  30.921  1.00  0.00     0.091 A 
ATOM     67  F   UNL A   1      40.601  28.943  31.487  1.00  0.00    -0.205 F 
ATOM     68  C   UNL A   1      37.345  29.584  29.934  1.00  0.00     0.022 A 
BRANCH  66  69
ATOM     69  S   UNL A   1      37.739  29.265  32.621  1.00  0.00     0.127 S 
ATOM     70  O   UNL A   1      36.427  29.901  32.516  1.00  0.00    -0.237 OA
ATOM     71  O   UNL A   1      37.699  27.824  32.868  1.00  0.00    -0.237 OA
ATOM     72  O   UNL A   1      38.724  29.992  33.412  1.00  0.00    -0.744 OA
ENDBRANCH  66  69
ENDBRANCH  48  62
BRANCH  49  73
ATOM     73  C   UNL A   1      49.253  26.654  26.276  1.00  0.00     0.023 A 
ATOM     74  C   UNL A   1      50.017  25.798  27.094  1.00  0.00     0.012 A 
ATOM     75  C   UNL A   1      49.794  27.095  25.052  1.00  0.00     0.148 A 
ATOM     76  C   UNL A   1      51.301  25.405  26.714  1.00  0.00     0.002 A 
ATOM     77  C   UNL A   1      51.052  26.657  24.653  1.00  0.00     0.091 A 
ATOM     78  F   UNL A   1      49.059  27.920  24.294  1.00  0.00    -0.205 F 
ATOM     79  C   UNL A   1      51.813  25.824  25.489  1.00  0.00     0.022 A 
BRANCH  77  80
ATOM     80  S   UNL A   1      51.736  27.029  23.034  1.00  0.00     0.127 S 
ATOM     81  O   UNL A   1      50.620  26.693  22.153  1.00  0.00    -0.237 OA
ATOM     82  O   UNL A   1      52.023  28.460  23.148  1.00  0.00    -0.237 OA
ATOM     83  O   UNL A   1      52.919  26.190  22.906  1.00  0.00    -0.744 OA
ENDBRANCH  77  80
ENDBRANCH  49  73
BRANCH  61  84
ATOM     84  C   UNL A   1      46.362  32.504  28.785  1.00  0.00     0.023 A 
ATOM     85  C   UNL A   1      46.943  32.787  30.037  1.00  0.00     0.012 A 
ATOM     86  C   UNL A   1      46.387  33.484  27.773  1.00  0.00     0.148 A 
ATOM     87  C   UNL A   1      47.518  34.032  30.286  1.00  0.00     0.002 A 
ATOM     88  C   UNL A   1      47.004  34.705  28.014  1.00  0.00     0.091 A 
ATOM     89  F   UNL A   1      45.812  33.204  26.595  1.00  0.00    -0.205 F 
ATOM     90  C   UNL A   1      47.561  34.985  29.272  1.00  0.00     0.022 A 
BRANCH  88  91
ATOM     91  S   UNL A   1      47.195  35.949  26.731  1.00  0.00     0.127 S 
ATOM     92  O   UNL A   1      45.834  36.471  26.616  1.00  0.00    -0.237 OA
ATOM     93  O   UNL A   1      48.155  36.877  27.331  1.00  0.00    -0.237 OA
ATOM     94  O   UNL A   1      47.697  35.239  25.562  1.00  0.00    -0.744 OA
ENDBRANCH  88  91
ENDBRANCH  61  84
ENDBRANCH  35  36
ENDBRANCH  27  30
ENDBRANCH  25  26
ENDBRANCH   1  25
TORSDOF 15
ENDMDL
