MODEL 1
REMARK VINA RESULT:     -12.2      0.000      0.000
REMARK SMILES C[C@@H]1CN(C(=O)N2CC(CC(=O)NCCCCNC(=O)c3ccc(-c4c5nc(c(-c6cccc(S(=O)(=O)[O-])c6F)c6ccc([nH]6)c(-c6cccc(S(=O)(=O)[O-])c6F)c6nc(c(-c7cccc(S(=O)(=O)[O-])c7F)c7ccc4[nH]7)C=C6)C=C5)cc3)C2)C[C@H]1C
REMARK SMILES IDX 16 1 15 2 14 3 13 4 11 5 12 6 10 8 9 9 1 10 2 11 3 12 86 13
REMARK SMILES IDX 4 14 85 15 87 16 5 17 6 18 7 19 8 20 84 21 17 22 18 23 19 24
REMARK SMILES IDX 20 26 21 27 22 28 83 29 23 30 82 31 24 32 25 33 26 34 76 35
REMARK SMILES IDX 27 36 81 37 75 38 77 39 28 40 80 41 74 42 73 43 29 45 61 46
REMARK SMILES IDX 41 47 60 48 42 49 45 50 59 51 78 52 43 53 44 54 58 56 79 57
REMARK SMILES IDX 46 58 30 59 31 60 39 61 32 62 34 63 40 64 33 65 35 66 36 67
REMARK SMILES IDX 37 68 38 69 62 70 63 71 71 72 64 73 66 74 72 75 65 76 67 77
REMARK SMILES IDX 68 78 69 79 70 80 47 81 48 82 56 83 49 84 51 85 57 86 50 87
REMARK SMILES IDX 52 88 53 89 54 90 55 91
REMARK H PARENT 13 7 18 25 77 44 45 55
REMARK Flexibility Score: inf
ROOT
ATOM      1  C   UNL A   1      32.724  29.507  25.105  1.00  0.00     0.023 C 
ENDROOT
BRANCH   1   2
ATOM      2  C   UNL A   1      31.507  29.452  24.190  1.00  0.00     0.023 C 
BRANCH   2   3
ATOM      3  C   UNL A   1      31.376  28.186  23.341  1.00  0.00     0.116 C 
BRANCH   3   4
ATOM      4  N   UNL A   1      30.018  27.686  23.364  1.00  0.00    -0.356 N 
ATOM      5  C   UNL A   1      29.475  26.680  24.105  1.00  0.00     0.220 C 
ATOM      6  O   UNL A   1      28.313  26.340  23.876  1.00  0.00    -0.275 OA
ATOM      7  H   UNL A   1      29.393  28.141  22.753  1.00  0.00     0.163 HD
BRANCH   5   8
ATOM      8  C   UNL A   1      30.277  25.996  25.193  1.00  0.00     0.107 C 
BRANCH   8   9
ATOM      9  C   UNL A   1      30.797  24.613  24.812  1.00  0.00     0.037 C 
ATOM     10  C   UNL A   1      37.486  23.908  26.129  1.00  0.00     0.010 C 
ATOM     11  C   UNL A   1      36.606  23.124  25.167  1.00  0.00     0.010 C 
ATOM     12  C   UNL A   1      35.142  23.575  25.216  1.00  0.00     0.125 C 
ATOM     13  C   UNL A   1      36.532  21.623  25.500  1.00  0.00     0.010 C 
ATOM     14  N   UNL A   1      34.348  22.357  25.108  1.00  0.00    -0.324 N 
ATOM     15  C   UNL A   1      35.203  21.209  24.875  1.00  0.00     0.125 C 
ATOM     16  C   UNL A   1      37.713  20.828  24.971  1.00  0.00     0.010 C 
ATOM     17  C   UNL A   1      33.028  22.215  25.492  1.00  0.00     0.320 C 
ATOM     18  O   UNL A   1      32.544  21.126  25.796  1.00  0.00    -0.248 OA
ATOM     19  N   UNL A   1      32.287  23.363  25.531  1.00  0.00    -0.324 N 
ATOM     20  C   UNL A   1      30.914  23.577  25.951  1.00  0.00     0.127 C 
ATOM     21  C   UNL A   1      32.319  24.501  24.643  1.00  0.00     0.127 C 
ENDBRANCH   8   9
ENDBRANCH   5   8
ENDBRANCH   3   4
ENDBRANCH   2   3
ENDBRANCH   1   2
BRANCH   1  22
ATOM     22  C   UNL A   1      32.429  29.868  26.552  1.00  0.00     0.116 C 
BRANCH  22  23
ATOM     23  N   UNL A   1      32.338  31.303  26.797  1.00  0.00    -0.352 N 
ATOM     24  C   UNL A   1      33.253  32.118  27.424  1.00  0.00     0.251 C 
ATOM     25  H   UNL A   1      31.519  31.743  26.474  1.00  0.00     0.163 HD
ATOM     26  O   UNL A   1      32.993  33.301  27.626  1.00  0.00    -0.269 OA
BRANCH  24  27
ATOM     27  C   UNL A   1      34.529  31.536  27.890  1.00  0.00     0.039 A 
ATOM     28  C   UNL A   1      35.640  32.368  28.043  1.00  0.00     0.014 A 
ATOM     29  C   UNL A   1      34.596  30.190  28.256  1.00  0.00     0.014 A 
ATOM     30  C   UNL A   1      36.797  31.865  28.643  1.00  0.00     0.010 A 
ATOM     31  C   UNL A   1      35.712  29.718  28.933  1.00  0.00     0.010 A 
ATOM     32  C   UNL A   1      36.825  30.550  29.134  1.00  0.00    -0.014 A 
BRANCH  32  33
ATOM     33  C   UNL A   1      37.998  30.015  29.870  1.00  0.00     0.031 A 
ATOM     34  C   UNL A   1      38.283  30.486  31.270  1.00  0.00     0.074 A 
ATOM     35  C   UNL A   1      38.867  29.200  29.241  1.00  0.00     0.049 A 
ATOM     36  N   UNL A   1      39.301  30.211  32.042  1.00  0.00    -0.248 NA
ATOM     37  C   UNL A   1      37.312  31.420  31.868  1.00  0.00     0.031 C 
ATOM     38  C   UNL A   1      38.753  28.747  27.852  1.00  0.00     0.029 A 
ATOM     39  N   UNL A   1      40.036  28.630  29.679  1.00  0.00    -0.354 N 
ATOM     40  C   UNL A   1      39.119  30.968  33.192  1.00  0.00     0.074 A 
ATOM     41  C   UNL A   1      37.915  31.746  33.002  1.00  0.00     0.031 C 
ATOM     42  C   UNL A   1      39.802  27.961  27.557  1.00  0.00     0.029 A 
ATOM     43  C   UNL A   1      40.675  27.873  28.723  1.00  0.00     0.049 A 
ATOM     44  H   UNL A   1      40.384  28.749  30.592  1.00  0.00     0.167 HD
ATOM     45  C   UNL A   1      39.863  30.988  34.322  1.00  0.00     0.034 A 
ATOM     46  C   UNL A   1      41.832  27.184  28.783  1.00  0.00     0.034 A 
ATOM     47  C   UNL A   1      41.021  30.163  34.534  1.00  0.00     0.049 A 
ATOM     48  C   UNL A   1      42.603  27.164  30.075  1.00  0.00     0.074 A 
ATOM     49  C   UNL A   1      41.785  30.030  35.679  1.00  0.00     0.029 A 
ATOM     50  N   UNL A   1      41.576  29.324  33.581  1.00  0.00    -0.354 N 
ATOM     51  N   UNL A   1      42.325  27.760  31.210  1.00  0.00    -0.248 NA
ATOM     52  C   UNL A   1      43.828  26.352  30.106  1.00  0.00     0.031 C 
ATOM     53  C   UNL A   1      42.809  29.113  35.416  1.00  0.00     0.029 A 
ATOM     54  C   UNL A   1      42.675  28.669  34.109  1.00  0.00     0.049 A 
ATOM     55  H   UNL A   1      41.239  29.212  32.663  1.00  0.00     0.167 HD
ATOM     56  C   UNL A   1      43.318  27.366  32.099  1.00  0.00     0.074 A 
ATOM     57  C   UNL A   1      44.194  26.466  31.376  1.00  0.00     0.031 C 
ATOM     58  C   UNL A   1      43.499  27.729  33.393  1.00  0.00     0.034 A 
BRANCH  45  59
ATOM     59  C   UNL A   1      39.399  31.878  35.443  1.00  0.00     0.023 A 
ATOM     60  C   UNL A   1      39.752  33.244  35.430  1.00  0.00     0.012 A 
ATOM     61  C   UNL A   1      38.592  31.385  36.486  1.00  0.00     0.148 A 
ATOM     62  C   UNL A   1      39.346  34.094  36.457  1.00  0.00     0.002 A 
ATOM     63  C   UNL A   1      38.156  32.248  37.484  1.00  0.00     0.091 A 
ATOM     64  F   UNL A   1      38.288  30.079  36.498  1.00  0.00    -0.205 F 
ATOM     65  C   UNL A   1      38.540  33.599  37.478  1.00  0.00     0.022 A 
BRANCH  63  66
ATOM     66  S   UNL A   1      37.054  31.717  38.801  1.00  0.00     0.127 S 
ATOM     67  O   UNL A   1      37.893  31.909  39.983  1.00  0.00    -0.237 OA
ATOM     68  O   UNL A   1      35.944  32.665  38.681  1.00  0.00    -0.237 OA
ATOM     69  O   UNL A   1      36.704  30.338  38.492  1.00  0.00    -0.744 OA
ENDBRANCH  63  66
ENDBRANCH  45  59
BRANCH  46  70
ATOM     70  C   UNL A   1      42.274  26.377  27.612  1.00  0.00     0.023 A 
ATOM     71  C   UNL A   1      43.103  26.976  26.643  1.00  0.00     0.012 A 
ATOM     72  C   UNL A   1      41.920  25.021  27.469  1.00  0.00     0.148 A 
ATOM     73  C   UNL A   1      43.551  26.249  25.540  1.00  0.00     0.002 A 
ATOM     74  C   UNL A   1      42.411  24.288  26.393  1.00  0.00     0.091 A 
ATOM     75  F   UNL A   1      41.120  24.472  28.394  1.00  0.00    -0.205 F 
ATOM     76  C   UNL A   1      43.214  24.904  25.420  1.00  0.00     0.022 A 
BRANCH  74  77
ATOM     77  S   UNL A   1      42.135  22.521  26.228  1.00  0.00     0.127 S 
ATOM     78  O   UNL A   1      40.681  22.455  26.108  1.00  0.00    -0.237 OA
ATOM     79  O   UNL A   1      42.872  22.211  25.002  1.00  0.00    -0.237 OA
ATOM     80  O   UNL A   1      42.701  21.925  27.432  1.00  0.00    -0.744 OA
ENDBRANCH  74  77
ENDBRANCH  46  70
BRANCH  58  81
ATOM     81  C   UNL A   1      44.670  27.136  34.128  1.00  0.00     0.023 A 
ATOM     82  C   UNL A   1      45.901  27.823  34.144  1.00  0.00     0.012 A 
ATOM     83  C   UNL A   1      44.530  25.949  34.872  1.00  0.00     0.148 A 
ATOM     84  C   UNL A   1      46.981  27.323  34.869  1.00  0.00     0.002 A 
ATOM     85  C   UNL A   1      45.598  25.480  35.628  1.00  0.00     0.091 A 
ATOM     86  F   UNL A   1      43.357  25.300  34.827  1.00  0.00    -0.205 F 
ATOM     87  C   UNL A   1      46.826  26.160  35.621  1.00  0.00     0.022 A 
BRANCH  85  88
ATOM     88  S   UNL A   1      45.455  24.043  36.697  1.00  0.00     0.127 S 
ATOM     89  O   UNL A   1      46.827  23.891  37.178  1.00  0.00    -0.237 OA
ATOM     90  O   UNL A   1      44.501  24.499  37.710  1.00  0.00    -0.237 OA
ATOM     91  O   UNL A   1      44.962  22.965  35.851  1.00  0.00    -0.744 OA
ENDBRANCH  85  88
ENDBRANCH  58  81
ENDBRANCH  32  33
ENDBRANCH  24  27
ENDBRANCH  22  23
ENDBRANCH   1  22
TORSDOF 15
ENDMDL
MODEL 2
REMARK VINA RESULT:     -12.2      1.906      2.435
REMARK SMILES C[C@@H]1CN(C(=O)N2CC(CC(=O)NCCCCNC(=O)c3ccc(-c4c5nc(c(-c6cccc(S(=O)(=O)[O-])c6F)c6ccc([nH]6)c(-c6cccc(S(=O)(=O)[O-])c6F)c6nc(c(-c7cccc(S(=O)(=O)[O-])c7F)c7ccc4[nH]7)C=C6)C=C5)cc3)C2)C[C@H]1C
REMARK SMILES IDX 16 1 15 2 14 3 13 4 11 5 12 6 10 8 9 9 1 10 2 11 3 12 86 13
REMARK SMILES IDX 4 14 85 15 87 16 5 17 6 18 7 19 8 20 84 21 17 22 18 23 19 24
REMARK SMILES IDX 20 26 21 27 22 28 83 29 23 30 82 31 24 32 25 33 26 34 76 35
REMARK SMILES IDX 27 36 81 37 75 38 77 39 28 40 80 41 74 42 73 43 29 45 61 46
REMARK SMILES IDX 41 47 60 48 42 49 45 50 59 51 78 52 43 53 44 54 58 56 79 57
REMARK SMILES IDX 46 58 30 59 31 60 39 61 32 62 34 63 40 64 33 65 35 66 36 67
REMARK SMILES IDX 37 68 38 69 62 70 63 71 71 72 64 73 66 74 72 75 65 76 67 77
REMARK SMILES IDX 68 78 69 79 70 80 47 81 48 82 56 83 49 84 51 85 57 86 50 87
REMARK SMILES IDX 52 88 53 89 54 90 55 91
REMARK H PARENT 13 7 18 25 77 44 45 55
REMARK Flexibility Score: inf
ROOT
ATOM      1  C   UNL A   1      32.426  29.480  24.944  1.00  0.00     0.023 C 
ENDROOT
BRANCH   1   2
ATOM      2  C   UNL A   1      31.068  29.264  24.286  1.00  0.00     0.023 C 
BRANCH   2   3
ATOM      3  C   UNL A   1      31.007  28.138  23.253  1.00  0.00     0.116 C 
BRANCH   3   4
ATOM      4  N   UNL A   1      32.270  28.007  22.557  1.00  0.00    -0.356 N 
ATOM      5  C   UNL A   1      32.891  26.889  22.087  1.00  0.00     0.220 C 
ATOM      6  O   UNL A   1      34.028  26.997  21.626  1.00  0.00    -0.275 OA
ATOM      7  H   UNL A   1      32.751  28.852  22.399  1.00  0.00     0.163 HD
BRANCH   5   8
ATOM      8  C   UNL A   1      32.199  25.542  22.123  1.00  0.00     0.107 C 
BRANCH   8   9
ATOM      9  C   UNL A   1      32.408  24.764  23.418  1.00  0.00     0.037 C 
ATOM     10  C   UNL A   1      32.528  17.990  22.376  1.00  0.00     0.010 C 
ATOM     11  C   UNL A   1      32.239  18.764  23.655  1.00  0.00     0.010 C 
ATOM     12  C   UNL A   1      32.367  20.279  23.461  1.00  0.00     0.125 C 
ATOM     13  C   UNL A   1      33.239  18.459  24.785  1.00  0.00     0.010 C 
ATOM     14  N   UNL A   1      32.998  20.782  24.675  1.00  0.00    -0.324 N 
ATOM     15  C   UNL A   1      33.159  19.716  25.646  1.00  0.00     0.125 C 
ATOM     16  C   UNL A   1      32.914  17.189  25.552  1.00  0.00     0.010 C 
ATOM     17  C   UNL A   1      33.661  21.988  24.802  1.00  0.00     0.320 C 
ATOM     18  O   UNL A   1      34.526  22.177  25.656  1.00  0.00    -0.248 OA
ATOM     19  N   UNL A   1      33.309  22.963  23.911  1.00  0.00    -0.324 N 
ATOM     20  C   UNL A   1      33.848  24.297  23.723  1.00  0.00     0.127 C 
ATOM     21  C   UNL A   1      32.009  23.282  23.372  1.00  0.00     0.127 C 
ENDBRANCH   8   9
ENDBRANCH   5   8
ENDBRANCH   3   4
ENDBRANCH   2   3
ENDBRANCH   1   2
BRANCH   1  22
ATOM     22  C   UNL A   1      32.378  29.833  26.423  1.00  0.00     0.116 C 
BRANCH  22  23
ATOM     23  N   UNL A   1      32.250  31.262  26.686  1.00  0.00    -0.352 N 
ATOM     24  C   UNL A   1      33.139  32.090  27.333  1.00  0.00     0.251 C 
ATOM     25  H   UNL A   1      31.424  31.687  26.360  1.00  0.00     0.163 HD
ATOM     26  O   UNL A   1      32.849  33.264  27.548  1.00  0.00    -0.269 OA
BRANCH  24  27
ATOM     27  C   UNL A   1      34.424  31.532  27.803  1.00  0.00     0.039 A 
ATOM     28  C   UNL A   1      35.508  32.392  28.000  1.00  0.00     0.014 A 
ATOM     29  C   UNL A   1      34.525  30.178  28.131  1.00  0.00     0.014 A 
ATOM     30  C   UNL A   1      36.669  31.905  28.606  1.00  0.00     0.010 A 
ATOM     31  C   UNL A   1      35.643  29.720  28.814  1.00  0.00     0.010 A 
ATOM     32  C   UNL A   1      36.727  30.577  29.058  1.00  0.00    -0.014 A 
BRANCH  32  33
ATOM     33  C   UNL A   1      37.903  30.056  29.799  1.00  0.00     0.031 A 
ATOM     34  C   UNL A   1      38.188  30.544  31.193  1.00  0.00     0.074 A 
ATOM     35  C   UNL A   1      38.775  29.236  29.179  1.00  0.00     0.049 A 
ATOM     36  N   UNL A   1      39.209  30.282  31.966  1.00  0.00    -0.248 NA
ATOM     37  C   UNL A   1      37.215  31.481  31.781  1.00  0.00     0.031 C 
ATOM     38  C   UNL A   1      38.660  28.767  27.795  1.00  0.00     0.029 A 
ATOM     39  N   UNL A   1      39.946  28.675  29.622  1.00  0.00    -0.354 N 
ATOM     40  C   UNL A   1      39.026  31.052  33.108  1.00  0.00     0.074 A 
ATOM     41  C   UNL A   1      37.819  31.823  32.911  1.00  0.00     0.031 C 
ATOM     42  C   UNL A   1      39.711  27.980  27.508  1.00  0.00     0.029 A 
ATOM     43  C   UNL A   1      40.586  27.909  28.674  1.00  0.00     0.049 A 
ATOM     44  H   UNL A   1      40.295  28.806  30.532  1.00  0.00     0.167 HD
ATOM     45  C   UNL A   1      39.772  31.088  34.237  1.00  0.00     0.034 A 
ATOM     46  C   UNL A   1      41.746  27.226  28.740  1.00  0.00     0.034 A 
ATOM     47  C   UNL A   1      40.932  30.270  34.457  1.00  0.00     0.049 A 
ATOM     48  C   UNL A   1      42.519  27.224  30.031  1.00  0.00     0.074 A 
ATOM     49  C   UNL A   1      41.699  30.153  35.602  1.00  0.00     0.029 A 
ATOM     50  N   UNL A   1      41.490  29.421  33.513  1.00  0.00    -0.354 N 
ATOM     51  N   UNL A   1      42.241  27.832  31.159  1.00  0.00    -0.248 NA
ATOM     52  C   UNL A   1      43.747  26.417  30.070  1.00  0.00     0.031 C 
ATOM     53  C   UNL A   1      42.725  29.237  35.348  1.00  0.00     0.029 A 
ATOM     54  C   UNL A   1      42.592  28.776  34.047  1.00  0.00     0.049 A 
ATOM     55  H   UNL A   1      41.152  29.297  32.596  1.00  0.00     0.167 HD
ATOM     56  C   UNL A   1      43.236  27.452  32.052  1.00  0.00     0.074 A 
ATOM     57  C   UNL A   1      44.114  26.547  31.338  1.00  0.00     0.031 C 
ATOM     58  C   UNL A   1      43.418  27.831  33.340  1.00  0.00     0.034 A 
BRANCH  45  59
ATOM     59  C   UNL A   1      39.305  31.989  35.348  1.00  0.00     0.023 A 
ATOM     60  C   UNL A   1      38.370  31.501  36.286  1.00  0.00     0.012 A 
ATOM     61  C   UNL A   1      39.806  33.298  35.490  1.00  0.00     0.148 A 
ATOM     62  C   UNL A   1      37.911  32.312  37.321  1.00  0.00     0.002 A 
ATOM     63  C   UNL A   1      39.374  34.086  36.551  1.00  0.00     0.091 A 
ATOM     64  F   UNL A   1      40.672  33.755  34.576  1.00  0.00    -0.205 F 
ATOM     65  C   UNL A   1      38.420  33.601  37.460  1.00  0.00     0.022 A 
BRANCH  63  66
ATOM     66  S   UNL A   1      40.029  35.732  36.853  1.00  0.00     0.127 S 
ATOM     67  O   UNL A   1      41.460  35.461  36.981  1.00  0.00    -0.237 OA
ATOM     68  O   UNL A   1      39.653  36.447  35.631  1.00  0.00    -0.237 OA
ATOM     69  O   UNL A   1      39.365  36.208  38.057  1.00  0.00    -0.744 OA
ENDBRANCH  63  66
ENDBRANCH  45  59
BRANCH  46  70
ATOM     70  C   UNL A   1      42.190  26.406  27.578  1.00  0.00     0.023 A 
ATOM     71  C   UNL A   1      43.016  26.997  26.602  1.00  0.00     0.012 A 
ATOM     72  C   UNL A   1      41.840  25.048  27.451  1.00  0.00     0.148 A 
ATOM     73  C   UNL A   1      43.466  26.258  25.507  1.00  0.00     0.002 A 
ATOM     74  C   UNL A   1      42.331  24.304  26.383  1.00  0.00     0.091 A 
ATOM     75  F   UNL A   1      41.042  24.508  28.383  1.00  0.00    -0.205 F 
ATOM     76  C   UNL A   1      43.133  24.911  25.403  1.00  0.00     0.022 A 
BRANCH  74  77
ATOM     77  S   UNL A   1      42.060  22.534  26.239  1.00  0.00     0.127 S 
ATOM     78  O   UNL A   1      40.605  22.461  26.145  1.00  0.00    -0.237 OA
ATOM     79  O   UNL A   1      42.776  22.217  25.002  1.00  0.00    -0.237 OA
ATOM     80  O   UNL A   1      42.651  21.951  27.437  1.00  0.00    -0.744 OA
ENDBRANCH  74  77
ENDBRANCH  46  70
BRANCH  58  81
ATOM     81  C   UNL A   1      44.593  27.252  34.082  1.00  0.00     0.023 A 
ATOM     82  C   UNL A   1      45.839  27.907  34.029  1.00  0.00     0.012 A 
ATOM     83  C   UNL A   1      44.442  26.112  34.894  1.00  0.00     0.148 A 
ATOM     84  C   UNL A   1      46.924  27.421  34.757  1.00  0.00     0.002 A 
ATOM     85  C   UNL A   1      45.517  25.659  35.651  1.00  0.00     0.091 A 
ATOM     86  F   UNL A   1      43.253  25.491  34.914  1.00  0.00    -0.205 F 
ATOM     87  C   UNL A   1      46.760  26.306  35.577  1.00  0.00     0.022 A 
BRANCH  85  88
ATOM     88  S   UNL A   1      45.365  24.289  36.804  1.00  0.00     0.127 S 
ATOM     89  O   UNL A   1      45.205  23.153  35.897  1.00  0.00    -0.237 OA
ATOM     90  O   UNL A   1      46.647  24.330  37.509  1.00  0.00    -0.237 OA
ATOM     91  O   UNL A   1      44.211  24.596  37.638  1.00  0.00    -0.744 OA
ENDBRANCH  85  88
ENDBRANCH  58  81
ENDBRANCH  32  33
ENDBRANCH  24  27
ENDBRANCH  22  23
ENDBRANCH   1  22
TORSDOF 15
ENDMDL
MODEL 3
REMARK VINA RESULT:     -12.2      2.384      8.241
REMARK SMILES C[C@@H]1CN(C(=O)N2CC(CC(=O)NCCCCNC(=O)c3ccc(-c4c5nc(c(-c6cccc(S(=O)(=O)[O-])c6F)c6ccc([nH]6)c(-c6cccc(S(=O)(=O)[O-])c6F)c6nc(c(-c7cccc(S(=O)(=O)[O-])c7F)c7ccc4[nH]7)C=C6)C=C5)cc3)C2)C[C@H]1C
REMARK SMILES IDX 16 1 15 2 14 3 13 4 11 5 12 6 10 8 9 9 1 10 2 11 3 12 86 13
REMARK SMILES IDX 4 14 85 15 87 16 5 17 6 18 7 19 8 20 84 21 17 22 18 23 19 24
REMARK SMILES IDX 20 26 21 27 22 28 83 29 23 30 82 31 24 32 25 33 26 34 76 35
REMARK SMILES IDX 27 36 81 37 75 38 77 39 28 40 80 41 74 42 73 43 29 45 61 46
REMARK SMILES IDX 41 47 60 48 42 49 45 50 59 51 78 52 43 53 44 54 58 56 79 57
REMARK SMILES IDX 46 58 30 59 31 60 39 61 32 62 34 63 40 64 33 65 35 66 36 67
REMARK SMILES IDX 37 68 38 69 62 70 63 71 71 72 64 73 66 74 72 75 65 76 67 77
REMARK SMILES IDX 68 78 69 79 70 80 47 81 48 82 56 83 49 84 51 85 57 86 50 87
REMARK SMILES IDX 52 88 53 89 54 90 55 91
REMARK H PARENT 13 7 18 25 77 44 45 55
REMARK Flexibility Score: inf
ROOT
ATOM      1  C   UNL A   1      31.998  31.575  26.800  1.00  0.00     0.023 C 
ENDROOT
BRANCH   1   2
ATOM      2  C   UNL A   1      32.153  30.087  27.092  1.00  0.00     0.023 C 
BRANCH   2   3
ATOM      3  C   UNL A   1      32.199  29.175  25.865  1.00  0.00     0.116 C 
BRANCH   3   4
ATOM      4  N   UNL A   1      31.389  29.711  24.792  1.00  0.00    -0.356 N 
ATOM      5  C   UNL A   1      30.727  29.061  23.795  1.00  0.00     0.220 C 
ATOM      6  O   UNL A   1      30.191  29.730  22.910  1.00  0.00    -0.275 OA
ATOM      7  H   UNL A   1      31.305  30.693  24.781  1.00  0.00     0.163 HD
BRANCH   5   8
ATOM      8  C   UNL A   1      30.642  27.549  23.776  1.00  0.00     0.107 C 
BRANCH   8   9
ATOM      9  C   UNL A   1      31.857  26.861  23.159  1.00  0.00     0.037 C 
ATOM     10  C   UNL A   1      34.056  21.597  26.958  1.00  0.00     0.010 C 
ATOM     11  C   UNL A   1      34.807  22.413  25.915  1.00  0.00     0.010 C 
ATOM     12  C   UNL A   1      33.921  23.477  25.259  1.00  0.00     0.125 C 
ATOM     13  C   UNL A   1      35.299  21.569  24.726  1.00  0.00     0.010 C 
ATOM     14  N   UNL A   1      34.293  23.489  23.850  1.00  0.00    -0.324 N 
ATOM     15  C   UNL A   1      35.418  22.605  23.611  1.00  0.00     0.125 C 
ATOM     16  C   UNL A   1      36.601  20.837  25.002  1.00  0.00     0.010 C 
ATOM     17  C   UNL A   1      33.523  23.981  22.813  1.00  0.00     0.320 C 
ATOM     18  O   UNL A   1      33.652  23.592  21.654  1.00  0.00    -0.248 OA
ATOM     19  N   UNL A   1      32.591  24.922  23.152  1.00  0.00    -0.324 N 
ATOM     20  C   UNL A   1      31.589  25.582  22.337  1.00  0.00     0.127 C 
ATOM     21  C   UNL A   1      32.682  25.991  24.118  1.00  0.00     0.127 C 
ENDBRANCH   8   9
ENDBRANCH   5   8
ENDBRANCH   3   4
ENDBRANCH   2   3
ENDBRANCH   1   2
BRANCH   1  22
ATOM     22  C   UNL A   1      33.050  32.471  27.436  1.00  0.00     0.116 C 
BRANCH  22  23
ATOM     23  N   UNL A   1      32.593  33.834  27.684  1.00  0.00    -0.352 N 
ATOM     24  C   UNL A   1      33.078  34.739  28.601  1.00  0.00     0.251 C 
ATOM     25  H   UNL A   1      31.843  34.145  27.127  1.00  0.00     0.163 HD
ATOM     26  O   UNL A   1      32.530  35.828  28.746  1.00  0.00    -0.269 OA
BRANCH  24  27
ATOM     27  C   UNL A   1      34.237  34.361  29.436  1.00  0.00     0.039 A 
ATOM     28  C   UNL A   1      34.013  33.807  30.699  1.00  0.00     0.014 A 
ATOM     29  C   UNL A   1      35.534  34.474  28.931  1.00  0.00     0.014 A 
ATOM     30  C   UNL A   1      35.091  33.289  31.421  1.00  0.00     0.010 A 
ATOM     31  C   UNL A   1      36.588  33.877  29.610  1.00  0.00     0.010 A 
ATOM     32  C   UNL A   1      36.379  33.279  30.862  1.00  0.00    -0.014 A 
BRANCH  32  33
ATOM     33  C   UNL A   1      37.526  32.644  31.556  1.00  0.00     0.031 A 
ATOM     34  C   UNL A   1      38.253  31.496  30.908  1.00  0.00     0.074 A 
ATOM     35  C   UNL A   1      37.841  33.020  32.811  1.00  0.00     0.049 A 
ATOM     36  N   UNL A   1      39.214  30.752  31.388  1.00  0.00    -0.248 NA
ATOM     37  C   UNL A   1      37.813  31.110  29.556  1.00  0.00     0.031 C 
ATOM     38  C   UNL A   1      37.150  34.055  33.585  1.00  0.00     0.029 A 
ATOM     39  N   UNL A   1      38.804  32.553  33.670  1.00  0.00    -0.354 N 
ATOM     40  C   UNL A   1      39.463  29.787  30.421  1.00  0.00     0.074 A 
ATOM     41  C   UNL A   1      38.525  30.013  29.344  1.00  0.00     0.031 C 
ATOM     42  C   UNL A   1      37.719  34.152  34.798  1.00  0.00     0.029 A 
ATOM     43  C   UNL A   1      38.796  33.173  34.900  1.00  0.00     0.049 A 
ATOM     44  H   UNL A   1      39.442  31.844  33.430  1.00  0.00     0.167 HD
ATOM     45  C   UNL A   1      40.413  28.822  30.408  1.00  0.00     0.034 A 
ATOM     46  C   UNL A   1      39.572  32.974  35.983  1.00  0.00     0.034 A 
ATOM     47  C   UNL A   1      41.387  28.643  31.449  1.00  0.00     0.049 A 
ATOM     48  C   UNL A   1      40.667  31.944  35.918  1.00  0.00     0.074 A 
ATOM     49  C   UNL A   1      42.454  27.765  31.488  1.00  0.00     0.029 A 
ATOM     50  N   UNL A   1      41.418  29.364  32.633  1.00  0.00    -0.354 N 
ATOM     51  N   UNL A   1      40.993  31.150  34.927  1.00  0.00    -0.248 NA
ATOM     52  C   UNL A   1      41.523  31.806  37.105  1.00  0.00     0.031 C 
ATOM     53  C   UNL A   1      43.128  27.950  32.700  1.00  0.00     0.029 A 
ATOM     54  C   UNL A   1      42.485  28.951  33.411  1.00  0.00     0.049 A 
ATOM     55  H   UNL A   1      40.774  30.066  32.884  1.00  0.00     0.167 HD
ATOM     56  C   UNL A   1      42.111  30.444  35.356  1.00  0.00     0.074 A 
ATOM     57  C   UNL A   1      42.418  30.920  36.690  1.00  0.00     0.031 C 
ATOM     58  C   UNL A   1      42.811  29.479  34.712  1.00  0.00     0.034 A 
BRANCH  45  59
ATOM     59  C   UNL A   1      40.486  27.936  29.194  1.00  0.00     0.023 A 
ATOM     60  C   UNL A   1      39.624  26.823  29.100  1.00  0.00     0.012 A 
ATOM     61  C   UNL A   1      41.372  28.214  28.135  1.00  0.00     0.148 A 
ATOM     62  C   UNL A   1      39.672  25.977  27.994  1.00  0.00     0.002 A 
ATOM     63  C   UNL A   1      41.383  27.390  27.016  1.00  0.00     0.091 A 
ATOM     64  F   UNL A   1      42.202  29.259  28.252  1.00  0.00    -0.205 F 
ATOM     65  C   UNL A   1      40.544  26.266  26.947  1.00  0.00     0.022 A 
BRANCH  63  66
ATOM     66  S   UNL A   1      42.420  27.725  25.587  1.00  0.00     0.127 S 
ATOM     67  O   UNL A   1      43.744  27.823  26.201  1.00  0.00    -0.237 OA
ATOM     68  O   UNL A   1      42.217  26.529  24.766  1.00  0.00    -0.237 OA
ATOM     69  O   UNL A   1      41.903  28.953  25.001  1.00  0.00    -0.744 OA
ENDBRANCH  63  66
ENDBRANCH  45  59
BRANCH  46  70
ATOM     70  C   UNL A   1      39.403  33.839  37.184  1.00  0.00     0.023 A 
ATOM     71  C   UNL A   1      39.845  35.176  37.131  1.00  0.00     0.012 A 
ATOM     72  C   UNL A   1      38.776  33.369  38.355  1.00  0.00     0.148 A 
ATOM     73  C   UNL A   1      39.690  36.022  38.229  1.00  0.00     0.002 A 
ATOM     74  C   UNL A   1      38.580  34.232  39.428  1.00  0.00     0.091 A 
ATOM     75  F   UNL A   1      38.374  32.091  38.391  1.00  0.00    -0.205 F 
ATOM     76  C   UNL A   1      39.049  35.554  39.373  1.00  0.00     0.022 A 
BRANCH  74  77
ATOM     77  S   UNL A   1      37.651  33.754  40.889  1.00  0.00     0.127 S 
ATOM     78  O   UNL A   1      38.606  32.895  41.584  1.00  0.00    -0.237 OA
ATOM     79  O   UNL A   1      37.403  35.047  41.529  1.00  0.00    -0.237 OA
ATOM     80  O   UNL A   1      36.451  33.095  40.388  1.00  0.00    -0.744 OA
ENDBRANCH  74  77
ENDBRANCH  46  70
BRANCH  58  81
ATOM     81  C   UNL A   1      43.998  28.884  35.420  1.00  0.00     0.023 A 
ATOM     82  C   UNL A   1      45.276  29.446  35.226  1.00  0.00     0.012 A 
ATOM     83  C   UNL A   1      43.836  27.829  36.339  1.00  0.00     0.148 A 
ATOM     84  C   UNL A   1      46.379  28.949  35.920  1.00  0.00     0.002 A 
ATOM     85  C   UNL A   1      44.933  27.369  37.058  1.00  0.00     0.091 A 
ATOM     86  F   UNL A   1      42.616  27.295  36.493  1.00  0.00    -0.205 F 
ATOM     87  C   UNL A   1      46.206  27.920  36.844  1.00  0.00     0.022 A 
BRANCH  85  88
ATOM     88  S   UNL A   1      44.781  26.113  38.335  1.00  0.00     0.127 S 
ATOM     89  O   UNL A   1      44.178  25.006  37.594  1.00  0.00    -0.237 OA
ATOM     90  O   UNL A   1      46.174  25.896  38.729  1.00  0.00    -0.237 OA
ATOM     91  O   UNL A   1      43.948  26.702  39.375  1.00  0.00    -0.744 OA
ENDBRANCH  85  88
ENDBRANCH  58  81
ENDBRANCH  32  33
ENDBRANCH  24  27
ENDBRANCH  22  23
ENDBRANCH   1  22
TORSDOF 15
ENDMDL
