MODEL 1
REMARK VINA RESULT:     -11.0      0.000      0.000
REMARK SMILES CCCCCCNC(=O)Oc1cccc(-c2ccc(CC(=O)NCCCCNC(=O)c3ccc(-c4c5nc(c(-c6cccc(S(=O)(=O)[O-])c6F)c6ccc([nH]6)c(-c6cccc(S(=O)(=O)[O-])c6F)c6nc(c(-c7cccc(S(=O)(=O)[O-])c7F)c7ccc4[nH]7)C=C6)C=C5)cc3)cc2F)c1
REMARK SMILES IDX 21 1 22 2 23 3 20 5 19 6 16 7 17 8 95 9 18 10 94 11 96 12
REMARK SMILES IDX 15 13 11 14 12 15 97 16 13 17 14 18 10 19 8 20 7 21 9 23
REMARK SMILES IDX 6 24 5 25 4 26 3 27 2 28 1 29 24 30 25 31 26 32 27 33 28 34
REMARK SMILES IDX 29 35 30 37 31 38 32 39 93 40 33 41 92 42 34 43 35 44 36 45
REMARK SMILES IDX 86 46 37 47 91 48 85 49 87 50 38 51 90 52 84 53 83 54 39 56
REMARK SMILES IDX 71 57 51 58 70 59 52 60 55 61 69 62 88 63 53 64 54 65 68 67
REMARK SMILES IDX 89 68 56 69 40 70 41 71 49 72 42 73 44 74 50 75 43 76 45 77
REMARK SMILES IDX 46 78 47 79 48 80 72 81 73 82 81 83 74 84 76 85 82 86 75 87
REMARK SMILES IDX 77 88 78 89 79 90 80 91 57 92 58 93 66 94 59 95 61 96 67 97
REMARK SMILES IDX 60 98 62 99 63 100 64 101 65 102
REMARK H PARENT 23 4 7 22 28 36 87 55 55 66
REMARK Flexibility Score: inf
ROOT
ATOM      1  C   UNL A   1      34.163  20.979  25.541  1.00  0.00     0.224 C 
ATOM      2  O   UNL A   1      33.422  20.220  26.169  1.00  0.00    -0.275 OA
ATOM      3  N   UNL A   1      35.281  21.465  26.158  1.00  0.00    -0.356 N 
ATOM      4  H   UNL A   1      35.434  21.139  27.074  1.00  0.00     0.163 HD
ENDROOT
BRANCH   1   5
ATOM      5  C   UNL A   1      33.867  21.341  24.093  1.00  0.00     0.135 C 
BRANCH   5   6
ATOM      6  C   UNL A   1      33.197  22.682  23.926  1.00  0.00    -0.036 A 
ATOM      7  C   UNL A   1      32.072  25.283  23.784  1.00  0.00     0.018 A 
ATOM      8  C   UNL A   1      31.448  24.261  24.520  1.00  0.00     0.012 A 
ATOM      9  C   UNL A   1      33.238  24.949  23.080  1.00  0.00     0.131 A 
ATOM     10  C   UNL A   1      32.000  22.977  24.589  1.00  0.00     0.005 A 
ATOM     11  C   UNL A   1      33.789  23.671  23.133  1.00  0.00     0.044 A 
ATOM     12  F   UNL A   1      33.891  25.877  22.361  1.00  0.00    -0.206 F 
BRANCH   7  13
ATOM     13  C   UNL A   1      31.533  26.652  23.774  1.00  0.00    -0.012 A 
ATOM     14  C   UNL A   1      31.313  28.848  24.790  1.00  0.00     0.133 A 
ATOM     15  C   UNL A   1      30.442  29.259  23.784  1.00  0.00     0.047 A 
ATOM     16  C   UNL A   1      31.843  27.557  24.800  1.00  0.00     0.056 A 
ATOM     17  C   UNL A   1      30.125  28.375  22.757  1.00  0.00     0.004 A 
ATOM     18  C   UNL A   1      30.667  27.086  22.751  1.00  0.00     0.009 A 
BRANCH  14  19
ATOM     19  O   UNL A   1      31.532  29.739  25.851  1.00  0.00    -0.410 OA
BRANCH  19  20
ATOM     20  C   UNL A   1      31.895  29.217  27.082  1.00  0.00     0.412 C 
ATOM     21  N   UNL A   1      32.886  29.927  27.699  1.00  0.00    -0.321 N 
ATOM     22  H   UNL A   1      33.189  29.592  28.573  1.00  0.00     0.167 HD
ATOM     23  O   UNL A   1      31.425  28.215  27.616  1.00  0.00    -0.224 OA
BRANCH  21  24
ATOM     24  C   UNL A   1      33.537  31.122  27.201  1.00  0.00     0.119 C 
BRANCH  24  25
ATOM     25  C   UNL A   1      34.944  31.289  27.775  1.00  0.00     0.021 C 
BRANCH  25  26
ATOM     26  C   UNL A   1      35.007  31.994  29.136  1.00  0.00     0.002 C 
BRANCH  26  27
ATOM     27  C   UNL A   1      34.569  33.464  29.140  1.00  0.00    -0.000 C 
BRANCH  27  28
ATOM     28  C   UNL A   1      34.561  34.143  30.512  1.00  0.00    -0.003 C 
ATOM     29  C   UNL A   1      35.827  33.888  31.316  1.00  0.00     0.004 C 
ENDBRANCH  27  28
ENDBRANCH  26  27
ENDBRANCH  25  26
ENDBRANCH  24  25
ENDBRANCH  21  24
ENDBRANCH  19  20
ENDBRANCH  14  19
ENDBRANCH   7  13
ENDBRANCH   5   6
ENDBRANCH   1   5
BRANCH   3  30
ATOM     30  C   UNL A   1      36.273  22.396  25.652  1.00  0.00     0.116 C 
BRANCH  30  31
ATOM     31  C   UNL A   1      37.237  21.732  24.668  1.00  0.00     0.023 C 
BRANCH  31  32
ATOM     32  C   UNL A   1      37.943  20.484  25.205  1.00  0.00     0.023 C 
BRANCH  32  33
ATOM     33  C   UNL A   1      39.234  20.744  25.975  1.00  0.00     0.116 C 
BRANCH  33  34
ATOM     34  N   UNL A   1      40.155  19.617  25.950  1.00  0.00    -0.352 N 
ATOM     35  C   UNL A   1      41.524  19.623  26.083  1.00  0.00     0.251 C 
ATOM     36  H   UNL A   1      39.743  18.732  25.821  1.00  0.00     0.163 HD
ATOM     37  O   UNL A   1      42.161  18.585  25.926  1.00  0.00    -0.269 OA
BRANCH  35  38
ATOM     38  C   UNL A   1      42.227  20.891  26.379  1.00  0.00     0.039 A 
ATOM     39  C   UNL A   1      42.572  21.734  25.320  1.00  0.00     0.014 A 
ATOM     40  C   UNL A   1      42.521  21.258  27.694  1.00  0.00     0.014 A 
ATOM     41  C   UNL A   1      43.151  22.978  25.585  1.00  0.00     0.010 A 
ATOM     42  C   UNL A   1      43.033  22.526  27.960  1.00  0.00     0.010 A 
ATOM     43  C   UNL A   1      43.353  23.400  26.910  1.00  0.00    -0.014 A 
BRANCH  43  44
ATOM     44  C   UNL A   1      43.876  24.756  27.218  1.00  0.00     0.031 A 
ATOM     45  C   UNL A   1      42.965  25.813  27.782  1.00  0.00     0.074 A 
ATOM     46  C   UNL A   1      45.150  25.065  26.902  1.00  0.00     0.049 A 
ATOM     47  N   UNL A   1      43.226  27.065  28.055  1.00  0.00    -0.248 NA
ATOM     48  C   UNL A   1      41.571  25.420  28.047  1.00  0.00     0.031 C 
ATOM     49  C   UNL A   1      46.110  24.154  26.275  1.00  0.00     0.029 A 
ATOM     50  N   UNL A   1      45.847  26.240  27.038  1.00  0.00    -0.354 N 
ATOM     51  C   UNL A   1      42.026  27.618  28.487  1.00  0.00     0.074 A 
ATOM     52  C   UNL A   1      41.029  26.573  28.410  1.00  0.00     0.031 C 
ATOM     53  C   UNL A   1      47.270  24.803  26.082  1.00  0.00     0.029 A 
ATOM     54  C   UNL A   1      47.130  26.181  26.543  1.00  0.00     0.049 A 
ATOM     55  H   UNL A   1      45.466  27.049  27.449  1.00  0.00     0.167 HD
ATOM     56  C   UNL A   1      41.782  28.872  28.936  1.00  0.00     0.034 A 
ATOM     57  C   UNL A   1      48.084  27.130  26.463  1.00  0.00     0.034 A 
ATOM     58  C   UNL A   1      42.786  29.895  29.056  1.00  0.00     0.049 A 
ATOM     59  C   UNL A   1      47.799  28.502  27.011  1.00  0.00     0.074 A 
ATOM     60  C   UNL A   1      42.658  31.167  29.589  1.00  0.00     0.029 A 
ATOM     61  N   UNL A   1      44.098  29.770  28.632  1.00  0.00    -0.354 N 
ATOM     62  N   UNL A   1      46.704  28.956  27.572  1.00  0.00    -0.248 NA
ATOM     63  C   UNL A   1      48.893  29.483  26.949  1.00  0.00     0.031 C 
ATOM     64  C   UNL A   1      43.890  31.817  29.465  1.00  0.00     0.029 A 
ATOM     65  C   UNL A   1      44.791  30.943  28.880  1.00  0.00     0.049 A 
ATOM     66  H   UNL A   1      44.483  28.965  28.214  1.00  0.00     0.167 HD
ATOM     67  C   UNL A   1      46.988  30.260  27.962  1.00  0.00     0.074 A 
ATOM     68  C   UNL A   1      48.365  30.516  27.593  1.00  0.00     0.031 C 
ATOM     69  C   UNL A   1      46.177  31.168  28.560  1.00  0.00     0.034 A 
BRANCH  56  70
ATOM     70  C   UNL A   1      40.380  29.195  29.387  1.00  0.00     0.023 A 
ATOM     71  C   UNL A   1      39.444  29.679  28.451  1.00  0.00     0.012 A 
ATOM     72  C   UNL A   1      39.971  28.962  30.715  1.00  0.00     0.148 A 
ATOM     73  C   UNL A   1      38.135  29.962  28.835  1.00  0.00     0.002 A 
ATOM     74  C   UNL A   1      38.652  29.203  31.080  1.00  0.00     0.091 A 
ATOM     75  F   UNL A   1      40.880  28.520  31.596  1.00  0.00    -0.205 F 
ATOM     76  C   UNL A   1      37.736  29.714  30.145  1.00  0.00     0.022 A 
BRANCH  74  77
ATOM     77  S   UNL A   1      38.019  28.841  32.722  1.00  0.00     0.127 S 
ATOM     78  O   UNL A   1      36.636  29.303  32.612  1.00  0.00    -0.237 OA
ATOM     79  O   UNL A   1      38.171  27.387  32.797  1.00  0.00    -0.237 OA
ATOM     80  O   UNL A   1      38.856  29.588  33.649  1.00  0.00    -0.744 OA
ENDBRANCH  74  77
ENDBRANCH  56  70
BRANCH  57  81
ATOM     81  C   UNL A   1      49.424  26.793  25.903  1.00  0.00     0.023 A 
ATOM     82  C   UNL A   1      50.351  26.099  26.704  1.00  0.00     0.012 A 
ATOM     83  C   UNL A   1      49.774  27.130  24.582  1.00  0.00     0.148 A 
ATOM     84  C   UNL A   1      51.616  25.776  26.211  1.00  0.00     0.002 A 
ATOM     85  C   UNL A   1      51.015  26.757  24.078  1.00  0.00     0.091 A 
ATOM     86  F   UNL A   1      48.882  27.801  23.840  1.00  0.00    -0.205 F 
ATOM     87  C   UNL A   1      51.944  26.095  24.896  1.00  0.00     0.022 A 
BRANCH  85  88
ATOM     88  S   UNL A   1      51.471  27.009  22.359  1.00  0.00     0.127 S 
ATOM     89  O   UNL A   1      51.671  28.454  22.312  1.00  0.00    -0.237 OA
ATOM     90  O   UNL A   1      52.696  26.213  22.252  1.00  0.00    -0.237 OA
ATOM     91  O   UNL A   1      50.354  26.496  21.578  1.00  0.00    -0.744 OA
ENDBRANCH  85  88
ENDBRANCH  57  81
BRANCH  69  92
ATOM     92  C   UNL A   1      46.760  32.517  28.891  1.00  0.00     0.023 A 
ATOM     93  C   UNL A   1      47.518  32.684  30.066  1.00  0.00     0.012 A 
ATOM     94  C   UNL A   1      46.621  33.597  27.998  1.00  0.00     0.148 A 
ATOM     95  C   UNL A   1      48.102  33.916  30.364  1.00  0.00     0.002 A 
ATOM     96  C   UNL A   1      47.247  34.807  28.276  1.00  0.00     0.091 A 
ATOM     97  F   UNL A   1      45.880  33.424  26.893  1.00  0.00    -0.205 F 
ATOM     98  C   UNL A   1      47.977  34.971  29.465  1.00  0.00     0.022 A 
BRANCH  96  99
ATOM     99  S   UNL A   1      47.221  36.190  27.130  1.00  0.00     0.127 S 
ATOM    100  O   UNL A   1      45.799  36.530  27.106  1.00  0.00    -0.237 OA
ATOM    101  O   UNL A   1      48.071  37.171  27.806  1.00  0.00    -0.237 OA
ATOM    102  O   UNL A   1      47.764  35.683  25.878  1.00  0.00    -0.744 OA
ENDBRANCH  96  99
ENDBRANCH  69  92
ENDBRANCH  43  44
ENDBRANCH  35  38
ENDBRANCH  33  34
ENDBRANCH  32  33
ENDBRANCH  31  32
ENDBRANCH  30  31
ENDBRANCH   3  30
TORSDOF 23
ENDMDL
MODEL 2
REMARK VINA RESULT:     -10.8      5.227     10.693
REMARK SMILES CCCCCCNC(=O)Oc1cccc(-c2ccc(CC(=O)NCCCCNC(=O)c3ccc(-c4c5nc(c(-c6cccc(S(=O)(=O)[O-])c6F)c6ccc([nH]6)c(-c6cccc(S(=O)(=O)[O-])c6F)c6nc(c(-c7cccc(S(=O)(=O)[O-])c7F)c7ccc4[nH]7)C=C6)C=C5)cc3)cc2F)c1
REMARK SMILES IDX 21 1 22 2 23 3 20 5 19 6 16 7 17 8 95 9 18 10 94 11 96 12
REMARK SMILES IDX 15 13 11 14 12 15 97 16 13 17 14 18 10 19 8 20 7 21 9 23
REMARK SMILES IDX 6 24 5 25 4 26 3 27 2 28 1 29 24 30 25 31 26 32 27 33 28 34
REMARK SMILES IDX 29 35 30 37 31 38 32 39 93 40 33 41 92 42 34 43 35 44 36 45
REMARK SMILES IDX 86 46 37 47 91 48 85 49 87 50 38 51 90 52 84 53 83 54 39 56
REMARK SMILES IDX 71 57 51 58 70 59 52 60 55 61 69 62 88 63 53 64 54 65 68 67
REMARK SMILES IDX 89 68 56 69 40 70 41 71 49 72 42 73 44 74 50 75 43 76 45 77
REMARK SMILES IDX 46 78 47 79 48 80 72 81 73 82 81 83 74 84 76 85 82 86 75 87
REMARK SMILES IDX 77 88 78 89 79 90 80 91 57 92 58 93 66 94 59 95 61 96 67 97
REMARK SMILES IDX 60 98 62 99 63 100 64 101 65 102
REMARK H PARENT 23 4 7 22 28 36 87 55 55 66
REMARK Flexibility Score: inf
ROOT
ATOM      1  C   UNL A   1      37.212  34.019  32.650  1.00  0.00     0.224 C 
ATOM      2  O   UNL A   1      38.416  34.256  32.533  1.00  0.00    -0.275 OA
ATOM      3  N   UNL A   1      36.315  34.846  32.036  1.00  0.00    -0.356 N 
ATOM      4  H   UNL A   1      36.709  35.574  31.502  1.00  0.00     0.163 HD
ENDROOT
BRANCH   1   5
ATOM      5  C   UNL A   1      36.726  32.806  33.430  1.00  0.00     0.135 C 
BRANCH   5   6
ATOM      6  C   UNL A   1      37.835  31.886  33.877  1.00  0.00    -0.036 A 
ATOM      7  C   UNL A   1      40.067  30.288  34.595  1.00  0.00     0.018 A 
ATOM      8  C   UNL A   1      39.235  29.932  33.521  1.00  0.00     0.012 A 
ATOM      9  C   UNL A   1      39.716  31.431  35.330  1.00  0.00     0.131 A 
ATOM     10  C   UNL A   1      38.132  30.717  33.166  1.00  0.00     0.005 A 
ATOM     11  C   UNL A   1      38.614  32.212  34.993  1.00  0.00     0.044 A 
ATOM     12  F   UNL A   1      40.469  31.835  36.366  1.00  0.00    -0.206 F 
BRANCH   7  13
ATOM     13  C   UNL A   1      41.270  29.505  34.921  1.00  0.00    -0.012 A 
ATOM     14  C   UNL A   1      42.384  27.774  36.211  1.00  0.00     0.133 A 
ATOM     15  C   UNL A   1      43.598  28.050  35.590  1.00  0.00     0.047 A 
ATOM     16  C   UNL A   1      41.233  28.499  35.897  1.00  0.00     0.056 A 
ATOM     17  C   UNL A   1      43.653  29.044  34.617  1.00  0.00     0.004 A 
ATOM     18  C   UNL A   1      42.500  29.763  34.285  1.00  0.00     0.009 A 
BRANCH  14  19
ATOM     19  O   UNL A   1      42.395  26.829  37.249  1.00  0.00    -0.410 OA
BRANCH  19  20
ATOM     20  C   UNL A   1      41.432  25.832  37.238  1.00  0.00     0.412 C 
ATOM     21  N   UNL A   1      41.821  24.714  36.554  1.00  0.00    -0.321 N 
ATOM     22  H   UNL A   1      41.169  23.978  36.507  1.00  0.00     0.167 HD
ATOM     23  O   UNL A   1      40.320  25.887  37.756  1.00  0.00    -0.224 OA
BRANCH  21  24
ATOM     24  C   UNL A   1      43.092  24.498  35.893  1.00  0.00     0.119 C 
BRANCH  24  25
ATOM     25  C   UNL A   1      42.980  23.486  34.753  1.00  0.00     0.021 C 
BRANCH  25  26
ATOM     26  C   UNL A   1      44.089  22.428  34.718  1.00  0.00     0.002 C 
BRANCH  26  27
ATOM     27  C   UNL A   1      45.411  22.834  35.380  1.00  0.00    -0.000 C 
BRANCH  27  28
ATOM     28  C   UNL A   1      46.505  23.314  34.424  1.00  0.00    -0.003 C 
ATOM     29  C   UNL A   1      46.171  24.634  33.744  1.00  0.00     0.004 C 
ENDBRANCH  27  28
ENDBRANCH  26  27
ENDBRANCH  25  26
ENDBRANCH  24  25
ENDBRANCH  21  24
ENDBRANCH  19  20
ENDBRANCH  14  19
ENDBRANCH   7  13
ENDBRANCH   5   6
ENDBRANCH   1   5
BRANCH   3  30
ATOM     30  C   UNL A   1      34.865  34.804  32.060  1.00  0.00     0.116 C 
BRANCH  30  31
ATOM     31  C   UNL A   1      34.275  34.456  30.692  1.00  0.00     0.023 C 
BRANCH  31  32
ATOM     32  C   UNL A   1      34.582  33.037  30.205  1.00  0.00     0.023 C 
BRANCH  32  33
ATOM     33  C   UNL A   1      34.761  32.888  28.697  1.00  0.00     0.116 C 
BRANCH  33  34
ATOM     34  N   UNL A   1      33.991  31.789  28.133  1.00  0.00    -0.352 N 
ATOM     35  C   UNL A   1      34.401  30.505  27.860  1.00  0.00     0.251 C 
ATOM     36  H   UNL A   1      33.052  31.992  27.919  1.00  0.00     0.163 HD
ATOM     37  O   UNL A   1      33.646  29.731  27.277  1.00  0.00    -0.269 OA
BRANCH  35  38
ATOM     38  C   UNL A   1      35.764  30.073  28.237  1.00  0.00     0.039 A 
ATOM     39  C   UNL A   1      36.784  30.151  27.285  1.00  0.00     0.014 A 
ATOM     40  C   UNL A   1      36.042  29.619  29.529  1.00  0.00     0.014 A 
ATOM     41  C   UNL A   1      38.096  29.838  27.649  1.00  0.00     0.010 A 
ATOM     42  C   UNL A   1      37.360  29.376  29.908  1.00  0.00     0.010 A 
ATOM     43  C   UNL A   1      38.401  29.482  28.973  1.00  0.00    -0.014 A 
BRANCH  43  44
ATOM     44  C   UNL A   1      39.802  29.240  29.406  1.00  0.00     0.031 A 
ATOM     45  C   UNL A   1      40.602  30.342  30.047  1.00  0.00     0.074 A 
ATOM     46  C   UNL A   1      40.386  28.056  29.136  1.00  0.00     0.049 A 
ATOM     47  N   UNL A   1      41.851  30.336  30.432  1.00  0.00    -0.248 NA
ATOM     48  C   UNL A   1      39.916  31.628  30.257  1.00  0.00     0.031 C 
ATOM     49  C   UNL A   1      39.744  26.934  28.445  1.00  0.00     0.029 A 
ATOM     50  N   UNL A   1      41.660  27.607  29.383  1.00  0.00    -0.354 N 
ATOM     51  C   UNL A   1      42.114  31.621  30.893  1.00  0.00     0.074 A 
ATOM     52  C   UNL A   1      40.902  32.389  30.712  1.00  0.00     0.031 C 
ATOM     53  C   UNL A   1      40.626  25.928  28.325  1.00  0.00     0.029 A 
ATOM     54  C   UNL A   1      41.902  26.340  28.903  1.00  0.00     0.049 A 
ATOM     55  H   UNL A   1      42.337  28.141  29.858  1.00  0.00     0.167 HD
ATOM     56  C   UNL A   1      43.249  32.109  31.447  1.00  0.00     0.034 A 
ATOM     57  C   UNL A   1      43.026  25.595  28.920  1.00  0.00     0.034 A 
ATOM     58  C   UNL A   1      44.437  31.330  31.669  1.00  0.00     0.049 A 
ATOM     59  C   UNL A   1      44.260  26.147  29.581  1.00  0.00     0.074 A 
ATOM     60  C   UNL A   1      45.605  31.708  32.309  1.00  0.00     0.029 A 
ATOM     61  N   UNL A   1      44.614  30.021  31.254  1.00  0.00    -0.354 N 
ATOM     62  N   UNL A   1      44.434  27.309  30.164  1.00  0.00    -0.248 NA
ATOM     63  C   UNL A   1      45.441  25.273  29.620  1.00  0.00     0.031 C 
ATOM     64  C   UNL A   1      46.497  30.632  32.260  1.00  0.00     0.029 A 
ATOM     65  C   UNL A   1      45.876  29.576  31.614  1.00  0.00     0.049 A 
ATOM     66  H   UNL A   1      43.942  29.484  30.774  1.00  0.00     0.167 HD
ATOM     67  C   UNL A   1      45.729  27.290  30.670  1.00  0.00     0.074 A 
ATOM     68  C   UNL A   1      46.286  25.993  30.345  1.00  0.00     0.031 C 
ATOM     69  C   UNL A   1      46.400  28.264  31.333  1.00  0.00     0.034 A 
BRANCH  56  70
ATOM     70  C   UNL A   1      43.244  33.546  31.904  1.00  0.00     0.023 A 
ATOM     71  C   UNL A   1      43.746  34.548  31.050  1.00  0.00     0.012 A 
ATOM     72  C   UNL A   1      42.689  33.912  33.146  1.00  0.00     0.148 A 
ATOM     73  C   UNL A   1      43.731  35.887  31.437  1.00  0.00     0.002 A 
ATOM     74  C   UNL A   1      42.636  35.253  33.507  1.00  0.00     0.091 A 
ATOM     75  F   UNL A   1      42.234  32.943  33.954  1.00  0.00    -0.205 F 
ATOM     76  C   UNL A   1      43.166  36.241  32.659  1.00  0.00     0.022 A 
BRANCH  74  77
ATOM     77  S   UNL A   1      41.857  35.819  35.023  1.00  0.00     0.127 S 
ATOM     78  O   UNL A   1      42.621  35.092  36.035  1.00  0.00    -0.237 OA
ATOM     79  O   UNL A   1      42.115  37.259  34.984  1.00  0.00    -0.237 OA
ATOM     80  O   UNL A   1      40.452  35.451  34.915  1.00  0.00    -0.744 OA
ENDBRANCH  74  77
ENDBRANCH  56  70
BRANCH  57  81
ATOM     81  C   UNL A   1      43.014  24.218  28.351  1.00  0.00     0.023 A 
ATOM     82  C   UNL A   1      42.364  23.186  29.057  1.00  0.00     0.012 A 
ATOM     83  C   UNL A   1      43.616  23.928  27.112  1.00  0.00     0.148 A 
ATOM     84  C   UNL A   1      42.342  21.885  28.554  1.00  0.00     0.002 A 
ATOM     85  C   UNL A   1      43.543  22.641  26.591  1.00  0.00     0.091 A 
ATOM     86  F   UNL A   1      44.240  24.921  26.462  1.00  0.00    -0.205 F 
ATOM     87  C   UNL A   1      42.922  21.614  27.317  1.00  0.00     0.022 A 
BRANCH  85  88
ATOM     88  S   UNL A   1      44.145  22.233  24.948  1.00  0.00     0.127 S 
ATOM     89  O   UNL A   1      45.560  22.581  25.053  1.00  0.00    -0.237 OA
ATOM     90  O   UNL A   1      43.866  20.798  24.873  1.00  0.00    -0.237 OA
ATOM     91  O   UNL A   1      43.359  23.045  24.029  1.00  0.00    -0.744 OA
ENDBRANCH  85  88
ENDBRANCH  57  81
BRANCH  69  92
ATOM     92  C   UNL A   1      47.804  27.962  31.789  1.00  0.00     0.023 A 
ATOM     93  C   UNL A   1      48.032  27.497  33.099  1.00  0.00     0.012 A 
ATOM     94  C   UNL A   1      48.887  28.065  30.894  1.00  0.00     0.148 A 
ATOM     95  C   UNL A   1      49.320  27.170  33.522  1.00  0.00     0.002 A 
ATOM     96  C   UNL A   1      50.161  27.691  31.306  1.00  0.00     0.091 A 
ATOM     97  F   UNL A   1      48.653  28.528  29.657  1.00  0.00    -0.205 F 
ATOM     98  C   UNL A   1      50.381  27.255  32.623  1.00  0.00     0.022 A 
BRANCH  96  99
ATOM     99  S   UNL A   1      51.568  27.675  30.190  1.00  0.00     0.127 S 
ATOM    100  O   UNL A   1      51.336  26.443  29.437  1.00  0.00    -0.237 OA
ATOM    101  O   UNL A   1      51.369  28.905  29.422  1.00  0.00    -0.237 OA
ATOM    102  O   UNL A   1      52.752  27.677  31.036  1.00  0.00    -0.744 OA
ENDBRANCH  96  99
ENDBRANCH  69  92
ENDBRANCH  43  44
ENDBRANCH  35  38
ENDBRANCH  33  34
ENDBRANCH  32  33
ENDBRANCH  31  32
ENDBRANCH  30  31
ENDBRANCH   3  30
TORSDOF 23
ENDMDL
MODEL 3
REMARK VINA RESULT:     -10.4      5.016      9.256
REMARK SMILES CCCCCCNC(=O)Oc1cccc(-c2ccc(CC(=O)NCCCCNC(=O)c3ccc(-c4c5nc(c(-c6cccc(S(=O)(=O)[O-])c6F)c6ccc([nH]6)c(-c6cccc(S(=O)(=O)[O-])c6F)c6nc(c(-c7cccc(S(=O)(=O)[O-])c7F)c7ccc4[nH]7)C=C6)C=C5)cc3)cc2F)c1
REMARK SMILES IDX 21 1 22 2 23 3 20 5 19 6 16 7 17 8 95 9 18 10 94 11 96 12
REMARK SMILES IDX 15 13 11 14 12 15 97 16 13 17 14 18 10 19 8 20 7 21 9 23
REMARK SMILES IDX 6 24 5 25 4 26 3 27 2 28 1 29 24 30 25 31 26 32 27 33 28 34
REMARK SMILES IDX 29 35 30 37 31 38 32 39 93 40 33 41 92 42 34 43 35 44 36 45
REMARK SMILES IDX 86 46 37 47 91 48 85 49 87 50 38 51 90 52 84 53 83 54 39 56
REMARK SMILES IDX 71 57 51 58 70 59 52 60 55 61 69 62 88 63 53 64 54 65 68 67
REMARK SMILES IDX 89 68 56 69 40 70 41 71 49 72 42 73 44 74 50 75 43 76 45 77
REMARK SMILES IDX 46 78 47 79 48 80 72 81 73 82 81 83 74 84 76 85 82 86 75 87
REMARK SMILES IDX 77 88 78 89 79 90 80 91 57 92 58 93 66 94 59 95 61 96 67 97
REMARK SMILES IDX 60 98 62 99 63 100 64 101 65 102
REMARK H PARENT 23 4 7 22 28 36 87 55 55 66
REMARK Flexibility Score: inf
ROOT
ATOM      1  C   UNL A   1      42.659  23.757  28.392  1.00  0.00     0.224 C 
ATOM      2  O   UNL A   1      42.726  23.367  29.559  1.00  0.00    -0.275 OA
ATOM      3  N   UNL A   1      42.283  22.871  27.423  1.00  0.00    -0.356 N 
ATOM      4  H   UNL A   1      42.053  21.968  27.741  1.00  0.00     0.163 HD
ENDROOT
BRANCH   1   5
ATOM      5  C   UNL A   1      42.952  25.207  28.034  1.00  0.00     0.135 C 
BRANCH   5   6
ATOM      6  C   UNL A   1      41.774  26.130  28.225  1.00  0.00    -0.036 A 
ATOM      7  C   UNL A   1      39.592  27.845  28.814  1.00  0.00     0.018 A 
ATOM      8  C   UNL A   1      39.392  26.478  28.556  1.00  0.00     0.012 A 
ATOM      9  C   UNL A   1      40.903  28.334  28.713  1.00  0.00     0.131 A 
ATOM     10  C   UNL A   1      40.466  25.631  28.263  1.00  0.00     0.005 A 
ATOM     11  C   UNL A   1      41.977  27.502  28.410  1.00  0.00     0.044 A 
ATOM     12  F   UNL A   1      41.168  29.629  28.952  1.00  0.00    -0.206 F 
BRANCH   7  13
ATOM     13  C   UNL A   1      38.472  28.720  29.197  1.00  0.00    -0.012 A 
ATOM     14  C   UNL A   1      37.000  30.597  28.736  1.00  0.00     0.133 A 
ATOM     15  C   UNL A   1      36.366  30.440  29.966  1.00  0.00     0.047 A 
ATOM     16  C   UNL A   1      38.051  29.761  28.356  1.00  0.00     0.056 A 
ATOM     17  C   UNL A   1      36.770  29.411  30.812  1.00  0.00     0.004 A 
ATOM     18  C   UNL A   1      37.810  28.559  30.429  1.00  0.00     0.009 A 
BRANCH  14  19
ATOM     19  O   UNL A   1      36.623  31.702  27.957  1.00  0.00    -0.410 OA
BRANCH  19  20
ATOM     20  C   UNL A   1      35.914  32.724  28.568  1.00  0.00     0.412 C 
ATOM     21  N   UNL A   1      36.717  33.681  29.123  1.00  0.00    -0.321 N 
ATOM     22  H   UNL A   1      36.264  34.426  29.579  1.00  0.00     0.167 HD
ATOM     23  O   UNL A   1      34.692  32.815  28.652  1.00  0.00    -0.224 OA
BRANCH  21  24
ATOM     24  C   UNL A   1      38.165  33.715  29.108  1.00  0.00     0.119 C 
BRANCH  24  25
ATOM     25  C   UNL A   1      38.758  33.516  30.503  1.00  0.00     0.021 C 
BRANCH  25  26
ATOM     26  C   UNL A   1      39.632  32.266  30.662  1.00  0.00     0.002 C 
BRANCH  26  27
ATOM     27  C   UNL A   1      39.519  31.548  32.012  1.00  0.00    -0.000 C 
BRANCH  27  28
ATOM     28  C   UNL A   1      40.281  30.225  32.117  1.00  0.00    -0.003 C 
ATOM     29  C   UNL A   1      39.853  29.378  33.306  1.00  0.00     0.004 C 
ENDBRANCH  27  28
ENDBRANCH  26  27
ENDBRANCH  25  26
ENDBRANCH  24  25
ENDBRANCH  21  24
ENDBRANCH  19  20
ENDBRANCH  14  19
ENDBRANCH   7  13
ENDBRANCH   5   6
ENDBRANCH   1   5
BRANCH   3  30
ATOM     30  C   UNL A   1      42.173  23.074  25.991  1.00  0.00     0.116 C 
BRANCH  30  31
ATOM     31  C   UNL A   1      43.452  22.671  25.252  1.00  0.00     0.023 C 
BRANCH  31  32
ATOM     32  C   UNL A   1      44.292  23.844  24.739  1.00  0.00     0.023 C 
BRANCH  32  33
ATOM     33  C   UNL A   1      45.653  24.014  25.406  1.00  0.00     0.116 C 
BRANCH  33  34
ATOM     34  N   UNL A   1      46.611  24.737  24.582  1.00  0.00    -0.352 N 
ATOM     35  C   UNL A   1      47.047  26.035  24.709  1.00  0.00     0.251 C 
ATOM     36  H   UNL A   1      46.999  24.228  23.834  1.00  0.00     0.163 HD
ATOM     37  O   UNL A   1      47.780  26.522  23.854  1.00  0.00    -0.269 OA
BRANCH  35  38
ATOM     38  C   UNL A   1      46.598  26.850  25.859  1.00  0.00     0.039 A 
ATOM     39  C   UNL A   1      45.323  27.419  25.826  1.00  0.00     0.014 A 
ATOM     40  C   UNL A   1      47.420  27.032  26.974  1.00  0.00     0.014 A 
ATOM     41  C   UNL A   1      44.845  28.113  26.941  1.00  0.00     0.010 A 
ATOM     42  C   UNL A   1      46.916  27.662  28.109  1.00  0.00     0.010 A 
ATOM     43  C   UNL A   1      45.623  28.209  28.105  1.00  0.00    -0.014 A 
BRANCH  43  44
ATOM     44  C   UNL A   1      45.098  28.857  29.335  1.00  0.00     0.031 A 
ATOM     45  C   UNL A   1      44.874  28.049  30.585  1.00  0.00     0.074 A 
ATOM     46  C   UNL A   1      44.734  30.155  29.300  1.00  0.00     0.049 A 
ATOM     47  N   UNL A   1      44.367  28.426  31.730  1.00  0.00    -0.248 NA
ATOM     48  C   UNL A   1      45.241  26.624  30.532  1.00  0.00     0.031 C 
ATOM     49  C   UNL A   1      44.823  31.026  28.125  1.00  0.00     0.029 A 
ATOM     50  N   UNL A   1      44.187  30.960  30.268  1.00  0.00    -0.354 N 
ATOM     51  C   UNL A   1      44.319  27.284  32.519  1.00  0.00     0.074 A 
ATOM     52  C   UNL A   1      44.819  26.192  31.712  1.00  0.00     0.031 C 
ATOM     53  C   UNL A   1      44.350  32.242  28.442  1.00  0.00     0.029 A 
ATOM     54  C   UNL A   1      43.897  32.232  29.830  1.00  0.00     0.049 A 
ATOM     55  H   UNL A   1      44.017  30.656  31.189  1.00  0.00     0.167 HD
ATOM     56  C   UNL A   1      43.924  27.158  33.808  1.00  0.00     0.034 A 
ATOM     57  C   UNL A   1      43.326  33.271  30.471  1.00  0.00     0.034 A 
ATOM     58  C   UNL A   1      43.472  28.253  34.623  1.00  0.00     0.049 A 
ATOM     59  C   UNL A   1      42.937  33.116  31.917  1.00  0.00     0.074 A 
ATOM     60  C   UNL A   1      43.140  28.245  35.968  1.00  0.00     0.029 A 
ATOM     61  N   UNL A   1      43.280  29.549  34.173  1.00  0.00    -0.354 N 
ATOM     62  N   UNL A   1      43.058  32.068  32.696  1.00  0.00    -0.248 NA
ATOM     63  C   UNL A   1      42.369  34.297  32.583  1.00  0.00     0.031 C 
ATOM     64  C   UNL A   1      42.726  29.533  36.323  1.00  0.00     0.029 A 
ATOM     65  C   UNL A   1      42.824  30.349  35.208  1.00  0.00     0.049 A 
ATOM     66  H   UNL A   1      43.442  29.857  33.251  1.00  0.00     0.167 HD
ATOM     67  C   UNL A   1      42.615  32.473  33.950  1.00  0.00     0.074 A 
ATOM     68  C   UNL A   1      42.246  33.868  33.832  1.00  0.00     0.031 C 
ATOM     69  C   UNL A   1      42.512  31.750  35.093  1.00  0.00     0.034 A 
BRANCH  56  70
ATOM     70  C   UNL A   1      44.015  25.792  34.440  1.00  0.00     0.023 A 
ATOM     71  C   UNL A   1      42.879  24.958  34.459  1.00  0.00     0.012 A 
ATOM     72  C   UNL A   1      45.234  25.310  34.957  1.00  0.00     0.148 A 
ATOM     73  C   UNL A   1      42.942  23.681  35.013  1.00  0.00     0.002 A 
ATOM     74  C   UNL A   1      45.301  24.018  35.467  1.00  0.00     0.091 A 
ATOM     75  F   UNL A   1      46.299  26.124  34.948  1.00  0.00    -0.205 F 
ATOM     76  C   UNL A   1      44.154  23.208  35.507  1.00  0.00     0.022 A 
BRANCH  74  77
ATOM     77  S   UNL A   1      46.833  23.286  36.054  1.00  0.00     0.127 S 
ATOM     78  O   UNL A   1      47.149  24.142  37.196  1.00  0.00    -0.237 OA
ATOM     79  O   UNL A   1      46.411  21.930  36.407  1.00  0.00    -0.237 OA
ATOM     80  O   UNL A   1      47.766  23.361  34.938  1.00  0.00    -0.744 OA
ENDBRANCH  74  77
ENDBRANCH  56  70
BRANCH  57  81
ATOM     81  C   UNL A   1      43.151  34.574  29.768  1.00  0.00     0.023 A 
ATOM     82  C   UNL A   1      41.906  34.879  29.183  1.00  0.00     0.012 A 
ATOM     83  C   UNL A   1      44.193  35.517  29.697  1.00  0.00     0.148 A 
ATOM     84  C   UNL A   1      41.714  36.087  28.511  1.00  0.00     0.002 A 
ATOM     85  C   UNL A   1      43.977  36.742  29.074  1.00  0.00     0.091 A 
ATOM     86  F   UNL A   1      45.373  35.203  30.249  1.00  0.00    -0.205 F 
ATOM     87  C   UNL A   1      42.744  37.022  28.466  1.00  0.00     0.022 A 
BRANCH  85  88
ATOM     88  S   UNL A   1      45.203  38.055  29.083  1.00  0.00     0.127 S 
ATOM     89  O   UNL A   1      46.279  37.465  28.292  1.00  0.00    -0.237 OA
ATOM     90  O   UNL A   1      44.480  39.146  28.427  1.00  0.00    -0.237 OA
ATOM     91  O   UNL A   1      45.507  38.298  30.487  1.00  0.00    -0.744 OA
ENDBRANCH  85  88
ENDBRANCH  57  81
BRANCH  69  92
ATOM     92  C   UNL A   1      42.013  32.457  36.326  1.00  0.00     0.023 A 
ATOM     93  C   UNL A   1      42.901  33.230  37.099  1.00  0.00     0.012 A 
ATOM     94  C   UNL A   1      40.649  32.417  36.674  1.00  0.00     0.148 A 
ATOM     95  C   UNL A   1      42.445  33.927  38.218  1.00  0.00     0.002 A 
ATOM     96  C   UNL A   1      40.192  33.153  37.760  1.00  0.00     0.091 A 
ATOM     97  F   UNL A   1      39.823  31.660  35.936  1.00  0.00    -0.205 F 
ATOM     98  C   UNL A   1      41.090  33.899  38.541  1.00  0.00     0.022 A 
BRANCH  96  99
ATOM     99  S   UNL A   1      38.450  33.254  38.191  1.00  0.00     0.127 S 
ATOM    100  O   UNL A   1      38.442  34.368  39.137  1.00  0.00    -0.237 OA
ATOM    101  O   UNL A   1      37.827  33.547  36.899  1.00  0.00    -0.237 OA
ATOM    102  O   UNL A   1      38.100  31.956  38.749  1.00  0.00    -0.744 OA
ENDBRANCH  96  99
ENDBRANCH  69  92
ENDBRANCH  43  44
ENDBRANCH  35  38
ENDBRANCH  33  34
ENDBRANCH  32  33
ENDBRANCH  31  32
ENDBRANCH  30  31
ENDBRANCH   3  30
TORSDOF 23
ENDMDL
