MODEL 1
REMARK VINA RESULT:     -13.1      0.000      0.000
REMARK SMILES O=C(NCCCCNC(=O)c1cnccc1C(=O)N1CCC(Cc2ccccc2)CC1)c1ccc(-c2c3nc(c(-c4cccc(S(=O)(=O)[O-])c4F)c4ccc([nH]4)c(-c4cccc(S(=O)(=O)[O-])c4F)c4nc(c(-c5cccc(S(=O)(=O)[O-])c5F)c5ccc2[nH]5)C=C4)C=C3)cc1
REMARK SMILES IDX 5 1 4 2 3 3 1 4 2 5 32 7 33 8 94 9 34 10 93 11 35 12 36 13
REMARK SMILES IDX 37 14 87 15 38 16 92 17 86 18 88 19 39 20 91 21 85 22 84 23
REMARK SMILES IDX 40 25 72 26 52 27 71 28 53 29 56 30 70 31 89 32 54 33 55 34
REMARK SMILES IDX 69 36 90 37 57 38 41 39 42 40 50 41 43 42 45 43 51 44 44 45
REMARK SMILES IDX 46 46 47 47 48 48 49 49 73 50 74 51 82 52 75 53 77 54 83 55
REMARK SMILES IDX 76 56 78 57 79 58 80 59 81 60 58 61 59 62 67 63 60 64 62 65
REMARK SMILES IDX 68 66 61 67 63 68 64 69 65 70 66 71 6 72 7 73 8 74 9 75
REMARK SMILES IDX 10 77 11 78 12 79 16 80 13 81 15 82 14 83 17 84 18 85 19 86
REMARK SMILES IDX 20 87 31 88 21 89 30 90 22 91 23 92 24 93 25 94 29 95 26 96
REMARK SMILES IDX 28 97 27 98
REMARK H PARENT 3 6 88 24 56 35 8 76
REMARK Flexibility Score: inf
ROOT
ATOM      1  C   UNL A   1      31.729  28.368  25.770  1.00  0.00     0.023 C 
ENDROOT
BRANCH   1   2
ATOM      2  C   UNL A   1      32.833  29.416  25.702  1.00  0.00     0.116 C 
BRANCH   2   3
ATOM      3  N   UNL A   1      32.461  30.712  26.243  1.00  0.00    -0.352 N 
ATOM      4  O   UNL A   1      32.649  32.547  27.548  1.00  0.00    -0.269 OA
ATOM      5  C   UNL A   1      33.156  31.512  27.126  1.00  0.00     0.251 C 
ATOM      6  H   UNL A   1      31.595  31.068  25.939  1.00  0.00     0.163 HD
BRANCH   5   7
ATOM      7  C   UNL A   1      34.492  31.086  27.602  1.00  0.00     0.039 A 
ATOM      8  C   UNL A   1      34.757  29.744  27.886  1.00  0.00     0.014 A 
ATOM      9  C   UNL A   1      35.472  32.057  27.819  1.00  0.00     0.014 A 
ATOM     10  C   UNL A   1      35.934  29.404  28.552  1.00  0.00     0.010 A 
ATOM     11  C   UNL A   1      36.684  31.699  28.420  1.00  0.00     0.010 A 
ATOM     12  C   UNL A   1      36.901  30.380  28.848  1.00  0.00    -0.014 A 
BRANCH  12  13
ATOM     13  C   UNL A   1      38.121  30.002  29.613  1.00  0.00     0.031 A 
ATOM     14  C   UNL A   1      38.332  30.481  31.028  1.00  0.00     0.074 A 
ATOM     15  C   UNL A   1      39.041  29.204  29.036  1.00  0.00     0.049 A 
ATOM     16  N   UNL A   1      39.306  30.195  31.856  1.00  0.00    -0.248 NA
ATOM     17  C   UNL A   1      37.331  31.406  31.585  1.00  0.00     0.031 C 
ATOM     18  C   UNL A   1      38.983  28.715  27.659  1.00  0.00     0.029 A 
ATOM     19  N   UNL A   1      40.200  28.665  29.533  1.00  0.00    -0.354 N 
ATOM     20  C   UNL A   1      39.061  30.934  33.008  1.00  0.00     0.074 A 
ATOM     21  C   UNL A   1      37.850  31.689  32.772  1.00  0.00     0.031 C 
ATOM     22  C   UNL A   1      40.042  27.925  27.428  1.00  0.00     0.029 A 
ATOM     23  C   UNL A   1      40.871  27.875  28.629  1.00  0.00     0.049 A 
ATOM     24  H   UNL A   1      40.521  28.827  30.450  1.00  0.00     0.167 HD
ATOM     25  C   UNL A   1      39.766  30.968  34.165  1.00  0.00     0.034 A 
ATOM     26  C   UNL A   1      42.022  27.187  28.751  1.00  0.00     0.034 A 
ATOM     27  C   UNL A   1      40.938  30.174  34.426  1.00  0.00     0.049 A 
ATOM     28  C   UNL A   1      42.751  27.195  30.066  1.00  0.00     0.074 A 
ATOM     29  C   UNL A   1      41.673  30.082  35.596  1.00  0.00     0.029 A 
ATOM     30  N   UNL A   1      41.549  29.337  33.506  1.00  0.00    -0.354 N 
ATOM     31  N   UNL A   1      42.420  27.785  31.188  1.00  0.00    -0.248 NA
ATOM     32  C   UNL A   1      43.997  26.417  30.139  1.00  0.00     0.031 C 
ATOM     33  C   UNL A   1      42.732  29.193  35.381  1.00  0.00     0.029 A 
ATOM     34  C   UNL A   1      42.652  28.726  34.079  1.00  0.00     0.049 A 
ATOM     35  H   UNL A   1      41.245  29.197  32.581  1.00  0.00     0.167 HD
ATOM     36  C   UNL A   1      43.397  27.425  32.109  1.00  0.00     0.074 A 
ATOM     37  C   UNL A   1      44.319  26.547  31.419  1.00  0.00     0.031 C 
ATOM     38  C   UNL A   1      43.528  27.805  33.403  1.00  0.00     0.034 A 
BRANCH  25  39
ATOM     39  C   UNL A   1      39.261  31.855  35.273  1.00  0.00     0.023 A 
ATOM     40  C   UNL A   1      38.349  31.336  36.215  1.00  0.00     0.012 A 
ATOM     41  C   UNL A   1      39.742  33.170  35.430  1.00  0.00     0.148 A 
ATOM     42  C   UNL A   1      37.907  32.118  37.281  1.00  0.00     0.002 A 
ATOM     43  C   UNL A   1      39.323  33.932  36.516  1.00  0.00     0.091 A 
ATOM     44  F   UNL A   1      40.589  33.657  34.512  1.00  0.00    -0.205 F 
ATOM     45  C   UNL A   1      38.400  33.410  37.438  1.00  0.00     0.022 A 
BRANCH  43  46
ATOM     46  S   UNL A   1      39.963  35.580  36.838  1.00  0.00     0.127 S 
ATOM     47  O   UNL A   1      39.293  35.917  38.092  1.00  0.00    -0.237 OA
ATOM     48  O   UNL A   1      41.401  35.339  36.961  1.00  0.00    -0.237 OA
ATOM     49  O   UNL A   1      39.585  36.383  35.684  1.00  0.00    -0.744 OA
ENDBRANCH  43  46
ENDBRANCH  25  39
BRANCH  26  50
ATOM     50  C   UNL A   1      42.508  26.360  27.611  1.00  0.00     0.023 A 
ATOM     51  C   UNL A   1      43.441  26.911  26.710  1.00  0.00     0.012 A 
ATOM     52  C   UNL A   1      42.097  25.025  27.444  1.00  0.00     0.148 A 
ATOM     53  C   UNL A   1      43.939  26.151  25.651  1.00  0.00     0.002 A 
ATOM     54  C   UNL A   1      42.639  24.257  26.420  1.00  0.00     0.091 A 
ATOM     55  F   UNL A   1      41.193  24.526  28.298  1.00  0.00    -0.205 F 
ATOM     56  C   UNL A   1      43.550  24.822  25.514  1.00  0.00     0.022 A 
BRANCH  54  57
ATOM     57  S   UNL A   1      42.300  22.499  26.270  1.00  0.00     0.127 S 
ATOM     58  O   UNL A   1      40.844  22.483  26.166  1.00  0.00    -0.237 OA
ATOM     59  O   UNL A   1      43.013  22.152  25.039  1.00  0.00    -0.237 OA
ATOM     60  O   UNL A   1      42.864  21.896  27.471  1.00  0.00    -0.744 OA
ENDBRANCH  54  57
ENDBRANCH  26  50
BRANCH  38  61
ATOM     61  C   UNL A   1      44.698  27.255  34.175  1.00  0.00     0.023 A 
ATOM     62  C   UNL A   1      45.925  27.948  34.166  1.00  0.00     0.012 A 
ATOM     63  C   UNL A   1      44.567  26.090  34.956  1.00  0.00     0.148 A 
ATOM     64  C   UNL A   1      47.013  27.474  34.898  1.00  0.00     0.002 A 
ATOM     65  C   UNL A   1      45.644  25.646  35.717  1.00  0.00     0.091 A 
ATOM     66  F   UNL A   1      43.400  25.430  34.935  1.00  0.00    -0.205 F 
ATOM     67  C   UNL A   1      46.869  26.331  35.682  1.00  0.00     0.022 A 
BRANCH  65  68
ATOM     68  S   UNL A   1      45.505  24.233  36.818  1.00  0.00     0.127 S 
ATOM     69  O   UNL A   1      44.511  24.702  37.782  1.00  0.00    -0.237 OA
ATOM     70  O   UNL A   1      45.033  23.176  35.923  1.00  0.00    -0.237 OA
ATOM     71  O   UNL A   1      46.846  24.016  37.344  1.00  0.00    -0.744 OA
ENDBRANCH  65  68
ENDBRANCH  38  61
ENDBRANCH  12  13
ENDBRANCH   5   7
ENDBRANCH   2   3
ENDBRANCH   1   2
BRANCH   1  72
ATOM     72  C   UNL A   1      31.839  27.316  26.878  1.00  0.00     0.023 C 
BRANCH  72  73
ATOM     73  C   UNL A   1      32.195  25.899  26.435  1.00  0.00     0.116 C 
BRANCH  73  74
ATOM     74  N   UNL A   1      33.624  25.686  26.280  1.00  0.00    -0.352 N 
ATOM     75  C   UNL A   1      34.285  24.826  25.440  1.00  0.00     0.253 C 
ATOM     76  H   UNL A   1      34.198  26.236  26.861  1.00  0.00     0.163 HD
ATOM     77  O   UNL A   1      35.502  24.736  25.473  1.00  0.00    -0.269 OA
BRANCH  75  78
ATOM     78  C   UNL A   1      33.549  23.947  24.526  1.00  0.00     0.070 A 
ATOM     79  C   UNL A   1      33.618  22.587  24.807  1.00  0.00     0.125 A 
ATOM     80  C   UNL A   1      32.791  24.351  23.429  1.00  0.00     0.055 A 
ATOM     81  N   UNL A   1      32.935  21.635  24.125  1.00  0.00    -0.264 NA
ATOM     82  C   UNL A   1      32.060  23.385  22.723  1.00  0.00     0.035 A 
ATOM     83  C   UNL A   1      32.157  22.059  23.109  1.00  0.00     0.112 A 
BRANCH  80  84
ATOM     84  C   UNL A   1      32.496  25.762  23.112  1.00  0.00     0.254 C 
ATOM     85  O   UNL A   1      33.482  26.447  22.836  1.00  0.00    -0.269 OA
ATOM     86  N   UNL A   1      31.197  26.255  23.037  1.00  0.00    -0.339 N 
ATOM     87  C   UNL A   1      30.977  27.332  22.082  1.00  0.00     0.120 C 
ATOM     88  C   UNL A   1      29.994  25.655  23.627  1.00  0.00     0.120 C 
ATOM     89  C   UNL A   1      30.001  28.387  22.559  1.00  0.00     0.025 C 
ATOM     90  C   UNL A   1      28.974  26.712  24.084  1.00  0.00     0.025 C 
ATOM     91  C   UNL A   1      28.678  27.726  22.960  1.00  0.00    -0.003 C 
BRANCH  91  92
ATOM     92  C   UNL A   1      27.626  28.771  23.375  1.00  0.00     0.039 C 
BRANCH  92  93
ATOM     93  C   UNL A   1      27.886  30.140  22.780  1.00  0.00    -0.048 A 
ATOM     94  C   UNL A   1      28.144  31.239  23.613  1.00  0.00     0.004 A 
ATOM     95  C   UNL A   1      27.901  30.331  21.390  1.00  0.00     0.004 A 
ATOM     96  C   UNL A   1      28.413  32.497  23.069  1.00  0.00     0.000 A 
ATOM     97  C   UNL A   1      28.166  31.592  20.848  1.00  0.00     0.000 A 
ATOM     98  C   UNL A   1      28.422  32.673  21.687  1.00  0.00     0.000 A 
ENDBRANCH  92  93
ENDBRANCH  91  92
ENDBRANCH  80  84
ENDBRANCH  75  78
ENDBRANCH  73  74
ENDBRANCH  72  73
ENDBRANCH   1  72
TORSDOF 17
ENDMDL
MODEL 2
REMARK VINA RESULT:     -13.0      1.967      4.825
REMARK SMILES O=C(NCCCCNC(=O)c1cnccc1C(=O)N1CCC(Cc2ccccc2)CC1)c1ccc(-c2c3nc(c(-c4cccc(S(=O)(=O)[O-])c4F)c4ccc([nH]4)c(-c4cccc(S(=O)(=O)[O-])c4F)c4nc(c(-c5cccc(S(=O)(=O)[O-])c5F)c5ccc2[nH]5)C=C4)C=C3)cc1
REMARK SMILES IDX 5 1 4 2 3 3 1 4 2 5 32 7 33 8 94 9 34 10 93 11 35 12 36 13
REMARK SMILES IDX 37 14 87 15 38 16 92 17 86 18 88 19 39 20 91 21 85 22 84 23
REMARK SMILES IDX 40 25 72 26 52 27 71 28 53 29 56 30 70 31 89 32 54 33 55 34
REMARK SMILES IDX 69 36 90 37 57 38 41 39 42 40 50 41 43 42 45 43 51 44 44 45
REMARK SMILES IDX 46 46 47 47 48 48 49 49 73 50 74 51 82 52 75 53 77 54 83 55
REMARK SMILES IDX 76 56 78 57 79 58 80 59 81 60 58 61 59 62 67 63 60 64 62 65
REMARK SMILES IDX 68 66 61 67 63 68 64 69 65 70 66 71 6 72 7 73 8 74 9 75
REMARK SMILES IDX 10 77 11 78 12 79 16 80 13 81 15 82 14 83 17 84 18 85 19 86
REMARK SMILES IDX 20 87 31 88 21 89 30 90 22 91 23 92 24 93 25 94 29 95 26 96
REMARK SMILES IDX 28 97 27 98
REMARK H PARENT 3 6 88 24 56 35 8 76
REMARK Flexibility Score: inf
ROOT
ATOM      1  C   UNL A   1      31.546  29.503  26.030  1.00  0.00     0.023 C 
ENDROOT
BRANCH   1   2
ATOM      2  C   UNL A   1      32.749  30.437  25.969  1.00  0.00     0.116 C 
BRANCH   2   3
ATOM      3  N   UNL A   1      32.521  31.744  26.561  1.00  0.00    -0.352 N 
ATOM      4  O   UNL A   1      32.924  33.507  27.916  1.00  0.00    -0.269 OA
ATOM      5  C   UNL A   1      33.315  32.442  27.447  1.00  0.00     0.251 C 
ATOM      6  H   UNL A   1      31.686  32.193  26.294  1.00  0.00     0.163 HD
BRANCH   5   7
ATOM      7  C   UNL A   1      34.614  31.873  27.870  1.00  0.00     0.039 A 
ATOM      8  C   UNL A   1      34.723  30.529  28.237  1.00  0.00     0.014 A 
ATOM      9  C   UNL A   1      35.726  32.715  27.951  1.00  0.00     0.014 A 
ATOM     10  C   UNL A   1      35.890  30.078  28.851  1.00  0.00     0.010 A 
ATOM     11  C   UNL A   1      36.921  32.237  28.499  1.00  0.00     0.010 A 
ATOM     12  C   UNL A   1      36.995  30.932  29.012  1.00  0.00    -0.014 A 
BRANCH  12  13
ATOM     13  C   UNL A   1      38.207  30.444  29.725  1.00  0.00     0.031 A 
ATOM     14  C   UNL A   1      38.489  30.852  31.150  1.00  0.00     0.074 A 
ATOM     15  C   UNL A   1      39.055  29.611  29.092  1.00  0.00     0.049 A 
ATOM     16  N   UNL A   1      39.463  30.470  31.937  1.00  0.00    -0.248 NA
ATOM     17  C   UNL A   1      37.568  31.819  31.770  1.00  0.00     0.031 C 
ATOM     18  C   UNL A   1      38.926  29.181  27.699  1.00  0.00     0.029 A 
ATOM     19  N   UNL A   1      40.189  28.977  29.533  1.00  0.00    -0.354 N 
ATOM     20  C   UNL A   1      39.300  31.178  33.123  1.00  0.00     0.074 A 
ATOM     21  C   UNL A   1      38.136  32.020  32.952  1.00  0.00     0.031 C 
ATOM     22  C   UNL A   1      39.924  28.332  27.408  1.00  0.00     0.029 A 
ATOM     23  C   UNL A   1      40.780  28.181  28.581  1.00  0.00     0.049 A 
ATOM     24  H   UNL A   1      40.544  29.081  30.445  1.00  0.00     0.167 HD
ATOM     25  C   UNL A   1      40.037  31.120  34.259  1.00  0.00     0.034 A 
ATOM     26  C   UNL A   1      41.885  27.413  28.642  1.00  0.00     0.034 A 
ATOM     27  C   UNL A   1      41.160  30.241  34.454  1.00  0.00     0.049 A 
ATOM     28  C   UNL A   1      42.649  27.322  29.933  1.00  0.00     0.074 A 
ATOM     29  C   UNL A   1      41.919  30.055  35.598  1.00  0.00     0.029 A 
ATOM     30  N   UNL A   1      41.688  29.402  33.486  1.00  0.00    -0.354 N 
ATOM     31  N   UNL A   1      42.389  27.888  31.086  1.00  0.00    -0.248 NA
ATOM     32  C   UNL A   1      43.841  26.461  29.940  1.00  0.00     0.031 C 
ATOM     33  C   UNL A   1      42.910  29.107  35.318  1.00  0.00     0.029 A 
ATOM     34  C   UNL A   1      42.763  28.697  34.003  1.00  0.00     0.049 A 
ATOM     35  H   UNL A   1      41.350  29.318  32.566  1.00  0.00     0.167 HD
ATOM     36  C   UNL A   1      43.364  27.428  31.963  1.00  0.00     0.074 A 
ATOM     37  C   UNL A   1      44.206  26.518  31.214  1.00  0.00     0.031 C 
ATOM     38  C   UNL A   1      43.556  27.748  33.267  1.00  0.00     0.034 A 
BRANCH  25  39
ATOM     39  C   UNL A   1      39.624  31.994  35.414  1.00  0.00     0.023 A 
ATOM     40  C   UNL A   1      40.012  33.350  35.429  1.00  0.00     0.012 A 
ATOM     41  C   UNL A   1      38.791  31.503  36.438  1.00  0.00     0.148 A 
ATOM     42  C   UNL A   1      39.598  34.196  36.458  1.00  0.00     0.002 A 
ATOM     43  C   UNL A   1      38.353  32.362  37.442  1.00  0.00     0.091 A 
ATOM     44  F   UNL A   1      38.451  30.206  36.422  1.00  0.00    -0.205 F 
ATOM     45  C   UNL A   1      38.761  33.705  37.457  1.00  0.00     0.022 A 
BRANCH  43  46
ATOM     46  S   UNL A   1      37.214  31.835  38.728  1.00  0.00     0.127 S 
ATOM     47  O   UNL A   1      36.953  30.450  38.342  1.00  0.00    -0.237 OA
ATOM     48  O   UNL A   1      38.018  31.989  39.941  1.00  0.00    -0.237 OA
ATOM     49  O   UNL A   1      36.076  32.740  38.643  1.00  0.00    -0.744 OA
ENDBRANCH  43  46
ENDBRANCH  25  39
BRANCH  26  50
ATOM     50  C   UNL A   1      42.283  26.602  27.457  1.00  0.00     0.023 A 
ATOM     51  C   UNL A   1      43.049  27.202  26.438  1.00  0.00     0.012 A 
ATOM     52  C   UNL A   1      41.956  25.237  27.359  1.00  0.00     0.148 A 
ATOM     53  C   UNL A   1      43.464  26.460  25.333  1.00  0.00     0.002 A 
ATOM     54  C   UNL A   1      42.421  24.490  26.283  1.00  0.00     0.091 A 
ATOM     55  F   UNL A   1      41.209  24.690  28.328  1.00  0.00    -0.205 F 
ATOM     56  C   UNL A   1      43.163  25.102  25.261  1.00  0.00     0.022 A 
BRANCH  54  57
ATOM     57  S   UNL A   1      42.199  22.710  26.196  1.00  0.00     0.127 S 
ATOM     58  O   UNL A   1      42.919  22.260  27.384  1.00  0.00    -0.237 OA
ATOM     59  O   UNL A   1      40.743  22.576  26.267  1.00  0.00    -0.237 OA
ATOM     60  O   UNL A   1      42.768  22.314  24.913  1.00  0.00    -0.744 OA
ENDBRANCH  54  57
ENDBRANCH  26  50
BRANCH  38  61
ATOM     61  C   UNL A   1      44.707  27.092  33.982  1.00  0.00     0.023 A 
ATOM     62  C   UNL A   1      45.995  27.658  33.894  1.00  0.00     0.012 A 
ATOM     63  C   UNL A   1      44.505  25.954  34.788  1.00  0.00     0.148 A 
ATOM     64  C   UNL A   1      47.069  27.085  34.573  1.00  0.00     0.002 A 
ATOM     65  C   UNL A   1      45.573  25.413  35.496  1.00  0.00     0.091 A 
ATOM     66  F   UNL A   1      43.279  25.414  34.842  1.00  0.00    -0.205 F 
ATOM     67  C   UNL A   1      46.856  25.971  35.382  1.00  0.00     0.022 A 
BRANCH  65  68
ATOM     68  S   UNL A   1      45.357  24.033  36.626  1.00  0.00     0.127 S 
ATOM     69  O   UNL A   1      44.854  22.991  35.733  1.00  0.00    -0.237 OA
ATOM     70  O   UNL A   1      46.716  23.809  37.119  1.00  0.00    -0.237 OA
ATOM     71  O   UNL A   1      44.423  24.503  37.641  1.00  0.00    -0.744 OA
ENDBRANCH  65  68
ENDBRANCH  38  61
ENDBRANCH  12  13
ENDBRANCH   5   7
ENDBRANCH   2   3
ENDBRANCH   1   2
BRANCH   1  72
ATOM     72  C   UNL A   1      31.469  28.551  27.227  1.00  0.00     0.023 C 
BRANCH  72  73
ATOM     73  C   UNL A   1      32.298  27.273  27.132  1.00  0.00     0.116 C 
BRANCH  73  74
ATOM     74  N   UNL A   1      31.492  26.064  27.103  1.00  0.00    -0.352 N 
ATOM     75  C   UNL A   1      30.882  25.456  26.035  1.00  0.00     0.253 C 
ATOM     76  H   UNL A   1      31.365  25.620  27.972  1.00  0.00     0.163 HD
ATOM     77  O   UNL A   1      30.193  24.460  26.195  1.00  0.00    -0.269 OA
BRANCH  75  78
ATOM     78  C   UNL A   1      30.988  26.015  24.684  1.00  0.00     0.070 A 
ATOM     79  C   UNL A   1      29.870  26.701  24.223  1.00  0.00     0.125 A 
ATOM     80  C   UNL A   1      32.096  25.931  23.844  1.00  0.00     0.055 A 
ATOM     81  N   UNL A   1      29.816  27.356  23.038  1.00  0.00    -0.264 NA
ATOM     82  C   UNL A   1      32.070  26.620  22.622  1.00  0.00     0.035 A 
ATOM     83  C   UNL A   1      30.925  27.316  22.272  1.00  0.00     0.112 A 
BRANCH  80  84
ATOM     84  C   UNL A   1      33.401  25.382  24.261  1.00  0.00     0.254 C 
ATOM     85  O   UNL A   1      34.283  26.224  24.441  1.00  0.00    -0.269 OA
ATOM     86  N   UNL A   1      33.594  24.029  24.522  1.00  0.00    -0.339 N 
ATOM     87  C   UNL A   1      34.580  23.711  25.546  1.00  0.00     0.120 C 
ATOM     88  C   UNL A   1      32.753  22.918  24.063  1.00  0.00     0.120 C 
ATOM     89  C   UNL A   1      35.401  22.475  25.245  1.00  0.00     0.025 C 
ATOM     90  C   UNL A   1      33.566  21.641  23.789  1.00  0.00     0.025 C 
ATOM     91  C   UNL A   1      34.471  21.285  24.986  1.00  0.00    -0.003 C 
BRANCH  91  92
ATOM     92  C   UNL A   1      35.264  19.985  24.756  1.00  0.00     0.039 C 
BRANCH  92  93
ATOM     93  C   UNL A   1      34.385  18.752  24.734  1.00  0.00    -0.048 A 
ATOM     94  C   UNL A   1      33.164  18.738  25.426  1.00  0.00     0.004 A 
ATOM     95  C   UNL A   1      34.758  17.613  24.005  1.00  0.00     0.004 A 
ATOM     96  C   UNL A   1      32.336  17.614  25.386  1.00  0.00     0.000 A 
ATOM     97  C   UNL A   1      33.930  16.488  23.969  1.00  0.00     0.000 A 
ATOM     98  C   UNL A   1      32.719  16.489  24.659  1.00  0.00     0.000 A 
ENDBRANCH  92  93
ENDBRANCH  91  92
ENDBRANCH  80  84
ENDBRANCH  75  78
ENDBRANCH  73  74
ENDBRANCH  72  73
ENDBRANCH   1  72
TORSDOF 17
ENDMDL
MODEL 3
REMARK VINA RESULT:     -12.7      1.764      4.684
REMARK SMILES O=C(NCCCCNC(=O)c1cnccc1C(=O)N1CCC(Cc2ccccc2)CC1)c1ccc(-c2c3nc(c(-c4cccc(S(=O)(=O)[O-])c4F)c4ccc([nH]4)c(-c4cccc(S(=O)(=O)[O-])c4F)c4nc(c(-c5cccc(S(=O)(=O)[O-])c5F)c5ccc2[nH]5)C=C4)C=C3)cc1
REMARK SMILES IDX 5 1 4 2 3 3 1 4 2 5 32 7 33 8 94 9 34 10 93 11 35 12 36 13
REMARK SMILES IDX 37 14 87 15 38 16 92 17 86 18 88 19 39 20 91 21 85 22 84 23
REMARK SMILES IDX 40 25 72 26 52 27 71 28 53 29 56 30 70 31 89 32 54 33 55 34
REMARK SMILES IDX 69 36 90 37 57 38 41 39 42 40 50 41 43 42 45 43 51 44 44 45
REMARK SMILES IDX 46 46 47 47 48 48 49 49 73 50 74 51 82 52 75 53 77 54 83 55
REMARK SMILES IDX 76 56 78 57 79 58 80 59 81 60 58 61 59 62 67 63 60 64 62 65
REMARK SMILES IDX 68 66 61 67 63 68 64 69 65 70 66 71 6 72 7 73 8 74 9 75
REMARK SMILES IDX 10 77 11 78 12 79 16 80 13 81 15 82 14 83 17 84 18 85 19 86
REMARK SMILES IDX 20 87 31 88 21 89 30 90 22 91 23 92 24 93 25 94 29 95 26 96
REMARK SMILES IDX 28 97 27 98
REMARK H PARENT 3 6 88 24 56 35 8 76
REMARK Flexibility Score: inf
ROOT
ATOM      1  C   UNL A   1      31.548  29.133  27.090  1.00  0.00     0.023 C 
ENDROOT
BRANCH   1   2
ATOM      2  C   UNL A   1      32.392  30.100  26.270  1.00  0.00     0.116 C 
BRANCH   2   3
ATOM      3  N   UNL A   1      32.225  31.497  26.634  1.00  0.00    -0.352 N 
ATOM      4  O   UNL A   1      32.737  33.456  27.635  1.00  0.00    -0.269 OA
ATOM      5  C   UNL A   1      33.080  32.314  27.342  1.00  0.00     0.251 C 
ATOM      6  H   UNL A   1      31.386  31.917  26.334  1.00  0.00     0.163 HD
BRANCH   5   7
ATOM      7  C   UNL A   1      34.389  31.789  27.792  1.00  0.00     0.039 A 
ATOM      8  C   UNL A   1      34.552  30.435  28.095  1.00  0.00     0.014 A 
ATOM      9  C   UNL A   1      35.451  32.680  27.963  1.00  0.00     0.014 A 
ATOM     10  C   UNL A   1      35.714  30.011  28.737  1.00  0.00     0.010 A 
ATOM     11  C   UNL A   1      36.645  32.234  28.539  1.00  0.00     0.010 A 
ATOM     12  C   UNL A   1      36.766  30.910  28.988  1.00  0.00    -0.014 A 
BRANCH  12  13
ATOM     13  C   UNL A   1      37.971  30.446  29.729  1.00  0.00     0.031 A 
ATOM     14  C   UNL A   1      38.216  30.864  31.158  1.00  0.00     0.074 A 
ATOM     15  C   UNL A   1      38.847  29.626  29.116  1.00  0.00     0.049 A 
ATOM     16  N   UNL A   1      39.180  30.502  31.967  1.00  0.00    -0.248 NA
ATOM     17  C   UNL A   1      37.265  31.816  31.755  1.00  0.00     0.031 C 
ATOM     18  C   UNL A   1      38.755  29.189  27.723  1.00  0.00     0.029 A 
ATOM     19  N   UNL A   1      39.982  29.013  29.584  1.00  0.00    -0.354 N 
ATOM     20  C   UNL A   1      38.980  31.211  33.146  1.00  0.00     0.074 A 
ATOM     21  C   UNL A   1      37.805  32.031  32.947  1.00  0.00     0.031 C 
ATOM     22  C   UNL A   1      39.773  28.356  27.456  1.00  0.00     0.029 A 
ATOM     23  C   UNL A   1      40.608  28.225  28.647  1.00  0.00     0.049 A 
ATOM     24  H   UNL A   1      40.317  29.127  30.502  1.00  0.00     0.167 HD
ATOM     25  C   UNL A   1      39.694  31.170  34.297  1.00  0.00     0.034 A 
ATOM     26  C   UNL A   1      41.725  27.477  28.734  1.00  0.00     0.034 A 
ATOM     27  C   UNL A   1      40.828  30.311  34.519  1.00  0.00     0.049 A 
ATOM     28  C   UNL A   1      42.462  27.404  30.042  1.00  0.00     0.074 A 
ATOM     29  C   UNL A   1      41.566  30.143  35.679  1.00  0.00     0.029 A 
ATOM     30  N   UNL A   1      41.391  29.479  33.566  1.00  0.00    -0.354 N 
ATOM     31  N   UNL A   1      42.168  27.969  31.187  1.00  0.00    -0.248 NA
ATOM     32  C   UNL A   1      43.669  26.565  30.077  1.00  0.00     0.031 C 
ATOM     33  C   UNL A   1      42.579  29.212  35.424  1.00  0.00     0.029 A 
ATOM     34  C   UNL A   1      42.467  28.795  34.107  1.00  0.00     0.049 A 
ATOM     35  H   UNL A   1      41.073  29.386  32.638  1.00  0.00     0.167 HD
ATOM     36  C   UNL A   1      43.133  27.530  32.086  1.00  0.00     0.074 A 
ATOM     37  C   UNL A   1      44.006  26.633  31.357  1.00  0.00     0.031 C 
ATOM     38  C   UNL A   1      43.292  27.857  33.391  1.00  0.00     0.034 A 
BRANCH  25  39
ATOM     39  C   UNL A   1      39.241  32.041  35.440  1.00  0.00     0.023 A 
ATOM     40  C   UNL A   1      38.349  31.517  36.398  1.00  0.00     0.012 A 
ATOM     41  C   UNL A   1      39.751  33.342  35.610  1.00  0.00     0.148 A 
ATOM     42  C   UNL A   1      37.955  32.282  37.495  1.00  0.00     0.002 A 
ATOM     43  C   UNL A   1      39.381  34.087  36.726  1.00  0.00     0.091 A 
ATOM     44  F   UNL A   1      40.578  33.834  34.677  1.00  0.00    -0.205 F 
ATOM     45  C   UNL A   1      38.478  33.562  37.665  1.00  0.00     0.022 A 
BRANCH  43  46
ATOM     46  S   UNL A   1      40.062  35.715  37.064  1.00  0.00     0.127 S 
ATOM     47  O   UNL A   1      39.653  36.459  35.875  1.00  0.00    -0.237 OA
ATOM     48  O   UNL A   1      39.365  36.098  38.292  1.00  0.00    -0.237 OA
ATOM     49  O   UNL A   1      41.497  35.517  37.224  1.00  0.00    -0.744 OA
ENDBRANCH  43  46
ENDBRANCH  25  39
BRANCH  26  50
ATOM     50  C   UNL A   1      42.161  26.669  27.561  1.00  0.00     0.023 A 
ATOM     51  C   UNL A   1      42.967  27.269  26.573  1.00  0.00     0.012 A 
ATOM     52  C   UNL A   1      41.832  25.306  27.445  1.00  0.00     0.148 A 
ATOM     53  C   UNL A   1      43.418  26.530  25.480  1.00  0.00     0.002 A 
ATOM     54  C   UNL A   1      42.332  24.562  26.383  1.00  0.00     0.091 A 
ATOM     55  F   UNL A   1      41.047  24.758  28.383  1.00  0.00    -0.205 F 
ATOM     56  C   UNL A   1      43.113  25.174  25.392  1.00  0.00     0.022 A 
BRANCH  54  57
ATOM     57  S   UNL A   1      42.105  22.783  26.280  1.00  0.00     0.127 S 
ATOM     58  O   UNL A   1      42.734  22.474  25.000  1.00  0.00    -0.237 OA
ATOM     59  O   UNL A   1      42.836  22.311  27.458  1.00  0.00    -0.237 OA
ATOM     60  O   UNL A   1      40.664  22.575  26.354  1.00  0.00    -0.744 OA
ENDBRANCH  54  57
ENDBRANCH  26  50
BRANCH  38  61
ATOM     61  C   UNL A   1      44.440  27.224  34.133  1.00  0.00     0.023 A 
ATOM     62  C   UNL A   1      45.704  27.845  34.118  1.00  0.00     0.012 A 
ATOM     63  C   UNL A   1      44.252  26.053  34.892  1.00  0.00     0.148 A 
ATOM     64  C   UNL A   1      46.773  27.293  34.824  1.00  0.00     0.002 A 
ATOM     65  C   UNL A   1      45.313  25.531  35.626  1.00  0.00     0.091 A 
ATOM     66  F   UNL A   1      43.049  25.461  34.876  1.00  0.00    -0.205 F 
ATOM     67  C   UNL A   1      46.575  26.144  35.586  1.00  0.00     0.022 A 
BRANCH  65  68
ATOM     68  S   UNL A   1      45.108  24.105  36.700  1.00  0.00     0.127 S 
ATOM     69  O   UNL A   1      44.194  24.624  37.716  1.00  0.00    -0.237 OA
ATOM     70  O   UNL A   1      44.520  23.111  35.802  1.00  0.00    -0.237 OA
ATOM     71  O   UNL A   1      46.448  23.772  37.165  1.00  0.00    -0.744 OA
ENDBRANCH  65  68
ENDBRANCH  38  61
ENDBRANCH  12  13
ENDBRANCH   5   7
ENDBRANCH   2   3
ENDBRANCH   1   2
BRANCH   1  72
ATOM     72  C   UNL A   1      32.180  27.780  27.433  1.00  0.00     0.023 C 
BRANCH  72  73
ATOM     73  C   UNL A   1      31.842  26.618  26.502  1.00  0.00     0.116 C 
BRANCH  73  74
ATOM     74  N   UNL A   1      30.581  26.790  25.801  1.00  0.00    -0.352 N 
ATOM     75  C   UNL A   1      30.352  26.942  24.456  1.00  0.00     0.253 C 
ATOM     76  H   UNL A   1      29.779  26.800  26.371  1.00  0.00     0.163 HD
ATOM     77  O   UNL A   1      29.221  27.126  24.033  1.00  0.00    -0.269 OA
BRANCH  75  78
ATOM     78  C   UNL A   1      31.460  26.949  23.496  1.00  0.00     0.070 A 
ATOM     79  C   UNL A   1      32.056  28.184  23.268  1.00  0.00     0.125 A 
ATOM     80  C   UNL A   1      31.966  25.843  22.817  1.00  0.00     0.055 A 
ATOM     81  N   UNL A   1      33.144  28.369  22.482  1.00  0.00    -0.264 NA
ATOM     82  C   UNL A   1      33.106  26.008  22.015  1.00  0.00     0.035 A 
ATOM     83  C   UNL A   1      33.656  27.273  21.888  1.00  0.00     0.112 A 
BRANCH  80  84
ATOM     84  C   UNL A   1      31.545  24.454  23.083  1.00  0.00     0.254 C 
ATOM     85  O   UNL A   1      30.382  24.197  22.767  1.00  0.00    -0.269 OA
ATOM     86  N   UNL A   1      32.421  23.486  23.563  1.00  0.00    -0.339 N 
ATOM     87  C   UNL A   1      32.166  22.121  23.126  1.00  0.00     0.120 C 
ATOM     88  C   UNL A   1      33.696  23.719  24.252  1.00  0.00     0.120 C 
ATOM     89  C   UNL A   1      32.428  21.075  24.189  1.00  0.00     0.025 C 
ATOM     90  C   UNL A   1      33.997  22.645  25.311  1.00  0.00     0.025 C 
ATOM     91  C   UNL A   1      33.856  21.226  24.725  1.00  0.00    -0.003 C 
BRANCH  91  92
ATOM     92  C   UNL A   1      34.194  20.130  25.752  1.00  0.00     0.039 C 
BRANCH  92  93
ATOM     93  C   UNL A   1      33.900  18.733  25.244  1.00  0.00    -0.048 A 
ATOM     94  C   UNL A   1      32.809  18.009  25.748  1.00  0.00     0.004 A 
ATOM     95  C   UNL A   1      34.693  18.147  24.245  1.00  0.00     0.004 A 
ATOM     96  C   UNL A   1      32.517  16.732  25.263  1.00  0.00     0.000 A 
ATOM     97  C   UNL A   1      34.401  16.868  23.764  1.00  0.00     0.000 A 
ATOM     98  C   UNL A   1      33.313  16.162  24.272  1.00  0.00     0.000 A 
ENDBRANCH  92  93
ENDBRANCH  91  92
ENDBRANCH  80  84
ENDBRANCH  75  78
ENDBRANCH  73  74
ENDBRANCH  72  73
ENDBRANCH   1  72
TORSDOF 17
ENDMDL
