MODEL 1
REMARK VINA RESULT:     -11.3      0.000      0.000
REMARK SMILES COc1cccc(-n2cc(C(=O)NCCCCNC(=O)c3ccc(-c4c5nc(c(-c6cccc(S(=O)(=O)[O-])c6F)c6ccc([nH]6)c(-c6cccc(S(=O)(=O)[O-])c6F)c6nc(c(-c7cccc(S(=O)(=O)[O-])c7F)c7ccc4[nH]7)C=C6)C=C5)cc3)c3c2[C@H](c2cc(OC)c(OC)c(OC)c2)CC(=O)N3)c1
REMARK SMILES IDX 16 1 15 2 14 3 13 4 11 5 12 6 10 8 8 9 9 10 85 11 84 12
REMARK SMILES IDX 86 13 102 14 99 15 100 16 101 18 7 19 3 20 4 21 103 22 5 23
REMARK SMILES IDX 6 24 2 25 1 26 87 27 88 28 98 29 89 30 95 31 92 32 90 33
REMARK SMILES IDX 91 34 96 35 97 36 93 37 94 38 17 39 18 40 19 41 20 43 21 44
REMARK SMILES IDX 22 45 83 46 23 47 82 48 24 49 25 50 26 51 76 52 27 53 81 54
REMARK SMILES IDX 75 55 77 56 28 57 80 58 74 59 73 60 29 62 61 63 41 64 60 65
REMARK SMILES IDX 42 66 45 67 59 68 78 69 43 70 44 71 58 73 79 74 46 75 30 76
REMARK SMILES IDX 31 77 39 78 32 79 34 80 40 81 33 82 35 83 36 84 37 85 38 86
REMARK SMILES IDX 62 87 63 88 71 89 64 90 66 91 72 92 65 93 67 94 68 95 69 96
REMARK SMILES IDX 70 97 47 98 48 99 56 100 49 101 51 102 57 103 50 104 52 105
REMARK SMILES IDX 53 106 54 107 55 108
REMARK H PARENT 13 7 102 17 18 42 77 61 45 72
REMARK Flexibility Score: inf
ROOT
ATOM      1  C   UNL A   1      42.551  40.179  27.044  1.00  0.00     0.023 C 
ENDROOT
BRANCH   1   2
ATOM      2  C   UNL A   1      42.602  41.037  25.775  1.00  0.00     0.023 C 
BRANCH   2   3
ATOM      3  C   UNL A   1      44.013  41.434  25.319  1.00  0.00     0.116 C 
BRANCH   3   4
ATOM      4  N   UNL A   1      44.312  42.787  25.714  1.00  0.00    -0.352 N 
ATOM      5  C   UNL A   1      44.738  43.900  25.045  1.00  0.00     0.254 C 
ATOM      6  O   UNL A   1      44.909  44.895  25.759  1.00  0.00    -0.269 OA
ATOM      7  H   UNL A   1      44.180  42.945  26.677  1.00  0.00     0.163 HD
BRANCH   5   8
ATOM      8  C   UNL A   1      44.988  43.990  23.597  1.00  0.00     0.081 A 
ATOM      9  N   UNL A   1      46.404  44.100  21.809  1.00  0.00    -0.317 N 
ATOM     10  C   UNL A   1      46.317  44.012  23.172  1.00  0.00     0.107 A 
ATOM     11  C   UNL A   1      45.123  44.114  21.300  1.00  0.00     0.055 A 
ATOM     12  C   UNL A   1      44.250  43.973  22.372  1.00  0.00     0.076 A 
ATOM     13  C   UNL A   1      44.695  44.109  19.846  1.00  0.00     0.078 C 
ATOM     14  N   UNL A   1      42.912  43.814  22.093  1.00  0.00    -0.324 N 
ATOM     15  C   UNL A   1      43.433  43.233  19.752  1.00  0.00     0.115 C 
ATOM     16  C   UNL A   1      42.424  43.551  20.842  1.00  0.00     0.225 C 
ATOM     17  H   UNL A   1      42.271  43.894  22.835  1.00  0.00     0.170 HD
ATOM     18  O   UNL A   1      41.212  43.486  20.641  1.00  0.00    -0.275 OA
BRANCH   9  19
ATOM     19  C   UNL A   1      47.630  44.110  21.117  1.00  0.00     0.049 A 
ATOM     20  C   UNL A   1      49.419  45.314  20.034  1.00  0.00     0.120 A 
ATOM     21  C   UNL A   1      50.065  44.094  19.801  1.00  0.00     0.046 A 
ATOM     22  C   UNL A   1      48.195  45.325  20.707  1.00  0.00     0.073 A 
ATOM     23  C   UNL A   1      49.462  42.887  20.155  1.00  0.00     0.006 A 
ATOM     24  C   UNL A   1      48.217  42.894  20.774  1.00  0.00     0.027 A 
BRANCH  20  25
ATOM     25  O   UNL A   1      50.095  46.402  19.555  1.00  0.00    -0.497 OA
ATOM     26  C   UNL A   1      50.723  46.275  18.287  1.00  0.00     0.278 C 
ENDBRANCH  20  25
ENDBRANCH   9  19
BRANCH  13  27
ATOM     27  C   UNL A   1      44.509  45.507  19.238  1.00  0.00    -0.031 A 
ATOM     28  C   UNL A   1      45.171  46.587  19.822  1.00  0.00     0.055 A 
ATOM     29  C   UNL A   1      43.712  45.797  18.119  1.00  0.00     0.055 A 
ATOM     30  C   UNL A   1      44.903  47.907  19.455  1.00  0.00     0.164 A 
ATOM     31  C   UNL A   1      43.555  47.111  17.622  1.00  0.00     0.164 A 
ATOM     32  C   UNL A   1      44.128  48.190  18.321  1.00  0.00     0.203 A 
BRANCH  30  33
ATOM     33  O   UNL A   1      45.499  48.849  20.263  1.00  0.00    -0.493 OA
ATOM     34  C   UNL A   1      46.929  48.833  20.206  1.00  0.00     0.278 C 
ENDBRANCH  30  33
BRANCH  31  35
ATOM     35  O   UNL A   1      42.836  47.384  16.487  1.00  0.00    -0.493 OA
ATOM     36  C   UNL A   1      41.493  47.835  16.625  1.00  0.00     0.278 C 
ENDBRANCH  31  35
BRANCH  32  37
ATOM     37  O   UNL A   1      44.047  49.523  18.013  1.00  0.00    -0.490 OA
ATOM     38  C   UNL A   1      44.944  50.094  17.080  1.00  0.00     0.278 C 
ENDBRANCH  32  37
ENDBRANCH  13  27
ENDBRANCH   5   8
ENDBRANCH   3   4
ENDBRANCH   2   3
ENDBRANCH   1   2
BRANCH   1  39
ATOM     39  C   UNL A   1      43.043  38.747  26.841  1.00  0.00     0.116 C 
BRANCH  39  40
ATOM     40  N   UNL A   1      44.498  38.672  26.748  1.00  0.00    -0.352 N 
ATOM     41  C   UNL A   1      45.356  37.874  27.478  1.00  0.00     0.251 C 
ATOM     42  H   UNL A   1      44.920  39.263  26.083  1.00  0.00     0.163 HD
ATOM     43  O   UNL A   1      46.527  38.184  27.620  1.00  0.00    -0.269 OA
BRANCH  41  44
ATOM     44  C   UNL A   1      44.835  36.631  28.076  1.00  0.00     0.039 A 
ATOM     45  C   UNL A   1      44.458  36.608  29.421  1.00  0.00     0.014 A 
ATOM     46  C   UNL A   1      44.715  35.494  27.274  1.00  0.00     0.014 A 
ATOM     47  C   UNL A   1      43.875  35.455  29.937  1.00  0.00     0.010 A 
ATOM     48  C   UNL A   1      44.073  34.375  27.766  1.00  0.00     0.010 A 
ATOM     49  C   UNL A   1      43.658  34.349  29.098  1.00  0.00    -0.014 A 
BRANCH  49  50
ATOM     50  C   UNL A   1      42.766  33.273  29.543  1.00  0.00     0.031 A 
ATOM     51  C   UNL A   1      41.439  33.776  30.012  1.00  0.00     0.074 A 
ATOM     52  C   UNL A   1      43.014  31.963  29.316  1.00  0.00     0.049 A 
ATOM     53  N   UNL A   1      40.921  33.677  31.192  1.00  0.00    -0.248 NA
ATOM     54  C   UNL A   1      40.671  34.651  29.105  1.00  0.00     0.031 C 
ATOM     55  C   UNL A   1      44.157  31.409  28.581  1.00  0.00     0.029 A 
ATOM     56  N   UNL A   1      42.235  30.859  29.537  1.00  0.00    -0.354 N 
ATOM     57  C   UNL A   1      39.646  34.239  31.085  1.00  0.00     0.074 A 
ATOM     58  C   UNL A   1      39.657  35.027  29.887  1.00  0.00     0.031 C 
ATOM     59  C   UNL A   1      43.872  30.150  28.188  1.00  0.00     0.029 A 
ATOM     60  C   UNL A   1      42.598  29.756  28.757  1.00  0.00     0.049 A 
ATOM     61  H   UNL A   1      41.492  30.844  30.182  1.00  0.00     0.167 HD
ATOM     62  C   UNL A   1      38.604  33.736  31.805  1.00  0.00     0.034 A 
ATOM     63  C   UNL A   1      41.881  28.625  28.539  1.00  0.00     0.034 A 
ATOM     64  C   UNL A   1      39.090  32.915  32.888  1.00  0.00     0.049 A 
ATOM     65  C   UNL A   1      40.863  28.539  29.602  1.00  0.00     0.074 A 
ATOM     66  C   UNL A   1      39.896  33.095  33.992  1.00  0.00     0.029 A 
ATOM     67  N   UNL A   1      39.019  31.566  32.662  1.00  0.00    -0.354 N 
ATOM     68  N   UNL A   1      41.141  28.302  30.851  1.00  0.00    -0.248 NA
ATOM     69  C   UNL A   1      39.536  29.069  29.340  1.00  0.00     0.031 C 
ATOM     70  C   UNL A   1      40.576  31.853  34.164  1.00  0.00     0.029 A 
ATOM     71  C   UNL A   1      40.104  30.951  33.209  1.00  0.00     0.049 A 
ATOM     72  H   UNL A   1      38.293  31.110  32.177  1.00  0.00     0.167 HD
ATOM     73  C   UNL A   1      40.246  29.101  31.544  1.00  0.00     0.074 A 
ATOM     74  C   UNL A   1      39.189  29.404  30.584  1.00  0.00     0.031 C 
ATOM     75  C   UNL A   1      40.621  29.693  32.714  1.00  0.00     0.034 A 
BRANCH  62  76
ATOM     76  C   UNL A   1      37.183  33.541  31.274  1.00  0.00     0.023 A 
ATOM     77  C   UNL A   1      37.056  32.817  30.061  1.00  0.00     0.012 A 
ATOM     78  C   UNL A   1      36.042  34.267  31.688  1.00  0.00     0.148 A 
ATOM     79  C   UNL A   1      35.911  32.902  29.259  1.00  0.00     0.002 A 
ATOM     80  C   UNL A   1      34.879  34.294  30.923  1.00  0.00     0.091 A 
ATOM     81  F   UNL A   1      36.087  35.039  32.772  1.00  0.00    -0.205 F 
ATOM     82  C   UNL A   1      34.823  33.646  29.688  1.00  0.00     0.022 A 
BRANCH  80  83
ATOM     83  S   UNL A   1      33.420  35.208  31.449  1.00  0.00     0.127 S 
ATOM     84  O   UNL A   1      33.968  36.549  31.634  1.00  0.00    -0.237 OA
ATOM     85  O   UNL A   1      32.541  35.048  30.291  1.00  0.00    -0.237 OA
ATOM     86  O   UNL A   1      32.946  34.544  32.656  1.00  0.00    -0.744 OA
ENDBRANCH  80  83
ENDBRANCH  62  76
BRANCH  63  87
ATOM     87  C   UNL A   1      41.852  27.682  27.391  1.00  0.00     0.023 A 
ATOM     88  C   UNL A   1      42.023  28.179  26.080  1.00  0.00     0.012 A 
ATOM     89  C   UNL A   1      41.958  26.290  27.590  1.00  0.00     0.148 A 
ATOM     90  C   UNL A   1      42.340  27.325  25.016  1.00  0.00     0.002 A 
ATOM     91  C   UNL A   1      42.265  25.443  26.527  1.00  0.00     0.091 A 
ATOM     92  F   UNL A   1      41.852  25.806  28.835  1.00  0.00    -0.205 F 
ATOM     93  C   UNL A   1      42.473  25.959  25.241  1.00  0.00     0.022 A 
BRANCH  91  94
ATOM     94  S   UNL A   1      42.485  23.672  26.748  1.00  0.00     0.127 S 
ATOM     95  O   UNL A   1      42.819  23.236  25.392  1.00  0.00    -0.237 OA
ATOM     96  O   UNL A   1      43.593  23.623  27.697  1.00  0.00    -0.237 OA
ATOM     97  O   UNL A   1      41.207  23.173  27.241  1.00  0.00    -0.744 OA
ENDBRANCH  91  94
ENDBRANCH  63  87
BRANCH  75  98
ATOM     98  C   UNL A   1      41.793  29.111  33.456  1.00  0.00     0.023 A 
ATOM     99  C   UNL A   1      43.073  29.701  33.480  1.00  0.00     0.012 A 
ATOM    100  C   UNL A   1      41.542  27.988  34.260  1.00  0.00     0.148 A 
ATOM    101  C   UNL A   1      44.087  29.158  34.275  1.00  0.00     0.002 A 
ATOM    102  C   UNL A   1      42.534  27.488  35.088  1.00  0.00     0.091 A 
ATOM    103  F   UNL A   1      40.321  27.432  34.212  1.00  0.00    -0.205 F 
ATOM    104  C   UNL A   1      43.813  28.061  35.092  1.00  0.00     0.022 A 
BRANCH 102 105
ATOM    105  S   UNL A   1      42.182  26.164  36.244  1.00  0.00     0.127 S 
ATOM    106  O   UNL A   1      41.127  26.749  37.067  1.00  0.00    -0.237 OA
ATOM    107  O   UNL A   1      41.743  25.081  35.363  1.00  0.00    -0.237 OA
ATOM    108  O   UNL A   1      43.441  25.892  36.930  1.00  0.00    -0.744 OA
ENDBRANCH 102 105
ENDBRANCH  75  98
ENDBRANCH  49  50
ENDBRANCH  41  44
ENDBRANCH  39  40
ENDBRANCH   1  39
TORSDOF 20
ENDMDL
MODEL 2
REMARK VINA RESULT:     -11.1      9.548     21.451
REMARK SMILES COc1cccc(-n2cc(C(=O)NCCCCNC(=O)c3ccc(-c4c5nc(c(-c6cccc(S(=O)(=O)[O-])c6F)c6ccc([nH]6)c(-c6cccc(S(=O)(=O)[O-])c6F)c6nc(c(-c7cccc(S(=O)(=O)[O-])c7F)c7ccc4[nH]7)C=C6)C=C5)cc3)c3c2[C@H](c2cc(OC)c(OC)c(OC)c2)CC(=O)N3)c1
REMARK SMILES IDX 16 1 15 2 14 3 13 4 11 5 12 6 10 8 8 9 9 10 85 11 84 12
REMARK SMILES IDX 86 13 102 14 99 15 100 16 101 18 7 19 3 20 4 21 103 22 5 23
REMARK SMILES IDX 6 24 2 25 1 26 87 27 88 28 98 29 89 30 95 31 92 32 90 33
REMARK SMILES IDX 91 34 96 35 97 36 93 37 94 38 17 39 18 40 19 41 20 43 21 44
REMARK SMILES IDX 22 45 83 46 23 47 82 48 24 49 25 50 26 51 76 52 27 53 81 54
REMARK SMILES IDX 75 55 77 56 28 57 80 58 74 59 73 60 29 62 61 63 41 64 60 65
REMARK SMILES IDX 42 66 45 67 59 68 78 69 43 70 44 71 58 73 79 74 46 75 30 76
REMARK SMILES IDX 31 77 39 78 32 79 34 80 40 81 33 82 35 83 36 84 37 85 38 86
REMARK SMILES IDX 62 87 63 88 71 89 64 90 66 91 72 92 65 93 67 94 68 95 69 96
REMARK SMILES IDX 70 97 47 98 48 99 56 100 49 101 51 102 57 103 50 104 52 105
REMARK SMILES IDX 53 106 54 107 55 108
REMARK H PARENT 13 7 102 17 18 42 77 61 45 72
REMARK Flexibility Score: inf
ROOT
ATOM      1  C   UNL A   1      48.263  21.434  34.227  1.00  0.00     0.023 C 
ENDROOT
BRANCH   1   2
ATOM      2  C   UNL A   1      49.601  20.720  33.996  1.00  0.00     0.023 C 
BRANCH   2   3
ATOM      3  C   UNL A   1      50.673  20.997  35.059  1.00  0.00     0.116 C 
BRANCH   3   4
ATOM      4  N   UNL A   1      51.252  19.764  35.528  1.00  0.00    -0.352 N 
ATOM      5  C   UNL A   1      51.104  19.017  36.663  1.00  0.00     0.254 C 
ATOM      6  O   UNL A   1      51.815  18.006  36.708  1.00  0.00    -0.269 OA
ATOM      7  H   UNL A   1      51.894  19.374  34.892  1.00  0.00     0.163 HD
BRANCH   5   8
ATOM      8  C   UNL A   1      50.193  19.318  37.779  1.00  0.00     0.081 A 
ATOM      9  N   UNL A   1      49.795  19.726  39.990  1.00  0.00    -0.317 N 
ATOM     10  C   UNL A   1      50.751  19.449  39.051  1.00  0.00     0.107 A 
ATOM     11  C   UNL A   1      48.578  19.807  39.348  1.00  0.00     0.055 A 
ATOM     12  C   UNL A   1      48.814  19.635  37.990  1.00  0.00     0.076 A 
ATOM     13  C   UNL A   1      47.233  20.181  39.940  1.00  0.00     0.078 C 
ATOM     14  N   UNL A   1      47.758  19.821  37.127  1.00  0.00    -0.324 N 
ATOM     15  C   UNL A   1      46.491  21.012  38.877  1.00  0.00     0.115 C 
ATOM     16  C   UNL A   1      46.569  20.389  37.495  1.00  0.00     0.225 C 
ATOM     17  H   UNL A   1      47.865  19.529  36.193  1.00  0.00     0.170 HD
ATOM     18  O   UNL A   1      45.636  20.467  36.695  1.00  0.00    -0.275 OA
BRANCH   9  19
ATOM     19  C   UNL A   1      50.092  19.935  41.350  1.00  0.00     0.049 A 
ATOM     20  C   UNL A   1      51.043  21.290  43.106  1.00  0.00     0.120 A 
ATOM     21  C   UNL A   1      50.618  20.336  44.038  1.00  0.00     0.046 A 
ATOM     22  C   UNL A   1      50.769  21.096  41.749  1.00  0.00     0.073 A 
ATOM     23  C   UNL A   1      50.004  19.155  43.622  1.00  0.00     0.006 A 
ATOM     24  C   UNL A   1      49.782  18.934  42.267  1.00  0.00     0.027 A 
BRANCH  20  25
ATOM     25  O   UNL A   1      51.704  22.353  43.658  1.00  0.00    -0.497 OA
ATOM     26  C   UNL A   1      51.369  23.649  43.182  1.00  0.00     0.278 C 
ENDBRANCH  20  25
ENDBRANCH   9  19
BRANCH  13  27
ATOM     27  C   UNL A   1      46.416  18.987  40.454  1.00  0.00    -0.031 A 
ATOM     28  C   UNL A   1      46.047  18.955  41.798  1.00  0.00     0.055 A 
ATOM     29  C   UNL A   1      45.998  17.901  39.668  1.00  0.00     0.055 A 
ATOM     30  C   UNL A   1      45.478  17.823  42.385  1.00  0.00     0.164 A 
ATOM     31  C   UNL A   1      45.272  16.813  40.205  1.00  0.00     0.164 A 
ATOM     32  C   UNL A   1      45.039  16.752  41.592  1.00  0.00     0.203 A 
BRANCH  30  33
ATOM     33  O   UNL A   1      45.357  17.897  43.753  1.00  0.00    -0.493 OA
ATOM     34  C   UNL A   1      45.314  19.237  44.255  1.00  0.00     0.278 C 
ENDBRANCH  30  33
BRANCH  31  35
ATOM     35  O   UNL A   1      44.803  15.789  39.424  1.00  0.00    -0.493 OA
ATOM     36  C   UNL A   1      43.730  16.053  38.529  1.00  0.00     0.278 C 
ENDBRANCH  31  35
BRANCH  32  37
ATOM     37  O   UNL A   1      44.395  15.763  42.288  1.00  0.00    -0.490 OA
ATOM     38  C   UNL A   1      42.982  15.748  42.361  1.00  0.00     0.278 C 
ENDBRANCH  32  37
ENDBRANCH  13  27
ENDBRANCH   5   8
ENDBRANCH   3   4
ENDBRANCH   2   3
ENDBRANCH   1   2
BRANCH   1  39
ATOM     39  C   UNL A   1      48.408  22.862  34.748  1.00  0.00     0.116 C 
BRANCH  39  40
ATOM     40  N   UNL A   1      47.701  23.064  36.010  1.00  0.00    -0.352 N 
ATOM     41  C   UNL A   1      46.827  24.080  36.340  1.00  0.00     0.251 C 
ATOM     42  H   UNL A   1      47.867  22.392  36.710  1.00  0.00     0.163 HD
ATOM     43  O   UNL A   1      46.635  24.382  37.507  1.00  0.00    -0.269 OA
BRANCH  41  44
ATOM     44  C   UNL A   1      46.119  24.790  35.260  1.00  0.00     0.039 A 
ATOM     45  C   UNL A   1      46.775  25.784  34.530  1.00  0.00     0.014 A 
ATOM     46  C   UNL A   1      44.797  24.440  34.975  1.00  0.00     0.014 A 
ATOM     47  C   UNL A   1      46.122  26.369  33.450  1.00  0.00     0.010 A 
ATOM     48  C   UNL A   1      44.175  24.969  33.861  1.00  0.00     0.010 A 
ATOM     49  C   UNL A   1      44.831  25.937  33.101  1.00  0.00    -0.014 A 
BRANCH  49  50
ATOM     50  C   UNL A   1      44.278  26.309  31.794  1.00  0.00     0.031 A 
ATOM     51  C   UNL A   1      44.568  25.298  30.732  1.00  0.00     0.074 A 
ATOM     52  C   UNL A   1      43.392  27.316  31.623  1.00  0.00     0.049 A 
ATOM     53  N   UNL A   1      45.255  25.455  29.649  1.00  0.00    -0.248 NA
ATOM     54  C   UNL A   1      44.197  23.894  30.994  1.00  0.00     0.031 C 
ATOM     55  C   UNL A   1      42.821  28.160  32.680  1.00  0.00     0.029 A 
ATOM     56  N   UNL A   1      42.685  27.701  30.517  1.00  0.00    -0.354 N 
ATOM     57  C   UNL A   1      45.161  24.237  28.970  1.00  0.00     0.074 A 
ATOM     58  C   UNL A   1      44.733  23.272  29.942  1.00  0.00     0.031 C 
ATOM     59  C   UNL A   1      41.694  28.748  32.227  1.00  0.00     0.029 A 
ATOM     60  C   UNL A   1      41.537  28.442  30.818  1.00  0.00     0.049 A 
ATOM     61  H   UNL A   1      42.957  27.478  29.598  1.00  0.00     0.167 HD
ATOM     62  C   UNL A   1      45.116  24.202  27.609  1.00  0.00     0.034 A 
ATOM     63  C   UNL A   1      40.500  28.734  29.994  1.00  0.00     0.034 A 
ATOM     64  C   UNL A   1      45.575  25.456  27.058  1.00  0.00     0.049 A 
ATOM     65  C   UNL A   1      40.970  28.535  28.610  1.00  0.00     0.074 A 
ATOM     66  C   UNL A   1      46.734  26.200  27.102  1.00  0.00     0.029 A 
ATOM     67  N   UNL A   1      44.578  26.296  26.637  1.00  0.00    -0.354 N 
ATOM     68  N   UNL A   1      41.845  29.302  28.027  1.00  0.00    -0.248 NA
ATOM     69  C   UNL A   1      40.725  27.255  27.969  1.00  0.00     0.031 C 
ATOM     70  C   UNL A   1      46.308  27.560  27.052  1.00  0.00     0.029 A 
ATOM     71  C   UNL A   1      44.920  27.587  26.907  1.00  0.00     0.049 A 
ATOM     72  H   UNL A   1      43.742  26.010  26.204  1.00  0.00     0.167 HD
ATOM     73  C   UNL A   1      42.599  28.421  27.268  1.00  0.00     0.074 A 
ATOM     74  C   UNL A   1      41.767  27.230  27.136  1.00  0.00     0.031 C 
ATOM     75  C   UNL A   1      43.938  28.629  27.106  1.00  0.00     0.034 A 
BRANCH  62  76
ATOM     76  C   UNL A   1      44.210  23.289  26.783  1.00  0.00     0.023 A 
ATOM     77  C   UNL A   1      42.814  23.423  26.996  1.00  0.00     0.012 A 
ATOM     78  C   UNL A   1      44.624  22.132  26.084  1.00  0.00     0.148 A 
ATOM     79  C   UNL A   1      41.906  22.419  26.639  1.00  0.00     0.002 A 
ATOM     80  C   UNL A   1      43.711  21.167  25.667  1.00  0.00     0.091 A 
ATOM     81  F   UNL A   1      45.918  21.877  25.901  1.00  0.00    -0.205 F 
ATOM     82  C   UNL A   1      42.356  21.286  25.978  1.00  0.00     0.022 A 
BRANCH  80  83
ATOM     83  S   UNL A   1      44.230  19.696  24.769  1.00  0.00     0.127 S 
ATOM     84  O   UNL A   1      43.009  18.896  24.790  1.00  0.00    -0.237 OA
ATOM     85  O   UNL A   1      44.585  20.257  23.466  1.00  0.00    -0.237 OA
ATOM     86  O   UNL A   1      45.359  19.151  25.513  1.00  0.00    -0.744 OA
ENDBRANCH  80  83
ENDBRANCH  62  76
BRANCH  63  87
ATOM     87  C   UNL A   1      39.064  28.994  30.270  1.00  0.00     0.023 A 
ATOM     88  C   UNL A   1      38.487  28.507  31.463  1.00  0.00     0.012 A 
ATOM     89  C   UNL A   1      38.344  29.958  29.532  1.00  0.00     0.148 A 
ATOM     90  C   UNL A   1      37.261  28.999  31.931  1.00  0.00     0.002 A 
ATOM     91  C   UNL A   1      37.122  30.439  29.998  1.00  0.00     0.091 A 
ATOM     92  F   UNL A   1      38.899  30.471  28.428  1.00  0.00    -0.205 F 
ATOM     93  C   UNL A   1      36.585  29.973  31.205  1.00  0.00     0.022 A 
BRANCH  91  94
ATOM     94  S   UNL A   1      36.206  31.720  29.131  1.00  0.00     0.127 S 
ATOM     95  O   UNL A   1      35.819  31.036  27.898  1.00  0.00    -0.237 OA
ATOM     96  O   UNL A   1      35.108  31.983  30.057  1.00  0.00    -0.237 OA
ATOM     97  O   UNL A   1      37.147  32.817  28.938  1.00  0.00    -0.744 OA
ENDBRANCH  91  94
ENDBRANCH  63  87
BRANCH  75  98
ATOM     98  C   UNL A   1      44.470  30.016  27.344  1.00  0.00     0.023 A 
ATOM     99  C   UNL A   1      44.404  31.052  26.390  1.00  0.00     0.012 A 
ATOM    100  C   UNL A   1      44.941  30.304  28.635  1.00  0.00     0.148 A 
ATOM    101  C   UNL A   1      44.826  32.344  26.718  1.00  0.00     0.002 A 
ATOM    102  C   UNL A   1      45.305  31.598  28.972  1.00  0.00     0.091 A 
ATOM    103  F   UNL A   1      45.009  29.301  29.524  1.00  0.00    -0.205 F 
ATOM    104  C   UNL A   1      45.262  32.620  28.014  1.00  0.00     0.022 A 
BRANCH 102 105
ATOM    105  S   UNL A   1      45.745  32.017  30.658  1.00  0.00     0.127 S 
ATOM    106  O   UNL A   1      46.413  33.304  30.489  1.00  0.00    -0.237 OA
ATOM    107  O   UNL A   1      44.442  32.084  31.319  1.00  0.00    -0.237 OA
ATOM    108  O   UNL A   1      46.589  30.924  31.129  1.00  0.00    -0.744 OA
ENDBRANCH 102 105
ENDBRANCH  75  98
ENDBRANCH  49  50
ENDBRANCH  41  44
ENDBRANCH  39  40
ENDBRANCH   1  39
TORSDOF 20
ENDMDL
MODEL 3
REMARK VINA RESULT:     -11.0      9.649     23.483
REMARK SMILES COc1cccc(-n2cc(C(=O)NCCCCNC(=O)c3ccc(-c4c5nc(c(-c6cccc(S(=O)(=O)[O-])c6F)c6ccc([nH]6)c(-c6cccc(S(=O)(=O)[O-])c6F)c6nc(c(-c7cccc(S(=O)(=O)[O-])c7F)c7ccc4[nH]7)C=C6)C=C5)cc3)c3c2[C@H](c2cc(OC)c(OC)c(OC)c2)CC(=O)N3)c1
REMARK SMILES IDX 16 1 15 2 14 3 13 4 11 5 12 6 10 8 8 9 9 10 85 11 84 12
REMARK SMILES IDX 86 13 102 14 99 15 100 16 101 18 7 19 3 20 4 21 103 22 5 23
REMARK SMILES IDX 6 24 2 25 1 26 87 27 88 28 98 29 89 30 95 31 92 32 90 33
REMARK SMILES IDX 91 34 96 35 97 36 93 37 94 38 17 39 18 40 19 41 20 43 21 44
REMARK SMILES IDX 22 45 83 46 23 47 82 48 24 49 25 50 26 51 76 52 27 53 81 54
REMARK SMILES IDX 75 55 77 56 28 57 80 58 74 59 73 60 29 62 61 63 41 64 60 65
REMARK SMILES IDX 42 66 45 67 59 68 78 69 43 70 44 71 58 73 79 74 46 75 30 76
REMARK SMILES IDX 31 77 39 78 32 79 34 80 40 81 33 82 35 83 36 84 37 85 38 86
REMARK SMILES IDX 62 87 63 88 71 89 64 90 66 91 72 92 65 93 67 94 68 95 69 96
REMARK SMILES IDX 70 97 47 98 48 99 56 100 49 101 51 102 57 103 50 104 52 105
REMARK SMILES IDX 53 106 54 107 55 108
REMARK H PARENT 13 7 102 17 18 42 77 61 45 72
REMARK Flexibility Score: inf
ROOT
ATOM      1  C   UNL A   1      48.556  22.074  37.520  1.00  0.00     0.023 C 
ENDROOT
BRANCH   1   2
ATOM      2  C   UNL A   1      48.030  21.229  38.687  1.00  0.00     0.023 C 
BRANCH   2   3
ATOM      3  C   UNL A   1      47.815  19.744  38.365  1.00  0.00     0.116 C 
BRANCH   3   4
ATOM      4  N   UNL A   1      48.753  18.926  39.091  1.00  0.00    -0.352 N 
ATOM      5  C   UNL A   1      48.664  18.142  40.207  1.00  0.00     0.254 C 
ATOM      6  O   UNL A   1      49.726  17.604  40.542  1.00  0.00    -0.269 OA
ATOM      7  H   UNL A   1      49.654  18.931  38.696  1.00  0.00     0.163 HD
BRANCH   5   8
ATOM      8  C   UNL A   1      47.445  17.903  40.996  1.00  0.00     0.081 A 
ATOM      9  N   UNL A   1      46.159  18.237  42.854  1.00  0.00    -0.317 N 
ATOM     10  C   UNL A   1      47.336  18.549  42.229  1.00  0.00     0.107 A 
ATOM     11  C   UNL A   1      45.449  17.391  42.029  1.00  0.00     0.055 A 
ATOM     12  C   UNL A   1      46.186  17.237  40.861  1.00  0.00     0.076 A 
ATOM     13  C   UNL A   1      44.051  16.842  42.235  1.00  0.00     0.078 C 
ATOM     14  N   UNL A   1      45.605  16.545  39.823  1.00  0.00    -0.324 N 
ATOM     15  C   UNL A   1      43.376  16.803  40.851  1.00  0.00     0.115 C 
ATOM     16  C   UNL A   1      44.278  16.211  39.782  1.00  0.00     0.225 C 
ATOM     17  H   UNL A   1      46.175  16.276  39.068  1.00  0.00     0.170 HD
ATOM     18  O   UNL A   1      43.829  15.532  38.859  1.00  0.00    -0.275 OA
BRANCH   9  19
ATOM     19  C   UNL A   1      45.785  18.777  44.099  1.00  0.00     0.049 A 
ATOM     20  C   UNL A   1      45.755  18.668  46.510  1.00  0.00     0.120 A 
ATOM     21  C   UNL A   1      45.075  19.892  46.531  1.00  0.00     0.046 A 
ATOM     22  C   UNL A   1      46.124  18.108  45.284  1.00  0.00     0.073 A 
ATOM     23  C   UNL A   1      44.686  20.514  45.345  1.00  0.00     0.006 A 
ATOM     24  C   UNL A   1      45.003  19.929  44.124  1.00  0.00     0.027 A 
BRANCH  20  25
ATOM     25  O   UNL A   1      45.993  18.142  47.749  1.00  0.00    -0.497 OA
ATOM     26  C   UNL A   1      45.978  16.726  47.870  1.00  0.00     0.278 C 
ENDBRANCH  20  25
ENDBRANCH   9  19
BRANCH  13  27
ATOM     27  C   UNL A   1      44.004  15.495  42.970  1.00  0.00    -0.031 A 
ATOM     28  C   UNL A   1      42.817  14.764  42.958  1.00  0.00     0.055 A 
ATOM     29  C   UNL A   1      45.080  14.923  43.668  1.00  0.00     0.055 A 
ATOM     30  C   UNL A   1      42.632  13.634  43.757  1.00  0.00     0.164 A 
ATOM     31  C   UNL A   1      44.967  13.691  44.353  1.00  0.00     0.164 A 
ATOM     32  C   UNL A   1      43.716  13.052  44.432  1.00  0.00     0.203 A 
BRANCH  30  33
ATOM     33  O   UNL A   1      41.343  13.154  43.766  1.00  0.00    -0.493 OA
ATOM     34  C   UNL A   1      40.994  12.422  42.586  1.00  0.00     0.278 C 
ENDBRANCH  30  33
BRANCH  31  35
ATOM     35  O   UNL A   1      46.037  13.098  44.974  1.00  0.00    -0.493 OA
ATOM     36  C   UNL A   1      46.907  13.911  45.752  1.00  0.00     0.278 C 
ENDBRANCH  31  35
BRANCH  32  37
ATOM     37  O   UNL A   1      43.413  11.884  45.081  1.00  0.00    -0.490 OA
ATOM     38  C   UNL A   1      43.643  10.639  44.451  1.00  0.00     0.278 C 
ENDBRANCH  32  37
ENDBRANCH  13  27
ENDBRANCH   5   8
ENDBRANCH   3   4
ENDBRANCH   2   3
ENDBRANCH   1   2
BRANCH   1  39
ATOM     39  C   UNL A   1      47.481  22.913  36.833  1.00  0.00     0.116 C 
BRANCH  39  40
ATOM     40  N   UNL A   1      47.257  24.186  37.511  1.00  0.00    -0.352 N 
ATOM     41  C   UNL A   1      46.930  25.403  36.948  1.00  0.00     0.251 C 
ATOM     42  H   UNL A   1      47.350  24.175  38.491  1.00  0.00     0.163 HD
ATOM     43  O   UNL A   1      47.177  26.446  37.530  1.00  0.00    -0.269 OA
BRANCH  41  44
ATOM     44  C   UNL A   1      46.266  25.422  35.632  1.00  0.00     0.039 A 
ATOM     45  C   UNL A   1      44.905  25.123  35.532  1.00  0.00     0.014 A 
ATOM     46  C   UNL A   1      47.015  25.757  34.502  1.00  0.00     0.014 A 
ATOM     47  C   UNL A   1      44.277  25.247  34.297  1.00  0.00     0.010 A 
ATOM     48  C   UNL A   1      46.379  25.948  33.292  1.00  0.00     0.010 A 
ATOM     49  C   UNL A   1      45.012  25.688  33.183  1.00  0.00    -0.014 A 
BRANCH  49  50
ATOM     50  C   UNL A   1      44.299  26.126  31.978  1.00  0.00     0.031 A 
ATOM     51  C   UNL A   1      44.296  25.093  30.898  1.00  0.00     0.074 A 
ATOM     52  C   UNL A   1      43.516  27.227  31.940  1.00  0.00     0.049 A 
ATOM     53  N   UNL A   1      44.811  25.175  29.715  1.00  0.00    -0.248 NA
ATOM     54  C   UNL A   1      43.818  23.739  31.236  1.00  0.00     0.031 C 
ATOM     55  C   UNL A   1      43.224  28.126  33.063  1.00  0.00     0.029 A 
ATOM     56  N   UNL A   1      42.686  27.695  30.957  1.00  0.00    -0.354 N 
ATOM     57  C   UNL A   1      44.471  23.979  29.079  1.00  0.00     0.074 A 
ATOM     58  C   UNL A   1      44.102  23.065  30.121  1.00  0.00     0.031 C 
ATOM     59  C   UNL A   1      42.112  28.840  32.790  1.00  0.00     0.029 A 
ATOM     60  C   UNL A   1      41.694  28.560  31.430  1.00  0.00     0.049 A 
ATOM     61  H   UNL A   1      42.778  27.446  30.010  1.00  0.00     0.167 HD
ATOM     62  C   UNL A   1      44.202  23.955  27.743  1.00  0.00     0.034 A 
ATOM     63  C   UNL A   1      40.575  28.971  30.781  1.00  0.00     0.034 A 
ATOM     64  C   UNL A   1      44.702  25.151  27.108  1.00  0.00     0.049 A 
ATOM     65  C   UNL A   1      40.788  28.726  29.342  1.00  0.00     0.074 A 
ATOM     66  C   UNL A   1      45.930  25.758  26.952  1.00  0.00     0.029 A 
ATOM     67  N   UNL A   1      43.751  26.101  26.842  1.00  0.00    -0.354 N 
ATOM     68  N   UNL A   1      41.637  29.391  28.615  1.00  0.00    -0.248 NA
ATOM     69  C   UNL A   1      40.299  27.484  28.768  1.00  0.00     0.031 C 
ATOM     70  C   UNL A   1      45.657  27.158  26.952  1.00  0.00     0.029 A 
ATOM     71  C   UNL A   1      44.276  27.343  27.035  1.00  0.00     0.049 A 
ATOM     72  H   UNL A   1      42.828  25.913  26.555  1.00  0.00     0.167 HD
ATOM     73  C   UNL A   1      42.153  28.434  27.756  1.00  0.00     0.074 A 
ATOM     74  C   UNL A   1      41.182  27.345  27.777  1.00  0.00     0.031 C 
ATOM     75  C   UNL A   1      43.462  28.490  27.376  1.00  0.00     0.034 A 
BRANCH  62  76
ATOM     76  C   UNL A   1      43.076  23.154  27.088  1.00  0.00     0.023 A 
ATOM     77  C   UNL A   1      41.770  23.697  27.195  1.00  0.00     0.012 A 
ATOM     78  C   UNL A   1      43.156  21.803  26.679  1.00  0.00     0.148 A 
ATOM     79  C   UNL A   1      40.621  22.916  27.017  1.00  0.00     0.002 A 
ATOM     80  C   UNL A   1      42.014  21.047  26.435  1.00  0.00     0.091 A 
ATOM     81  F   UNL A   1      44.333  21.181  26.623  1.00  0.00    -0.205 F 
ATOM     82  C   UNL A   1      40.744  21.586  26.641  1.00  0.00     0.022 A 
BRANCH  80  83
ATOM     83  S   UNL A   1      42.110  19.329  25.904  1.00  0.00     0.127 S 
ATOM     84  O   UNL A   1      42.669  18.689  27.091  1.00  0.00    -0.237 OA
ATOM     85  O   UNL A   1      40.704  19.026  25.636  1.00  0.00    -0.237 OA
ATOM     86  O   UNL A   1      42.959  19.324  24.719  1.00  0.00    -0.744 OA
ENDBRANCH  80  83
ENDBRANCH  62  76
BRANCH  63  87
ATOM     87  C   UNL A   1      39.242  29.391  31.284  1.00  0.00     0.023 A 
ATOM     88  C   UNL A   1      38.493  28.507  32.090  1.00  0.00     0.012 A 
ATOM     89  C   UNL A   1      38.838  30.742  31.231  1.00  0.00     0.148 A 
ATOM     90  C   UNL A   1      37.413  28.961  32.857  1.00  0.00     0.002 A 
ATOM     91  C   UNL A   1      37.757  31.188  31.990  1.00  0.00     0.091 A 
ATOM     92  F   UNL A   1      39.568  31.606  30.516  1.00  0.00    -0.205 F 
ATOM     93  C   UNL A   1      37.052  30.304  32.817  1.00  0.00     0.022 A 
BRANCH  91  94
ATOM     94  S   UNL A   1      37.254  32.914  32.014  1.00  0.00     0.127 S 
ATOM     95  O   UNL A   1      36.090  32.879  32.899  1.00  0.00    -0.237 OA
ATOM     96  O   UNL A   1      38.433  33.563  32.577  1.00  0.00    -0.237 OA
ATOM     97  O   UNL A   1      36.944  33.254  30.630  1.00  0.00    -0.744 OA
ENDBRANCH  91  94
ENDBRANCH  63  87
BRANCH  75  98
ATOM     98  C   UNL A   1      44.179  29.806  27.504  1.00  0.00     0.023 A 
ATOM     99  C   UNL A   1      44.076  30.846  26.558  1.00  0.00     0.012 A 
ATOM    100  C   UNL A   1      44.882  30.033  28.697  1.00  0.00     0.148 A 
ATOM    101  C   UNL A   1      44.689  32.081  26.794  1.00  0.00     0.002 A 
ATOM    102  C   UNL A   1      45.440  31.276  28.952  1.00  0.00     0.091 A 
ATOM    103  F   UNL A   1      44.981  29.025  29.579  1.00  0.00    -0.205 F 
ATOM    104  C   UNL A   1      45.357  32.301  27.999  1.00  0.00     0.022 A 
BRANCH 102 105
ATOM    105  S   UNL A   1      46.193  31.636  30.539  1.00  0.00     0.127 S 
ATOM    106  O   UNL A   1      45.113  31.315  31.468  1.00  0.00    -0.237 OA
ATOM    107  O   UNL A   1      47.325  30.710  30.570  1.00  0.00    -0.237 OA
ATOM    108  O   UNL A   1      46.581  33.041  30.482  1.00  0.00    -0.744 OA
ENDBRANCH 102 105
ENDBRANCH  75  98
ENDBRANCH  49  50
ENDBRANCH  41  44
ENDBRANCH  39  40
ENDBRANCH   1  39
TORSDOF 20
ENDMDL
