MODEL 1
REMARK VINA RESULT:     -13.8      0.000      0.000
REMARK SMILES Cc1cccc(OC2(C(=O)NCCCCNC(=O)c3ccc(-c4c5nc(c(-c6cccc(S(=O)(=O)[O-])c6F)c6ccc([nH]6)c(-c6cccc(S(=O)(=O)[O-])c6F)c6nc(c(-c7cccc(S(=O)(=O)[O-])c7F)c7ccc4[nH]7)C=C6)C=C5)cc3)CCN(C(=O)c3cnc[nH]c3=O)CC2)c1
REMARK SMILES IDX 14 1 13 2 12 3 11 4 9 5 10 6 8 8 82 9 95 10 83 11 94 12
REMARK SMILES IDX 84 13 85 14 86 15 7 16 6 17 1 18 2 19 3 20 96 21 4 22 5 23
REMARK SMILES IDX 87 24 88 25 92 26 89 27 91 28 93 29 90 30 15 32 16 33 17 34
REMARK SMILES IDX 18 36 19 37 20 38 81 39 21 40 80 41 22 42 23 43 24 44 74 45
REMARK SMILES IDX 25 46 79 47 73 48 75 49 26 50 78 51 72 52 71 53 27 55 59 56
REMARK SMILES IDX 39 57 58 58 40 59 43 60 57 61 76 62 41 63 42 64 56 66 77 67
REMARK SMILES IDX 44 68 28 69 29 70 37 71 30 72 32 73 38 74 31 75 33 76 34 77
REMARK SMILES IDX 35 78 36 79 60 80 61 81 69 82 62 83 64 84 70 85 63 86 65 87
REMARK SMILES IDX 66 88 67 89 68 90 45 91 46 92 54 93 47 94 49 95 55 96 48 97
REMARK SMILES IDX 50 98 51 99 52 100 53 101
REMARK H PARENT 11 7 91 31 16 35 75 54 43 65
REMARK Flexibility Score: inf
ROOT
ATOM      1  C   UNL A   1      32.519  30.300  26.836  1.00  0.00     0.023 C 
ENDROOT
BRANCH   1   2
ATOM      2  C   UNL A   1      31.605  29.208  26.276  1.00  0.00     0.023 C 
BRANCH   2   3
ATOM      3  C   UNL A   1      31.780  27.734  26.732  1.00  0.00     0.116 C 
BRANCH   3   4
ATOM      4  N   UNL A   1      30.645  26.797  26.661  1.00  0.00    -0.353 N 
ATOM      5  C   UNL A   1      30.491  25.496  26.233  1.00  0.00     0.264 C 
ATOM      6  O   UNL A   1      29.600  24.859  26.813  1.00  0.00    -0.270 OA
ATOM      7  H   UNL A   1      29.805  27.190  26.994  1.00  0.00     0.163 HD
BRANCH   5   8
ATOM      8  C   UNL A   1      31.305  24.824  25.060  1.00  0.00     0.190 C 
ATOM      9  C   UNL A   1      32.778  25.035  25.339  1.00  0.00     0.080 C 
ATOM     10  C   UNL A   1      31.009  23.301  24.985  1.00  0.00     0.080 C 
ATOM     11  C   UNL A   1      33.796  24.215  24.594  1.00  0.00     0.124 C 
ATOM     12  C   UNL A   1      32.071  22.560  24.146  1.00  0.00     0.124 C 
ATOM     13  N   UNL A   1      33.397  22.831  24.691  1.00  0.00    -0.338 N 
ATOM     14  C   UNL A   1      33.998  22.021  25.643  1.00  0.00     0.261 C 
ATOM     15  O   UNL A   1      34.519  22.442  26.672  1.00  0.00    -0.269 OA
BRANCH   8  16
ATOM     16  O   UNL A   1      30.713  25.352  23.854  1.00  0.00    -0.477 OA
BRANCH  16  17
ATOM     17  C   UNL A   1      30.488  26.617  23.441  1.00  0.00     0.121 A 
ATOM     18  C   UNL A   1      27.880  29.343  23.046  1.00  0.00     0.044 C 
ATOM     19  C   UNL A   1      29.209  28.649  23.025  1.00  0.00    -0.047 A 
ATOM     20  C   UNL A   1      30.375  29.329  22.673  1.00  0.00     0.003 A 
ATOM     21  C   UNL A   1      29.280  27.291  23.367  1.00  0.00     0.049 A 
ATOM     22  C   UNL A   1      31.593  28.653  22.677  1.00  0.00     0.004 A 
ATOM     23  C   UNL A   1      31.645  27.311  23.069  1.00  0.00     0.046 A 
ENDBRANCH  16  17
ENDBRANCH   8  16
BRANCH  14  24
ATOM     24  C   UNL A   1      34.051  20.595  25.291  1.00  0.00     0.123 A 
ATOM     25  C   UNL A   1      32.943  19.842  25.281  1.00  0.00     0.132 A 
ATOM     26  C   UNL A   1      35.330  19.929  24.982  1.00  0.00     0.263 A 
ATOM     27  N   UNL A   1      32.903  18.510  24.941  1.00  0.00    -0.246 NA
ATOM     28  N   UNL A   1      35.227  18.609  24.651  1.00  0.00    -0.312 N 
ATOM     29  O   UNL A   1      36.421  20.487  25.024  1.00  0.00    -0.269 OA
ATOM     30  C   UNL A   1      34.031  17.958  24.645  1.00  0.00     0.199 A 
ATOM     31  H   UNL A   1      36.043  18.114  24.410  1.00  0.00     0.171 HD
ENDBRANCH  14  24
ENDBRANCH   5   8
ENDBRANCH   3   4
ENDBRANCH   2   3
ENDBRANCH   1   2
BRANCH   1  32
ATOM     32  C   UNL A   1      33.955  29.879  27.114  1.00  0.00     0.116 C 
BRANCH  32  33
ATOM     33  N   UNL A   1      34.835  31.040  27.295  1.00  0.00    -0.352 N 
ATOM     34  C   UNL A   1      36.034  31.222  27.945  1.00  0.00     0.251 C 
ATOM     35  H   UNL A   1      34.497  31.858  26.862  1.00  0.00     0.163 HD
ATOM     36  O   UNL A   1      36.365  32.376  28.236  1.00  0.00    -0.269 OA
BRANCH  34  37
ATOM     37  C   UNL A   1      36.931  30.087  28.215  1.00  0.00     0.039 A 
ATOM     38  C   UNL A   1      36.859  29.309  29.376  1.00  0.00     0.014 A 
ATOM     39  C   UNL A   1      38.008  29.919  27.361  1.00  0.00     0.014 A 
ATOM     40  C   UNL A   1      37.950  28.506  29.711  1.00  0.00     0.010 A 
ATOM     41  C   UNL A   1      38.874  28.893  27.501  1.00  0.00     0.010 A 
ATOM     42  C   UNL A   1      38.981  28.395  28.786  1.00  0.00    -0.014 A 
BRANCH  42  43
ATOM     43  C   UNL A   1      40.339  27.957  29.018  1.00  0.00     0.031 A 
ATOM     44  C   UNL A   1      40.672  26.565  28.770  1.00  0.00     0.074 A 
ATOM     45  C   UNL A   1      41.256  28.955  28.993  1.00  0.00     0.049 A 
ATOM     46  N   UNL A   1      41.824  26.055  29.001  1.00  0.00    -0.248 NA
ATOM     47  C   UNL A   1      39.698  25.624  28.238  1.00  0.00     0.031 C 
ATOM     48  C   UNL A   1      42.628  28.939  28.505  1.00  0.00     0.029 A 
ATOM     49  N   UNL A   1      41.088  30.274  29.382  1.00  0.00    -0.354 N 
ATOM     50  C   UNL A   1      41.848  24.832  28.371  1.00  0.00     0.074 A 
ATOM     51  C   UNL A   1      40.468  24.551  28.058  1.00  0.00     0.031 C 
ATOM     52  C   UNL A   1      43.231  30.094  28.857  1.00  0.00     0.029 A 
ATOM     53  C   UNL A   1      42.321  30.805  29.744  1.00  0.00     0.049 A 
ATOM     54  H   UNL A   1      40.231  30.758  29.399  1.00  0.00     0.167 HD
ATOM     55  C   UNL A   1      43.063  24.314  28.039  1.00  0.00     0.034 A 
ATOM     56  C   UNL A   1      42.550  31.043  31.076  1.00  0.00     0.034 A 
ATOM     57  C   UNL A   1      44.141  25.196  28.545  1.00  0.00     0.049 A 
ATOM     58  C   UNL A   1      43.542  30.056  31.677  1.00  0.00     0.074 A 
ATOM     59  C   UNL A   1      44.926  26.167  27.942  1.00  0.00     0.029 A 
ATOM     60  N   UNL A   1      44.267  25.400  29.918  1.00  0.00    -0.354 N 
ATOM     61  N   UNL A   1      43.996  28.997  31.062  1.00  0.00    -0.248 NA
ATOM     62  C   UNL A   1      44.118  30.196  33.011  1.00  0.00     0.031 C 
ATOM     63  C   UNL A   1      45.432  27.023  28.965  1.00  0.00     0.029 A 
ATOM     64  C   UNL A   1      44.989  26.555  30.193  1.00  0.00     0.049 A 
ATOM     65  H   UNL A   1      43.892  24.803  30.605  1.00  0.00     0.167 HD
ATOM     66  C   UNL A   1      44.770  28.250  31.904  1.00  0.00     0.074 A 
ATOM     67  C   UNL A   1      44.889  29.095  33.083  1.00  0.00     0.031 C 
ATOM     68  C   UNL A   1      45.194  26.985  31.580  1.00  0.00     0.034 A 
BRANCH  55  69
ATOM     69  C   UNL A   1      43.307  23.200  27.030  1.00  0.00     0.023 A 
ATOM     70  C   UNL A   1      44.004  23.549  25.852  1.00  0.00     0.012 A 
ATOM     71  C   UNL A   1      42.878  21.850  27.104  1.00  0.00     0.148 A 
ATOM     72  C   UNL A   1      44.204  22.651  24.796  1.00  0.00     0.002 A 
ATOM     73  C   UNL A   1      43.049  20.958  26.041  1.00  0.00     0.091 A 
ATOM     74  F   UNL A   1      42.341  21.373  28.221  1.00  0.00    -0.205 F 
ATOM     75  C   UNL A   1      43.709  21.358  24.881  1.00  0.00     0.022 A 
BRANCH  73  76
ATOM     76  S   UNL A   1      42.416  19.266  26.080  1.00  0.00     0.127 S 
ATOM     77  O   UNL A   1      41.000  19.463  25.760  1.00  0.00    -0.237 OA
ATOM     78  O   UNL A   1      43.193  18.618  25.025  1.00  0.00    -0.237 OA
ATOM     79  O   UNL A   1      42.658  18.761  27.426  1.00  0.00    -0.744 OA
ENDBRANCH  73  76
ENDBRANCH  55  69
BRANCH  56  80
ATOM     80  C   UNL A   1      41.305  31.565  31.754  1.00  0.00     0.023 A 
ATOM     81  C   UNL A   1      40.754  32.760  31.220  1.00  0.00     0.012 A 
ATOM     82  C   UNL A   1      40.462  30.709  32.488  1.00  0.00     0.148 A 
ATOM     83  C   UNL A   1      39.373  32.978  31.224  1.00  0.00     0.002 A 
ATOM     84  C   UNL A   1      39.084  30.948  32.507  1.00  0.00     0.091 A 
ATOM     85  F   UNL A   1      40.996  29.645  33.100  1.00  0.00    -0.205 F 
ATOM     86  C   UNL A   1      38.533  32.044  31.824  1.00  0.00     0.022 A 
BRANCH  84  87
ATOM     87  S   UNL A   1      37.963  29.801  33.324  1.00  0.00     0.127 S 
ATOM     88  O   UNL A   1      38.508  28.511  32.908  1.00  0.00    -0.237 OA
ATOM     89  O   UNL A   1      38.144  30.106  34.742  1.00  0.00    -0.237 OA
ATOM     90  O   UNL A   1      36.644  30.140  32.808  1.00  0.00    -0.744 OA
ENDBRANCH  84  87
ENDBRANCH  56  80
BRANCH  68  91
ATOM     91  C   UNL A   1      45.836  26.013  32.555  1.00  0.00     0.023 A 
ATOM     92  C   UNL A   1      47.229  25.944  32.748  1.00  0.00     0.012 A 
ATOM     93  C   UNL A   1      45.038  25.228  33.429  1.00  0.00     0.148 A 
ATOM     94  C   UNL A   1      47.805  25.092  33.696  1.00  0.00     0.002 A 
ATOM     95  C   UNL A   1      45.609  24.490  34.460  1.00  0.00     0.091 A 
ATOM     96  F   UNL A   1      43.709  25.169  33.254  1.00  0.00    -0.205 F 
ATOM     97  C   UNL A   1      46.996  24.385  34.571  1.00  0.00     0.022 A 
BRANCH  95  98
ATOM     98  S   UNL A   1      44.599  23.797  35.775  1.00  0.00     0.127 S 
ATOM     99  O   UNL A   1      45.610  23.269  36.689  1.00  0.00    -0.237 OA
ATOM    100  O   UNL A   1      43.884  24.975  36.272  1.00  0.00    -0.237 OA
ATOM    101  O   UNL A   1      43.744  22.814  35.124  1.00  0.00    -0.744 OA
ENDBRANCH  95  98
ENDBRANCH  68  91
ENDBRANCH  42  43
ENDBRANCH  34  37
ENDBRANCH  32  33
ENDBRANCH   1  32
TORSDOF 17
ENDMDL
MODEL 2
REMARK VINA RESULT:     -13.6      3.937      9.753
REMARK SMILES Cc1cccc(OC2(C(=O)NCCCCNC(=O)c3ccc(-c4c5nc(c(-c6cccc(S(=O)(=O)[O-])c6F)c6ccc([nH]6)c(-c6cccc(S(=O)(=O)[O-])c6F)c6nc(c(-c7cccc(S(=O)(=O)[O-])c7F)c7ccc4[nH]7)C=C6)C=C5)cc3)CCN(C(=O)c3cnc[nH]c3=O)CC2)c1
REMARK SMILES IDX 14 1 13 2 12 3 11 4 9 5 10 6 8 8 82 9 95 10 83 11 94 12
REMARK SMILES IDX 84 13 85 14 86 15 7 16 6 17 1 18 2 19 3 20 96 21 4 22 5 23
REMARK SMILES IDX 87 24 88 25 92 26 89 27 91 28 93 29 90 30 15 32 16 33 17 34
REMARK SMILES IDX 18 36 19 37 20 38 81 39 21 40 80 41 22 42 23 43 24 44 74 45
REMARK SMILES IDX 25 46 79 47 73 48 75 49 26 50 78 51 72 52 71 53 27 55 59 56
REMARK SMILES IDX 39 57 58 58 40 59 43 60 57 61 76 62 41 63 42 64 56 66 77 67
REMARK SMILES IDX 44 68 28 69 29 70 37 71 30 72 32 73 38 74 31 75 33 76 34 77
REMARK SMILES IDX 35 78 36 79 60 80 61 81 69 82 62 83 64 84 70 85 63 86 65 87
REMARK SMILES IDX 66 88 67 89 68 90 45 91 46 92 54 93 47 94 49 95 55 96 48 97
REMARK SMILES IDX 50 98 51 99 52 100 53 101
REMARK H PARENT 11 7 91 31 16 35 75 54 43 65
REMARK Flexibility Score: inf
ROOT
ATOM      1  C   UNL A   1      37.556  21.543  25.359  1.00  0.00     0.023 C 
ENDROOT
BRANCH   1   2
ATOM      2  C   UNL A   1      36.191  21.609  24.669  1.00  0.00     0.023 C 
BRANCH   2   3
ATOM      3  C   UNL A   1      35.781  22.876  23.872  1.00  0.00     0.116 C 
BRANCH   3   4
ATOM      4  N   UNL A   1      34.845  22.768  22.739  1.00  0.00    -0.353 N 
ATOM      5  C   UNL A   1      33.712  23.450  22.352  1.00  0.00     0.264 C 
ATOM      6  O   UNL A   1      33.514  23.483  21.129  1.00  0.00    -0.270 OA
ATOM      7  H   UNL A   1      35.084  22.043  22.115  1.00  0.00     0.163 HD
BRANCH   5   8
ATOM      8  C   UNL A   1      32.667  24.106  23.337  1.00  0.00     0.190 C 
ATOM      9  C   UNL A   1      33.434  24.973  24.313  1.00  0.00     0.080 C 
ATOM     10  C   UNL A   1      31.651  24.985  22.557  1.00  0.00     0.080 C 
ATOM     11  C   UNL A   1      32.693  25.990  25.138  1.00  0.00     0.124 C 
ATOM     12  C   UNL A   1      30.896  25.946  23.499  1.00  0.00     0.124 C 
ATOM     13  N   UNL A   1      31.857  26.753  24.242  1.00  0.00    -0.338 N 
ATOM     14  C   UNL A   1      32.298  27.991  23.799  1.00  0.00     0.261 C 
ATOM     15  O   UNL A   1      33.479  28.322  23.750  1.00  0.00    -0.269 OA
BRANCH   8  16
ATOM     16  O   UNL A   1      31.873  23.001  23.818  1.00  0.00    -0.477 OA
BRANCH  16  17
ATOM     17  C   UNL A   1      32.204  21.741  24.171  1.00  0.00     0.121 A 
ATOM     18  C   UNL A   1      32.664  18.184  22.936  1.00  0.00     0.044 C 
ATOM     19  C   UNL A   1      32.652  19.367  23.858  1.00  0.00    -0.047 A 
ATOM     20  C   UNL A   1      33.113  19.266  25.170  1.00  0.00     0.003 A 
ATOM     21  C   UNL A   1      32.168  20.597  23.391  1.00  0.00     0.049 A 
ATOM     22  C   UNL A   1      33.097  20.389  25.993  1.00  0.00     0.004 A 
ATOM     23  C   UNL A   1      32.655  21.617  25.490  1.00  0.00     0.046 A 
ENDBRANCH  16  17
ENDBRANCH   8  16
BRANCH  14  24
ATOM     24  C   UNL A   1      31.227  28.943  23.468  1.00  0.00     0.123 A 
ATOM     25  C   UNL A   1      30.614  28.907  22.277  1.00  0.00     0.132 A 
ATOM     26  C   UNL A   1      30.821  30.000  24.411  1.00  0.00     0.263 A 
ATOM     27  N   UNL A   1      29.590  29.743  21.897  1.00  0.00    -0.246 NA
ATOM     28  N   UNL A   1      29.800  30.796  23.979  1.00  0.00    -0.312 N 
ATOM     29  O   UNL A   1      31.349  30.184  25.502  1.00  0.00    -0.269 OA
ATOM     30  C   UNL A   1      29.232  30.640  22.752  1.00  0.00     0.199 A 
ATOM     31  H   UNL A   1      29.466  31.506  24.575  1.00  0.00     0.171 HD
ENDBRANCH  14  24
ENDBRANCH   5   8
ENDBRANCH   3   4
ENDBRANCH   2   3
ENDBRANCH   1   2
BRANCH   1  32
ATOM     32  C   UNL A   1      38.028  22.835  26.010  1.00  0.00     0.116 C 
BRANCH  32  33
ATOM     33  N   UNL A   1      39.205  22.614  26.859  1.00  0.00    -0.352 N 
ATOM     34  C   UNL A   1      40.175  23.452  27.359  1.00  0.00     0.251 C 
ATOM     35  H   UNL A   1      39.324  21.674  27.126  1.00  0.00     0.163 HD
ATOM     36  O   UNL A   1      41.234  22.945  27.744  1.00  0.00    -0.269 OA
BRANCH  34  37
ATOM     37  C   UNL A   1      39.931  24.895  27.508  1.00  0.00     0.039 A 
ATOM     38  C   UNL A   1      40.324  25.843  26.557  1.00  0.00     0.014 A 
ATOM     39  C   UNL A   1      39.462  25.332  28.735  1.00  0.00     0.014 A 
ATOM     40  C   UNL A   1      40.379  27.186  26.934  1.00  0.00     0.010 A 
ATOM     41  C   UNL A   1      39.176  26.630  28.968  1.00  0.00     0.010 A 
ATOM     42  C   UNL A   1      39.878  27.528  28.185  1.00  0.00    -0.014 A 
BRANCH  42  43
ATOM     43  C   UNL A   1      40.142  28.726  28.949  1.00  0.00     0.031 A 
ATOM     44  C   UNL A   1      39.210  29.836  28.847  1.00  0.00     0.074 A 
ATOM     45  C   UNL A   1      40.952  28.534  30.019  1.00  0.00     0.049 A 
ATOM     46  N   UNL A   1      39.377  30.964  29.428  1.00  0.00    -0.248 NA
ATOM     47  C   UNL A   1      37.995  29.748  28.051  1.00  0.00     0.031 C 
ATOM     48  C   UNL A   1      40.923  29.172  31.328  1.00  0.00     0.029 A 
ATOM     49  N   UNL A   1      41.990  27.626  30.147  1.00  0.00    -0.354 N 
ATOM     50  C   UNL A   1      38.176  31.629  29.352  1.00  0.00     0.074 A 
ATOM     51  C   UNL A   1      37.417  30.908  28.361  1.00  0.00     0.031 C 
ATOM     52  C   UNL A   1      42.032  28.821  32.011  1.00  0.00     0.029 A 
ATOM     53  C   UNL A   1      42.898  28.099  31.088  1.00  0.00     0.049 A 
ATOM     54  H   UNL A   1      42.072  26.780  29.651  1.00  0.00     0.167 HD
ATOM     55  C   UNL A   1      37.926  32.595  30.281  1.00  0.00     0.034 A 
ATOM     56  C   UNL A   1      44.113  28.550  30.636  1.00  0.00     0.034 A 
ATOM     57  C   UNL A   1      39.113  32.776  31.149  1.00  0.00     0.049 A 
ATOM     58  C   UNL A   1      44.237  30.065  30.729  1.00  0.00     0.074 A 
ATOM     59  C   UNL A   1      39.433  32.314  32.417  1.00  0.00     0.029 A 
ATOM     60  N   UNL A   1      40.312  33.207  30.584  1.00  0.00    -0.354 N 
ATOM     61  N   UNL A   1      43.254  30.871  31.033  1.00  0.00    -0.248 NA
ATOM     62  C   UNL A   1      45.484  30.792  30.509  1.00  0.00     0.031 C 
ATOM     63  C   UNL A   1      40.851  32.369  32.560  1.00  0.00     0.029 A 
ATOM     64  C   UNL A   1      41.394  32.898  31.399  1.00  0.00     0.049 A 
ATOM     65  H   UNL A   1      40.384  33.670  29.718  1.00  0.00     0.167 HD
ATOM     66  C   UNL A   1      43.649  32.173  30.914  1.00  0.00     0.074 A 
ATOM     67  C   UNL A   1      45.081  32.066  30.674  1.00  0.00     0.031 C 
ATOM     68  C   UNL A   1      42.759  33.216  30.968  1.00  0.00     0.034 A 
BRANCH  55  69
ATOM     69  C   UNL A   1      36.557  33.172  30.614  1.00  0.00     0.023 A 
ATOM     70  C   UNL A   1      36.015  32.839  31.875  1.00  0.00     0.012 A 
ATOM     71  C   UNL A   1      35.727  33.974  29.790  1.00  0.00     0.148 A 
ATOM     72  C   UNL A   1      34.724  33.213  32.268  1.00  0.00     0.002 A 
ATOM     73  C   UNL A   1      34.426  34.326  30.165  1.00  0.00     0.091 A 
ATOM     74  F   UNL A   1      36.186  34.466  28.645  1.00  0.00    -0.205 F 
ATOM     75  C   UNL A   1      33.920  33.941  31.405  1.00  0.00     0.022 A 
BRANCH  73  76
ATOM     76  S   UNL A   1      33.321  35.258  29.082  1.00  0.00     0.127 S 
ATOM     77  O   UNL A   1      32.451  35.937  30.044  1.00  0.00    -0.237 OA
ATOM     78  O   UNL A   1      34.248  36.138  28.373  1.00  0.00    -0.237 OA
ATOM     79  O   UNL A   1      32.635  34.280  28.246  1.00  0.00    -0.744 OA
ENDBRANCH  73  76
ENDBRANCH  55  69
BRANCH  56  80
ATOM     80  C   UNL A   1      44.621  27.692  29.502  1.00  0.00     0.023 A 
ATOM     81  C   UNL A   1      44.795  26.312  29.789  1.00  0.00     0.012 A 
ATOM     82  C   UNL A   1      44.445  28.079  28.160  1.00  0.00     0.148 A 
ATOM     83  C   UNL A   1      44.575  25.342  28.806  1.00  0.00     0.002 A 
ATOM     84  C   UNL A   1      44.250  27.102  27.179  1.00  0.00     0.091 A 
ATOM     85  F   UNL A   1      44.406  29.385  27.865  1.00  0.00    -0.205 F 
ATOM     86  C   UNL A   1      44.252  25.738  27.512  1.00  0.00     0.022 A 
BRANCH  84  87
ATOM     87  S   UNL A   1      43.892  27.565  25.478  1.00  0.00     0.127 S 
ATOM     88  O   UNL A   1      45.221  27.907  24.979  1.00  0.00    -0.237 OA
ATOM     89  O   UNL A   1      43.327  26.343  24.907  1.00  0.00    -0.237 OA
ATOM     90  O   UNL A   1      42.941  28.663  25.584  1.00  0.00    -0.744 OA
ENDBRANCH  84  87
ENDBRANCH  56  80
BRANCH  68  91
ATOM     91  C   UNL A   1      43.087  34.652  30.597  1.00  0.00     0.023 A 
ATOM     92  C   UNL A   1      43.521  35.598  31.545  1.00  0.00     0.012 A 
ATOM     93  C   UNL A   1      43.112  35.063  29.237  1.00  0.00     0.148 A 
ATOM     94  C   UNL A   1      43.883  36.900  31.182  1.00  0.00     0.002 A 
ATOM     95  C   UNL A   1      43.606  36.311  28.871  1.00  0.00     0.091 A 
ATOM     96  F   UNL A   1      42.633  34.253  28.282  1.00  0.00    -0.205 F 
ATOM     97  C   UNL A   1      43.952  37.249  29.844  1.00  0.00     0.022 A 
BRANCH  95  98
ATOM     98  S   UNL A   1      43.977  36.693  27.154  1.00  0.00     0.127 S 
ATOM     99  O   UNL A   1      42.641  36.814  26.574  1.00  0.00    -0.237 OA
ATOM    100  O   UNL A   1      44.709  37.957  27.267  1.00  0.00    -0.237 OA
ATOM    101  O   UNL A   1      44.787  35.579  26.680  1.00  0.00    -0.744 OA
ENDBRANCH  95  98
ENDBRANCH  68  91
ENDBRANCH  42  43
ENDBRANCH  34  37
ENDBRANCH  32  33
ENDBRANCH   1  32
TORSDOF 17
ENDMDL
MODEL 3
REMARK VINA RESULT:     -13.3      3.775      9.538
REMARK SMILES Cc1cccc(OC2(C(=O)NCCCCNC(=O)c3ccc(-c4c5nc(c(-c6cccc(S(=O)(=O)[O-])c6F)c6ccc([nH]6)c(-c6cccc(S(=O)(=O)[O-])c6F)c6nc(c(-c7cccc(S(=O)(=O)[O-])c7F)c7ccc4[nH]7)C=C6)C=C5)cc3)CCN(C(=O)c3cnc[nH]c3=O)CC2)c1
REMARK SMILES IDX 14 1 13 2 12 3 11 4 9 5 10 6 8 8 82 9 95 10 83 11 94 12
REMARK SMILES IDX 84 13 85 14 86 15 7 16 6 17 1 18 2 19 3 20 96 21 4 22 5 23
REMARK SMILES IDX 87 24 88 25 92 26 89 27 91 28 93 29 90 30 15 32 16 33 17 34
REMARK SMILES IDX 18 36 19 37 20 38 81 39 21 40 80 41 22 42 23 43 24 44 74 45
REMARK SMILES IDX 25 46 79 47 73 48 75 49 26 50 78 51 72 52 71 53 27 55 59 56
REMARK SMILES IDX 39 57 58 58 40 59 43 60 57 61 76 62 41 63 42 64 56 66 77 67
REMARK SMILES IDX 44 68 28 69 29 70 37 71 30 72 32 73 38 74 31 75 33 76 34 77
REMARK SMILES IDX 35 78 36 79 60 80 61 81 69 82 62 83 64 84 70 85 63 86 65 87
REMARK SMILES IDX 66 88 67 89 68 90 45 91 46 92 54 93 47 94 49 95 55 96 48 97
REMARK SMILES IDX 50 98 51 99 52 100 53 101
REMARK H PARENT 11 7 91 31 16 35 75 54 43 65
REMARK Flexibility Score: inf
ROOT
ATOM      1  C   UNL A   1      39.323  21.566  25.966  1.00  0.00     0.023 C 
ENDROOT
BRANCH   1   2
ATOM      2  C   UNL A   1      38.221  22.627  26.013  1.00  0.00     0.023 C 
BRANCH   2   3
ATOM      3  C   UNL A   1      36.760  22.251  25.646  1.00  0.00     0.116 C 
BRANCH   3   4
ATOM      4  N   UNL A   1      35.705  22.285  26.674  1.00  0.00    -0.353 N 
ATOM      5  C   UNL A   1      34.339  22.102  26.663  1.00  0.00     0.264 C 
ATOM      6  O   UNL A   1      33.865  21.652  27.716  1.00  0.00    -0.270 OA
ATOM      7  H   UNL A   1      36.056  22.482  27.573  1.00  0.00     0.163 HD
BRANCH   5   8
ATOM      8  C   UNL A   1      33.383  22.477  25.465  1.00  0.00     0.190 C 
ATOM      9  C   UNL A   1      31.958  22.406  25.972  1.00  0.00     0.080 C 
ATOM     10  C   UNL A   1      33.676  23.916  24.955  1.00  0.00     0.080 C 
ATOM     11  C   UNL A   1      30.856  23.045  25.171  1.00  0.00     0.124 C 
ATOM     12  C   UNL A   1      32.517  24.454  24.090  1.00  0.00     0.124 C 
ATOM     13  N   UNL A   1      31.273  24.388  24.849  1.00  0.00    -0.338 N 
ATOM     14  C   UNL A   1      30.807  25.442  25.620  1.00  0.00     0.261 C 
ATOM     15  O   UNL A   1      30.422  25.326  26.780  1.00  0.00    -0.269 OA
BRANCH   8  16
ATOM     16  O   UNL A   1      33.808  21.630  24.377  1.00  0.00    -0.477 OA
BRANCH  16  17
ATOM     17  C   UNL A   1      33.635  20.312  24.142  1.00  0.00     0.121 A 
ATOM     18  C   UNL A   1      34.898  16.821  24.921  1.00  0.00     0.044 C 
ATOM     19  C   UNL A   1      34.052  17.921  24.351  1.00  0.00    -0.047 A 
ATOM     20  C   UNL A   1      32.911  17.641  23.601  1.00  0.00     0.003 A 
ATOM     21  C   UNL A   1      34.418  19.255  24.577  1.00  0.00     0.049 A 
ATOM     22  C   UNL A   1      32.144  18.690  23.098  1.00  0.00     0.004 A 
ATOM     23  C   UNL A   1      32.502  20.012  23.378  1.00  0.00     0.046 A 
ENDBRANCH  16  17
ENDBRANCH   8  16
BRANCH  14  24
ATOM     24  C   UNL A   1      30.716  26.728  24.914  1.00  0.00     0.123 A 
ATOM     25  C   UNL A   1      31.590  27.714  25.157  1.00  0.00     0.132 A 
ATOM     26  C   UNL A   1      29.635  26.998  23.948  1.00  0.00     0.263 A 
ATOM     27  N   UNL A   1      31.589  28.936  24.524  1.00  0.00    -0.246 NA
ATOM     28  N   UNL A   1      29.688  28.225  23.353  1.00  0.00    -0.312 N 
ATOM     29  O   UNL A   1      28.735  26.207  23.689  1.00  0.00    -0.269 OA
ATOM     30  C   UNL A   1      30.651  29.136  23.661  1.00  0.00     0.199 A 
ATOM     31  H   UNL A   1      29.008  28.456  22.679  1.00  0.00     0.171 HD
ENDBRANCH  14  24
ENDBRANCH   5   8
ENDBRANCH   3   4
ENDBRANCH   2   3
ENDBRANCH   1   2
BRANCH   1  32
ATOM     32  C   UNL A   1      40.249  21.524  27.173  1.00  0.00     0.116 C 
BRANCH  32  33
ATOM     33  N   UNL A   1      41.623  21.895  26.815  1.00  0.00    -0.352 N 
ATOM     34  C   UNL A   1      42.219  23.089  26.479  1.00  0.00     0.251 C 
ATOM     35  H   UNL A   1      42.246  21.132  26.814  1.00  0.00     0.163 HD
ATOM     36  O   UNL A   1      43.300  23.048  25.883  1.00  0.00    -0.269 OA
BRANCH  34  37
ATOM     37  C   UNL A   1      41.630  24.374  26.889  1.00  0.00     0.039 A 
ATOM     38  C   UNL A   1      41.378  25.422  25.997  1.00  0.00     0.014 A 
ATOM     39  C   UNL A   1      41.506  24.606  28.248  1.00  0.00     0.014 A 
ATOM     40  C   UNL A   1      41.164  26.701  26.513  1.00  0.00     0.010 A 
ATOM     41  C   UNL A   1      40.952  25.737  28.730  1.00  0.00     0.010 A 
ATOM     42  C   UNL A   1      41.047  26.833  27.892  1.00  0.00    -0.014 A 
BRANCH  42  43
ATOM     43  C   UNL A   1      41.195  28.032  28.685  1.00  0.00     0.031 A 
ATOM     44  C   UNL A   1      40.183  29.068  28.576  1.00  0.00     0.074 A 
ATOM     45  C   UNL A   1      41.988  27.882  29.774  1.00  0.00     0.049 A 
ATOM     46  N   UNL A   1      40.245  30.194  29.182  1.00  0.00    -0.248 NA
ATOM     47  C   UNL A   1      39.000  28.901  27.744  1.00  0.00     0.031 C 
ATOM     48  C   UNL A   1      41.874  28.489  31.093  1.00  0.00     0.029 A 
ATOM     49  N   UNL A   1      43.091  27.055  29.916  1.00  0.00    -0.354 N 
ATOM     50  C   UNL A   1      38.998  30.765  29.083  1.00  0.00     0.074 A 
ATOM     51  C   UNL A   1      38.325  30.007  28.057  1.00  0.00     0.031 C 
ATOM     52  C   UNL A   1      42.988  28.211  31.801  1.00  0.00     0.029 A 
ATOM     53  C   UNL A   1      43.933  27.577  30.891  1.00  0.00     0.049 A 
ATOM     54  H   UNL A   1      43.252  26.228  29.407  1.00  0.00     0.167 HD
ATOM     55  C   UNL A   1      38.648  31.689  30.021  1.00  0.00     0.034 A 
ATOM     56  C   UNL A   1      45.120  28.131  30.483  1.00  0.00     0.034 A 
ATOM     57  C   UNL A   1      39.793  31.944  30.926  1.00  0.00     0.049 A 
ATOM     58  C   UNL A   1      45.123  29.649  30.607  1.00  0.00     0.074 A 
ATOM     59  C   UNL A   1      40.113  31.483  32.195  1.00  0.00     0.029 A 
ATOM     60  N   UNL A   1      40.970  32.478  30.404  1.00  0.00    -0.354 N 
ATOM     61  N   UNL A   1      44.072  30.369  30.896  1.00  0.00    -0.248 NA
ATOM     62  C   UNL A   1      46.315  30.474  30.435  1.00  0.00     0.031 C 
ATOM     63  C   UNL A   1      41.518  31.645  32.380  1.00  0.00     0.029 A 
ATOM     64  C   UNL A   1      42.050  32.238  31.245  1.00  0.00     0.049 A 
ATOM     65  H   UNL A   1      41.029  32.963  29.550  1.00  0.00     0.167 HD
ATOM     66  C   UNL A   1      44.367  31.700  30.812  1.00  0.00     0.074 A 
ATOM     67  C   UNL A   1      45.809  31.709  30.611  1.00  0.00     0.031 C 
ATOM     68  C   UNL A   1      43.397  32.670  30.859  1.00  0.00     0.034 A 
BRANCH  55  69
ATOM     69  C   UNL A   1      37.229  32.151  30.326  1.00  0.00     0.023 A 
ATOM     70  C   UNL A   1      36.672  31.731  31.553  1.00  0.00     0.012 A 
ATOM     71  C   UNL A   1      36.370  32.922  29.502  1.00  0.00     0.148 A 
ATOM     72  C   UNL A   1      35.344  31.994  31.912  1.00  0.00     0.002 A 
ATOM     73  C   UNL A   1      35.035  33.163  29.841  1.00  0.00     0.091 A 
ATOM     74  F   UNL A   1      36.829  33.491  28.393  1.00  0.00    -0.205 F 
ATOM     75  C   UNL A   1      34.517  32.695  31.047  1.00  0.00     0.022 A 
BRANCH  73  76
ATOM     76  S   UNL A   1      33.900  34.053  28.753  1.00  0.00     0.127 S 
ATOM     77  O   UNL A   1      33.514  33.013  27.797  1.00  0.00    -0.237 OA
ATOM     78  O   UNL A   1      32.839  34.456  29.674  1.00  0.00    -0.237 OA
ATOM     79  O   UNL A   1      34.660  35.150  28.167  1.00  0.00    -0.744 OA
ENDBRANCH  73  76
ENDBRANCH  55  69
BRANCH  56  80
ATOM     80  C   UNL A   1      45.725  27.338  29.348  1.00  0.00     0.023 A 
ATOM     81  C   UNL A   1      46.046  25.984  29.631  1.00  0.00     0.012 A 
ATOM     82  C   UNL A   1      45.516  27.709  28.007  1.00  0.00     0.148 A 
ATOM     83  C   UNL A   1      45.938  25.000  28.643  1.00  0.00     0.002 A 
ATOM     84  C   UNL A   1      45.433  26.721  27.021  1.00  0.00     0.091 A 
ATOM     85  F   UNL A   1      45.336  29.004  27.716  1.00  0.00    -0.205 F 
ATOM     86  C   UNL A   1      45.581  25.364  27.348  1.00  0.00     0.022 A 
BRANCH  84  87
ATOM     87  S   UNL A   1      45.036  27.150  25.319  1.00  0.00     0.127 S 
ATOM     88  O   UNL A   1      44.742  25.839  24.746  1.00  0.00    -0.237 OA
ATOM     89  O   UNL A   1      43.872  28.026  25.455  1.00  0.00    -0.237 OA
ATOM     90  O   UNL A   1      46.227  27.821  24.817  1.00  0.00    -0.744 OA
ENDBRANCH  84  87
ENDBRANCH  56  80
BRANCH  68  91
ATOM     91  C   UNL A   1      43.621  34.134  30.523  1.00  0.00     0.023 A 
ATOM     92  C   UNL A   1      43.891  35.103  31.509  1.00  0.00     0.012 A 
ATOM     93  C   UNL A   1      43.717  34.564  29.173  1.00  0.00     0.148 A 
ATOM     94  C   UNL A   1      44.162  36.437  31.184  1.00  0.00     0.002 A 
ATOM     95  C   UNL A   1      44.123  35.855  28.854  1.00  0.00     0.091 A 
ATOM     96  F   UNL A   1      43.391  33.726  28.177  1.00  0.00    -0.205 F 
ATOM     97  C   UNL A   1      44.305  36.808  29.857  1.00  0.00     0.022 A 
BRANCH  95  98
ATOM     98  S   UNL A   1      44.594  36.291  27.175  1.00  0.00     0.127 S 
ATOM     99  O   UNL A   1      45.634  35.306  26.885  1.00  0.00    -0.237 OA
ATOM    100  O   UNL A   1      43.344  36.091  26.439  1.00  0.00    -0.237 OA
ATOM    101  O   UNL A   1      45.025  37.681  27.246  1.00  0.00    -0.744 OA
ENDBRANCH  95  98
ENDBRANCH  68  91
ENDBRANCH  42  43
ENDBRANCH  34  37
ENDBRANCH  32  33
ENDBRANCH   1  32
TORSDOF 17
ENDMDL
