MODEL 1
REMARK VINA RESULT:     -12.1      0.000      0.000
REMARK SMILES O=C(NCCCCNC(=O)[C@H](Cc1cccc(O)c1)Cc1cccc(F)c1)c1ccc(-c2c3nc(c(-c4cccc(S(=O)(=O)[O-])c4F)c4ccc([nH]4)c(-c4cccc(S(=O)(=O)[O-])c4F)c4nc(c(-c5cccc(S(=O)(=O)[O-])c5F)c5ccc2[nH]5)C=C4)C=C3)cc1
REMARK SMILES IDX 5 1 4 2 3 3 1 4 2 5 28 7 29 8 90 9 30 10 89 11 31 12 32 13
REMARK SMILES IDX 33 14 83 15 34 16 88 17 82 18 84 19 35 20 87 21 81 22 80 23
REMARK SMILES IDX 36 25 68 26 48 27 67 28 49 29 52 30 66 31 85 32 50 33 51 34
REMARK SMILES IDX 65 36 86 37 53 38 37 39 38 40 46 41 39 42 41 43 47 44 40 45
REMARK SMILES IDX 42 46 43 47 44 48 45 49 69 50 70 51 78 52 71 53 73 54 79 55
REMARK SMILES IDX 72 56 74 57 75 58 76 59 77 60 54 61 55 62 63 63 56 64 58 65
REMARK SMILES IDX 64 66 57 67 59 68 60 69 61 70 62 71 6 72 7 73 8 74 9 75
REMARK SMILES IDX 10 77 11 78 20 79 21 80 22 81 27 82 23 83 25 84 24 85 26 86
REMARK SMILES IDX 12 87 13 88 14 89 19 90 15 91 17 92 16 93 18 94
REMARK H PARENT 3 6 84 24 52 35 8 76 18 95
REMARK Flexibility Score: inf
ROOT
ATOM      1  C   UNL A   1      31.861  28.319  25.265  1.00  0.00     0.023 C 
ENDROOT
BRANCH   1   2
ATOM      2  C   UNL A   1      32.966  29.362  25.410  1.00  0.00     0.116 C 
BRANCH   2   3
ATOM      3  N   UNL A   1      32.454  30.655  25.826  1.00  0.00    -0.352 N 
ATOM      4  O   UNL A   1      32.189  32.452  27.149  1.00  0.00    -0.269 OA
ATOM      5  C   UNL A   1      32.879  31.482  26.837  1.00  0.00     0.251 C 
ATOM      6  H   UNL A   1      31.689  30.990  25.305  1.00  0.00     0.163 HD
BRANCH   5   7
ATOM      7  C   UNL A   1      34.136  31.196  27.561  1.00  0.00     0.039 A 
ATOM      8  C   UNL A   1      35.069  32.205  27.814  1.00  0.00     0.014 A 
ATOM      9  C   UNL A   1      34.372  29.896  28.017  1.00  0.00     0.014 A 
ATOM     10  C   UNL A   1      36.290  31.891  28.410  1.00  0.00     0.010 A 
ATOM     11  C   UNL A   1      35.567  29.598  28.678  1.00  0.00     0.010 A 
ATOM     12  C   UNL A   1      36.548  30.586  28.857  1.00  0.00    -0.014 A 
BRANCH  12  13
ATOM     13  C   UNL A   1      37.816  30.266  29.564  1.00  0.00     0.031 A 
ATOM     14  C   UNL A   1      38.816  29.318  28.961  1.00  0.00     0.074 A 
ATOM     15  C   UNL A   1      38.043  30.804  30.779  1.00  0.00     0.049 A 
ATOM     16  N   UNL A   1      39.919  28.844  29.483  1.00  0.00    -0.248 NA
ATOM     17  C   UNL A   1      38.546  28.834  27.597  1.00  0.00     0.031 C 
ATOM     18  C   UNL A   1      37.144  31.729  31.474  1.00  0.00     0.029 A 
ATOM     19  N   UNL A   1      39.085  30.635  31.656  1.00  0.00    -0.354 N 
ATOM     20  C   UNL A   1      40.456  27.983  28.533  1.00  0.00     0.074 A 
ATOM     21  C   UNL A   1      39.556  27.995  27.399  1.00  0.00     0.031 C 
ATOM     22  C   UNL A   1      37.670  32.043  32.666  1.00  0.00     0.029 A 
ATOM     23  C   UNL A   1      38.910  31.299  32.849  1.00  0.00     0.049 A 
ATOM     24  H   UNL A   1      39.881  30.092  31.452  1.00  0.00     0.167 HD
ATOM     25  C   UNL A   1      41.600  27.261  28.596  1.00  0.00     0.034 A 
ATOM     26  C   UNL A   1      39.646  31.283  33.978  1.00  0.00     0.034 A 
ATOM     27  C   UNL A   1      42.508  27.278  29.714  1.00  0.00     0.049 A 
ATOM     28  C   UNL A   1      40.897  30.450  34.023  1.00  0.00     0.074 A 
ATOM     29  C   UNL A   1      43.712  26.608  29.850  1.00  0.00     0.029 A 
ATOM     30  N   UNL A   1      42.316  27.991  30.886  1.00  0.00    -0.354 N 
ATOM     31  N   UNL A   1      41.435  29.717  33.080  1.00  0.00    -0.248 NA
ATOM     32  C   UNL A   1      41.656  30.464  35.282  1.00  0.00     0.031 C 
ATOM     33  C   UNL A   1      44.235  26.895  31.113  1.00  0.00     0.029 A 
ATOM     34  C   UNL A   1      43.375  27.772  31.753  1.00  0.00     0.049 A 
ATOM     35  H   UNL A   1      41.542  28.569  31.075  1.00  0.00     0.167 HD
ATOM     36  C   UNL A   1      42.609  29.205  33.620  1.00  0.00     0.074 A 
ATOM     37  C   UNL A   1      42.721  29.742  34.960  1.00  0.00     0.031 C 
ATOM     38  C   UNL A   1      43.502  28.349  33.065  1.00  0.00     0.034 A 
BRANCH  25  39
ATOM     39  C   UNL A   1      41.985  26.416  27.409  1.00  0.00     0.023 A 
ATOM     40  C   UNL A   1      42.787  26.972  26.394  1.00  0.00     0.012 A 
ATOM     41  C   UNL A   1      41.676  25.041  27.373  1.00  0.00     0.148 A 
ATOM     42  C   UNL A   1      43.273  26.175  25.357  1.00  0.00     0.002 A 
ATOM     43  C   UNL A   1      42.200  24.244  26.361  1.00  0.00     0.091 A 
ATOM     44  F   UNL A   1      40.901  24.535  28.343  1.00  0.00    -0.205 F 
ATOM     45  C   UNL A   1      42.992  24.812  25.350  1.00  0.00     0.022 A 
BRANCH  43  46
ATOM     46  S   UNL A   1      41.973  22.462  26.304  1.00  0.00     0.127 S 
ATOM     47  O   UNL A   1      40.521  22.354  26.166  1.00  0.00    -0.237 OA
ATOM     48  O   UNL A   1      42.728  22.097  25.106  1.00  0.00    -0.237 OA
ATOM     49  O   UNL A   1      42.513  21.945  27.554  1.00  0.00    -0.744 OA
ENDBRANCH  43  46
ENDBRANCH  25  39
BRANCH  26  50
ATOM     50  C   UNL A   1      39.230  32.103  35.153  1.00  0.00     0.023 A 
ATOM     51  C   UNL A   1      38.337  31.556  36.094  1.00  0.00     0.012 A 
ATOM     52  C   UNL A   1      39.724  33.406  35.353  1.00  0.00     0.148 A 
ATOM     53  C   UNL A   1      37.912  32.305  37.192  1.00  0.00     0.002 A 
ATOM     54  C   UNL A   1      39.349  34.123  36.483  1.00  0.00     0.091 A 
ATOM     55  F   UNL A   1      40.562  33.917  34.440  1.00  0.00    -0.205 F 
ATOM     56  C   UNL A   1      38.426  33.583  37.392  1.00  0.00     0.022 A 
BRANCH  54  57
ATOM     57  S   UNL A   1      40.067  35.716  36.897  1.00  0.00     0.127 S 
ATOM     58  O   UNL A   1      39.650  36.537  35.764  1.00  0.00    -0.237 OA
ATOM     59  O   UNL A   1      39.402  36.027  38.163  1.00  0.00    -0.237 OA
ATOM     60  O   UNL A   1      41.500  35.481  37.015  1.00  0.00    -0.744 OA
ENDBRANCH  54  57
ENDBRANCH  26  50
BRANCH  38  61
ATOM     61  C   UNL A   1      44.700  27.956  33.892  1.00  0.00     0.023 A 
ATOM     62  C   UNL A   1      45.900  28.684  33.776  1.00  0.00     0.012 A 
ATOM     63  C   UNL A   1      44.615  26.912  34.835  1.00  0.00     0.148 A 
ATOM     64  C   UNL A   1      47.009  28.355  34.555  1.00  0.00     0.002 A 
ATOM     65  C   UNL A   1      45.707  26.625  35.646  1.00  0.00     0.091 A 
ATOM     66  F   UNL A   1      43.471  26.218  34.922  1.00  0.00    -0.205 F 
ATOM     67  C   UNL A   1      46.909  27.335  35.497  1.00  0.00     0.022 A 
BRANCH  65  68
ATOM     68  S   UNL A   1      45.637  25.400  36.960  1.00  0.00     0.127 S 
ATOM     69  O   UNL A   1      45.363  24.176  36.211  1.00  0.00    -0.237 OA
ATOM     70  O   UNL A   1      46.984  25.479  37.528  1.00  0.00    -0.237 OA
ATOM     71  O   UNL A   1      44.576  25.835  37.858  1.00  0.00    -0.744 OA
ENDBRANCH  65  68
ENDBRANCH  38  61
ENDBRANCH  12  13
ENDBRANCH   5   7
ENDBRANCH   2   3
ENDBRANCH   1   2
BRANCH   1  72
ATOM     72  C   UNL A   1      31.886  27.180  26.293  1.00  0.00     0.023 C 
BRANCH  72  73
ATOM     73  C   UNL A   1      31.749  25.769  25.719  1.00  0.00     0.116 C 
BRANCH  73  74
ATOM     74  N   UNL A   1      31.174  24.862  26.688  1.00  0.00    -0.356 N 
ATOM     75  C   UNL A   1      31.293  23.522  26.844  1.00  0.00     0.223 C 
ATOM     76  H   UNL A   1      30.590  25.297  27.352  1.00  0.00     0.163 HD
ATOM     77  O   UNL A   1      30.413  23.005  27.534  1.00  0.00    -0.275 OA
BRANCH  75  78
ATOM     78  C   UNL A   1      32.404  22.717  26.152  1.00  0.00     0.087 C 
BRANCH  78  79
ATOM     79  C   UNL A   1      31.990  22.251  24.735  1.00  0.00     0.049 C 
BRANCH  79  80
ATOM     80  C   UNL A   1      32.218  20.781  24.411  1.00  0.00    -0.044 A 
ATOM     81  C   UNL A   1      32.604  19.847  25.385  1.00  0.00     0.004 A 
ATOM     82  C   UNL A   1      32.130  20.335  23.084  1.00  0.00     0.043 A 
ATOM     83  C   UNL A   1      32.914  18.523  25.052  1.00  0.00     0.003 A 
ATOM     84  C   UNL A   1      32.435  19.012  22.759  1.00  0.00     0.123 A 
ATOM     85  C   UNL A   1      32.833  18.105  23.731  1.00  0.00     0.039 A 
ATOM     86  F   UNL A   1      32.358  18.612  21.483  1.00  0.00    -0.207 F 
ENDBRANCH  79  80
ENDBRANCH  78  79
BRANCH  78  87
ATOM     87  C   UNL A   1      33.740  23.523  26.191  1.00  0.00     0.049 C 
BRANCH  87  88
ATOM     88  C   UNL A   1      34.967  22.884  25.560  1.00  0.00    -0.044 A 
ATOM     89  C   UNL A   1      35.587  21.750  26.105  1.00  0.00     0.004 A 
ATOM     90  C   UNL A   1      35.509  23.417  24.381  1.00  0.00     0.049 A 
ATOM     91  C   UNL A   1      36.665  21.133  25.464  1.00  0.00     0.004 A 
ATOM     92  C   UNL A   1      36.572  22.791  23.738  1.00  0.00     0.115 A 
ATOM     93  C   UNL A   1      37.153  21.646  24.267  1.00  0.00     0.046 A 
BRANCH  92  94
ATOM     94  O   UNL A   1      37.013  23.330  22.566  1.00  0.00    -0.508 OA
ATOM     95  H   UNL A   1      36.460  23.909  22.079  1.00  0.00     0.293 HD
ENDBRANCH  92  94
ENDBRANCH  87  88
ENDBRANCH  78  87
ENDBRANCH  75  78
ENDBRANCH  73  74
ENDBRANCH  72  73
ENDBRANCH   1  72
TORSDOF 19
ENDMDL
MODEL 2
REMARK VINA RESULT:     -12.0      2.797      4.410
REMARK SMILES O=C(NCCCCNC(=O)[C@H](Cc1cccc(O)c1)Cc1cccc(F)c1)c1ccc(-c2c3nc(c(-c4cccc(S(=O)(=O)[O-])c4F)c4ccc([nH]4)c(-c4cccc(S(=O)(=O)[O-])c4F)c4nc(c(-c5cccc(S(=O)(=O)[O-])c5F)c5ccc2[nH]5)C=C4)C=C3)cc1
REMARK SMILES IDX 5 1 4 2 3 3 1 4 2 5 28 7 29 8 90 9 30 10 89 11 31 12 32 13
REMARK SMILES IDX 33 14 83 15 34 16 88 17 82 18 84 19 35 20 87 21 81 22 80 23
REMARK SMILES IDX 36 25 68 26 48 27 67 28 49 29 52 30 66 31 85 32 50 33 51 34
REMARK SMILES IDX 65 36 86 37 53 38 37 39 38 40 46 41 39 42 41 43 47 44 40 45
REMARK SMILES IDX 42 46 43 47 44 48 45 49 69 50 70 51 78 52 71 53 73 54 79 55
REMARK SMILES IDX 72 56 74 57 75 58 76 59 77 60 54 61 55 62 63 63 56 64 58 65
REMARK SMILES IDX 64 66 57 67 59 68 60 69 61 70 62 71 6 72 7 73 8 74 9 75
REMARK SMILES IDX 10 77 11 78 20 79 21 80 22 81 27 82 23 83 25 84 24 85 26 86
REMARK SMILES IDX 12 87 13 88 14 89 19 90 15 91 17 92 16 93 18 94
REMARK H PARENT 3 6 84 24 52 35 8 76 18 95
REMARK Flexibility Score: inf
ROOT
ATOM      1  C   UNL A   1      31.390  31.669  26.679  1.00  0.00     0.023 C 
ENDROOT
BRANCH   1   2
ATOM      2  C   UNL A   1      32.710  32.398  26.914  1.00  0.00     0.116 C 
BRANCH   2   3
ATOM      3  N   UNL A   1      32.517  33.725  27.469  1.00  0.00    -0.352 N 
ATOM      4  O   UNL A   1      32.736  35.408  28.941  1.00  0.00    -0.269 OA
ATOM      5  C   UNL A   1      33.178  34.349  28.498  1.00  0.00     0.251 C 
ATOM      6  H   UNL A   1      31.808  34.258  27.043  1.00  0.00     0.163 HD
BRANCH   5   7
ATOM      7  C   UNL A   1      34.392  33.742  29.087  1.00  0.00     0.039 A 
ATOM      8  C   UNL A   1      35.666  34.217  28.763  1.00  0.00     0.014 A 
ATOM      9  C   UNL A   1      34.247  32.695  30.001  1.00  0.00     0.014 A 
ATOM     10  C   UNL A   1      36.797  33.565  29.253  1.00  0.00     0.010 A 
ATOM     11  C   UNL A   1      35.382  32.088  30.548  1.00  0.00     0.010 A 
ATOM     12  C   UNL A   1      36.667  32.500  30.159  1.00  0.00    -0.014 A 
BRANCH  12  13
ATOM     13  C   UNL A   1      37.871  31.855  30.745  1.00  0.00     0.031 A 
ATOM     14  C   UNL A   1      38.609  30.778  29.997  1.00  0.00     0.074 A 
ATOM     15  C   UNL A   1      38.274  32.218  31.978  1.00  0.00     0.049 A 
ATOM     16  N   UNL A   1      39.609  30.035  30.399  1.00  0.00    -0.248 NA
ATOM     17  C   UNL A   1      38.168  30.491  28.622  1.00  0.00     0.031 C 
ATOM     18  C   UNL A   1      37.635  33.243  32.808  1.00  0.00     0.029 A 
ATOM     19  N   UNL A   1      39.301  31.752  32.762  1.00  0.00    -0.354 N 
ATOM     20  C   UNL A   1      39.895  29.173  29.347  1.00  0.00     0.074 A 
ATOM     21  C   UNL A   1      38.960  29.480  28.286  1.00  0.00     0.031 C 
ATOM     22  C   UNL A   1      38.280  33.326  33.981  1.00  0.00     0.029 A 
ATOM     23  C   UNL A   1      39.338  32.323  34.013  1.00  0.00     0.049 A 
ATOM     24  H   UNL A   1      39.947  31.074  32.458  1.00  0.00     0.167 HD
ATOM     25  C   UNL A   1      40.858  28.224  29.269  1.00  0.00     0.034 A 
ATOM     26  C   UNL A   1      40.111  32.048  35.081  1.00  0.00     0.034 A 
ATOM     27  C   UNL A   1      41.806  27.944  30.317  1.00  0.00     0.049 A 
ATOM     28  C   UNL A   1      41.153  30.969  34.970  1.00  0.00     0.074 A 
ATOM     29  C   UNL A   1      42.842  27.025  30.311  1.00  0.00     0.029 A 
ATOM     30  N   UNL A   1      41.836  28.569  31.553  1.00  0.00    -0.354 N 
ATOM     31  N   UNL A   1      41.469  30.229  33.935  1.00  0.00    -0.248 NA
ATOM     32  C   UNL A   1      41.963  30.704  36.167  1.00  0.00     0.031 C 
ATOM     33  C   UNL A   1      43.482  27.077  31.552  1.00  0.00     0.029 A 
ATOM     34  C   UNL A   1      42.867  28.052  32.320  1.00  0.00     0.049 A 
ATOM     35  H   UNL A   1      41.217  29.277  31.843  1.00  0.00     0.167 HD
ATOM     36  C   UNL A   1      42.531  29.433  34.346  1.00  0.00     0.074 A 
ATOM     37  C   UNL A   1      42.828  29.807  35.713  1.00  0.00     0.031 C 
ATOM     38  C   UNL A   1      43.187  28.464  33.662  1.00  0.00     0.034 A 
BRANCH  25  39
ATOM     39  C   UNL A   1      40.986  27.430  27.995  1.00  0.00     0.023 A 
ATOM     40  C   UNL A   1      41.628  28.008  26.881  1.00  0.00     0.012 A 
ATOM     41  C   UNL A   1      40.606  26.074  27.948  1.00  0.00     0.148 A 
ATOM     42  C   UNL A   1      41.885  27.250  25.738  1.00  0.00     0.002 A 
ATOM     43  C   UNL A   1      40.904  25.314  26.822  1.00  0.00     0.091 A 
ATOM     44  F   UNL A   1      39.986  25.548  29.013  1.00  0.00    -0.205 F 
ATOM     45  C   UNL A   1      41.536  25.903  25.715  1.00  0.00     0.022 A 
BRANCH  43  46
ATOM     46  S   UNL A   1      40.578  23.549  26.720  1.00  0.00     0.127 S 
ATOM     47  O   UNL A   1      39.196  23.531  26.242  1.00  0.00    -0.237 OA
ATOM     48  O   UNL A   1      41.569  23.113  25.738  1.00  0.00    -0.237 OA
ATOM     49  O   UNL A   1      40.771  23.024  28.065  1.00  0.00    -0.744 OA
ENDBRANCH  43  46
ENDBRANCH  25  39
BRANCH  26  50
ATOM     50  C   UNL A   1      39.947  32.823  36.345  1.00  0.00     0.023 A 
ATOM     51  C   UNL A   1      40.708  33.992  36.541  1.00  0.00     0.012 A 
ATOM     52  C   UNL A   1      39.035  32.423  37.341  1.00  0.00     0.148 A 
ATOM     53  C   UNL A   1      40.593  34.727  37.721  1.00  0.00     0.002 A 
ATOM     54  C   UNL A   1      38.877  33.196  38.485  1.00  0.00     0.091 A 
ATOM     55  F   UNL A   1      38.330  31.300  37.145  1.00  0.00    -0.205 F 
ATOM     56  C   UNL A   1      39.670  34.335  38.687  1.00  0.00     0.022 A 
BRANCH  54  57
ATOM     57  S   UNL A   1      37.616  32.849  39.716  1.00  0.00     0.127 S 
ATOM     58  O   UNL A   1      38.131  31.633  40.339  1.00  0.00    -0.237 OA
ATOM     59  O   UNL A   1      37.678  34.046  40.556  1.00  0.00    -0.237 OA
ATOM     60  O   UNL A   1      36.372  32.702  38.972  1.00  0.00    -0.744 OA
ENDBRANCH  54  57
ENDBRANCH  26  50
BRANCH  38  61
ATOM     61  C   UNL A   1      44.313  27.751  34.366  1.00  0.00     0.023 A 
ATOM     62  C   UNL A   1      45.595  28.336  34.406  1.00  0.00     0.012 A 
ATOM     63  C   UNL A   1      44.087  26.540  35.049  1.00  0.00     0.148 A 
ATOM     64  C   UNL A   1      46.642  27.707  35.079  1.00  0.00     0.002 A 
ATOM     65  C   UNL A   1      45.121  25.947  35.764  1.00  0.00     0.091 A 
ATOM     66  F   UNL A   1      42.866  25.988  34.988  1.00  0.00    -0.205 F 
ATOM     67  C   UNL A   1      46.402  26.520  35.767  1.00  0.00     0.022 A 
BRANCH  65  68
ATOM     68  S   UNL A   1      44.881  24.475  36.766  1.00  0.00     0.127 S 
ATOM     69  O   UNL A   1      46.255  24.130  37.123  1.00  0.00    -0.237 OA
ATOM     70  O   UNL A   1      44.073  24.985  37.876  1.00  0.00    -0.237 OA
ATOM     71  O   UNL A   1      44.196  23.515  35.912  1.00  0.00    -0.744 OA
ENDBRANCH  65  68
ENDBRANCH  38  61
ENDBRANCH  12  13
ENDBRANCH   5   7
ENDBRANCH   2   3
ENDBRANCH   1   2
BRANCH   1  72
ATOM     72  C   UNL A   1      31.461  30.454  25.746  1.00  0.00     0.023 C 
BRANCH  72  73
ATOM     73  C   UNL A   1      32.796  29.707  25.733  1.00  0.00     0.116 C 
BRANCH  73  74
ATOM     74  N   UNL A   1      33.345  29.636  24.397  1.00  0.00    -0.356 N 
ATOM     75  C   UNL A   1      33.294  28.663  23.456  1.00  0.00     0.223 C 
ATOM     76  H   UNL A   1      33.847  30.438  24.123  1.00  0.00     0.163 HD
ATOM     77  O   UNL A   1      34.145  28.759  22.571  1.00  0.00    -0.275 OA
BRANCH  75  78
ATOM     78  C   UNL A   1      32.291  27.501  23.539  1.00  0.00     0.087 C 
BRANCH  78  79
ATOM     79  C   UNL A   1      31.277  27.521  22.370  1.00  0.00     0.049 C 
BRANCH  79  80
ATOM     80  C   UNL A   1      30.075  28.441  22.531  1.00  0.00    -0.044 A 
ATOM     81  C   UNL A   1      28.865  28.007  23.094  1.00  0.00     0.004 A 
ATOM     82  C   UNL A   1      30.124  29.749  22.027  1.00  0.00     0.043 A 
ATOM     83  C   UNL A   1      27.736  28.832  23.137  1.00  0.00     0.003 A 
ATOM     84  C   UNL A   1      28.996  30.571  22.078  1.00  0.00     0.123 A 
ATOM     85  C   UNL A   1      27.801  30.120  22.622  1.00  0.00     0.039 A 
ATOM     86  F   UNL A   1      29.060  31.811  21.578  1.00  0.00    -0.207 F 
ENDBRANCH  79  80
ENDBRANCH  78  79
BRANCH  78  87
ATOM     87  C   UNL A   1      33.061  26.152  23.691  1.00  0.00     0.049 C 
BRANCH  87  88
ATOM     88  C   UNL A   1      32.625  25.213  24.806  1.00  0.00    -0.044 A 
ATOM     89  C   UNL A   1      33.526  24.373  25.473  1.00  0.00     0.004 A 
ATOM     90  C   UNL A   1      31.283  25.181  25.212  1.00  0.00     0.049 A 
ATOM     91  C   UNL A   1      33.117  23.577  26.548  1.00  0.00     0.004 A 
ATOM     92  C   UNL A   1      30.883  24.400  26.292  1.00  0.00     0.115 A 
ATOM     93  C   UNL A   1      31.792  23.600  26.969  1.00  0.00     0.046 A 
BRANCH  92  94
ATOM     94  O   UNL A   1      29.574  24.458  26.669  1.00  0.00    -0.508 OA
ATOM     95  H   UNL A   1      28.952  23.865  26.294  1.00  0.00     0.293 HD
ENDBRANCH  92  94
ENDBRANCH  87  88
ENDBRANCH  78  87
ENDBRANCH  75  78
ENDBRANCH  73  74
ENDBRANCH  72  73
ENDBRANCH   1  72
TORSDOF 19
ENDMDL
MODEL 3
REMARK VINA RESULT:     -11.9      4.732      9.862
REMARK SMILES O=C(NCCCCNC(=O)[C@H](Cc1cccc(O)c1)Cc1cccc(F)c1)c1ccc(-c2c3nc(c(-c4cccc(S(=O)(=O)[O-])c4F)c4ccc([nH]4)c(-c4cccc(S(=O)(=O)[O-])c4F)c4nc(c(-c5cccc(S(=O)(=O)[O-])c5F)c5ccc2[nH]5)C=C4)C=C3)cc1
REMARK SMILES IDX 5 1 4 2 3 3 1 4 2 5 28 7 29 8 90 9 30 10 89 11 31 12 32 13
REMARK SMILES IDX 33 14 83 15 34 16 88 17 82 18 84 19 35 20 87 21 81 22 80 23
REMARK SMILES IDX 36 25 68 26 48 27 67 28 49 29 52 30 66 31 85 32 50 33 51 34
REMARK SMILES IDX 65 36 86 37 53 38 37 39 38 40 46 41 39 42 41 43 47 44 40 45
REMARK SMILES IDX 42 46 43 47 44 48 45 49 69 50 70 51 78 52 71 53 73 54 79 55
REMARK SMILES IDX 72 56 74 57 75 58 76 59 77 60 54 61 55 62 63 63 56 64 58 65
REMARK SMILES IDX 64 66 57 67 59 68 60 69 61 70 62 71 6 72 7 73 8 74 9 75
REMARK SMILES IDX 10 77 11 78 20 79 21 80 22 81 27 82 23 83 25 84 24 85 26 86
REMARK SMILES IDX 12 87 13 88 14 89 19 90 15 91 17 92 16 93 18 94
REMARK H PARENT 3 6 84 24 52 35 8 76 18 95
REMARK Flexibility Score: inf
ROOT
ATOM      1  C   UNL A   1      35.948  23.568  24.667  1.00  0.00     0.023 C 
ENDROOT
BRANCH   1   2
ATOM      2  C   UNL A   1      36.558  23.451  26.061  1.00  0.00     0.116 C 
BRANCH   2   3
ATOM      3  N   UNL A   1      37.683  22.534  26.096  1.00  0.00    -0.352 N 
ATOM      4  O   UNL A   1      39.837  21.898  26.157  1.00  0.00    -0.269 OA
ATOM      5  C   UNL A   1      39.007  22.782  26.364  1.00  0.00     0.251 C 
ATOM      6  H   UNL A   1      37.465  21.595  25.898  1.00  0.00     0.163 HD
BRANCH   5   7
ATOM      7  C   UNL A   1      39.435  24.104  26.871  1.00  0.00     0.039 A 
ATOM      8  C   UNL A   1      39.980  25.064  26.014  1.00  0.00     0.014 A 
ATOM      9  C   UNL A   1      39.261  24.395  28.227  1.00  0.00     0.014 A 
ATOM     10  C   UNL A   1      40.467  26.263  26.532  1.00  0.00     0.010 A 
ATOM     11  C   UNL A   1      39.685  25.628  28.732  1.00  0.00     0.010 A 
ATOM     12  C   UNL A   1      40.316  26.562  27.895  1.00  0.00    -0.014 A 
BRANCH  12  13
ATOM     13  C   UNL A   1      40.761  27.873  28.435  1.00  0.00     0.031 A 
ATOM     14  C   UNL A   1      39.760  28.898  28.894  1.00  0.00     0.074 A 
ATOM     15  C   UNL A   1      42.079  28.154  28.470  1.00  0.00     0.049 A 
ATOM     16  N   UNL A   1      39.965  30.129  29.290  1.00  0.00    -0.248 NA
ATOM     17  C   UNL A   1      38.344  28.495  28.909  1.00  0.00     0.031 C 
ATOM     18  C   UNL A   1      43.147  27.247  28.042  1.00  0.00     0.029 A 
ATOM     19  N   UNL A   1      42.746  29.289  28.859  1.00  0.00    -0.354 N 
ATOM     20  C   UNL A   1      38.710  30.658  29.567  1.00  0.00     0.074 A 
ATOM     21  C   UNL A   1      37.744  29.615  29.291  1.00  0.00     0.031 C 
ATOM     22  C   UNL A   1      44.331  27.859  28.190  1.00  0.00     0.029 A 
ATOM     23  C   UNL A   1      44.106  29.220  28.664  1.00  0.00     0.049 A 
ATOM     24  H   UNL A   1      42.295  30.077  29.241  1.00  0.00     0.167 HD
ATOM     25  C   UNL A   1      38.395  31.894  30.023  1.00  0.00     0.034 A 
ATOM     26  C   UNL A   1      45.064  30.155  28.815  1.00  0.00     0.034 A 
ATOM     27  C   UNL A   1      39.363  32.917  30.325  1.00  0.00     0.049 A 
ATOM     28  C   UNL A   1      44.676  31.526  29.297  1.00  0.00     0.074 A 
ATOM     29  C   UNL A   1      39.137  34.187  30.829  1.00  0.00     0.029 A 
ATOM     30  N   UNL A   1      40.732  32.795  30.152  1.00  0.00    -0.354 N 
ATOM     31  N   UNL A   1      43.495  31.976  29.642  1.00  0.00    -0.248 NA
ATOM     32  C   UNL A   1      45.759  32.510  29.436  1.00  0.00     0.031 C 
ATOM     33  C   UNL A   1      40.367  34.842  30.935  1.00  0.00     0.029 A 
ATOM     34  C   UNL A   1      41.363  33.969  30.531  1.00  0.00     0.049 A 
ATOM     35  H   UNL A   1      41.189  31.993  29.810  1.00  0.00     0.167 HD
ATOM     36  C   UNL A   1      43.695  33.285  30.066  1.00  0.00     0.074 A 
ATOM     37  C   UNL A   1      45.118  33.542  29.967  1.00  0.00     0.031 C 
ATOM     38  C   UNL A   1      42.783  34.199  30.476  1.00  0.00     0.034 A 
BRANCH  25  39
ATOM     39  C   UNL A   1      36.946  32.220  30.276  1.00  0.00     0.023 A 
ATOM     40  C   UNL A   1      36.387  31.954  31.542  1.00  0.00     0.012 A 
ATOM     41  C   UNL A   1      36.185  32.920  29.317  1.00  0.00     0.148 A 
ATOM     42  C   UNL A   1      35.092  32.372  31.848  1.00  0.00     0.002 A 
ATOM     43  C   UNL A   1      34.912  33.372  29.645  1.00  0.00     0.091 A 
ATOM     44  F   UNL A   1      36.732  33.152  28.116  1.00  0.00    -0.205 F 
ATOM     45  C   UNL A   1      34.362  33.093  30.906  1.00  0.00     0.022 A 
BRANCH  43  46
ATOM     46  S   UNL A   1      33.920  34.383  28.539  1.00  0.00     0.127 S 
ATOM     47  O   UNL A   1      34.775  35.557  28.366  1.00  0.00    -0.237 OA
ATOM     48  O   UNL A   1      33.812  33.528  27.358  1.00  0.00    -0.237 OA
ATOM     49  O   UNL A   1      32.664  34.633  29.234  1.00  0.00    -0.744 OA
ENDBRANCH  43  46
ENDBRANCH  25  39
BRANCH  26  50
ATOM     50  C   UNL A   1      46.489  29.821  28.528  1.00  0.00     0.023 A 
ATOM     51  C   UNL A   1      47.012  30.076  27.245  1.00  0.00     0.012 A 
ATOM     52  C   UNL A   1      47.330  29.272  29.515  1.00  0.00     0.148 A 
ATOM     53  C   UNL A   1      48.335  29.754  26.939  1.00  0.00     0.002 A 
ATOM     54  C   UNL A   1      48.664  29.015  29.223  1.00  0.00     0.091 A 
ATOM     55  F   UNL A   1      46.811  29.022  30.725  1.00  0.00    -0.205 F 
ATOM     56  C   UNL A   1      49.163  29.234  27.930  1.00  0.00     0.022 A 
BRANCH  54  57
ATOM     57  S   UNL A   1      49.838  28.480  30.472  1.00  0.00     0.127 S 
ATOM     58  O   UNL A   1      49.203  27.268  30.981  1.00  0.00    -0.237 OA
ATOM     59  O   UNL A   1      51.045  28.255  29.675  1.00  0.00    -0.237 OA
ATOM     60  O   UNL A   1      49.940  29.586  31.415  1.00  0.00    -0.744 OA
ENDBRANCH  54  57
ENDBRANCH  26  50
BRANCH  38  61
ATOM     61  C   UNL A   1      43.290  35.560  30.880  1.00  0.00     0.023 A 
ATOM     62  C   UNL A   1      43.732  35.779  32.200  1.00  0.00     0.012 A 
ATOM     63  C   UNL A   1      43.397  36.601  29.936  1.00  0.00     0.148 A 
ATOM     64  C   UNL A   1      44.233  37.023  32.584  1.00  0.00     0.002 A 
ATOM     65  C   UNL A   1      43.948  37.820  30.312  1.00  0.00     0.091 A 
ATOM     66  F   UNL A   1      42.957  36.381  28.688  1.00  0.00    -0.205 F 
ATOM     67  C   UNL A   1      44.352  38.037  31.639  1.00  0.00     0.022 A 
BRANCH  65  68
ATOM     68  S   UNL A   1      44.239  39.150  29.139  1.00  0.00     0.127 S 
ATOM     69  O   UNL A   1      44.893  40.151  29.979  1.00  0.00    -0.237 OA
ATOM     70  O   UNL A   1      45.118  38.510  28.158  1.00  0.00    -0.237 OA
ATOM     71  O   UNL A   1      42.929  39.524  28.623  1.00  0.00    -0.744 OA
ENDBRANCH  65  68
ENDBRANCH  38  61
ENDBRANCH  12  13
ENDBRANCH   5   7
ENDBRANCH   2   3
ENDBRANCH   1   2
BRANCH   1  72
ATOM     72  C   UNL A   1      34.744  22.658  24.393  1.00  0.00     0.023 C 
BRANCH  72  73
ATOM     73  C   UNL A   1      33.528  23.341  23.765  1.00  0.00     0.116 C 
BRANCH  73  74
ATOM     74  N   UNL A   1      33.928  24.385  22.847  1.00  0.00    -0.356 N 
ATOM     75  C   UNL A   1      33.528  25.674  22.724  1.00  0.00     0.223 C 
ATOM     76  H   UNL A   1      34.613  24.110  22.195  1.00  0.00     0.163 HD
ATOM     77  O   UNL A   1      33.793  26.193  21.639  1.00  0.00    -0.275 OA
BRANCH  75  78
ATOM     78  C   UNL A   1      32.745  26.393  23.834  1.00  0.00     0.087 C 
BRANCH  78  79
ATOM     79  C   UNL A   1      33.557  26.494  25.148  1.00  0.00     0.049 C 
BRANCH  79  80
ATOM     80  C   UNL A   1      33.298  27.720  26.013  1.00  0.00    -0.044 A 
ATOM     81  C   UNL A   1      32.030  28.017  26.536  1.00  0.00     0.004 A 
ATOM     82  C   UNL A   1      34.327  28.646  26.239  1.00  0.00     0.043 A 
ATOM     83  C   UNL A   1      31.784  29.202  27.239  1.00  0.00     0.003 A 
ATOM     84  C   UNL A   1      34.077  29.824  26.946  1.00  0.00     0.123 A 
ATOM     85  C   UNL A   1      32.813  30.112  27.441  1.00  0.00     0.039 A 
ATOM     86  F   UNL A   1      35.070  30.702  27.137  1.00  0.00    -0.207 F 
ENDBRANCH  79  80
ENDBRANCH  78  79
BRANCH  78  87
ATOM     87  C   UNL A   1      32.220  27.764  23.304  1.00  0.00     0.049 C 
BRANCH  87  88
ATOM     88  C   UNL A   1      30.715  27.979  23.278  1.00  0.00    -0.044 A 
ATOM     89  C   UNL A   1      30.136  29.177  22.834  1.00  0.00     0.004 A 
ATOM     90  C   UNL A   1      29.851  26.955  23.692  1.00  0.00     0.049 A 
ATOM     91  C   UNL A   1      28.749  29.322  22.744  1.00  0.00     0.004 A 
ATOM     92  C   UNL A   1      28.471  27.098  23.586  1.00  0.00     0.115 A 
ATOM     93  C   UNL A   1      27.910  28.274  23.108  1.00  0.00     0.046 A 
BRANCH  92  94
ATOM     94  O   UNL A   1      27.691  26.041  23.953  1.00  0.00    -0.508 OA
ATOM     95  H   UNL A   1      26.867  26.192  24.374  1.00  0.00     0.293 HD
ENDBRANCH  92  94
ENDBRANCH  87  88
ENDBRANCH  78  87
ENDBRANCH  75  78
ENDBRANCH  73  74
ENDBRANCH  72  73
ENDBRANCH   1  72
TORSDOF 19
ENDMDL
