MODEL 1
REMARK VINA RESULT:     -10.6      0.000      0.000
REMARK SMILES C[C@H](NC(=O)CCN1C(=O)/C(=C/c2ccc([N+](=O)[O-])cc2)SC1=S)C(=O)NCCCCNC(=O)c1ccc(-c2c3nc(c(-c4cccc(S(=O)(=O)[O-])c4F)c4ccc([nH]4)c(-c4cccc(S(=O)(=O)[O-])c4F)c4nc(c(-c5cccc(S(=O)(=O)[O-])c5F)c5ccc2[nH]5)C=C4)C=C3)cc1
REMARK SMILES IDX 28 1 27 2 25 3 26 4 2 6 1 7 3 8 4 9 5 11 6 12 7 13 8 14 9 15
REMARK SMILES IDX 23 16 10 17 11 18 22 19 24 20 12 21 13 22 14 23 21 24 15 25
REMARK SMILES IDX 20 26 16 27 17 28 18 29 19 30 29 31 30 32 31 33 32 34 33 35
REMARK SMILES IDX 34 37 35 38 36 39 97 40 37 41 96 42 38 43 39 44 40 45 90 46
REMARK SMILES IDX 41 47 95 48 89 49 91 50 42 51 94 52 88 53 87 54 43 56 75 57
REMARK SMILES IDX 55 58 74 59 56 60 59 61 73 62 92 63 57 64 58 65 72 67 93 68
REMARK SMILES IDX 60 69 44 70 45 71 53 72 46 73 48 74 54 75 47 76 49 77 50 78
REMARK SMILES IDX 51 79 52 80 76 81 77 82 85 83 78 84 80 85 86 86 79 87 81 88
REMARK SMILES IDX 82 89 83 90 84 91 61 92 62 93 70 94 63 95 65 96 71 97 64 98
REMARK SMILES IDX 66 99 67 100 68 101 69 102
REMARK H PARENT 27 5 3 10 32 36 91 55 59 66
REMARK Flexibility Score: inf
ROOT
ATOM      1  C   UNL A   1      38.150  21.890  25.431  1.00  0.00     0.116 C 
ENDROOT
BRANCH   1   2
ATOM      2  N   UNL A   1      37.011  21.887  26.316  1.00  0.00    -0.354 N 
ATOM      3  C   UNL A   1      35.723  22.127  25.981  1.00  0.00     0.242 C 
ATOM      4  O   UNL A   1      34.984  22.619  26.836  1.00  0.00    -0.273 OA
ATOM      5  H   UNL A   1      37.191  21.691  27.264  1.00  0.00     0.163 HD
BRANCH   3   6
ATOM      6  C   UNL A   1      35.191  21.779  24.584  1.00  0.00     0.168 C 
ATOM      7  C   UNL A   1      35.120  22.861  23.514  1.00  0.00     0.041 C 
BRANCH   6   8
ATOM      8  N   UNL A   1      34.051  20.891  24.542  1.00  0.00    -0.345 N 
ATOM      9  C   UNL A   1      32.745  21.188  24.793  1.00  0.00     0.222 C 
ATOM     10  H   UNL A   1      34.241  19.956  24.301  1.00  0.00     0.164 HD
ATOM     11  O   UNL A   1      31.945  20.253  24.856  1.00  0.00    -0.275 OA
BRANCH   9  12
ATOM     12  C   UNL A   1      32.277  22.630  24.947  1.00  0.00     0.122 C 
BRANCH  12  13
ATOM     13  C   UNL A   1      31.363  23.188  23.837  1.00  0.00     0.137 C 
BRANCH  13  14
ATOM     14  N   UNL A   1      31.463  24.638  23.550  1.00  0.00    -0.292 N 
ATOM     15  C   UNL A   1      30.966  25.575  24.449  1.00  0.00     0.266 C 
ATOM     16  C   UNL A   1      32.092  25.178  22.445  1.00  0.00     0.148 C 
ATOM     17  O   UNL A   1      30.712  25.386  25.628  1.00  0.00    -0.268 OA
ATOM     18  C   UNL A   1      30.742  26.866  23.734  1.00  0.00     0.081 C 
ATOM     19  S   UNL A   1      31.728  26.903  22.330  1.00  0.00    -0.054 SA
ATOM     20  S   UNL A   1      33.031  24.400  21.306  1.00  0.00    -0.052 S 
ATOM     21  C   UNL A   1      29.766  27.712  24.100  1.00  0.00     0.029 C 
BRANCH  21  22
ATOM     22  C   UNL A   1      29.263  28.899  23.385  1.00  0.00    -0.024 A 
ATOM     23  C   UNL A   1      28.092  28.788  22.623  1.00  0.00     0.015 A 
ATOM     24  C   UNL A   1      29.979  30.107  23.350  1.00  0.00     0.015 A 
ATOM     25  C   UNL A   1      27.617  29.870  21.873  1.00  0.00     0.086 A 
ATOM     26  C   UNL A   1      29.518  31.195  22.598  1.00  0.00     0.086 A 
ATOM     27  C   UNL A   1      28.331  31.074  21.868  1.00  0.00     0.269 A 
BRANCH  27  28
ATOM     28  N   UNL A   1      27.836  32.218  21.091  1.00  0.00     0.062 N 
ATOM     29  O   UNL A   1      27.429  31.998  19.943  1.00  0.00    -0.258 OA
ATOM     30  O   UNL A   1      27.848  33.329  21.641  1.00  0.00    -0.258 OA
ENDBRANCH  27  28
ENDBRANCH  21  22
ENDBRANCH  13  14
ENDBRANCH  12  13
ENDBRANCH   9  12
ENDBRANCH   6   8
ENDBRANCH   3   6
ENDBRANCH   1   2
BRANCH   1  31
ATOM     31  C   UNL A   1      39.009  20.659  25.688  1.00  0.00     0.023 C 
BRANCH  31  32
ATOM     32  C   UNL A   1      40.296  20.947  26.459  1.00  0.00     0.023 C 
BRANCH  32  33
ATOM     33  C   UNL A   1      40.901  22.318  26.185  1.00  0.00     0.116 C 
BRANCH  33  34
ATOM     34  N   UNL A   1      42.111  22.231  25.377  1.00  0.00    -0.352 N 
ATOM     35  C   UNL A   1      43.028  23.210  25.094  1.00  0.00     0.251 C 
ATOM     36  H   UNL A   1      42.294  21.349  24.980  1.00  0.00     0.163 HD
ATOM     37  O   UNL A   1      43.890  23.028  24.242  1.00  0.00    -0.269 OA
BRANCH  35  38
ATOM     38  C   UNL A   1      42.931  24.486  25.819  1.00  0.00     0.039 A 
ATOM     39  C   UNL A   1      43.262  24.522  27.173  1.00  0.00     0.014 A 
ATOM     40  C   UNL A   1      42.591  25.652  25.126  1.00  0.00     0.014 A 
ATOM     41  C   UNL A   1      43.307  25.751  27.826  1.00  0.00     0.010 A 
ATOM     42  C   UNL A   1      42.724  26.879  25.757  1.00  0.00     0.010 A 
ATOM     43  C   UNL A   1      43.073  26.941  27.115  1.00  0.00    -0.014 A 
BRANCH  43  44
ATOM     44  C   UNL A   1      43.179  28.262  27.777  1.00  0.00     0.031 A 
ATOM     45  C   UNL A   1      44.517  28.941  27.882  1.00  0.00     0.074 A 
ATOM     46  C   UNL A   1      42.090  28.808  28.353  1.00  0.00     0.049 A 
ATOM     47  N   UNL A   1      44.824  30.069  28.466  1.00  0.00    -0.248 NA
ATOM     48  C   UNL A   1      45.668  28.247  27.278  1.00  0.00     0.031 C 
ATOM     49  C   UNL A   1      40.757  28.200  28.393  1.00  0.00     0.029 A 
ATOM     50  N   UNL A   1      41.936  29.985  29.040  1.00  0.00    -0.354 N 
ATOM     51  C   UNL A   1      46.200  30.201  28.332  1.00  0.00     0.074 A 
ATOM     52  C   UNL A   1      46.676  29.019  27.651  1.00  0.00     0.031 C 
ATOM     53  C   UNL A   1      39.924  29.011  29.063  1.00  0.00     0.029 A 
ATOM     54  C   UNL A   1      40.665  30.179  29.526  1.00  0.00     0.049 A 
ATOM     55  H   UNL A   1      42.668  30.631  29.173  1.00  0.00     0.167 HD
ATOM     56  C   UNL A   1      46.992  31.232  28.709  1.00  0.00     0.034 A 
ATOM     57  C   UNL A   1      40.157  31.182  30.268  1.00  0.00     0.034 A 
ATOM     58  C   UNL A   1      46.505  32.422  29.348  1.00  0.00     0.049 A 
ATOM     59  C   UNL A   1      41.050  32.336  30.637  1.00  0.00     0.074 A 
ATOM     60  C   UNL A   1      47.209  33.562  29.694  1.00  0.00     0.029 A 
ATOM     61  N   UNL A   1      45.192  32.626  29.743  1.00  0.00    -0.354 N 
ATOM     62  N   UNL A   1      42.318  32.519  30.359  1.00  0.00    -0.248 NA
ATOM     63  C   UNL A   1      40.435  33.440  31.389  1.00  0.00     0.031 C 
ATOM     64  C   UNL A   1      46.325  34.445  30.322  1.00  0.00     0.029 A 
ATOM     65  C   UNL A   1      45.064  33.869  30.338  1.00  0.00     0.049 A 
ATOM     66  H   UNL A   1      44.459  31.981  29.619  1.00  0.00     0.167 HD
ATOM     67  C   UNL A   1      42.644  33.771  30.869  1.00  0.00     0.074 A 
ATOM     68  C   UNL A   1      41.433  34.310  31.452  1.00  0.00     0.031 C 
ATOM     69  C   UNL A   1      43.839  34.411  30.867  1.00  0.00     0.034 A 
BRANCH  56  70
ATOM     70  C   UNL A   1      48.460  31.138  28.385  1.00  0.00     0.023 A 
ATOM     71  C   UNL A   1      48.943  31.682  27.176  1.00  0.00     0.012 A 
ATOM     72  C   UNL A   1      49.370  30.560  29.294  1.00  0.00     0.148 A 
ATOM     73  C   UNL A   1      50.299  31.619  26.859  1.00  0.00     0.002 A 
ATOM     74  C   UNL A   1      50.726  30.547  28.992  1.00  0.00     0.091 A 
ATOM     75  F   UNL A   1      48.891  30.029  30.427  1.00  0.00    -0.205 F 
ATOM     76  C   UNL A   1      51.191  31.063  27.770  1.00  0.00     0.022 A 
BRANCH  74  77
ATOM     77  S   UNL A   1      51.968  29.933  30.136  1.00  0.00     0.127 S 
ATOM     78  O   UNL A   1      51.558  28.539  30.298  1.00  0.00    -0.237 OA
ATOM     79  O   UNL A   1      53.203  30.119  29.374  1.00  0.00    -0.237 OA
ATOM     80  O   UNL A   1      51.860  30.759  31.330  1.00  0.00    -0.744 OA
ENDBRANCH  74  77
ENDBRANCH  56  70
BRANCH  57  81
ATOM     81  C   UNL A   1      38.719  31.168  30.658  1.00  0.00     0.023 A 
ATOM     82  C   UNL A   1      38.324  30.501  31.834  1.00  0.00     0.012 A 
ATOM     83  C   UNL A   1      37.746  31.833  29.887  1.00  0.00     0.148 A 
ATOM     84  C   UNL A   1      36.983  30.463  32.215  1.00  0.00     0.002 A 
ATOM     85  C   UNL A   1      36.420  31.840  30.303  1.00  0.00     0.091 A 
ATOM     86  F   UNL A   1      38.140  32.456  28.767  1.00  0.00    -0.205 F 
ATOM     87  C   UNL A   1      36.032  31.141  31.456  1.00  0.00     0.022 A 
BRANCH  85  88
ATOM     88  S   UNL A   1      35.154  32.797  29.462  1.00  0.00     0.127 S 
ATOM     89  O   UNL A   1      34.070  32.786  30.439  1.00  0.00    -0.237 OA
ATOM     90  O   UNL A   1      35.818  34.091  29.291  1.00  0.00    -0.237 OA
ATOM     91  O   UNL A   1      34.892  32.091  28.215  1.00  0.00    -0.744 OA
ENDBRANCH  85  88
ENDBRANCH  57  81
BRANCH  69  92
ATOM     92  C   UNL A   1      43.896  35.786  31.478  1.00  0.00     0.023 A 
ATOM     93  C   UNL A   1      44.082  35.929  32.868  1.00  0.00     0.012 A 
ATOM     94  C   UNL A   1      43.844  36.933  30.664  1.00  0.00     0.148 A 
ATOM     95  C   UNL A   1      44.181  37.196  33.440  1.00  0.00     0.002 A 
ATOM     96  C   UNL A   1      43.996  38.190  31.235  1.00  0.00     0.091 A 
ATOM     97  F   UNL A   1      43.649  36.775  29.347  1.00  0.00    -0.205 F 
ATOM     98  C   UNL A   1      44.151  38.324  32.624  1.00  0.00     0.022 A 
BRANCH  96  99
ATOM     99  S   UNL A   1      44.069  39.692  30.252  1.00  0.00     0.127 S 
ATOM    100  O   UNL A   1      42.800  39.636  29.529  1.00  0.00    -0.237 OA
ATOM    101  O   UNL A   1      44.141  40.731  31.280  1.00  0.00    -0.237 OA
ATOM    102  O   UNL A   1      45.264  39.575  29.427  1.00  0.00    -0.744 OA
ENDBRANCH  96  99
ENDBRANCH  69  92
ENDBRANCH  43  44
ENDBRANCH  35  38
ENDBRANCH  33  34
ENDBRANCH  32  33
ENDBRANCH  31  32
ENDBRANCH   1  31
TORSDOF 20
ENDMDL
MODEL 2
REMARK VINA RESULT:     -10.5      4.272      9.571
REMARK SMILES C[C@H](NC(=O)CCN1C(=O)/C(=C/c2ccc([N+](=O)[O-])cc2)SC1=S)C(=O)NCCCCNC(=O)c1ccc(-c2c3nc(c(-c4cccc(S(=O)(=O)[O-])c4F)c4ccc([nH]4)c(-c4cccc(S(=O)(=O)[O-])c4F)c4nc(c(-c5cccc(S(=O)(=O)[O-])c5F)c5ccc2[nH]5)C=C4)C=C3)cc1
REMARK SMILES IDX 28 1 27 2 25 3 26 4 2 6 1 7 3 8 4 9 5 11 6 12 7 13 8 14 9 15
REMARK SMILES IDX 23 16 10 17 11 18 22 19 24 20 12 21 13 22 14 23 21 24 15 25
REMARK SMILES IDX 20 26 16 27 17 28 18 29 19 30 29 31 30 32 31 33 32 34 33 35
REMARK SMILES IDX 34 37 35 38 36 39 97 40 37 41 96 42 38 43 39 44 40 45 90 46
REMARK SMILES IDX 41 47 95 48 89 49 91 50 42 51 94 52 88 53 87 54 43 56 75 57
REMARK SMILES IDX 55 58 74 59 56 60 59 61 73 62 92 63 57 64 58 65 72 67 93 68
REMARK SMILES IDX 60 69 44 70 45 71 53 72 46 73 48 74 54 75 47 76 49 77 50 78
REMARK SMILES IDX 51 79 52 80 76 81 77 82 85 83 78 84 80 85 86 86 79 87 81 88
REMARK SMILES IDX 82 89 83 90 84 91 61 92 62 93 70 94 63 95 65 96 71 97 64 98
REMARK SMILES IDX 66 99 67 100 68 101 69 102
REMARK H PARENT 27 5 3 10 32 36 91 55 59 66
REMARK Flexibility Score: inf
ROOT
ATOM      1  C   UNL A   1      40.978  27.102  29.195  1.00  0.00     0.116 C 
ENDROOT
BRANCH   1   2
ATOM      2  N   UNL A   1      41.324  27.610  27.891  1.00  0.00    -0.354 N 
ATOM      3  C   UNL A   1      42.418  27.294  27.161  1.00  0.00     0.242 C 
ATOM      4  O   UNL A   1      42.861  28.142  26.385  1.00  0.00    -0.273 OA
ATOM      5  H   UNL A   1      40.698  28.255  27.490  1.00  0.00     0.163 HD
BRANCH   3   6
ATOM      6  C   UNL A   1      43.077  25.912  27.281  1.00  0.00     0.168 C 
ATOM      7  C   UNL A   1      44.403  25.771  28.016  1.00  0.00     0.041 C 
BRANCH   6   8
ATOM      8  N   UNL A   1      43.011  25.074  26.104  1.00  0.00    -0.345 N 
ATOM      9  C   UNL A   1      42.930  23.716  26.043  1.00  0.00     0.222 C 
ATOM     10  H   UNL A   1      43.027  25.544  25.239  1.00  0.00     0.164 HD
ATOM     11  O   UNL A   1      43.042  23.183  24.937  1.00  0.00    -0.275 OA
BRANCH   9  12
ATOM     12  C   UNL A   1      42.666  22.882  27.291  1.00  0.00     0.122 C 
BRANCH  12  13
ATOM     13  C   UNL A   1      41.239  22.933  27.873  1.00  0.00     0.137 C 
BRANCH  13  14
ATOM     14  N   UNL A   1      40.118  22.757  26.920  1.00  0.00    -0.292 N 
ATOM     15  C   UNL A   1      39.382  23.852  26.480  1.00  0.00     0.266 C 
ATOM     16  C   UNL A   1      39.753  21.552  26.351  1.00  0.00     0.148 C 
ATOM     17  O   UNL A   1      39.723  25.023  26.532  1.00  0.00    -0.268 OA
ATOM     18  C   UNL A   1      38.066  23.378  25.960  1.00  0.00     0.081 C 
ATOM     19  S   UNL A   1      38.204  21.725  25.520  1.00  0.00    -0.054 SA
ATOM     20  S   UNL A   1      40.557  20.092  26.418  1.00  0.00    -0.052 S 
ATOM     21  C   UNL A   1      36.963  24.139  26.043  1.00  0.00     0.029 C 
BRANCH  21  22
ATOM     22  C   UNL A   1      35.562  23.755  25.794  1.00  0.00    -0.024 A 
ATOM     23  C   UNL A   1      34.907  24.268  24.667  1.00  0.00     0.015 A 
ATOM     24  C   UNL A   1      34.827  22.982  26.708  1.00  0.00     0.015 A 
ATOM     25  C   UNL A   1      33.556  23.985  24.429  1.00  0.00     0.086 A 
ATOM     26  C   UNL A   1      33.474  22.696  26.485  1.00  0.00     0.086 A 
ATOM     27  C   UNL A   1      32.845  23.194  25.338  1.00  0.00     0.269 A 
BRANCH  27  28
ATOM     28  N   UNL A   1      31.431  22.883  25.093  1.00  0.00     0.062 N 
ATOM     29  O   UNL A   1      30.794  22.350  26.010  1.00  0.00    -0.258 OA
ATOM     30  O   UNL A   1      30.965  23.187  23.985  1.00  0.00    -0.258 OA
ENDBRANCH  27  28
ENDBRANCH  21  22
ENDBRANCH  13  14
ENDBRANCH  12  13
ENDBRANCH   9  12
ENDBRANCH   6   8
ENDBRANCH   3   6
ENDBRANCH   1   2
BRANCH   1  31
ATOM     31  C   UNL A   1      39.480  26.843  29.271  1.00  0.00     0.023 C 
BRANCH  31  32
ATOM     32  C   UNL A   1      38.817  27.385  30.537  1.00  0.00     0.023 C 
BRANCH  32  33
ATOM     33  C   UNL A   1      37.815  28.505  30.292  1.00  0.00     0.116 C 
BRANCH  33  34
ATOM     34  N   UNL A   1      37.340  29.096  31.538  1.00  0.00    -0.352 N 
ATOM     35  C   UNL A   1      37.927  30.067  32.306  1.00  0.00     0.251 C 
ATOM     36  H   UNL A   1      36.481  28.751  31.872  1.00  0.00     0.163 HD
ATOM     37  O   UNL A   1      37.496  30.321  33.426  1.00  0.00    -0.269 OA
BRANCH  35  38
ATOM     38  C   UNL A   1      39.098  30.773  31.764  1.00  0.00     0.039 A 
ATOM     39  C   UNL A   1      40.287  30.772  32.493  1.00  0.00     0.014 A 
ATOM     40  C   UNL A   1      39.027  31.362  30.498  1.00  0.00     0.014 A 
ATOM     41  C   UNL A   1      41.433  31.317  31.919  1.00  0.00     0.010 A 
ATOM     42  C   UNL A   1      40.189  31.822  29.897  1.00  0.00     0.010 A 
ATOM     43  C   UNL A   1      41.401  31.814  30.605  1.00  0.00    -0.014 A 
BRANCH  43  44
ATOM     44  C   UNL A   1      42.624  32.340  29.955  1.00  0.00     0.031 A 
ATOM     45  C   UNL A   1      42.754  33.813  29.688  1.00  0.00     0.074 A 
ATOM     46  C   UNL A   1      43.574  31.482  29.532  1.00  0.00     0.049 A 
ATOM     47  N   UNL A   1      43.718  34.458  29.085  1.00  0.00    -0.248 NA
ATOM     48  C   UNL A   1      41.642  34.674  30.127  1.00  0.00     0.031 C 
ATOM     49  C   UNL A   1      43.516  30.023  29.656  1.00  0.00     0.029 A 
ATOM     50  N   UNL A   1      44.763  31.712  28.887  1.00  0.00    -0.354 N 
ATOM     51  C   UNL A   1      43.314  35.786  29.042  1.00  0.00     0.074 A 
ATOM     52  C   UNL A   1      42.000  35.851  29.638  1.00  0.00     0.031 C 
ATOM     53  C   UNL A   1      44.620  29.491  29.110  1.00  0.00     0.029 A 
ATOM     54  C   UNL A   1      45.451  30.563  28.572  1.00  0.00     0.049 A 
ATOM     55  H   UNL A   1      45.093  32.614  28.670  1.00  0.00     0.167 HD
ATOM     56  C   UNL A   1      43.992  36.863  28.581  1.00  0.00     0.034 A 
ATOM     57  C   UNL A   1      46.616  30.396  27.917  1.00  0.00     0.034 A 
ATOM     58  C   UNL A   1      45.316  36.797  28.027  1.00  0.00     0.049 A 
ATOM     59  C   UNL A   1      47.369  31.613  27.452  1.00  0.00     0.074 A 
ATOM     60  C   UNL A   1      46.127  37.838  27.609  1.00  0.00     0.029 A 
ATOM     61  N   UNL A   1      46.023  35.625  27.808  1.00  0.00    -0.354 N 
ATOM     62  N   UNL A   1      47.044  32.877  27.567  1.00  0.00    -0.248 NA
ATOM     63  C   UNL A   1      48.668  31.383  26.802  1.00  0.00     0.031 C 
ATOM     64  C   UNL A   1      47.314  37.291  27.113  1.00  0.00     0.029 A 
ATOM     65  C   UNL A   1      47.257  35.914  27.253  1.00  0.00     0.049 A 
ATOM     66  H   UNL A   1      45.695  34.721  28.016  1.00  0.00     0.167 HD
ATOM     67  C   UNL A   1      48.111  33.595  27.037  1.00  0.00     0.074 A 
ATOM     68  C   UNL A   1      49.101  32.623  26.623  1.00  0.00     0.031 C 
ATOM     69  C   UNL A   1      48.253  34.935  26.894  1.00  0.00     0.034 A 
BRANCH  56  70
ATOM     70  C   UNL A   1      43.333  38.211  28.711  1.00  0.00     0.023 A 
ATOM     71  C   UNL A   1      42.451  38.654  27.703  1.00  0.00     0.012 A 
ATOM     72  C   UNL A   1      43.542  39.017  29.848  1.00  0.00     0.148 A 
ATOM     73  C   UNL A   1      41.817  39.892  27.805  1.00  0.00     0.002 A 
ATOM     74  C   UNL A   1      42.869  40.226  29.965  1.00  0.00     0.091 A 
ATOM     75  F   UNL A   1      44.400  38.590  30.785  1.00  0.00    -0.205 F 
ATOM     76  C   UNL A   1      42.017  40.672  28.939  1.00  0.00     0.022 A 
BRANCH  74  77
ATOM     77  S   UNL A   1      42.988  41.265  31.426  1.00  0.00     0.127 S 
ATOM     78  O   UNL A   1      44.409  41.610  31.428  1.00  0.00    -0.237 OA
ATOM     79  O   UNL A   1      42.093  42.372  31.087  1.00  0.00    -0.237 OA
ATOM     80  O   UNL A   1      42.543  40.444  32.543  1.00  0.00    -0.744 OA
ENDBRANCH  74  77
ENDBRANCH  56  70
BRANCH  57  81
ATOM     81  C   UNL A   1      47.168  29.026  27.715  1.00  0.00     0.023 A 
ATOM     82  C   UNL A   1      47.974  28.448  28.715  1.00  0.00     0.012 A 
ATOM     83  C   UNL A   1      46.879  28.285  26.553  1.00  0.00     0.148 A 
ATOM     84  C   UNL A   1      48.513  27.172  28.545  1.00  0.00     0.002 A 
ATOM     85  C   UNL A   1      47.371  26.993  26.416  1.00  0.00     0.091 A 
ATOM     86  F   UNL A   1      46.116  28.856  25.609  1.00  0.00    -0.205 F 
ATOM     87  C   UNL A   1      48.203  26.441  27.402  1.00  0.00     0.022 A 
BRANCH  85  88
ATOM     88  S   UNL A   1      46.914  25.931  25.041  1.00  0.00     0.127 S 
ATOM     89  O   UNL A   1      45.530  26.329  24.802  1.00  0.00    -0.237 OA
ATOM     90  O   UNL A   1      47.864  26.348  24.009  1.00  0.00    -0.237 OA
ATOM     91  O   UNL A   1      47.108  24.568  25.517  1.00  0.00    -0.744 OA
ENDBRANCH  85  88
ENDBRANCH  57  81
BRANCH  69  92
ATOM     92  C   UNL A   1      49.540  35.442  26.300  1.00  0.00     0.023 A 
ATOM     93  C   UNL A   1      49.630  35.675  24.913  1.00  0.00     0.012 A 
ATOM     94  C   UNL A   1      50.633  35.761  27.128  1.00  0.00     0.148 A 
ATOM     95  C   UNL A   1      50.802  36.186  24.357  1.00  0.00     0.002 A 
ATOM     96  C   UNL A   1      51.778  36.319  26.574  1.00  0.00     0.091 A 
ATOM     97  F   UNL A   1      50.532  35.516  28.443  1.00  0.00    -0.205 F 
ATOM     98  C   UNL A   1      51.869  36.519  25.187  1.00  0.00     0.022 A 
BRANCH  96  99
ATOM     99  S   UNL A   1      53.163  36.871  27.575  1.00  0.00     0.127 S 
ATOM    100  O   UNL A   1      54.297  36.579  26.700  1.00  0.00    -0.237 OA
ATOM    101  O   UNL A   1      52.874  38.295  27.747  1.00  0.00    -0.237 OA
ATOM    102  O   UNL A   1      53.106  36.090  28.805  1.00  0.00    -0.744 OA
ENDBRANCH  96  99
ENDBRANCH  69  92
ENDBRANCH  43  44
ENDBRANCH  35  38
ENDBRANCH  33  34
ENDBRANCH  32  33
ENDBRANCH  31  32
ENDBRANCH   1  31
TORSDOF 20
ENDMDL
MODEL 3
REMARK VINA RESULT:     -10.5      3.032      4.151
REMARK SMILES C[C@H](NC(=O)CCN1C(=O)/C(=C/c2ccc([N+](=O)[O-])cc2)SC1=S)C(=O)NCCCCNC(=O)c1ccc(-c2c3nc(c(-c4cccc(S(=O)(=O)[O-])c4F)c4ccc([nH]4)c(-c4cccc(S(=O)(=O)[O-])c4F)c4nc(c(-c5cccc(S(=O)(=O)[O-])c5F)c5ccc2[nH]5)C=C4)C=C3)cc1
REMARK SMILES IDX 28 1 27 2 25 3 26 4 2 6 1 7 3 8 4 9 5 11 6 12 7 13 8 14 9 15
REMARK SMILES IDX 23 16 10 17 11 18 22 19 24 20 12 21 13 22 14 23 21 24 15 25
REMARK SMILES IDX 20 26 16 27 17 28 18 29 19 30 29 31 30 32 31 33 32 34 33 35
REMARK SMILES IDX 34 37 35 38 36 39 97 40 37 41 96 42 38 43 39 44 40 45 90 46
REMARK SMILES IDX 41 47 95 48 89 49 91 50 42 51 94 52 88 53 87 54 43 56 75 57
REMARK SMILES IDX 55 58 74 59 56 60 59 61 73 62 92 63 57 64 58 65 72 67 93 68
REMARK SMILES IDX 60 69 44 70 45 71 53 72 46 73 48 74 54 75 47 76 49 77 50 78
REMARK SMILES IDX 51 79 52 80 76 81 77 82 85 83 78 84 80 85 86 86 79 87 81 88
REMARK SMILES IDX 82 89 83 90 84 91 61 92 62 93 70 94 63 95 65 96 71 97 64 98
REMARK SMILES IDX 66 99 67 100 68 101 69 102
REMARK H PARENT 27 5 3 10 32 36 91 55 59 66
REMARK Flexibility Score: inf
ROOT
ATOM      1  C   UNL A   1      40.978  21.882  27.999  1.00  0.00     0.116 C 
ENDROOT
BRANCH   1   2
ATOM      2  N   UNL A   1      41.459  21.097  26.889  1.00  0.00    -0.354 N 
ATOM      3  C   UNL A   1      40.732  20.260  26.114  1.00  0.00     0.242 C 
ATOM      4  O   UNL A   1      41.307  19.295  25.607  1.00  0.00    -0.273 OA
ATOM      5  H   UNL A   1      42.416  21.178  26.675  1.00  0.00     0.163 HD
BRANCH   3   6
ATOM      6  C   UNL A   1      39.241  20.516  25.855  1.00  0.00     0.168 C 
ATOM      7  C   UNL A   1      38.425  19.491  25.077  1.00  0.00     0.041 C 
BRANCH   6   8
ATOM      8  N   UNL A   1      38.880  21.874  25.516  1.00  0.00    -0.345 N 
ATOM      9  C   UNL A   1      37.632  22.397  25.357  1.00  0.00     0.222 C 
ATOM     10  H   UNL A   1      39.629  22.499  25.385  1.00  0.00     0.164 HD
ATOM     11  O   UNL A   1      37.542  23.544  24.915  1.00  0.00    -0.275 OA
BRANCH   9  12
ATOM     12  C   UNL A   1      36.388  21.611  25.754  1.00  0.00     0.122 C 
BRANCH  12  13
ATOM     13  C   UNL A   1      35.185  21.681  24.791  1.00  0.00     0.137 C 
BRANCH  13  14
ATOM     14  N   UNL A   1      34.242  22.809  24.975  1.00  0.00    -0.292 N 
ATOM     15  C   UNL A   1      34.138  23.809  24.015  1.00  0.00     0.266 C 
ATOM     16  C   UNL A   1      33.367  22.936  26.036  1.00  0.00     0.148 C 
ATOM     17  O   UNL A   1      34.507  23.741  22.854  1.00  0.00    -0.268 OA
ATOM     18  C   UNL A   1      33.531  25.022  24.638  1.00  0.00     0.081 C 
ATOM     19  S   UNL A   1      32.647  24.549  26.030  1.00  0.00    -0.054 SA
ATOM     20  S   UNL A   1      33.010  21.819  27.222  1.00  0.00    -0.052 S 
ATOM     21  C   UNL A   1      33.844  26.258  24.218  1.00  0.00     0.029 C 
BRANCH  21  22
ATOM     22  C   UNL A   1      33.524  27.551  24.850  1.00  0.00    -0.024 A 
ATOM     23  C   UNL A   1      34.082  27.853  26.099  1.00  0.00     0.015 A 
ATOM     24  C   UNL A   1      32.590  28.442  24.295  1.00  0.00     0.015 A 
ATOM     25  C   UNL A   1      33.751  29.039  26.767  1.00  0.00     0.086 A 
ATOM     26  C   UNL A   1      32.246  29.628  24.955  1.00  0.00     0.086 A 
ATOM     27  C   UNL A   1      32.836  29.926  26.188  1.00  0.00     0.269 A 
BRANCH  27  28
ATOM     28  N   UNL A   1      32.489  31.175  26.876  1.00  0.00     0.062 N 
ATOM     29  O   UNL A   1      31.374  31.664  26.652  1.00  0.00    -0.258 OA
ATOM     30  O   UNL A   1      33.333  31.655  27.647  1.00  0.00    -0.258 OA
ENDBRANCH  27  28
ENDBRANCH  21  22
ENDBRANCH  13  14
ENDBRANCH  12  13
ENDBRANCH   9  12
ENDBRANCH   6   8
ENDBRANCH   3   6
ENDBRANCH   1   2
BRANCH   1  31
ATOM     31  C   UNL A   1      41.444  23.324  27.854  1.00  0.00     0.023 C 
BRANCH  31  32
ATOM     32  C   UNL A   1      40.307  24.343  27.785  1.00  0.00     0.023 C 
BRANCH  32  33
ATOM     33  C   UNL A   1      40.245  25.130  26.482  1.00  0.00     0.116 C 
BRANCH  33  34
ATOM     34  N   UNL A   1      41.451  24.957  25.681  1.00  0.00    -0.352 N 
ATOM     35  C   UNL A   1      42.497  25.825  25.505  1.00  0.00     0.251 C 
ATOM     36  H   UNL A   1      41.523  24.100  25.201  1.00  0.00     0.163 HD
ATOM     37  O   UNL A   1      43.346  25.610  24.647  1.00  0.00    -0.269 OA
BRANCH  35  38
ATOM     38  C   UNL A   1      42.556  27.026  26.350  1.00  0.00     0.039 A 
ATOM     39  C   UNL A   1      43.301  26.989  27.529  1.00  0.00     0.014 A 
ATOM     40  C   UNL A   1      41.938  28.206  25.923  1.00  0.00     0.014 A 
ATOM     41  C   UNL A   1      43.474  28.163  28.258  1.00  0.00     0.010 A 
ATOM     42  C   UNL A   1      42.188  29.388  26.603  1.00  0.00     0.010 A 
ATOM     43  C   UNL A   1      42.949  29.377  27.783  1.00  0.00    -0.014 A 
BRANCH  43  44
ATOM     44  C   UNL A   1      43.177  30.647  28.510  1.00  0.00     0.031 A 
ATOM     45  C   UNL A   1      44.314  31.545  28.108  1.00  0.00     0.074 A 
ATOM     46  C   UNL A   1      42.414  30.948  29.579  1.00  0.00     0.049 A 
ATOM     47  N   UNL A   1      44.707  32.667  28.651  1.00  0.00    -0.248 NA
ATOM     48  C   UNL A   1      45.137  31.111  26.966  1.00  0.00     0.031 C 
ATOM     49  C   UNL A   1      41.338  30.111  30.117  1.00  0.00     0.029 A 
ATOM     50  N   UNL A   1      42.444  32.029  30.423  1.00  0.00    -0.354 N 
ATOM     51  C   UNL A   1      45.839  33.052  27.943  1.00  0.00     0.074 A 
ATOM     52  C   UNL A   1      46.096  32.024  26.961  1.00  0.00     0.031 C 
ATOM     53  C   UNL A   1      40.810  30.711  31.194  1.00  0.00     0.029 A 
ATOM     54  C   UNL A   1      41.524  31.959  31.443  1.00  0.00     0.049 A 
ATOM     55  H   UNL A   1      43.065  32.784  30.310  1.00  0.00     0.167 HD
ATOM     56  C   UNL A   1      46.576  34.180  28.073  1.00  0.00     0.034 A 
ATOM     57  C   UNL A   1      41.290  32.802  32.467  1.00  0.00     0.034 A 
ATOM     58  C   UNL A   1      46.290  35.217  29.024  1.00  0.00     0.049 A 
ATOM     59  C   UNL A   1      42.097  34.068  32.564  1.00  0.00     0.074 A 
ATOM     60  C   UNL A   1      46.921  36.438  29.182  1.00  0.00     0.029 A 
ATOM     61  N   UNL A   1      45.290  35.155  29.983  1.00  0.00    -0.354 N 
ATOM     62  N   UNL A   1      43.060  34.494  31.784  1.00  0.00    -0.248 NA
ATOM     63  C   UNL A   1      41.760  34.990  33.659  1.00  0.00     0.031 C 
ATOM     64  C   UNL A   1      46.319  37.103  30.255  1.00  0.00     0.029 A 
ATOM     65  C   UNL A   1      45.292  36.311  30.743  1.00  0.00     0.049 A 
ATOM     66  H   UNL A   1      44.671  34.399  30.105  1.00  0.00     0.167 HD
ATOM     67  C   UNL A   1      43.420  35.746  32.270  1.00  0.00     0.074 A 
ATOM     68  C   UNL A   1      42.554  36.019  33.398  1.00  0.00     0.031 C 
ATOM     69  C   UNL A   1      44.388  36.588  31.831  1.00  0.00     0.034 A 
BRANCH  56  70
ATOM     70  C   UNL A   1      47.730  34.372  27.124  1.00  0.00     0.023 A 
ATOM     71  C   UNL A   1      47.528  35.071  25.916  1.00  0.00     0.012 A 
ATOM     72  C   UNL A   1      49.022  33.910  27.447  1.00  0.00     0.148 A 
ATOM     73  C   UNL A   1      48.583  35.274  25.026  1.00  0.00     0.002 A 
ATOM     74  C   UNL A   1      50.077  34.160  26.578  1.00  0.00     0.091 A 
ATOM     75  F   UNL A   1      49.190  33.229  28.589  1.00  0.00    -0.205 F 
ATOM     76  C   UNL A   1      49.857  34.829  25.362  1.00  0.00     0.022 A 
BRANCH  74  77
ATOM     77  S   UNL A   1      51.774  33.706  26.957  1.00  0.00     0.127 S 
ATOM     78  O   UNL A   1      51.691  32.246  26.982  1.00  0.00    -0.237 OA
ATOM     79  O   UNL A   1      52.499  34.256  25.812  1.00  0.00    -0.237 OA
ATOM     80  O   UNL A   1      52.084  34.335  28.233  1.00  0.00    -0.744 OA
ENDBRANCH  74  77
ENDBRANCH  56  70
BRANCH  57  81
ATOM     81  C   UNL A   1      40.207  32.504  33.447  1.00  0.00     0.023 A 
ATOM     82  C   UNL A   1      40.480  31.681  34.557  1.00  0.00     0.012 A 
ATOM     83  C   UNL A   1      38.918  33.051  33.300  1.00  0.00     0.148 A 
ATOM     84  C   UNL A   1      39.480  31.378  35.481  1.00  0.00     0.002 A 
ATOM     85  C   UNL A   1      37.942  32.792  34.255  1.00  0.00     0.091 A 
ATOM     86  F   UNL A   1      38.675  33.826  32.232  1.00  0.00    -0.205 F 
ATOM     87  C   UNL A   1      38.215  31.941  35.337  1.00  0.00     0.022 A 
BRANCH  85  88
ATOM     88  S   UNL A   1      36.330  33.581  34.221  1.00  0.00     0.127 S 
ATOM     89  O   UNL A   1      35.602  32.737  33.277  1.00  0.00    -0.237 OA
ATOM     90  O   UNL A   1      35.903  33.458  35.615  1.00  0.00    -0.237 OA
ATOM     91  O   UNL A   1      36.572  34.952  33.789  1.00  0.00    -0.744 OA
ENDBRANCH  85  88
ENDBRANCH  57  81
BRANCH  69  92
ATOM     92  C   UNL A   1      44.543  37.906  32.543  1.00  0.00     0.023 A 
ATOM     93  C   UNL A   1      45.474  38.030  33.593  1.00  0.00     0.012 A 
ATOM     94  C   UNL A   1      43.822  39.038  32.117  1.00  0.00     0.148 A 
ATOM     95  C   UNL A   1      45.659  39.257  34.231  1.00  0.00     0.002 A 
ATOM     96  C   UNL A   1      44.050  40.267  32.722  1.00  0.00     0.091 A 
ATOM     97  F   UNL A   1      42.929  38.893  31.127  1.00  0.00    -0.205 F 
ATOM     98  C   UNL A   1      44.957  40.375  33.788  1.00  0.00     0.022 A 
BRANCH  96  99
ATOM     99  S   UNL A   1      43.267  41.781  32.155  1.00  0.00     0.127 S 
ATOM    100  O   UNL A   1      43.497  42.677  33.286  1.00  0.00    -0.237 OA
ATOM    101  O   UNL A   1      44.041  42.099  30.955  1.00  0.00    -0.237 OA
ATOM    102  O   UNL A   1      41.872  41.441  31.902  1.00  0.00    -0.744 OA
ENDBRANCH  96  99
ENDBRANCH  69  92
ENDBRANCH  43  44
ENDBRANCH  35  38
ENDBRANCH  33  34
ENDBRANCH  32  33
ENDBRANCH  31  32
ENDBRANCH   1  31
TORSDOF 20
ENDMDL
