MODEL 1
REMARK VINA RESULT:     -11.4      0.000      0.000
REMARK SMILES CN(C(=O)CC(=O)NCCCCNC(=O)c1ccc(-c2c3nc(c(-c4cccc(S(=O)(=O)[O-])c4F)c4ccc([nH]4)c(-c4cccc(S(=O)(=O)[O-])c4F)c4nc(c(-c5cccc(S(=O)(=O)[O-])c5F)c5ccc2[nH]5)C=C4)C=C3)cc1)C1CCC(C)(C)CC1
REMARK SMILES IDX 10 1 9 2 8 3 6 4 7 5 5 7 3 8 4 9 2 10 1 11 79 12 80 13 86 14
REMARK SMILES IDX 81 15 85 16 82 17 83 18 84 19 11 20 12 21 13 22 14 23 15 25
REMARK SMILES IDX 16 26 17 27 78 28 18 29 77 30 19 31 20 32 21 33 71 34 22 35
REMARK SMILES IDX 76 36 70 37 72 38 23 39 75 40 69 41 68 42 24 44 56 45 36 46
REMARK SMILES IDX 55 47 37 48 40 49 54 50 73 51 38 52 39 53 53 55 74 56 41 57
REMARK SMILES IDX 25 58 26 59 34 60 27 61 29 62 35 63 28 64 30 65 31 66 32 67
REMARK SMILES IDX 33 68 57 69 58 70 66 71 59 72 61 73 67 74 60 75 62 76 63 77
REMARK SMILES IDX 64 78 65 79 42 80 43 81 51 82 44 83 46 84 52 85 45 86 47 87
REMARK SMILES IDX 48 88 49 89 50 90
REMARK H PARENT 8 6 13 24 72 43 40 54
REMARK Flexibility Score: inf
ROOT
ATOM      1  C   UNL A   1      30.888  29.419  24.211  1.00  0.00     0.023 C 
ENDROOT
BRANCH   1   2
ATOM      2  C   UNL A   1      30.735  28.511  22.993  1.00  0.00     0.116 C 
BRANCH   2   3
ATOM      3  N   UNL A   1      32.011  28.332  22.327  1.00  0.00    -0.356 N 
ATOM      4  C   UNL A   1      32.746  27.198  22.161  1.00  0.00     0.229 C 
ATOM      5  O   UNL A   1      33.871  27.307  21.667  1.00  0.00    -0.275 OA
ATOM      6  H   UNL A   1      32.401  29.149  21.941  1.00  0.00     0.163 HD
BRANCH   4   7
ATOM      7  C   UNL A   1      32.177  25.840  22.472  1.00  0.00     0.200 C 
BRANCH   7   8
ATOM      8  C   UNL A   1      33.132  24.671  22.499  1.00  0.00     0.231 C 
ATOM      9  O   UNL A   1      33.295  24.060  21.441  1.00  0.00    -0.274 OA
BRANCH   8  10
ATOM     10  N   UNL A   1      33.831  24.355  23.659  1.00  0.00    -0.342 N 
ATOM     11  C   UNL A   1      33.823  25.232  24.831  1.00  0.00     0.147 C 
BRANCH  10  12
ATOM     12  C   UNL A   1      34.490  23.031  23.869  1.00  0.00     0.084 C 
ATOM     13  C   UNL A   1      35.857  22.915  23.191  1.00  0.00     0.025 C 
ATOM     14  C   UNL A   1      34.526  22.478  25.306  1.00  0.00     0.025 C 
ATOM     15  C   UNL A   1      36.982  23.495  24.031  1.00  0.00     0.008 C 
ATOM     16  C   UNL A   1      35.747  22.821  26.169  1.00  0.00     0.008 C 
ATOM     17  C   UNL A   1      37.111  22.899  25.442  1.00  0.00    -0.035 C 
ATOM     18  C   UNL A   1      38.054  23.816  26.253  1.00  0.00     0.011 C 
ATOM     19  C   UNL A   1      37.756  21.506  25.356  1.00  0.00     0.011 C 
ENDBRANCH  10  12
ENDBRANCH   8  10
ENDBRANCH   7   8
ENDBRANCH   4   7
ENDBRANCH   2   3
ENDBRANCH   1   2
BRANCH   1  20
ATOM     20  C   UNL A   1      31.706  28.858  25.368  1.00  0.00     0.023 C 
BRANCH  20  21
ATOM     21  C   UNL A   1      32.931  29.677  25.737  1.00  0.00     0.116 C 
BRANCH  21  22
ATOM     22  N   UNL A   1      32.616  30.992  26.280  1.00  0.00    -0.352 N 
ATOM     23  C   UNL A   1      33.321  31.735  27.202  1.00  0.00     0.251 C 
ATOM     24  H   UNL A   1      31.788  31.404  25.942  1.00  0.00     0.163 HD
ATOM     25  O   UNL A   1      32.869  32.789  27.625  1.00  0.00    -0.269 OA
BRANCH  23  26
ATOM     26  C   UNL A   1      34.613  31.217  27.705  1.00  0.00     0.039 A 
ATOM     27  C   UNL A   1      35.661  32.113  27.932  1.00  0.00     0.014 A 
ATOM     28  C   UNL A   1      34.764  29.864  28.015  1.00  0.00     0.014 A 
ATOM     29  C   UNL A   1      36.831  31.662  28.550  1.00  0.00     0.010 A 
ATOM     30  C   UNL A   1      35.883  29.441  28.717  1.00  0.00     0.010 A 
ATOM     31  C   UNL A   1      36.932  30.331  28.987  1.00  0.00    -0.014 A 
BRANCH  31  32
ATOM     32  C   UNL A   1      38.118  29.844  29.737  1.00  0.00     0.031 A 
ATOM     33  C   UNL A   1      38.349  30.294  31.154  1.00  0.00     0.074 A 
ATOM     34  C   UNL A   1      39.047  29.097  29.108  1.00  0.00     0.049 A 
ATOM     35  N   UNL A   1      39.364  30.050  31.942  1.00  0.00    -0.248 NA
ATOM     36  C   UNL A   1      37.325  31.168  31.751  1.00  0.00     0.031 C 
ATOM     37  C   UNL A   1      38.993  28.685  27.703  1.00  0.00     0.029 A 
ATOM     38  N   UNL A   1      40.235  28.580  29.559  1.00  0.00    -0.354 N 
ATOM     39  C   UNL A   1      39.128  30.780  33.100  1.00  0.00     0.074 A 
ATOM     40  C   UNL A   1      37.894  31.506  32.898  1.00  0.00     0.031 C 
ATOM     41  C   UNL A   1      40.096  27.976  27.410  1.00  0.00     0.029 A 
ATOM     42  C   UNL A   1      40.945  27.903  28.594  1.00  0.00     0.049 A 
ATOM     43  H   UNL A   1      40.551  28.684  30.486  1.00  0.00     0.167 HD
ATOM     44  C   UNL A   1      39.851  30.815  34.245  1.00  0.00     0.034 A 
ATOM     45  C   UNL A   1      42.145  27.293  28.656  1.00  0.00     0.034 A 
ATOM     46  C   UNL A   1      41.036  30.035  34.467  1.00  0.00     0.049 A 
ATOM     47  C   UNL A   1      42.886  27.269  29.966  1.00  0.00     0.074 A 
ATOM     48  C   UNL A   1      41.772  29.900  35.631  1.00  0.00     0.029 A 
ATOM     49  N   UNL A   1      41.663  29.258  33.504  1.00  0.00    -0.354 N 
ATOM     50  N   UNL A   1      42.552  27.812  31.111  1.00  0.00    -0.248 NA
ATOM     51  C   UNL A   1      44.146  26.515  30.004  1.00  0.00     0.031 C 
ATOM     52  C   UNL A   1      42.852  29.050  35.367  1.00  0.00     0.029 A 
ATOM     53  C   UNL A   1      42.780  28.645  34.043  1.00  0.00     0.049 A 
ATOM     54  H   UNL A   1      41.357  29.158  32.574  1.00  0.00     0.167 HD
ATOM     55  C   UNL A   1      43.543  27.442  32.013  1.00  0.00     0.074 A 
ATOM     56  C   UNL A   1      44.478  26.609  31.286  1.00  0.00     0.031 C 
ATOM     57  C   UNL A   1      43.673  27.775  33.321  1.00  0.00     0.034 A 
BRANCH  44  58
ATOM     58  C   UNL A   1      39.333  31.678  35.365  1.00  0.00     0.023 A 
ATOM     59  C   UNL A   1      38.392  31.149  36.273  1.00  0.00     0.012 A 
ATOM     60  C   UNL A   1      39.793  32.998  35.541  1.00  0.00     0.148 A 
ATOM     61  C   UNL A   1      37.883  31.930  37.309  1.00  0.00     0.002 A 
ATOM     62  C   UNL A   1      39.316  33.756  36.605  1.00  0.00     0.091 A 
ATOM     63  F   UNL A   1      40.668  33.496  34.655  1.00  0.00    -0.205 F 
ATOM     64  C   UNL A   1      38.352  33.229  37.480  1.00  0.00     0.022 A 
BRANCH  62  65
ATOM     65  S   UNL A   1      39.921  35.411  36.951  1.00  0.00     0.127 S 
ATOM     66  O   UNL A   1      39.239  35.719  38.207  1.00  0.00    -0.237 OA
ATOM     67  O   UNL A   1      41.363  35.195  37.078  1.00  0.00    -0.237 OA
ATOM     68  O   UNL A   1      39.533  36.223  35.806  1.00  0.00    -0.744 OA
ENDBRANCH  62  65
ENDBRANCH  44  58
BRANCH  45  69
ATOM     69  C   UNL A   1      42.671  26.580  27.458  1.00  0.00     0.023 A 
ATOM     70  C   UNL A   1      43.506  27.269  26.558  1.00  0.00     0.012 A 
ATOM     71  C   UNL A   1      42.400  25.216  27.236  1.00  0.00     0.148 A 
ATOM     72  C   UNL A   1      44.046  26.621  25.448  1.00  0.00     0.002 A 
ATOM     73  C   UNL A   1      42.983  24.561  26.156  1.00  0.00     0.091 A 
ATOM     74  F   UNL A   1      41.596  24.579  28.100  1.00  0.00    -0.205 F 
ATOM     75  C   UNL A   1      43.794  25.266  25.252  1.00  0.00     0.022 A 
BRANCH  73  76
ATOM     76  S   UNL A   1      42.826  22.790  25.900  1.00  0.00     0.127 S 
ATOM     77  O   UNL A   1      43.730  22.260  26.917  1.00  0.00    -0.237 OA
ATOM     78  O   UNL A   1      41.404  22.572  26.165  1.00  0.00    -0.237 OA
ATOM     79  O   UNL A   1      43.222  22.555  24.518  1.00  0.00    -0.744 OA
ENDBRANCH  73  76
ENDBRANCH  45  69
BRANCH  57  80
ATOM     80  C   UNL A   1      44.858  27.224  34.068  1.00  0.00     0.023 A 
ATOM     81  C   UNL A   1      46.059  27.960  34.109  1.00  0.00     0.012 A 
ATOM     82  C   UNL A   1      44.756  26.024  34.798  1.00  0.00     0.148 A 
ATOM     83  C   UNL A   1      47.149  27.495  34.845  1.00  0.00     0.002 A 
ATOM     84  C   UNL A   1      45.830  25.591  35.566  1.00  0.00     0.091 A 
ATOM     85  F   UNL A   1      43.612  25.328  34.729  1.00  0.00    -0.205 F 
ATOM     86  C   UNL A   1      47.031  26.320  35.582  1.00  0.00     0.022 A 
BRANCH  84  87
ATOM     87  S   UNL A   1      45.732  24.140  36.620  1.00  0.00     0.127 S 
ATOM     88  O   UNL A   1      47.072  24.103  37.205  1.00  0.00    -0.237 OA
ATOM     89  O   UNL A   1      44.667  24.504  37.556  1.00  0.00    -0.237 OA
ATOM     90  O   UNL A   1      45.401  23.029  35.737  1.00  0.00    -0.744 OA
ENDBRANCH  84  87
ENDBRANCH  57  80
ENDBRANCH  31  32
ENDBRANCH  23  26
ENDBRANCH  21  22
ENDBRANCH  20  21
ENDBRANCH   1  20
TORSDOF 17
ENDMDL
MODEL 2
REMARK VINA RESULT:     -11.3      2.531      8.246
REMARK SMILES CN(C(=O)CC(=O)NCCCCNC(=O)c1ccc(-c2c3nc(c(-c4cccc(S(=O)(=O)[O-])c4F)c4ccc([nH]4)c(-c4cccc(S(=O)(=O)[O-])c4F)c4nc(c(-c5cccc(S(=O)(=O)[O-])c5F)c5ccc2[nH]5)C=C4)C=C3)cc1)C1CCC(C)(C)CC1
REMARK SMILES IDX 10 1 9 2 8 3 6 4 7 5 5 7 3 8 4 9 2 10 1 11 79 12 80 13 86 14
REMARK SMILES IDX 81 15 85 16 82 17 83 18 84 19 11 20 12 21 13 22 14 23 15 25
REMARK SMILES IDX 16 26 17 27 78 28 18 29 77 30 19 31 20 32 21 33 71 34 22 35
REMARK SMILES IDX 76 36 70 37 72 38 23 39 75 40 69 41 68 42 24 44 56 45 36 46
REMARK SMILES IDX 55 47 37 48 40 49 54 50 73 51 38 52 39 53 53 55 74 56 41 57
REMARK SMILES IDX 25 58 26 59 34 60 27 61 29 62 35 63 28 64 30 65 31 66 32 67
REMARK SMILES IDX 33 68 57 69 58 70 66 71 59 72 61 73 67 74 60 75 62 76 63 77
REMARK SMILES IDX 64 78 65 79 42 80 43 81 51 82 44 83 46 84 52 85 45 86 47 87
REMARK SMILES IDX 48 88 49 89 50 90
REMARK H PARENT 8 6 13 24 72 43 40 54
REMARK Flexibility Score: inf
ROOT
ATOM      1  C   UNL A   1      32.147  30.259  26.748  1.00  0.00     0.023 C 
ENDROOT
BRANCH   1   2
ATOM      2  C   UNL A   1      32.305  29.715  25.331  1.00  0.00     0.116 C 
BRANCH   2   3
ATOM      3  N   UNL A   1      31.077  29.887  24.579  1.00  0.00    -0.356 N 
ATOM      4  C   UNL A   1      30.619  29.191  23.502  1.00  0.00     0.229 C 
ATOM      5  O   UNL A   1      29.598  29.598  22.943  1.00  0.00    -0.275 OA
ATOM      6  H   UNL A   1      30.489  30.612  24.893  1.00  0.00     0.163 HD
BRANCH   4   7
ATOM      7  C   UNL A   1      31.273  27.909  23.060  1.00  0.00     0.200 C 
BRANCH   7   8
ATOM      8  C   UNL A   1      30.995  26.666  23.871  1.00  0.00     0.231 C 
ATOM      9  O   UNL A   1      30.002  26.688  24.602  1.00  0.00    -0.274 OA
BRANCH   8  10
ATOM     10  N   UNL A   1      31.799  25.539  23.737  1.00  0.00    -0.342 N 
ATOM     11  C   UNL A   1      31.244  24.228  23.401  1.00  0.00     0.147 C 
BRANCH  10  12
ATOM     12  C   UNL A   1      33.291  25.608  23.746  1.00  0.00     0.084 C 
ATOM     13  C   UNL A   1      33.878  25.954  25.115  1.00  0.00     0.025 C 
ATOM     14  C   UNL A   1      34.056  24.448  23.082  1.00  0.00     0.025 C 
ATOM     15  C   UNL A   1      34.029  24.739  26.016  1.00  0.00     0.008 C 
ATOM     16  C   UNL A   1      34.462  23.264  23.969  1.00  0.00     0.008 C 
ATOM     17  C   UNL A   1      34.869  23.596  25.425  1.00  0.00    -0.035 C 
ATOM     18  C   UNL A   1      34.638  22.345  26.303  1.00  0.00     0.011 C 
ATOM     19  C   UNL A   1      36.361  23.961  25.497  1.00  0.00     0.011 C 
ENDBRANCH  10  12
ENDBRANCH   8  10
ENDBRANCH   7   8
ENDBRANCH   4   7
ENDBRANCH   2   3
ENDBRANCH   1   2
BRANCH   1  20
ATOM     20  C   UNL A   1      31.832  31.746  26.864  1.00  0.00     0.023 C 
BRANCH  20  21
ATOM     21  C   UNL A   1      32.946  32.587  27.463  1.00  0.00     0.116 C 
BRANCH  21  22
ATOM     22  N   UNL A   1      32.568  33.973  27.708  1.00  0.00    -0.352 N 
ATOM     23  C   UNL A   1      33.110  34.869  28.605  1.00  0.00     0.251 C 
ATOM     24  H   UNL A   1      31.826  34.315  27.159  1.00  0.00     0.163 HD
ATOM     25  O   UNL A   1      32.613  35.976  28.752  1.00  0.00    -0.269 OA
BRANCH  23  26
ATOM     26  C   UNL A   1      34.277  34.456  29.417  1.00  0.00     0.039 A 
ATOM     27  C   UNL A   1      34.060  33.886  30.674  1.00  0.00     0.014 A 
ATOM     28  C   UNL A   1      35.572  34.570  28.909  1.00  0.00     0.014 A 
ATOM     29  C   UNL A   1      35.139  33.352  31.384  1.00  0.00     0.010 A 
ATOM     30  C   UNL A   1      36.625  33.951  29.568  1.00  0.00     0.010 A 
ATOM     31  C   UNL A   1      36.424  33.341  30.815  1.00  0.00    -0.014 A 
BRANCH  31  32
ATOM     32  C   UNL A   1      37.573  32.692  31.495  1.00  0.00     0.031 A 
ATOM     33  C   UNL A   1      38.275  31.531  30.844  1.00  0.00     0.074 A 
ATOM     34  C   UNL A   1      37.909  33.066  32.746  1.00  0.00     0.049 A 
ATOM     35  N   UNL A   1      39.237  30.780  31.314  1.00  0.00    -0.248 NA
ATOM     36  C   UNL A   1      37.804  31.133  29.506  1.00  0.00     0.031 C 
ATOM     37  C   UNL A   1      37.236  34.106  33.528  1.00  0.00     0.029 A 
ATOM     38  N   UNL A   1      38.879  32.591  33.592  1.00  0.00    -0.354 N 
ATOM     39  C   UNL A   1      39.448  29.794  30.358  1.00  0.00     0.074 A 
ATOM     40  C   UNL A   1      38.489  30.018  29.300  1.00  0.00     0.031 C 
ATOM     41  C   UNL A   1      37.816  34.192  34.737  1.00  0.00     0.029 A 
ATOM     42  C   UNL A   1      38.883  33.201  34.825  1.00  0.00     0.049 A 
ATOM     43  H   UNL A   1      39.512  31.880  33.341  1.00  0.00     0.167 HD
ATOM     44  C   UNL A   1      40.381  28.812  30.342  1.00  0.00     0.034 A 
ATOM     45  C   UNL A   1      39.659  32.986  35.906  1.00  0.00     0.034 A 
ATOM     46  C   UNL A   1      41.379  28.639  31.360  1.00  0.00     0.049 A 
ATOM     47  C   UNL A   1      40.749  31.951  35.829  1.00  0.00     0.074 A 
ATOM     48  C   UNL A   1      42.446  27.759  31.379  1.00  0.00     0.029 A 
ATOM     49  N   UNL A   1      41.433  29.360  32.544  1.00  0.00    -0.354 N 
ATOM     50  N   UNL A   1      41.056  31.151  34.837  1.00  0.00    -0.248 NA
ATOM     51  C   UNL A   1      41.625  31.817  37.001  1.00  0.00     0.031 C 
ATOM     52  C   UNL A   1      43.138  27.939  32.582  1.00  0.00     0.029 A 
ATOM     53  C   UNL A   1      42.510  28.941  33.305  1.00  0.00     0.049 A 
ATOM     54  H   UNL A   1      40.797  30.065  32.804  1.00  0.00     0.167 HD
ATOM     55  C   UNL A   1      42.176  30.440  35.252  1.00  0.00     0.074 A 
ATOM     56  C   UNL A   1      42.507  30.921  36.578  1.00  0.00     0.031 C 
ATOM     57  C   UNL A   1      42.859  29.466  34.600  1.00  0.00     0.034 A 
BRANCH  44  58
ATOM     58  C   UNL A   1      40.402  27.896  29.146  1.00  0.00     0.023 A 
ATOM     59  C   UNL A   1      39.461  26.850  29.055  1.00  0.00     0.012 A 
ATOM     60  C   UNL A   1      41.329  28.083  28.102  1.00  0.00     0.148 A 
ATOM     61  C   UNL A   1      39.469  25.977  27.969  1.00  0.00     0.002 A 
ATOM     62  C   UNL A   1      41.301  27.236  26.999  1.00  0.00     0.091 A 
ATOM     63  F   UNL A   1      42.234  29.065  28.215  1.00  0.00    -0.205 F 
ATOM     64  C   UNL A   1      40.381  26.176  26.937  1.00  0.00     0.022 A 
BRANCH  62  65
ATOM     65  S   UNL A   1      42.386  27.465  25.586  1.00  0.00     0.127 S 
ATOM     66  O   UNL A   1      43.696  27.542  26.229  1.00  0.00    -0.237 OA
ATOM     67  O   UNL A   1      42.157  26.241  24.816  1.00  0.00    -0.237 OA
ATOM     68  O   UNL A   1      41.931  28.682  24.930  1.00  0.00    -0.744 OA
ENDBRANCH  62  65
ENDBRANCH  44  58
BRANCH  45  69
ATOM     69  C   UNL A   1      39.484  33.835  37.118  1.00  0.00     0.023 A 
ATOM     70  C   UNL A   1      39.907  35.178  37.084  1.00  0.00     0.012 A 
ATOM     71  C   UNL A   1      38.850  33.344  38.276  1.00  0.00     0.148 A 
ATOM     72  C   UNL A   1      39.723  36.010  38.187  1.00  0.00     0.002 A 
ATOM     73  C   UNL A   1      38.623  34.194  39.353  1.00  0.00     0.091 A 
ATOM     74  F   UNL A   1      38.462  32.061  38.291  1.00  0.00    -0.205 F 
ATOM     75  C   UNL A   1      39.072  35.523  39.317  1.00  0.00     0.022 A 
BRANCH  73  76
ATOM     76  S   UNL A   1      37.673  33.694  40.795  1.00  0.00     0.127 S 
ATOM     77  O   UNL A   1      38.596  32.774  41.455  1.00  0.00    -0.237 OA
ATOM     78  O   UNL A   1      37.477  34.970  41.483  1.00  0.00    -0.237 OA
ATOM     79  O   UNL A   1      36.451  33.098  40.274  1.00  0.00    -0.744 OA
ENDBRANCH  73  76
ENDBRANCH  45  69
BRANCH  57  80
ATOM     80  C   UNL A   1      44.051  28.863  35.295  1.00  0.00     0.023 A 
ATOM     81  C   UNL A   1      45.331  29.412  35.081  1.00  0.00     0.012 A 
ATOM     82  C   UNL A   1      43.892  27.814  36.221  1.00  0.00     0.148 A 
ATOM     83  C   UNL A   1      46.439  28.907  35.761  1.00  0.00     0.002 A 
ATOM     84  C   UNL A   1      44.993  27.347  36.928  1.00  0.00     0.091 A 
ATOM     85  F   UNL A   1      42.669  27.292  36.394  1.00  0.00    -0.205 F 
ATOM     86  C   UNL A   1      46.269  27.885  36.691  1.00  0.00     0.022 A 
BRANCH  84  87
ATOM     87  S   UNL A   1      44.849  26.100  38.213  1.00  0.00     0.127 S 
ATOM     88  O   UNL A   1      44.316  24.962  37.466  1.00  0.00    -0.237 OA
ATOM     89  O   UNL A   1      46.236  25.944  38.655  1.00  0.00    -0.237 OA
ATOM     90  O   UNL A   1      43.959  26.666  39.218  1.00  0.00    -0.744 OA
ENDBRANCH  84  87
ENDBRANCH  57  80
ENDBRANCH  31  32
ENDBRANCH  23  26
ENDBRANCH  21  22
ENDBRANCH  20  21
ENDBRANCH   1  20
TORSDOF 17
ENDMDL
MODEL 3
REMARK VINA RESULT:     -11.2      5.153     10.252
REMARK SMILES CN(C(=O)CC(=O)NCCCCNC(=O)c1ccc(-c2c3nc(c(-c4cccc(S(=O)(=O)[O-])c4F)c4ccc([nH]4)c(-c4cccc(S(=O)(=O)[O-])c4F)c4nc(c(-c5cccc(S(=O)(=O)[O-])c5F)c5ccc2[nH]5)C=C4)C=C3)cc1)C1CCC(C)(C)CC1
REMARK SMILES IDX 10 1 9 2 8 3 6 4 7 5 5 7 3 8 4 9 2 10 1 11 79 12 80 13 86 14
REMARK SMILES IDX 81 15 85 16 82 17 83 18 84 19 11 20 12 21 13 22 14 23 15 25
REMARK SMILES IDX 16 26 17 27 78 28 18 29 77 30 19 31 20 32 21 33 71 34 22 35
REMARK SMILES IDX 76 36 70 37 72 38 23 39 75 40 69 41 68 42 24 44 56 45 36 46
REMARK SMILES IDX 55 47 37 48 40 49 54 50 73 51 38 52 39 53 53 55 74 56 41 57
REMARK SMILES IDX 25 58 26 59 34 60 27 61 29 62 35 63 28 64 30 65 31 66 32 67
REMARK SMILES IDX 33 68 57 69 58 70 66 71 59 72 61 73 67 74 60 75 62 76 63 77
REMARK SMILES IDX 64 78 65 79 42 80 43 81 51 82 44 83 46 84 52 85 45 86 47 87
REMARK SMILES IDX 48 88 49 89 50 90
REMARK H PARENT 8 6 13 24 72 43 40 54
REMARK Flexibility Score: inf
ROOT
ATOM      1  C   UNL A   1      33.936  21.871  24.821  1.00  0.00     0.023 C 
ENDROOT
BRANCH   1   2
ATOM      2  C   UNL A   1      32.628  21.310  25.373  1.00  0.00     0.116 C 
BRANCH   2   3
ATOM      3  N   UNL A   1      32.069  22.204  26.368  1.00  0.00    -0.356 N 
ATOM      4  C   UNL A   1      31.358  23.353  26.195  1.00  0.00     0.229 C 
ATOM      5  O   UNL A   1      31.091  24.022  27.195  1.00  0.00    -0.275 OA
ATOM      6  H   UNL A   1      32.228  21.943  27.304  1.00  0.00     0.163 HD
BRANCH   4   7
ATOM      7  C   UNL A   1      30.826  23.750  24.845  1.00  0.00     0.200 C 
BRANCH   7   8
ATOM      8  C   UNL A   1      30.920  25.207  24.456  1.00  0.00     0.231 C 
ATOM      9  O   UNL A   1      30.100  25.973  24.965  1.00  0.00    -0.274 OA
BRANCH   8  10
ATOM     10  N   UNL A   1      31.932  25.649  23.610  1.00  0.00    -0.342 N 
ATOM     11  C   UNL A   1      31.785  25.636  22.155  1.00  0.00     0.147 C 
BRANCH  10  12
ATOM     12  C   UNL A   1      33.162  26.331  24.113  1.00  0.00     0.084 C 
ATOM     13  C   UNL A   1      33.193  27.831  23.816  1.00  0.00     0.025 C 
ATOM     14  C   UNL A   1      33.594  26.035  25.560  1.00  0.00     0.025 C 
ATOM     15  C   UNL A   1      32.438  28.652  24.848  1.00  0.00     0.008 C 
ATOM     16  C   UNL A   1      33.064  26.960  26.664  1.00  0.00     0.008 C 
ATOM     17  C   UNL A   1      32.906  28.455  26.299  1.00  0.00    -0.035 C 
ATOM     18  C   UNL A   1      31.838  29.082  27.223  1.00  0.00     0.011 C 
ATOM     19  C   UNL A   1      34.230  29.206  26.521  1.00  0.00     0.011 C 
ENDBRANCH  10  12
ENDBRANCH   8  10
ENDBRANCH   7   8
ENDBRANCH   4   7
ENDBRANCH   2   3
ENDBRANCH   1   2
BRANCH   1  20
ATOM     20  C   UNL A   1      35.136  21.819  25.759  1.00  0.00     0.023 C 
BRANCH  20  21
ATOM     21  C   UNL A   1      36.474  22.100  25.096  1.00  0.00     0.116 C 
BRANCH  21  22
ATOM     22  N   UNL A   1      37.443  21.022  25.249  1.00  0.00    -0.352 N 
ATOM     23  C   UNL A   1      38.718  21.076  25.768  1.00  0.00     0.251 C 
ATOM     24  H   UNL A   1      37.145  20.136  24.941  1.00  0.00     0.163 HD
ATOM     25  O   UNL A   1      39.441  20.092  25.741  1.00  0.00    -0.269 OA
BRANCH  23  26
ATOM     26  C   UNL A   1      39.215  22.358  26.319  1.00  0.00     0.039 A 
ATOM     27  C   UNL A   1      40.370  22.355  27.106  1.00  0.00     0.014 A 
ATOM     28  C   UNL A   1      38.581  23.560  26.003  1.00  0.00     0.014 A 
ATOM     29  C   UNL A   1      40.934  23.570  27.504  1.00  0.00     0.010 A 
ATOM     30  C   UNL A   1      39.198  24.764  26.313  1.00  0.00     0.010 A 
ATOM     31  C   UNL A   1      40.377  24.785  27.072  1.00  0.00    -0.014 A 
BRANCH  31  32
ATOM     32  C   UNL A   1      41.008  26.091  27.390  1.00  0.00     0.031 A 
ATOM     33  C   UNL A   1      42.422  26.369  26.956  1.00  0.00     0.074 A 
ATOM     34  C   UNL A   1      40.356  26.976  28.170  1.00  0.00     0.049 A 
ATOM     35  N   UNL A   1      43.173  27.408  27.211  1.00  0.00    -0.248 NA
ATOM     36  C   UNL A   1      43.094  25.323  26.167  1.00  0.00     0.031 C 
ATOM     37  C   UNL A   1      39.024  26.779  28.746  1.00  0.00     0.029 A 
ATOM     38  N   UNL A   1      40.742  28.206  28.642  1.00  0.00    -0.354 N 
ATOM     39  C   UNL A   1      44.417  27.118  26.663  1.00  0.00     0.074 A 
ATOM     40  C   UNL A   1      44.331  25.791  26.096  1.00  0.00     0.031 C 
ATOM     41  C   UNL A   1      38.702  27.851  29.489  1.00  0.00     0.029 A 
ATOM     42  C   UNL A   1      39.811  28.799  29.463  1.00  0.00     0.049 A 
ATOM     43  H   UNL A   1      41.603  28.625  28.415  1.00  0.00     0.167 HD
ATOM     44  C   UNL A   1      45.522  27.899  26.602  1.00  0.00     0.034 A 
ATOM     45  C   UNL A   1      39.847  29.974  30.122  1.00  0.00     0.034 A 
ATOM     46  C   UNL A   1      45.579  29.245  27.102  1.00  0.00     0.049 A 
ATOM     47  C   UNL A   1      41.049  30.865  29.964  1.00  0.00     0.074 A 
ATOM     48  C   UNL A   1      46.604  30.166  26.979  1.00  0.00     0.029 A 
ATOM     49  N   UNL A   1      44.569  29.864  27.823  1.00  0.00    -0.354 N 
ATOM     50  N   UNL A   1      42.148  30.651  29.282  1.00  0.00    -0.248 NA
ATOM     51  C   UNL A   1      41.001  32.174  30.630  1.00  0.00     0.031 C 
ATOM     52  C   UNL A   1      46.218  31.338  27.639  1.00  0.00     0.029 A 
ATOM     53  C   UNL A   1      44.946  31.152  28.159  1.00  0.00     0.049 A 
ATOM     54  H   UNL A   1      43.709  29.447  28.061  1.00  0.00     0.167 HD
ATOM     55  C   UNL A   1      42.909  31.807  29.411  1.00  0.00     0.074 A 
ATOM     56  C   UNL A   1      42.134  32.727  30.218  1.00  0.00     0.031 C 
ATOM     57  C   UNL A   1      44.144  32.076  28.918  1.00  0.00     0.034 A 
BRANCH  44  58
ATOM     58  C   UNL A   1      46.733  27.334  25.909  1.00  0.00     0.023 A 
ATOM     59  C   UNL A   1      47.569  26.430  26.596  1.00  0.00     0.012 A 
ATOM     60  C   UNL A   1      47.032  27.671  24.574  1.00  0.00     0.148 A 
ATOM     61  C   UNL A   1      48.706  25.905  25.985  1.00  0.00     0.002 A 
ATOM     62  C   UNL A   1      48.142  27.108  23.955  1.00  0.00     0.091 A 
ATOM     63  F   UNL A   1      46.243  28.553  23.943  1.00  0.00    -0.205 F 
ATOM     64  C   UNL A   1      48.987  26.236  24.662  1.00  0.00     0.022 A 
BRANCH  62  65
ATOM     65  S   UNL A   1      48.538  27.414  22.230  1.00  0.00     0.127 S 
ATOM     66  O   UNL A   1      48.651  26.054  21.707  1.00  0.00    -0.237 OA
ATOM     67  O   UNL A   1      47.360  28.149  21.766  1.00  0.00    -0.237 OA
ATOM     68  O   UNL A   1      49.768  28.192  22.238  1.00  0.00    -0.744 OA
ENDBRANCH  62  65
ENDBRANCH  44  58
BRANCH  45  69
ATOM     69  C   UNL A   1      38.663  30.407  30.917  1.00  0.00     0.023 A 
ATOM     70  C   UNL A   1      38.639  30.164  32.304  1.00  0.00     0.012 A 
ATOM     71  C   UNL A   1      37.595  31.109  30.325  1.00  0.00     0.148 A 
ATOM     72  C   UNL A   1      37.565  30.590  33.083  1.00  0.00     0.002 A 
ATOM     73  C   UNL A   1      36.551  31.577  31.116  1.00  0.00     0.091 A 
ATOM     74  F   UNL A   1      37.633  31.324  29.002  1.00  0.00    -0.205 F 
ATOM     75  C   UNL A   1      36.527  31.306  32.493  1.00  0.00     0.022 A 
BRANCH  73  76
ATOM     76  S   UNL A   1      35.241  32.622  30.468  1.00  0.00     0.127 S 
ATOM     77  O   UNL A   1      34.330  32.699  31.606  1.00  0.00    -0.237 OA
ATOM     78  O   UNL A   1      35.963  33.860  30.172  1.00  0.00    -0.237 OA
ATOM     79  O   UNL A   1      34.729  31.930  29.294  1.00  0.00    -0.744 OA
ENDBRANCH  73  76
ENDBRANCH  45  69
BRANCH  57  80
ATOM     80  C   UNL A   1      44.736  33.428  29.215  1.00  0.00     0.023 A 
ATOM     81  C   UNL A   1      45.415  33.639  30.431  1.00  0.00     0.012 A 
ATOM     82  C   UNL A   1      44.695  34.459  28.256  1.00  0.00     0.148 A 
ATOM     83  C   UNL A   1      46.022  34.865  30.699  1.00  0.00     0.002 A 
ATOM     84  C   UNL A   1      45.341  35.662  28.511  1.00  0.00     0.091 A 
ATOM     85  F   UNL A   1      44.025  34.245  27.114  1.00  0.00    -0.205 F 
ATOM     86  C   UNL A   1      45.996  35.871  29.736  1.00  0.00     0.022 A 
BRANCH  84  87
ATOM     87  S   UNL A   1      45.438  36.976  27.290  1.00  0.00     0.127 S 
ATOM     88  O   UNL A   1      46.342  37.923  27.939  1.00  0.00    -0.237 OA
ATOM     89  O   UNL A   1      46.008  36.285  26.131  1.00  0.00    -0.237 OA
ATOM     90  O   UNL A   1      44.071  37.442  27.097  1.00  0.00    -0.744 OA
ENDBRANCH  84  87
ENDBRANCH  57  80
ENDBRANCH  31  32
ENDBRANCH  23  26
ENDBRANCH  21  22
ENDBRANCH  20  21
ENDBRANCH   1  20
TORSDOF 17
ENDMDL
