MODEL 1
REMARK VINA RESULT:     -12.0      0.000      0.000
REMARK SMILES CCc1ccsc1CNC(=O)N1[C@H]2CC[C@@H]1[C@H](C(=O)NCCCCNC(=O)c1ccc(-c3c4nc(c(-c5cccc(S(=O)(=O)[O-])c5F)c5ccc([nH]5)c(-c5cccc(S(=O)(=O)[O-])c5F)c5nc(c(-c6cccc(S(=O)(=O)[O-])c6F)c6ccc3[nH]6)C=C5)C=C4)cc1)C2
REMARK SMILES IDX 22 1 21 2 20 3 18 4 19 5 17 7 12 8 13 9 16 10 14 11 91 12
REMARK SMILES IDX 15 13 10 14 9 15 11 17 8 18 7 19 3 20 4 21 5 22 6 23 2 24
REMARK SMILES IDX 1 25 23 26 24 27 25 28 26 29 27 31 28 32 29 33 90 34 30 35
REMARK SMILES IDX 89 36 31 37 32 38 33 39 83 40 34 41 88 42 82 43 84 44 35 45
REMARK SMILES IDX 87 46 81 47 80 48 36 50 68 51 48 52 67 53 49 54 52 55 66 56
REMARK SMILES IDX 85 57 50 58 51 59 65 61 86 62 53 63 37 64 38 65 46 66 39 67
REMARK SMILES IDX 41 68 47 69 40 70 42 71 43 72 44 73 45 74 69 75 70 76 78 77
REMARK SMILES IDX 71 78 73 79 79 80 72 81 74 82 75 83 76 84 77 85 54 86 55 87
REMARK SMILES IDX 63 88 56 89 58 90 64 91 57 92 59 93 60 94 61 95 62 96
REMARK H PARENT 20 6 9 16 25 30 84 49 52 60
REMARK Flexibility Score: inf
ROOT
ATOM      1  C   UNL A   1      31.305  28.818  24.050  1.00  0.00     0.023 C 
ENDROOT
BRANCH   1   2
ATOM      2  C   UNL A   1      31.120  28.030  22.755  1.00  0.00     0.116 C 
BRANCH   2   3
ATOM      3  N   UNL A   1      32.320  27.307  22.413  1.00  0.00    -0.356 N 
ATOM      4  C   UNL A   1      32.815  26.116  22.814  1.00  0.00     0.225 C 
ATOM      5  O   UNL A   1      33.964  25.856  22.437  1.00  0.00    -0.275 OA
ATOM      6  H   UNL A   1      32.890  27.772  21.760  1.00  0.00     0.163 HD
BRANCH   4   7
ATOM      7  C   UNL A   1      32.084  25.101  23.673  1.00  0.00     0.103 C 
ATOM      8  N   UNL A   1      31.563  23.902  25.515  1.00  0.00    -0.318 N 
ATOM      9  C   UNL A   1      30.352  24.671  25.275  1.00  0.00     0.088 C 
ATOM     10  C   UNL A   1      32.556  24.887  25.123  1.00  0.00     0.099 C 
ATOM     11  C   UNL A   1      30.628  25.897  26.161  1.00  0.00     0.027 C 
ATOM     12  C   UNL A   1      30.542  25.063  23.793  1.00  0.00     0.040 C 
ATOM     13  C   UNL A   1      32.165  26.014  26.085  1.00  0.00     0.028 C 
BRANCH   8  14
ATOM     14  C   UNL A   1      31.796  22.900  26.393  1.00  0.00     0.318 C 
ATOM     15  N   UNL A   1      31.950  21.645  25.914  1.00  0.00    -0.333 N 
ATOM     16  H   UNL A   1      31.898  20.924  26.582  1.00  0.00     0.165 HD
ATOM     17  O   UNL A   1      31.949  23.092  27.598  1.00  0.00    -0.249 OA
BRANCH  15  18
ATOM     18  C   UNL A   1      32.181  21.222  24.554  1.00  0.00     0.165 C 
BRANCH  18  19
ATOM     19  C   UNL A   1      33.136  20.061  24.457  1.00  0.00     0.027 A 
ATOM     20  C   UNL A   1      34.491  20.054  24.772  1.00  0.00    -0.033 A 
ATOM     21  C   UNL A   1      35.046  18.736  24.653  1.00  0.00     0.016 A 
ATOM     22  C   UNL A   1      34.116  17.798  24.274  1.00  0.00     0.065 A 
ATOM     23  S   UNL A   1      32.576  18.486  24.056  1.00  0.00    -0.147 S 
BRANCH  20  24
ATOM     24  C   UNL A   1      35.289  21.253  25.203  1.00  0.00     0.033 C 
ATOM     25  C   UNL A   1      35.431  22.299  24.105  1.00  0.00     0.009 C 
ENDBRANCH  20  24
ENDBRANCH  18  19
ENDBRANCH  15  18
ENDBRANCH   8  14
ENDBRANCH   4   7
ENDBRANCH   2   3
ENDBRANCH   1   2
BRANCH   1  26
ATOM     26  C   UNL A   1      32.723  29.296  24.323  1.00  0.00     0.023 C 
BRANCH  26  27
ATOM     27  C   UNL A   1      33.059  29.495  25.791  1.00  0.00     0.116 C 
BRANCH  27  28
ATOM     28  N   UNL A   1      32.668  30.793  26.323  1.00  0.00    -0.352 N 
ATOM     29  C   UNL A   1      33.381  31.583  27.203  1.00  0.00     0.251 C 
ATOM     30  H   UNL A   1      31.799  31.147  26.023  1.00  0.00     0.163 HD
ATOM     31  O   UNL A   1      32.922  32.635  27.628  1.00  0.00    -0.269 OA
BRANCH  29  32
ATOM     32  C   UNL A   1      34.698  31.088  27.649  1.00  0.00     0.039 A 
ATOM     33  C   UNL A   1      35.722  32.006  27.885  1.00  0.00     0.014 A 
ATOM     34  C   UNL A   1      34.852  29.740  27.973  1.00  0.00     0.014 A 
ATOM     35  C   UNL A   1      36.885  31.578  28.528  1.00  0.00     0.010 A 
ATOM     36  C   UNL A   1      35.965  29.340  28.698  1.00  0.00     0.010 A 
ATOM     37  C   UNL A   1      36.996  30.251  28.975  1.00  0.00    -0.014 A 
BRANCH  37  38
ATOM     38  C   UNL A   1      38.189  29.775  29.719  1.00  0.00     0.031 A 
ATOM     39  C   UNL A   1      38.430  30.276  31.118  1.00  0.00     0.074 A 
ATOM     40  C   UNL A   1      39.100  28.990  29.110  1.00  0.00     0.049 A 
ATOM     41  N   UNL A   1      39.457  30.077  31.900  1.00  0.00    -0.248 NA
ATOM     42  C   UNL A   1      37.399  31.156  31.698  1.00  0.00     0.031 C 
ATOM     43  C   UNL A   1      39.027  28.516  27.726  1.00  0.00     0.029 A 
ATOM     44  N   UNL A   1      40.283  28.472  29.573  1.00  0.00    -0.354 N 
ATOM     45  C   UNL A   1      39.220  30.842  33.036  1.00  0.00     0.074 A 
ATOM     46  C   UNL A   1      37.975  31.547  32.823  1.00  0.00     0.031 C 
ATOM     47  C   UNL A   1      40.110  27.766  27.458  1.00  0.00     0.029 A 
ATOM     48  C   UNL A   1      40.963  27.723  28.641  1.00  0.00     0.049 A 
ATOM     49  H   UNL A   1      40.615  28.622  30.488  1.00  0.00     0.167 HD
ATOM     50  C   UNL A   1      39.947  30.919  34.174  1.00  0.00     0.034 A 
ATOM     51  C   UNL A   1      42.138  27.070  28.737  1.00  0.00     0.034 A 
ATOM     52  C   UNL A   1      41.135  30.150  34.415  1.00  0.00     0.049 A 
ATOM     53  C   UNL A   1      42.878  27.094  30.049  1.00  0.00     0.074 A 
ATOM     54  C   UNL A   1      41.898  30.081  35.567  1.00  0.00     0.029 A 
ATOM     55  N   UNL A   1      41.719  29.295  33.494  1.00  0.00    -0.354 N 
ATOM     56  N   UNL A   1      42.557  27.704  31.165  1.00  0.00    -0.248 NA
ATOM     57  C   UNL A   1      44.116  26.305  30.131  1.00  0.00     0.031 C 
ATOM     58  C   UNL A   1      42.941  29.178  35.343  1.00  0.00     0.029 A 
ATOM     59  C   UNL A   1      42.825  28.682  34.054  1.00  0.00     0.049 A 
ATOM     60  H   UNL A   1      41.395  29.147  32.576  1.00  0.00     0.167 HD
ATOM     61  C   UNL A   1      43.529  27.341  32.090  1.00  0.00     0.074 A 
ATOM     62  C   UNL A   1      44.439  26.442  31.410  1.00  0.00     0.031 C 
ATOM     63  C   UNL A   1      43.669  27.729  33.382  1.00  0.00     0.034 A 
BRANCH  50  64
ATOM     64  C   UNL A   1      39.423  31.801  35.275  1.00  0.00     0.023 A 
ATOM     65  C   UNL A   1      38.494  31.272  36.195  1.00  0.00     0.012 A 
ATOM     66  C   UNL A   1      39.871  33.126  35.429  1.00  0.00     0.148 A 
ATOM     67  C   UNL A   1      37.989  32.060  37.228  1.00  0.00     0.002 A 
ATOM     68  C   UNL A   1      39.396  33.892  36.487  1.00  0.00     0.091 A 
ATOM     69  F   UNL A   1      40.735  33.619  34.531  1.00  0.00    -0.205 F 
ATOM     70  C   UNL A   1      38.447  33.365  37.380  1.00  0.00     0.022 A 
BRANCH  68  71
ATOM     71  S   UNL A   1      39.977  35.560  36.813  1.00  0.00     0.127 S 
ATOM     72  O   UNL A   1      39.309  35.863  38.078  1.00  0.00    -0.237 OA
ATOM     73  O   UNL A   1      41.424  35.367  36.919  1.00  0.00    -0.237 OA
ATOM     74  O   UNL A   1      39.554  36.361  35.674  1.00  0.00    -0.744 OA
ENDBRANCH  68  71
ENDBRANCH  50  64
BRANCH  51  75
ATOM     75  C   UNL A   1      42.638  26.251  27.595  1.00  0.00     0.023 A 
ATOM     76  C   UNL A   1      43.544  26.831  26.683  1.00  0.00     0.012 A 
ATOM     77  C   UNL A   1      42.246  24.912  27.411  1.00  0.00     0.148 A 
ATOM     78  C   UNL A   1      44.019  26.107  25.590  1.00  0.00     0.002 A 
ATOM     79  C   UNL A   1      42.763  24.179  26.346  1.00  0.00     0.091 A 
ATOM     80  F   UNL A   1      41.373  24.379  28.277  1.00  0.00    -0.205 F 
ATOM     81  C   UNL A   1      43.637  24.779  25.426  1.00  0.00     0.022 A 
BRANCH  79  82
ATOM     82  S   UNL A   1      42.417  22.429  26.139  1.00  0.00     0.127 S 
ATOM     83  O   UNL A   1      40.960  22.417  26.063  1.00  0.00    -0.237 OA
ATOM     84  O   UNL A   1      43.103  22.124  24.883  1.00  0.00    -0.237 OA
ATOM     85  O   UNL A   1      43.004  21.783  27.307  1.00  0.00    -0.744 OA
ENDBRANCH  79  82
ENDBRANCH  51  75
BRANCH  63  86
ATOM     86  C   UNL A   1      44.816  27.155  34.165  1.00  0.00     0.023 A 
ATOM     87  C   UNL A   1      46.058  27.818  34.169  1.00  0.00     0.012 A 
ATOM     88  C   UNL A   1      44.634  26.016  34.973  1.00  0.00     0.148 A 
ATOM     89  C   UNL A   1      47.112  27.340  34.945  1.00  0.00     0.002 A 
ATOM     90  C   UNL A   1      45.675  25.571  35.778  1.00  0.00     0.091 A 
ATOM     91  F   UNL A   1      43.450  25.387  34.939  1.00  0.00    -0.205 F 
ATOM     92  C   UNL A   1      46.917  26.226  35.759  1.00  0.00     0.022 A 
BRANCH  90  93
ATOM     93  S   UNL A   1      45.476  24.203  36.925  1.00  0.00     0.127 S 
ATOM     94  O   UNL A   1      46.798  24.136  37.544  1.00  0.00    -0.237 OA
ATOM     95  O   UNL A   1      44.413  24.684  37.808  1.00  0.00    -0.237 OA
ATOM     96  O   UNL A   1      45.104  23.054  36.110  1.00  0.00    -0.744 OA
ENDBRANCH  90  93
ENDBRANCH  63  86
ENDBRANCH  37  38
ENDBRANCH  29  32
ENDBRANCH  27  28
ENDBRANCH  26  27
ENDBRANCH   1  26
TORSDOF 18
ENDMDL
MODEL 2
REMARK VINA RESULT:     -11.9      1.496      7.605
REMARK SMILES CCc1ccsc1CNC(=O)N1[C@H]2CC[C@@H]1[C@H](C(=O)NCCCCNC(=O)c1ccc(-c3c4nc(c(-c5cccc(S(=O)(=O)[O-])c5F)c5ccc([nH]5)c(-c5cccc(S(=O)(=O)[O-])c5F)c5nc(c(-c6cccc(S(=O)(=O)[O-])c6F)c6ccc3[nH]6)C=C5)C=C4)cc1)C2
REMARK SMILES IDX 22 1 21 2 20 3 18 4 19 5 17 7 12 8 13 9 16 10 14 11 91 12
REMARK SMILES IDX 15 13 10 14 9 15 11 17 8 18 7 19 3 20 4 21 5 22 6 23 2 24
REMARK SMILES IDX 1 25 23 26 24 27 25 28 26 29 27 31 28 32 29 33 90 34 30 35
REMARK SMILES IDX 89 36 31 37 32 38 33 39 83 40 34 41 88 42 82 43 84 44 35 45
REMARK SMILES IDX 87 46 81 47 80 48 36 50 68 51 48 52 67 53 49 54 52 55 66 56
REMARK SMILES IDX 85 57 50 58 51 59 65 61 86 62 53 63 37 64 38 65 46 66 39 67
REMARK SMILES IDX 41 68 47 69 40 70 42 71 43 72 44 73 45 74 69 75 70 76 78 77
REMARK SMILES IDX 71 78 73 79 79 80 72 81 74 82 75 83 76 84 77 85 54 86 55 87
REMARK SMILES IDX 63 88 56 89 58 90 64 91 57 92 59 93 60 94 61 95 62 96
REMARK H PARENT 20 6 9 16 25 30 84 49 52 60
REMARK Flexibility Score: inf
ROOT
ATOM      1  C   UNL A   1      31.351  28.781  23.585  1.00  0.00     0.023 C 
ENDROOT
BRANCH   1   2
ATOM      2  C   UNL A   1      31.027  27.874  22.399  1.00  0.00     0.116 C 
BRANCH   2   3
ATOM      3  N   UNL A   1      32.157  27.045  22.057  1.00  0.00    -0.356 N 
ATOM      4  C   UNL A   1      32.606  25.867  22.539  1.00  0.00     0.225 C 
ATOM      5  O   UNL A   1      33.711  25.500  22.121  1.00  0.00    -0.275 OA
ATOM      6  H   UNL A   1      32.709  27.411  21.328  1.00  0.00     0.163 HD
BRANCH   4   7
ATOM      7  C   UNL A   1      31.874  24.985  23.535  1.00  0.00     0.103 C 
ATOM      8  N   UNL A   1      31.442  23.948  25.494  1.00  0.00    -0.318 N 
ATOM      9  C   UNL A   1      30.299  24.833  25.335  1.00  0.00     0.088 C 
ATOM     10  C   UNL A   1      32.482  24.796  24.937  1.00  0.00     0.099 C 
ATOM     11  C   UNL A   1      30.799  26.065  26.107  1.00  0.00     0.027 C 
ATOM     12  C   UNL A   1      30.360  25.124  23.820  1.00  0.00     0.040 C 
ATOM     13  C   UNL A   1      32.321  26.007  25.861  1.00  0.00     0.028 C 
BRANCH   8  14
ATOM     14  C   UNL A   1      31.667  22.974  26.404  1.00  0.00     0.318 C 
ATOM     15  N   UNL A   1      31.808  21.702  25.967  1.00  0.00    -0.333 N 
ATOM     16  H   UNL A   1      31.750  21.004  26.659  1.00  0.00     0.165 HD
ATOM     17  O   UNL A   1      31.825  23.204  27.602  1.00  0.00    -0.249 OA
BRANCH  15  18
ATOM     18  C   UNL A   1      32.032  21.232  24.622  1.00  0.00     0.165 C 
BRANCH  18  19
ATOM     19  C   UNL A   1      33.038  20.113  24.554  1.00  0.00     0.027 A 
ATOM     20  C   UNL A   1      34.422  20.217  24.640  1.00  0.00    -0.033 A 
ATOM     21  C   UNL A   1      35.042  18.923  24.640  1.00  0.00     0.016 A 
ATOM     22  C   UNL A   1      34.133  17.896  24.569  1.00  0.00     0.065 A 
ATOM     23  S   UNL A   1      32.534  18.471  24.501  1.00  0.00    -0.147 S 
BRANCH  20  24
ATOM     24  C   UNL A   1      35.193  21.504  24.742  1.00  0.00     0.033 C 
ATOM     25  C   UNL A   1      35.388  21.969  26.179  1.00  0.00     0.009 C 
ENDBRANCH  20  24
ENDBRANCH  18  19
ENDBRANCH  15  18
ENDBRANCH   8  14
ENDBRANCH   4   7
ENDBRANCH   2   3
ENDBRANCH   1   2
BRANCH   1  26
ATOM     26  C   UNL A   1      32.830  29.058  23.804  1.00  0.00     0.023 C 
BRANCH  26  27
ATOM     27  C   UNL A   1      33.227  29.301  25.251  1.00  0.00     0.116 C 
BRANCH  27  28
ATOM     28  N   UNL A   1      32.545  30.425  25.877  1.00  0.00    -0.352 N 
ATOM     29  C   UNL A   1      33.019  31.222  26.901  1.00  0.00     0.251 C 
ATOM     30  H   UNL A   1      31.647  30.641  25.534  1.00  0.00     0.163 HD
ATOM     31  O   UNL A   1      32.327  32.107  27.388  1.00  0.00    -0.269 OA
BRANCH  29  32
ATOM     32  C   UNL A   1      34.371  30.937  27.417  1.00  0.00     0.039 A 
ATOM     33  C   UNL A   1      35.251  31.998  27.635  1.00  0.00     0.014 A 
ATOM     34  C   UNL A   1      34.694  29.641  27.822  1.00  0.00     0.014 A 
ATOM     35  C   UNL A   1      36.435  31.767  28.338  1.00  0.00     0.010 A 
ATOM     36  C   UNL A   1      35.820  29.435  28.604  1.00  0.00     0.010 A 
ATOM     37  C   UNL A   1      36.706  30.492  28.863  1.00  0.00    -0.014 A 
BRANCH  37  38
ATOM     38  C   UNL A   1      37.922  30.224  29.671  1.00  0.00     0.031 A 
ATOM     39  C   UNL A   1      38.991  29.324  29.112  1.00  0.00     0.074 A 
ATOM     40  C   UNL A   1      38.017  30.695  30.931  1.00  0.00     0.049 A 
ATOM     41  N   UNL A   1      40.073  28.873  29.689  1.00  0.00    -0.248 NA
ATOM     42  C   UNL A   1      38.794  28.828  27.739  1.00  0.00     0.031 C 
ATOM     43  C   UNL A   1      37.003  31.498  31.619  1.00  0.00     0.029 A 
ATOM     44  N   UNL A   1      39.006  30.541  31.869  1.00  0.00    -0.354 N 
ATOM     45  C   UNL A   1      40.656  28.007  28.771  1.00  0.00     0.074 A 
ATOM     46  C   UNL A   1      39.784  27.958  27.618  1.00  0.00     0.031 C 
ATOM     47  C   UNL A   1      37.431  31.779  32.862  1.00  0.00     0.029 A 
ATOM     48  C   UNL A   1      38.736  31.158  33.068  1.00  0.00     0.049 A 
ATOM     49  H   UNL A   1      39.834  30.036  31.699  1.00  0.00     0.167 HD
ATOM     50  C   UNL A   1      41.833  27.345  28.857  1.00  0.00     0.034 A 
ATOM     51  C   UNL A   1      39.464  31.222  34.200  1.00  0.00     0.034 A 
ATOM     52  C   UNL A   1      42.737  27.467  29.965  1.00  0.00     0.049 A 
ATOM     53  C   UNL A   1      40.815  30.556  34.232  1.00  0.00     0.074 A 
ATOM     54  C   UNL A   1      43.996  26.914  30.114  1.00  0.00     0.029 A 
ATOM     55  N   UNL A   1      42.486  28.213  31.106  1.00  0.00    -0.354 N 
ATOM     56  N   UNL A   1      41.416  29.864  33.293  1.00  0.00    -0.248 NA
ATOM     57  C   UNL A   1      41.608  30.715  35.461  1.00  0.00     0.031 C 
ATOM     58  C   UNL A   1      44.510  27.334  31.345  1.00  0.00     0.029 A 
ATOM     59  C   UNL A   1      43.573  28.149  31.959  1.00  0.00     0.049 A 
ATOM     60  H   UNL A   1      41.658  28.714  31.283  1.00  0.00     0.167 HD
ATOM     61  C   UNL A   1      42.669  29.542  33.801  1.00  0.00     0.074 A 
ATOM     62  C   UNL A   1      42.750  30.131  35.123  1.00  0.00     0.031 C 
ATOM     63  C   UNL A   1      43.660  28.810  33.235  1.00  0.00     0.034 A 
BRANCH  50  64
ATOM     64  C   UNL A   1      42.244  26.504  27.680  1.00  0.00     0.023 A 
ATOM     65  C   UNL A   1      43.031  27.084  26.662  1.00  0.00     0.012 A 
ATOM     66  C   UNL A   1      41.895  25.143  27.593  1.00  0.00     0.148 A 
ATOM     67  C   UNL A   1      43.431  26.333  25.558  1.00  0.00     0.002 A 
ATOM     68  C   UNL A   1      42.335  24.390  26.510  1.00  0.00     0.091 A 
ATOM     69  F   UNL A   1      41.127  24.616  28.556  1.00  0.00    -0.205 F 
ATOM     70  C   UNL A   1      43.093  24.986  25.488  1.00  0.00     0.022 A 
BRANCH  68  71
ATOM     71  S   UNL A   1      42.014  22.629  26.361  1.00  0.00     0.127 S 
ATOM     72  O   UNL A   1      42.637  22.112  27.579  1.00  0.00    -0.237 OA
ATOM     73  O   UNL A   1      40.551  22.582  26.357  1.00  0.00    -0.237 OA
ATOM     74  O   UNL A   1      42.637  22.213  25.113  1.00  0.00    -0.744 OA
ENDBRANCH  68  71
ENDBRANCH  50  64
BRANCH  51  75
ATOM     75  C   UNL A   1      38.985  32.028  35.358  1.00  0.00     0.023 A 
ATOM     76  C   UNL A   1      39.136  33.430  35.325  1.00  0.00     0.012 A 
ATOM     77  C   UNL A   1      38.372  31.433  36.477  1.00  0.00     0.148 A 
ATOM     78  C   UNL A   1      38.720  34.219  36.397  1.00  0.00     0.002 A 
ATOM     79  C   UNL A   1      37.914  32.232  37.522  1.00  0.00     0.091 A 
ATOM     80  F   UNL A   1      38.249  30.099  36.502  1.00  0.00    -0.205 F 
ATOM     81  C   UNL A   1      38.102  33.622  37.491  1.00  0.00     0.022 A 
BRANCH  79  82
ATOM     82  S   UNL A   1      36.995  31.551  38.907  1.00  0.00     0.127 S 
ATOM     83  O   UNL A   1      37.937  31.724  40.008  1.00  0.00    -0.237 OA
ATOM     84  O   UNL A   1      35.820  32.422  38.957  1.00  0.00    -0.237 OA
ATOM     85  O   UNL A   1      36.697  30.175  38.528  1.00  0.00    -0.744 OA
ENDBRANCH  79  82
ENDBRANCH  51  75
BRANCH  63  86
ATOM     86  C   UNL A   1      44.935  28.637  34.012  1.00  0.00     0.023 A 
ATOM     87  C   UNL A   1      45.975  29.574  33.862  1.00  0.00     0.012 A 
ATOM     88  C   UNL A   1      45.063  27.604  34.960  1.00  0.00     0.148 A 
ATOM     89  C   UNL A   1      47.136  29.471  34.626  1.00  0.00     0.002 A 
ATOM     90  C   UNL A   1      46.204  27.533  35.750  1.00  0.00     0.091 A 
ATOM     91  F   UNL A   1      44.070  26.709  35.072  1.00  0.00    -0.205 F 
ATOM     92  C   UNL A   1      47.244  28.460  35.579  1.00  0.00     0.022 A 
BRANCH  90  93
ATOM     93  S   UNL A   1      46.382  26.319  37.063  1.00  0.00     0.127 S 
ATOM     94  O   UNL A   1      47.562  26.813  37.769  1.00  0.00    -0.237 OA
ATOM     95  O   UNL A   1      45.125  26.465  37.798  1.00  0.00    -0.237 OA
ATOM     96  O   UNL A   1      46.539  25.034  36.395  1.00  0.00    -0.744 OA
ENDBRANCH  90  93
ENDBRANCH  63  86
ENDBRANCH  37  38
ENDBRANCH  29  32
ENDBRANCH  27  28
ENDBRANCH  26  27
ENDBRANCH   1  26
TORSDOF 18
ENDMDL
MODEL 3
REMARK VINA RESULT:     -11.6      5.451      8.784
REMARK SMILES CCc1ccsc1CNC(=O)N1[C@H]2CC[C@@H]1[C@H](C(=O)NCCCCNC(=O)c1ccc(-c3c4nc(c(-c5cccc(S(=O)(=O)[O-])c5F)c5ccc([nH]5)c(-c5cccc(S(=O)(=O)[O-])c5F)c5nc(c(-c6cccc(S(=O)(=O)[O-])c6F)c6ccc3[nH]6)C=C5)C=C4)cc1)C2
REMARK SMILES IDX 22 1 21 2 20 3 18 4 19 5 17 7 12 8 13 9 16 10 14 11 91 12
REMARK SMILES IDX 15 13 10 14 9 15 11 17 8 18 7 19 3 20 4 21 5 22 6 23 2 24
REMARK SMILES IDX 1 25 23 26 24 27 25 28 26 29 27 31 28 32 29 33 90 34 30 35
REMARK SMILES IDX 89 36 31 37 32 38 33 39 83 40 34 41 88 42 82 43 84 44 35 45
REMARK SMILES IDX 87 46 81 47 80 48 36 50 68 51 48 52 67 53 49 54 52 55 66 56
REMARK SMILES IDX 85 57 50 58 51 59 65 61 86 62 53 63 37 64 38 65 46 66 39 67
REMARK SMILES IDX 41 68 47 69 40 70 42 71 43 72 44 73 45 74 69 75 70 76 78 77
REMARK SMILES IDX 71 78 73 79 79 80 72 81 74 82 75 83 76 84 77 85 54 86 55 87
REMARK SMILES IDX 63 88 56 89 58 90 64 91 57 92 59 93 60 94 61 95 62 96
REMARK H PARENT 20 6 9 16 25 30 84 49 52 60
REMARK Flexibility Score: inf
ROOT
ATOM      1  C   UNL A   1      37.285  20.883  24.613  1.00  0.00     0.023 C 
ENDROOT
BRANCH   1   2
ATOM      2  C   UNL A   1      36.038  21.016  25.484  1.00  0.00     0.116 C 
BRANCH   2   3
ATOM      3  N   UNL A   1      35.033  20.054  25.098  1.00  0.00    -0.356 N 
ATOM      4  C   UNL A   1      33.692  20.138  24.964  1.00  0.00     0.225 C 
ATOM      5  O   UNL A   1      33.103  19.069  24.765  1.00  0.00    -0.275 OA
ATOM      6  H   UNL A   1      35.396  19.163  24.893  1.00  0.00     0.163 HD
BRANCH   4   7
ATOM      7  C   UNL A   1      32.875  21.415  25.043  1.00  0.00     0.103 C 
ATOM      8  N   UNL A   1      31.771  23.141  25.992  1.00  0.00    -0.318 N 
ATOM      9  C   UNL A   1      32.858  23.800  25.285  1.00  0.00     0.088 C 
ATOM     10  C   UNL A   1      32.461  21.940  26.430  1.00  0.00     0.099 C 
ATOM     11  C   UNL A   1      33.910  23.868  26.405  1.00  0.00     0.027 C 
ATOM     12  C   UNL A   1      33.261  22.702  24.276  1.00  0.00     0.040 C 
ATOM     13  C   UNL A   1      33.598  22.595  27.220  1.00  0.00     0.028 C 
BRANCH   8  14
ATOM     14  C   UNL A   1      30.698  23.671  26.622  1.00  0.00     0.318 C 
ATOM     15  N   UNL A   1      30.187  24.834  26.160  1.00  0.00    -0.333 N 
ATOM     16  H   UNL A   1      29.559  25.294  26.763  1.00  0.00     0.165 HD
ATOM     17  O   UNL A   1      30.121  23.102  27.548  1.00  0.00    -0.249 OA
BRANCH  15  18
ATOM     18  C   UNL A   1      30.438  25.491  24.901  1.00  0.00     0.165 C 
BRANCH  18  19
ATOM     19  C   UNL A   1      30.917  26.909  25.066  1.00  0.00     0.027 A 
ATOM     20  C   UNL A   1      30.658  27.990  24.230  1.00  0.00    -0.033 A 
ATOM     21  C   UNL A   1      31.196  29.206  24.770  1.00  0.00     0.016 A 
ATOM     22  C   UNL A   1      31.822  29.022  25.979  1.00  0.00     0.065 A 
ATOM     23  S   UNL A   1      31.772  27.396  26.475  1.00  0.00    -0.147 S 
BRANCH  20  24
ATOM     24  C   UNL A   1      29.898  27.925  22.935  1.00  0.00     0.033 C 
ATOM     25  C   UNL A   1      28.403  28.154  23.110  1.00  0.00     0.009 C 
ENDBRANCH  20  24
ENDBRANCH  18  19
ENDBRANCH  15  18
ENDBRANCH   8  14
ENDBRANCH   4   7
ENDBRANCH   2   3
ENDBRANCH   1   2
BRANCH   1  26
ATOM     26  C   UNL A   1      38.179  19.696  24.934  1.00  0.00     0.023 C 
BRANCH  26  27
ATOM     27  C   UNL A   1      39.213  19.949  26.018  1.00  0.00     0.116 C 
BRANCH  27  28
ATOM     28  N   UNL A   1      40.389  19.094  25.936  1.00  0.00    -0.352 N 
ATOM     29  C   UNL A   1      41.704  19.462  26.137  1.00  0.00     0.251 C 
ATOM     30  H   UNL A   1      40.228  18.148  25.710  1.00  0.00     0.163 HD
ATOM     31  O   UNL A   1      42.617  18.663  25.983  1.00  0.00    -0.269 OA
BRANCH  29  32
ATOM     32  C   UNL A   1      41.970  20.867  26.501  1.00  0.00     0.039 A 
ATOM     33  C   UNL A   1      42.275  21.178  27.826  1.00  0.00     0.014 A 
ATOM     34  C   UNL A   1      42.063  21.832  25.496  1.00  0.00     0.014 A 
ATOM     35  C   UNL A   1      42.756  22.453  28.133  1.00  0.00     0.010 A 
ATOM     36  C   UNL A   1      42.634  23.061  25.788  1.00  0.00     0.010 A 
ATOM     37  C   UNL A   1      42.978  23.388  27.109  1.00  0.00    -0.014 A 
BRANCH  37  38
ATOM     38  C   UNL A   1      43.549  24.729  27.388  1.00  0.00     0.031 A 
ATOM     39  C   UNL A   1      42.646  25.820  27.899  1.00  0.00     0.074 A 
ATOM     40  C   UNL A   1      44.836  24.996  27.086  1.00  0.00     0.049 A 
ATOM     41  N   UNL A   1      42.912  27.083  28.103  1.00  0.00    -0.248 NA
ATOM     42  C   UNL A   1      41.246  25.451  28.174  1.00  0.00     0.031 C 
ATOM     43  C   UNL A   1      45.786  24.049  26.496  1.00  0.00     0.029 A 
ATOM     44  N   UNL A   1      45.560  26.154  27.209  1.00  0.00    -0.354 N 
ATOM     45  C   UNL A   1      41.707  27.666  28.479  1.00  0.00     0.074 A 
ATOM     46  C   UNL A   1      40.699  26.630  28.431  1.00  0.00     0.031 C 
ATOM     47  C   UNL A   1      46.971  24.661  26.325  1.00  0.00     0.029 A 
ATOM     48  C   UNL A   1      46.859  26.046  26.770  1.00  0.00     0.049 A 
ATOM     49  H   UNL A   1      45.185  26.986  27.580  1.00  0.00     0.167 HD
ATOM     50  C   UNL A   1      41.466  28.937  28.875  1.00  0.00     0.034 A 
ATOM     51  C   UNL A   1      47.848  26.961  26.739  1.00  0.00     0.034 A 
ATOM     52  C   UNL A   1      42.487  29.938  29.006  1.00  0.00     0.049 A 
ATOM     53  C   UNL A   1      47.576  28.342  27.277  1.00  0.00     0.074 A 
ATOM     54  C   UNL A   1      42.368  31.230  29.486  1.00  0.00     0.029 A 
ATOM     55  N   UNL A   1      43.820  29.749  28.679  1.00  0.00    -0.354 N 
ATOM     56  N   UNL A   1      46.464  28.831  27.772  1.00  0.00    -0.248 NA
ATOM     57  C   UNL A   1      48.705  29.285  27.294  1.00  0.00     0.031 C 
ATOM     58  C   UNL A   1      43.636  31.821  29.454  1.00  0.00     0.029 A 
ATOM     59  C   UNL A   1      44.541  30.896  28.959  1.00  0.00     0.049 A 
ATOM     60  H   UNL A   1      44.198  28.922  28.303  1.00  0.00     0.167 HD
ATOM     61  C   UNL A   1      46.769  30.119  28.195  1.00  0.00     0.074 A 
ATOM     62  C   UNL A   1      48.175  30.329  27.917  1.00  0.00     0.031 C 
ATOM     63  C   UNL A   1      45.956  31.053  28.748  1.00  0.00     0.034 A 
BRANCH  50  64
ATOM     64  C   UNL A   1      40.059  29.284  29.277  1.00  0.00     0.023 A 
ATOM     65  C   UNL A   1      39.122  29.623  28.278  1.00  0.00     0.012 A 
ATOM     66  C   UNL A   1      39.649  29.238  30.623  1.00  0.00     0.148 A 
ATOM     67  C   UNL A   1      37.810  29.948  28.615  1.00  0.00     0.002 A 
ATOM     68  C   UNL A   1      38.326  29.522  30.946  1.00  0.00     0.091 A 
ATOM     69  F   UNL A   1      40.558  28.939  31.560  1.00  0.00    -0.205 F 
ATOM     70  C   UNL A   1      37.410  29.888  29.946  1.00  0.00     0.022 A 
BRANCH  68  71
ATOM     71  S   UNL A   1      37.693  29.403  32.623  1.00  0.00     0.127 S 
ATOM     72  O   UNL A   1      38.661  30.211  33.362  1.00  0.00    -0.237 OA
ATOM     73  O   UNL A   1      36.366  30.007  32.495  1.00  0.00    -0.237 OA
ATOM     74  O   UNL A   1      37.684  27.983  32.947  1.00  0.00    -0.744 OA
ENDBRANCH  68  71
ENDBRANCH  50  64
BRANCH  51  75
ATOM     75  C   UNL A   1      49.214  26.578  26.281  1.00  0.00     0.023 A 
ATOM     76  C   UNL A   1      49.983  25.707  27.080  1.00  0.00     0.012 A 
ATOM     77  C   UNL A   1      49.751  27.046  25.067  1.00  0.00     0.148 A 
ATOM     78  C   UNL A   1      51.273  25.340  26.697  1.00  0.00     0.002 A 
ATOM     79  C   UNL A   1      51.020  26.635  24.667  1.00  0.00     0.091 A 
ATOM     80  F   UNL A   1      49.014  27.885  24.326  1.00  0.00    -0.205 F 
ATOM     81  C   UNL A   1      51.789  25.797  25.488  1.00  0.00     0.022 A 
BRANCH  79  82
ATOM     82  S   UNL A   1      51.702  27.079  23.066  1.00  0.00     0.127 S 
ATOM     83  O   UNL A   1      50.616  26.712  22.164  1.00  0.00    -0.237 OA
ATOM     84  O   UNL A   1      51.923  28.519  23.212  1.00  0.00    -0.237 OA
ATOM     85  O   UNL A   1      52.929  26.301  22.945  1.00  0.00    -0.744 OA
ENDBRANCH  79  82
ENDBRANCH  51  75
BRANCH  63  86
ATOM     86  C   UNL A   1      46.566  32.371  29.134  1.00  0.00     0.023 A 
ATOM     87  C   UNL A   1      47.161  32.519  30.402  1.00  0.00     0.012 A 
ATOM     88  C   UNL A   1      46.635  33.429  28.208  1.00  0.00     0.148 A 
ATOM     89  C   UNL A   1      47.795  33.710  30.751  1.00  0.00     0.002 A 
ATOM     90  C   UNL A   1      47.306  34.597  28.547  1.00  0.00     0.091 A 
ATOM     91  F   UNL A   1      46.042  33.276  27.014  1.00  0.00    -0.205 F 
ATOM     92  C   UNL A   1      47.878  34.743  29.820  1.00  0.00     0.022 A 
BRANCH  90  93
ATOM     93  S   UNL A   1      47.540  35.938  27.373  1.00  0.00     0.127 S 
ATOM     94  O   UNL A   1      48.338  36.881  28.153  1.00  0.00    -0.237 OA
ATOM     95  O   UNL A   1      48.265  35.279  26.285  1.00  0.00    -0.237 OA
ATOM     96  O   UNL A   1      46.202  36.389  27.015  1.00  0.00    -0.744 OA
ENDBRANCH  90  93
ENDBRANCH  63  86
ENDBRANCH  37  38
ENDBRANCH  29  32
ENDBRANCH  27  28
ENDBRANCH  26  27
ENDBRANCH   1  26
TORSDOF 18
ENDMDL
