MODEL 1
REMARK VINA RESULT:     -12.2      0.000      0.000
REMARK SMILES CCC[C@]1(C(=O)NCCCCNC(=O)c2ccc(-c3c4nc(c(-c5cccc(S(=O)(=O)[O-])c5F)c5ccc([nH]5)c(-c5cccc(S(=O)(=O)[O-])c5F)c5nc(c(-c6cccc(S(=O)(=O)[O-])c6F)c6ccc3[nH]6)C=C5)C=C4)cc2)CCCN(C(=O)c2ccc(NS(=O)(=O)CC)cc2)C1
REMARK SMILES IDX 8 1 7 2 5 3 6 4 4 6 78 7 96 8 79 9 81 10 80 11 3 12 2 13
REMARK SMILES IDX 1 14 82 15 83 16 84 17 85 18 95 19 86 20 94 21 87 22 88 23
REMARK SMILES IDX 89 25 90 26 91 27 92 28 93 29 9 30 10 31 11 32 12 33 13 34
REMARK SMILES IDX 14 36 15 37 16 38 77 39 17 40 76 41 18 42 19 43 20 44 70 45
REMARK SMILES IDX 21 46 75 47 69 48 71 49 22 50 74 51 68 52 67 53 23 55 55 56
REMARK SMILES IDX 35 57 54 58 36 59 39 60 53 61 72 62 37 63 38 64 52 66 73 67
REMARK SMILES IDX 40 68 24 69 25 70 33 71 26 72 28 73 34 74 27 75 29 76 30 77
REMARK SMILES IDX 31 78 32 79 56 80 57 81 65 82 58 83 60 84 66 85 59 86 61 87
REMARK SMILES IDX 62 88 63 89 64 90 41 91 42 92 50 93 43 94 45 95 51 96 44 97
REMARK SMILES IDX 46 98 47 99 48 100 49 101
REMARK H PARENT 7 5 88 24 12 35 71 54 39 65
REMARK Flexibility Score: inf
ROOT
ATOM      1  C   UNL A   1      32.530  29.733  25.757  1.00  0.00     0.116 C 
ENDROOT
BRANCH   1   2
ATOM      2  N   UNL A   1      33.230  29.482  24.504  1.00  0.00    -0.356 N 
ATOM      3  C   UNL A   1      33.406  28.336  23.777  1.00  0.00     0.228 C 
ATOM      4  O   UNL A   1      34.058  28.430  22.735  1.00  0.00    -0.274 OA
ATOM      5  H   UNL A   1      33.653  30.278  24.110  1.00  0.00     0.163 HD
BRANCH   3   6
ATOM      6  C   UNL A   1      32.809  26.991  24.247  1.00  0.00     0.067 C 
ATOM      7  C   UNL A   1      31.270  27.098  24.294  1.00  0.00     0.020 C 
ATOM      8  C   UNL A   1      33.350  25.923  23.254  1.00  0.00     0.136 C 
ATOM      9  C   UNL A   1      30.597  25.736  24.264  1.00  0.00     0.023 C 
ATOM     10  N   UNL A   1      32.482  24.782  22.991  1.00  0.00    -0.338 N 
ATOM     11  C   UNL A   1      31.034  24.955  23.046  1.00  0.00     0.120 C 
BRANCH   6  12
ATOM     12  C   UNL A   1      33.395  26.597  25.656  1.00  0.00     0.018 C 
BRANCH  12  13
ATOM     13  C   UNL A   1      33.935  25.172  25.867  1.00  0.00    -0.002 C 
ATOM     14  C   UNL A   1      32.921  24.219  26.498  1.00  0.00     0.004 C 
ENDBRANCH  12  13
ENDBRANCH   6  12
BRANCH  10  15
ATOM     15  C   UNL A   1      33.076  23.708  22.339  1.00  0.00     0.253 C 
ATOM     16  O   UNL A   1      33.570  23.751  21.218  1.00  0.00    -0.269 OA
BRANCH  15  17
ATOM     17  C   UNL A   1      33.233  22.475  23.109  1.00  0.00     0.040 A 
ATOM     18  C   UNL A   1      34.424  22.332  23.815  1.00  0.00     0.016 A 
ATOM     19  C   UNL A   1      32.254  21.486  23.122  1.00  0.00     0.016 A 
ATOM     20  C   UNL A   1      34.661  21.157  24.514  1.00  0.00     0.027 A 
ATOM     21  C   UNL A   1      32.519  20.296  23.801  1.00  0.00     0.027 A 
ATOM     22  C   UNL A   1      33.744  20.106  24.462  1.00  0.00     0.049 A 
BRANCH  22  23
ATOM     23  N   UNL A   1      34.099  18.761  24.769  1.00  0.00    -0.284 N 
ATOM     24  H   UNL A   1      34.975  18.619  25.196  1.00  0.00     0.180 HD
BRANCH  23  25
ATOM     25  S   UNL A   1      33.179  17.412  24.478  1.00  0.00     0.232 S 
ATOM     26  O   UNL A   1      31.858  17.640  25.031  1.00  0.00    -0.207 OA
ATOM     27  O   UNL A   1      33.340  17.154  23.063  1.00  0.00    -0.207 OA
BRANCH  25  28
ATOM     28  C   UNL A   1      33.934  16.043  25.366  1.00  0.00     0.156 C 
ATOM     29  C   UNL A   1      35.444  15.953  25.302  1.00  0.00     0.023 C 
ENDBRANCH  25  28
ENDBRANCH  23  25
ENDBRANCH  22  23
ENDBRANCH  15  17
ENDBRANCH  10  15
ENDBRANCH   3   6
ENDBRANCH   1   2
BRANCH   1  30
ATOM     30  C   UNL A   1      31.305  30.611  25.545  1.00  0.00     0.023 C 
BRANCH  30  31
ATOM     31  C   UNL A   1      31.301  31.852  26.434  1.00  0.00     0.023 C 
BRANCH  31  32
ATOM     32  C   UNL A   1      32.679  32.276  26.931  1.00  0.00     0.116 C 
BRANCH  32  33
ATOM     33  N   UNL A   1      32.692  33.642  27.441  1.00  0.00    -0.352 N 
ATOM     34  C   UNL A   1      33.520  34.193  28.388  1.00  0.00     0.251 C 
ATOM     35  H   UNL A   1      32.020  34.249  27.055  1.00  0.00     0.163 HD
ATOM     36  O   UNL A   1      33.280  35.305  28.849  1.00  0.00    -0.269 OA
BRANCH  34  37
ATOM     37  C   UNL A   1      34.687  33.420  28.854  1.00  0.00     0.039 A 
ATOM     38  C   UNL A   1      35.962  33.779  28.416  1.00  0.00     0.014 A 
ATOM     39  C   UNL A   1      34.515  32.367  29.758  1.00  0.00     0.014 A 
ATOM     40  C   UNL A   1      37.073  33.110  28.930  1.00  0.00     0.010 A 
ATOM     41  C   UNL A   1      35.627  31.770  30.339  1.00  0.00     0.010 A 
ATOM     42  C   UNL A   1      36.917  32.121  29.917  1.00  0.00    -0.014 A 
BRANCH  42  43
ATOM     43  C   UNL A   1      38.095  31.436  30.507  1.00  0.00     0.031 A 
ATOM     44  C   UNL A   1      38.627  31.869  31.847  1.00  0.00     0.074 A 
ATOM     45  C   UNL A   1      38.727  30.473  29.809  1.00  0.00     0.049 A 
ATOM     46  N   UNL A   1      39.649  31.401  32.517  1.00  0.00    -0.248 NA
ATOM     47  C   UNL A   1      37.943  32.992  32.510  1.00  0.00     0.031 C 
ATOM     48  C   UNL A   1      38.364  30.028  28.460  1.00  0.00     0.029 A 
ATOM     49  N   UNL A   1      39.820  29.707  30.126  1.00  0.00    -0.354 N 
ATOM     50  C   UNL A   1      39.751  32.191  33.655  1.00  0.00     0.074 A 
ATOM     51  C   UNL A   1      38.716  33.197  33.566  1.00  0.00     0.031 C 
ATOM     52  C   UNL A   1      39.208  29.057  28.075  1.00  0.00     0.029 A 
ATOM     53  C   UNL A   1      40.191  28.833  29.131  1.00  0.00     0.049 A 
ATOM     54  H   UNL A   1      40.295  29.775  30.986  1.00  0.00     0.167 HD
ATOM     55  C   UNL A   1      40.606  32.073  34.698  1.00  0.00     0.034 A 
ATOM     56  C   UNL A   1      41.210  27.953  29.074  1.00  0.00     0.034 A 
ATOM     57  C   UNL A   1      41.609  31.049  34.800  1.00  0.00     0.049 A 
ATOM     58  C   UNL A   1      42.119  27.811  30.263  1.00  0.00     0.074 A 
ATOM     59  C   UNL A   1      42.462  30.784  35.856  1.00  0.00     0.029 A 
ATOM     60  N   UNL A   1      41.904  30.129  33.807  1.00  0.00    -0.354 N 
ATOM     61  N   UNL A   1      42.093  28.457  31.403  1.00  0.00    -0.248 NA
ATOM     62  C   UNL A   1      43.174  26.791  30.175  1.00  0.00     0.031 C 
ATOM     63  C   UNL A   1      43.300  29.727  35.485  1.00  0.00     0.029 A 
ATOM     64  C   UNL A   1      42.937  29.305  34.216  1.00  0.00     0.049 A 
ATOM     65  H   UNL A   1      41.446  30.071  32.937  1.00  0.00     0.167 HD
ATOM     66  C   UNL A   1      43.100  27.897  32.182  1.00  0.00     0.074 A 
ATOM     67  C   UNL A   1      43.702  26.846  31.389  1.00  0.00     0.031 C 
ATOM     68  C   UNL A   1      43.497  28.231  33.435  1.00  0.00     0.034 A 
BRANCH  55  69
ATOM     69  C   UNL A   1      40.467  33.056  35.833  1.00  0.00     0.023 A 
ATOM     70  C   UNL A   1      41.097  34.316  35.752  1.00  0.00     0.012 A 
ATOM     71  C   UNL A   1      39.674  32.753  36.957  1.00  0.00     0.148 A 
ATOM     72  C   UNL A   1      40.973  35.241  36.788  1.00  0.00     0.002 A 
ATOM     73  C   UNL A   1      39.514  33.700  37.961  1.00  0.00     0.091 A 
ATOM     74  F   UNL A   1      39.100  31.543  37.028  1.00  0.00    -0.205 F 
ATOM     75  C   UNL A   1      40.174  34.938  37.886  1.00  0.00     0.022 A 
BRANCH  73  76
ATOM     76  S   UNL A   1      38.437  33.441  39.375  1.00  0.00     0.127 S 
ATOM     77  O   UNL A   1      39.159  32.402  40.108  1.00  0.00    -0.237 OA
ATOM     78  O   UNL A   1      38.448  34.757  40.013  1.00  0.00    -0.237 OA
ATOM     79  O   UNL A   1      37.148  33.039  38.832  1.00  0.00    -0.744 OA
ENDBRANCH  73  76
ENDBRANCH  55  69
BRANCH  56  80
ATOM     80  C   UNL A   1      41.386  27.095  27.867  1.00  0.00     0.023 A 
ATOM     81  C   UNL A   1      42.017  27.623  26.724  1.00  0.00     0.012 A 
ATOM     82  C   UNL A   1      40.953  25.756  27.856  1.00  0.00     0.148 A 
ATOM     83  C   UNL A   1      42.180  26.843  25.578  1.00  0.00     0.002 A 
ATOM     84  C   UNL A   1      41.171  24.967  26.733  1.00  0.00     0.091 A 
ATOM     85  F   UNL A   1      40.349  25.275  28.952  1.00  0.00    -0.205 F 
ATOM     86  C   UNL A   1      41.766  25.514  25.585  1.00  0.00     0.022 A 
BRANCH  84  87
ATOM     87  S   UNL A   1      40.793  23.211  26.700  1.00  0.00     0.127 S 
ATOM     88  O   UNL A   1      39.368  23.218  26.377  1.00  0.00    -0.237 OA
ATOM     89  O   UNL A   1      41.667  22.738  25.626  1.00  0.00    -0.237 OA
ATOM     90  O   UNL A   1      41.138  22.709  28.022  1.00  0.00    -0.744 OA
ENDBRANCH  84  87
ENDBRANCH  56  80
BRANCH  68  91
ATOM     91  C   UNL A   1      44.610  27.425  34.054  1.00  0.00     0.023 A 
ATOM     92  C   UNL A   1      45.936  27.901  34.017  1.00  0.00     0.012 A 
ATOM     93  C   UNL A   1      44.326  26.222  34.730  1.00  0.00     0.148 A 
ATOM     94  C   UNL A   1      46.966  27.172  34.608  1.00  0.00     0.002 A 
ATOM     95  C   UNL A   1      45.349  25.530  35.365  1.00  0.00     0.091 A 
ATOM     96  F   UNL A   1      43.061  25.776  34.740  1.00  0.00    -0.205 F 
ATOM     97  C   UNL A   1      46.672  25.995  35.292  1.00  0.00     0.022 A 
BRANCH  95  98
ATOM     98  S   UNL A   1      45.049  24.060  36.353  1.00  0.00     0.127 S 
ATOM     99  O   UNL A   1      46.369  23.431  36.359  1.00  0.00    -0.237 OA
ATOM    100  O   UNL A   1      44.639  24.629  37.637  1.00  0.00    -0.237 OA
ATOM    101  O   UNL A   1      44.006  23.316  35.662  1.00  0.00    -0.744 OA
ENDBRANCH  95  98
ENDBRANCH  68  91
ENDBRANCH  42  43
ENDBRANCH  34  37
ENDBRANCH  32  33
ENDBRANCH  31  32
ENDBRANCH  30  31
ENDBRANCH   1  30
TORSDOF 21
ENDMDL
MODEL 2
REMARK VINA RESULT:     -11.6      1.046      7.295
REMARK SMILES CCC[C@]1(C(=O)NCCCCNC(=O)c2ccc(-c3c4nc(c(-c5cccc(S(=O)(=O)[O-])c5F)c5ccc([nH]5)c(-c5cccc(S(=O)(=O)[O-])c5F)c5nc(c(-c6cccc(S(=O)(=O)[O-])c6F)c6ccc3[nH]6)C=C5)C=C4)cc2)CCCN(C(=O)c2ccc(NS(=O)(=O)CC)cc2)C1
REMARK SMILES IDX 8 1 7 2 5 3 6 4 4 6 78 7 96 8 79 9 81 10 80 11 3 12 2 13
REMARK SMILES IDX 1 14 82 15 83 16 84 17 85 18 95 19 86 20 94 21 87 22 88 23
REMARK SMILES IDX 89 25 90 26 91 27 92 28 93 29 9 30 10 31 11 32 12 33 13 34
REMARK SMILES IDX 14 36 15 37 16 38 77 39 17 40 76 41 18 42 19 43 20 44 70 45
REMARK SMILES IDX 21 46 75 47 69 48 71 49 22 50 74 51 68 52 67 53 23 55 55 56
REMARK SMILES IDX 35 57 54 58 36 59 39 60 53 61 72 62 37 63 38 64 52 66 73 67
REMARK SMILES IDX 40 68 24 69 25 70 33 71 26 72 28 73 34 74 27 75 29 76 30 77
REMARK SMILES IDX 31 78 32 79 56 80 57 81 65 82 58 83 60 84 66 85 59 86 61 87
REMARK SMILES IDX 62 88 63 89 64 90 41 91 42 92 50 93 43 94 45 95 51 96 44 97
REMARK SMILES IDX 46 98 47 99 48 100 49 101
REMARK H PARENT 7 5 88 24 12 35 71 54 39 65
REMARK Flexibility Score: inf
ROOT
ATOM      1  C   UNL A   1      32.779  29.889  25.820  1.00  0.00     0.116 C 
ENDROOT
BRANCH   1   2
ATOM      2  N   UNL A   1      33.364  29.688  24.500  1.00  0.00    -0.356 N 
ATOM      3  C   UNL A   1      33.404  28.592  23.682  1.00  0.00     0.228 C 
ATOM      4  O   UNL A   1      33.980  28.722  22.601  1.00  0.00    -0.274 OA
ATOM      5  H   UNL A   1      33.811  30.484  24.130  1.00  0.00     0.163 HD
BRANCH   3   6
ATOM      6  C   UNL A   1      32.752  27.257  24.103  1.00  0.00     0.067 C 
ATOM      7  C   UNL A   1      31.217  27.419  24.135  1.00  0.00     0.020 C 
ATOM      8  C   UNL A   1      33.267  26.200  23.083  1.00  0.00     0.136 C 
ATOM      9  C   UNL A   1      30.495  26.085  24.053  1.00  0.00     0.023 C 
ATOM     10  N   UNL A   1      32.361  25.101  22.775  1.00  0.00    -0.338 N 
ATOM     11  C   UNL A   1      30.919  25.325  22.817  1.00  0.00     0.120 C 
BRANCH   6  12
ATOM     12  C   UNL A   1      33.304  26.798  25.505  1.00  0.00     0.018 C 
BRANCH  12  13
ATOM     13  C   UNL A   1      32.367  26.045  26.466  1.00  0.00    -0.002 C 
ATOM     14  C   UNL A   1      32.595  24.536  26.489  1.00  0.00     0.004 C 
ENDBRANCH  12  13
ENDBRANCH   6  12
BRANCH  10  15
ATOM     15  C   UNL A   1      32.923  24.026  22.097  1.00  0.00     0.253 C 
ATOM     16  O   UNL A   1      33.407  24.079  20.971  1.00  0.00    -0.269 OA
BRANCH  15  17
ATOM     17  C   UNL A   1      33.059  22.775  22.842  1.00  0.00     0.040 A 
ATOM     18  C   UNL A   1      34.108  22.708  23.755  1.00  0.00     0.016 A 
ATOM     19  C   UNL A   1      32.200  21.700  22.638  1.00  0.00     0.016 A 
ATOM     20  C   UNL A   1      34.330  21.526  24.447  1.00  0.00     0.027 A 
ATOM     21  C   UNL A   1      32.454  20.507  23.316  1.00  0.00     0.027 A 
ATOM     22  C   UNL A   1      33.548  20.399  24.190  1.00  0.00     0.049 A 
BRANCH  22  23
ATOM     23  N   UNL A   1      33.974  19.079  24.514  1.00  0.00    -0.284 N 
ATOM     24  H   UNL A   1      34.943  18.939  24.623  1.00  0.00     0.180 HD
BRANCH  23  25
ATOM     25  S   UNL A   1      32.997  17.755  24.726  1.00  0.00     0.232 S 
ATOM     26  O   UNL A   1      31.999  18.088  25.724  1.00  0.00    -0.207 OA
ATOM     27  O   UNL A   1      32.590  17.379  23.389  1.00  0.00    -0.207 OA
BRANCH  25  28
ATOM     28  C   UNL A   1      34.022  16.427  25.373  1.00  0.00     0.156 C 
ATOM     29  C   UNL A   1      33.396  15.049  25.399  1.00  0.00     0.023 C 
ENDBRANCH  25  28
ENDBRANCH  23  25
ENDBRANCH  22  23
ENDBRANCH  15  17
ENDBRANCH  10  15
ENDBRANCH   3   6
ENDBRANCH   1   2
BRANCH   1  30
ATOM     30  C   UNL A   1      31.483  30.682  25.740  1.00  0.00     0.023 C 
BRANCH  30  31
ATOM     31  C   UNL A   1      31.369  31.745  26.830  1.00  0.00     0.023 C 
BRANCH  31  32
ATOM     32  C   UNL A   1      32.676  32.461  27.154  1.00  0.00     0.116 C 
BRANCH  32  33
ATOM     33  N   UNL A   1      32.482  33.876  27.441  1.00  0.00    -0.352 N 
ATOM     34  C   UNL A   1      33.088  34.645  28.405  1.00  0.00     0.251 C 
ATOM     35  H   UNL A   1      31.830  34.343  26.870  1.00  0.00     0.163 HD
ATOM     36  O   UNL A   1      32.676  35.775  28.646  1.00  0.00    -0.269 OA
BRANCH  34  37
ATOM     37  C   UNL A   1      34.228  34.081  29.154  1.00  0.00     0.039 A 
ATOM     38  C   UNL A   1      33.982  33.297  30.281  1.00  0.00     0.014 A 
ATOM     39  C   UNL A   1      35.536  34.298  28.710  1.00  0.00     0.014 A 
ATOM     40  C   UNL A   1      35.052  32.685  30.934  1.00  0.00     0.010 A 
ATOM     41  C   UNL A   1      36.587  33.611  29.303  1.00  0.00     0.010 A 
ATOM     42  C   UNL A   1      36.360  32.813  30.434  1.00  0.00    -0.014 A 
BRANCH  42  43
ATOM     43  C   UNL A   1      37.501  32.127  31.091  1.00  0.00     0.031 A 
ATOM     44  C   UNL A   1      38.293  31.090  30.339  1.00  0.00     0.074 A 
ATOM     45  C   UNL A   1      37.783  32.386  32.382  1.00  0.00     0.049 A 
ATOM     46  N   UNL A   1      39.312  30.379  30.746  1.00  0.00    -0.248 NA
ATOM     47  C   UNL A   1      37.869  30.790  28.961  1.00  0.00     0.031 C 
ATOM     48  C   UNL A   1      37.031  33.302  33.245  1.00  0.00     0.029 A 
ATOM     49  N   UNL A   1      38.764  31.889  33.202  1.00  0.00    -0.354 N 
ATOM     50  C   UNL A   1      39.626  29.527  29.695  1.00  0.00     0.074 A 
ATOM     51  C   UNL A   1      38.663  29.777  28.646  1.00  0.00     0.031 C 
ATOM     52  C   UNL A   1      37.589  33.313  34.466  1.00  0.00     0.029 A 
ATOM     53  C   UNL A   1      38.714  32.384  34.485  1.00  0.00     0.049 A 
ATOM     54  H   UNL A   1      39.440  31.241  32.902  1.00  0.00     0.167 HD
ATOM     55  C   UNL A   1      40.642  28.639  29.594  1.00  0.00     0.034 A 
ATOM     56  C   UNL A   1      39.486  32.115  35.557  1.00  0.00     0.034 A 
ATOM     57  C   UNL A   1      41.621  28.420  30.624  1.00  0.00     0.049 A 
ATOM     58  C   UNL A   1      40.636  31.157  35.406  1.00  0.00     0.074 A 
ATOM     59  C   UNL A   1      42.744  27.613  30.586  1.00  0.00     0.029 A 
ATOM     60  N   UNL A   1      41.586  28.998  31.883  1.00  0.00    -0.354 N 
ATOM     61  N   UNL A   1      41.017  30.486  34.347  1.00  0.00    -0.248 NA
ATOM     62  C   UNL A   1      41.486  30.950  36.587  1.00  0.00     0.031 C 
ATOM     63  C   UNL A   1      43.367  27.675  31.836  1.00  0.00     0.029 A 
ATOM     64  C   UNL A   1      42.658  28.555  32.638  1.00  0.00     0.049 A 
ATOM     65  H   UNL A   1      40.899  29.631  32.195  1.00  0.00     0.167 HD
ATOM     66  C   UNL A   1      42.172  29.807  34.721  1.00  0.00     0.074 A 
ATOM     67  C   UNL A   1      42.437  30.166  36.098  1.00  0.00     0.031 C 
ATOM     68  C   UNL A   1      42.936  28.955  33.994  1.00  0.00     0.034 A 
BRANCH  55  69
ATOM     69  C   UNL A   1      40.772  27.865  28.307  1.00  0.00     0.023 A 
ATOM     70  C   UNL A   1      41.437  28.442  27.205  1.00  0.00     0.012 A 
ATOM     71  C   UNL A   1      40.281  26.548  28.203  1.00  0.00     0.148 A 
ATOM     72  C   UNL A   1      41.575  27.739  26.009  1.00  0.00     0.002 A 
ATOM     73  C   UNL A   1      40.467  25.836  27.025  1.00  0.00     0.091 A 
ATOM     74  F   UNL A   1      39.632  26.023  29.252  1.00  0.00    -0.205 F 
ATOM     75  C   UNL A   1      41.100  26.433  25.922  1.00  0.00     0.022 A 
BRANCH  73  76
ATOM     76  S   UNL A   1      39.969  24.120  26.841  1.00  0.00     0.127 S 
ATOM     77  O   UNL A   1      40.931  23.639  25.850  1.00  0.00    -0.237 OA
ATOM     78  O   UNL A   1      40.171  23.597  28.192  1.00  0.00    -0.237 OA
ATOM     79  O   UNL A   1      38.582  24.148  26.400  1.00  0.00    -0.744 OA
ENDBRANCH  73  76
ENDBRANCH  55  69
BRANCH  56  80
ATOM     80  C   UNL A   1      39.231  32.810  36.851  1.00  0.00     0.023 A 
ATOM     81  C   UNL A   1      39.925  33.998  37.151  1.00  0.00     0.012 A 
ATOM     82  C   UNL A   1      38.290  32.313  37.772  1.00  0.00     0.148 A 
ATOM     83  C   UNL A   1      39.713  34.658  38.362  1.00  0.00     0.002 A 
ATOM     84  C   UNL A   1      38.040  33.007  38.950  1.00  0.00     0.091 A 
ATOM     85  F   UNL A   1      37.645  31.177  37.469  1.00  0.00    -0.205 F 
ATOM     86  C   UNL A   1      38.765  34.169  39.257  1.00  0.00     0.022 A 
BRANCH  84  87
ATOM     87  S   UNL A   1      36.745  32.525  40.097  1.00  0.00     0.127 S 
ATOM     88  O   UNL A   1      36.814  33.593  41.091  1.00  0.00    -0.237 OA
ATOM     89  O   UNL A   1      35.560  32.556  39.239  1.00  0.00    -0.237 OA
ATOM     90  O   UNL A   1      37.110  31.198  40.570  1.00  0.00    -0.744 OA
ENDBRANCH  84  87
ENDBRANCH  56  80
BRANCH  68  91
ATOM     91  C   UNL A   1      44.164  28.381  34.653  1.00  0.00     0.023 A 
ATOM     92  C   UNL A   1      45.389  29.075  34.595  1.00  0.00     0.012 A 
ATOM     93  C   UNL A   1      44.084  27.180  35.385  1.00  0.00     0.148 A 
ATOM     94  C   UNL A   1      46.523  28.563  35.222  1.00  0.00     0.002 A 
ATOM     95  C   UNL A   1      45.204  26.704  36.054  1.00  0.00     0.091 A 
ATOM     96  F   UNL A   1      42.913  26.525  35.414  1.00  0.00    -0.205 F 
ATOM     97  C   UNL A   1      46.429  27.385  35.961  1.00  0.00     0.022 A 
BRANCH  95  98
ATOM     98  S   UNL A   1      45.150  25.253  37.111  1.00  0.00     0.127 S 
ATOM     99  O   UNL A   1      46.540  25.155  37.552  1.00  0.00    -0.237 OA
ATOM    100  O   UNL A   1      44.206  25.662  38.150  1.00  0.00    -0.237 OA
ATOM    101  O   UNL A   1      44.684  24.160  36.269  1.00  0.00    -0.744 OA
ENDBRANCH  95  98
ENDBRANCH  68  91
ENDBRANCH  42  43
ENDBRANCH  34  37
ENDBRANCH  32  33
ENDBRANCH  31  32
ENDBRANCH  30  31
ENDBRANCH   1  30
TORSDOF 21
ENDMDL
MODEL 3
REMARK VINA RESULT:     -11.5      2.066      2.893
REMARK SMILES CCC[C@]1(C(=O)NCCCCNC(=O)c2ccc(-c3c4nc(c(-c5cccc(S(=O)(=O)[O-])c5F)c5ccc([nH]5)c(-c5cccc(S(=O)(=O)[O-])c5F)c5nc(c(-c6cccc(S(=O)(=O)[O-])c6F)c6ccc3[nH]6)C=C5)C=C4)cc2)CCCN(C(=O)c2ccc(NS(=O)(=O)CC)cc2)C1
REMARK SMILES IDX 8 1 7 2 5 3 6 4 4 6 78 7 96 8 79 9 81 10 80 11 3 12 2 13
REMARK SMILES IDX 1 14 82 15 83 16 84 17 85 18 95 19 86 20 94 21 87 22 88 23
REMARK SMILES IDX 89 25 90 26 91 27 92 28 93 29 9 30 10 31 11 32 12 33 13 34
REMARK SMILES IDX 14 36 15 37 16 38 77 39 17 40 76 41 18 42 19 43 20 44 70 45
REMARK SMILES IDX 21 46 75 47 69 48 71 49 22 50 74 51 68 52 67 53 23 55 55 56
REMARK SMILES IDX 35 57 54 58 36 59 39 60 53 61 72 62 37 63 38 64 52 66 73 67
REMARK SMILES IDX 40 68 24 69 25 70 33 71 26 72 28 73 34 74 27 75 29 76 30 77
REMARK SMILES IDX 31 78 32 79 56 80 57 81 65 82 58 83 60 84 66 85 59 86 61 87
REMARK SMILES IDX 62 88 63 89 64 90 41 91 42 92 50 93 43 94 45 95 51 96 44 97
REMARK SMILES IDX 46 98 47 99 48 100 49 101
REMARK H PARENT 7 5 88 24 12 35 71 54 39 65
REMARK Flexibility Score: inf
ROOT
ATOM      1  C   UNL A   1      32.020  29.846  24.899  1.00  0.00     0.116 C 
ENDROOT
BRANCH   1   2
ATOM      2  N   UNL A   1      31.197  29.386  23.787  1.00  0.00    -0.356 N 
ATOM      3  C   UNL A   1      31.178  28.203  23.101  1.00  0.00     0.228 C 
ATOM      4  O   UNL A   1      30.355  28.099  22.190  1.00  0.00    -0.274 OA
ATOM      5  H   UNL A   1      30.537  30.046  23.473  1.00  0.00     0.163 HD
BRANCH   3   6
ATOM      6  C   UNL A   1      32.146  27.055  23.461  1.00  0.00     0.067 C 
ATOM      7  C   UNL A   1      33.466  27.643  24.004  1.00  0.00     0.020 C 
ATOM      8  C   UNL A   1      31.375  26.159  24.473  1.00  0.00     0.136 C 
ATOM      9  C   UNL A   1      34.255  26.631  24.817  1.00  0.00     0.023 C 
ATOM     10  N   UNL A   1      32.180  25.472  25.475  1.00  0.00    -0.338 N 
ATOM     11  C   UNL A   1      33.415  26.089  25.951  1.00  0.00     0.120 C 
BRANCH   6  12
ATOM     12  C   UNL A   1      32.405  26.145  22.201  1.00  0.00     0.018 C 
BRANCH  12  13
ATOM     13  C   UNL A   1      31.982  24.667  22.248  1.00  0.00    -0.002 C 
ATOM     14  C   UNL A   1      33.118  23.693  21.940  1.00  0.00     0.004 C 
ENDBRANCH  12  13
ENDBRANCH   6  12
BRANCH  10  15
ATOM     15  C   UNL A   1      31.534  24.467  26.185  1.00  0.00     0.253 C 
ATOM     16  O   UNL A   1      30.455  24.590  26.755  1.00  0.00    -0.269 OA
BRANCH  15  17
ATOM     17  C   UNL A   1      32.131  23.133  26.130  1.00  0.00     0.040 A 
ATOM     18  C   UNL A   1      31.783  22.343  25.039  1.00  0.00     0.016 A 
ATOM     19  C   UNL A   1      32.986  22.669  27.124  1.00  0.00     0.016 A 
ATOM     20  C   UNL A   1      32.266  21.044  24.961  1.00  0.00     0.027 A 
ATOM     21  C   UNL A   1      33.437  21.350  27.052  1.00  0.00     0.027 A 
ATOM     22  C   UNL A   1      33.042  20.515  25.994  1.00  0.00     0.049 A 
BRANCH  22  23
ATOM     23  N   UNL A   1      33.198  19.114  26.197  1.00  0.00    -0.284 N 
ATOM     24  H   UNL A   1      33.301  18.809  27.128  1.00  0.00     0.180 HD
BRANCH  23  25
ATOM     25  S   UNL A   1      33.222  17.947  25.019  1.00  0.00     0.232 S 
ATOM     26  O   UNL A   1      31.936  17.959  24.348  1.00  0.00    -0.207 OA
ATOM     27  O   UNL A   1      34.434  18.202  24.271  1.00  0.00    -0.207 OA
BRANCH  25  28
ATOM     28  C   UNL A   1      33.416  16.358  25.838  1.00  0.00     0.156 C 
ATOM     29  C   UNL A   1      32.610  15.209  25.272  1.00  0.00     0.023 C 
ENDBRANCH  25  28
ENDBRANCH  23  25
ENDBRANCH  22  23
ENDBRANCH  15  17
ENDBRANCH  10  15
ENDBRANCH   3   6
ENDBRANCH   1   2
BRANCH   1  30
ATOM     30  C   UNL A   1      31.453  29.395  26.236  1.00  0.00     0.023 C 
BRANCH  30  31
ATOM     31  C   UNL A   1      32.531  29.157  27.290  1.00  0.00     0.023 C 
BRANCH  31  32
ATOM     32  C   UNL A   1      33.802  29.975  27.088  1.00  0.00     0.116 C 
BRANCH  32  33
ATOM     33  N   UNL A   1      33.728  31.287  27.720  1.00  0.00    -0.352 N 
ATOM     34  C   UNL A   1      34.580  31.839  28.645  1.00  0.00     0.251 C 
ATOM     35  H   UNL A   1      32.969  31.851  27.447  1.00  0.00     0.163 HD
ATOM     36  O   UNL A   1      34.275  32.877  29.225  1.00  0.00    -0.269 OA
BRANCH  34  37
ATOM     37  C   UNL A   1      35.853  31.155  28.942  1.00  0.00     0.039 A 
ATOM     38  C   UNL A   1      37.041  31.668  28.420  1.00  0.00     0.014 A 
ATOM     39  C   UNL A   1      35.868  30.031  29.773  1.00  0.00     0.014 A 
ATOM     40  C   UNL A   1      38.254  31.080  28.777  1.00  0.00     0.010 A 
ATOM     41  C   UNL A   1      37.082  29.509  30.202  1.00  0.00     0.010 A 
ATOM     42  C   UNL A   1      38.287  30.014  29.694  1.00  0.00    -0.014 A 
BRANCH  42  43
ATOM     43  C   UNL A   1      39.575  29.411  30.120  1.00  0.00     0.031 A 
ATOM     44  C   UNL A   1      40.346  30.009  31.267  1.00  0.00     0.074 A 
ATOM     45  C   UNL A   1      40.085  28.370  29.434  1.00  0.00     0.049 A 
ATOM     46  N   UNL A   1      41.490  29.630  31.775  1.00  0.00    -0.248 NA
ATOM     47  C   UNL A   1      39.774  31.203  31.910  1.00  0.00     0.031 C 
ATOM     48  C   UNL A   1      39.478  27.760  28.247  1.00  0.00     0.029 A 
ATOM     49  N   UNL A   1      41.239  27.652  29.621  1.00  0.00    -0.354 N 
ATOM     50  C   UNL A   1      41.791  30.555  32.767  1.00  0.00     0.074 A 
ATOM     51  C   UNL A   1      40.732  31.540  32.761  1.00  0.00     0.031 C 
ATOM     52  C   UNL A   1      40.257  26.751  27.824  1.00  0.00     0.029 A 
ATOM     53  C   UNL A   1      41.432  26.662  28.686  1.00  0.00     0.049 A 
ATOM     54  H   UNL A   1      41.869  27.828  30.356  1.00  0.00     0.167 HD
ATOM     55  C   UNL A   1      42.835  30.570  33.627  1.00  0.00     0.034 A 
ATOM     56  C   UNL A   1      42.443  25.784  28.537  1.00  0.00     0.034 A 
ATOM     57  C   UNL A   1      43.866  29.569  33.655  1.00  0.00     0.049 A 
ATOM     58  C   UNL A   1      43.570  25.794  29.533  1.00  0.00     0.074 A 
ATOM     59  C   UNL A   1      44.915  29.439  34.547  1.00  0.00     0.029 A 
ATOM     60  N   UNL A   1      43.986  28.533  32.742  1.00  0.00    -0.354 N 
ATOM     61  N   UNL A   1      43.749  26.576  30.569  1.00  0.00    -0.248 NA
ATOM     62  C   UNL A   1      44.614  24.773  29.364  1.00  0.00     0.031 C 
ATOM     63  C   UNL A   1      45.692  28.346  34.149  1.00  0.00     0.029 A 
ATOM     64  C   UNL A   1      45.101  27.769  33.037  1.00  0.00     0.049 A 
ATOM     65  H   UNL A   1      43.369  28.366  31.992  1.00  0.00     0.167 HD
ATOM     66  C   UNL A   1      44.903  26.120  31.197  1.00  0.00     0.074 A 
ATOM     67  C   UNL A   1      45.367  24.979  30.435  1.00  0.00     0.031 C 
ATOM     68  C   UNL A   1      45.527  26.608  32.297  1.00  0.00     0.034 A 
BRANCH  55  69
ATOM     69  C   UNL A   1      42.894  31.686  34.640  1.00  0.00     0.023 A 
ATOM     70  C   UNL A   1      43.637  32.851  34.358  1.00  0.00     0.012 A 
ATOM     71  C   UNL A   1      42.174  31.603  35.848  1.00  0.00     0.148 A 
ATOM     72  C   UNL A   1      43.696  33.897  35.278  1.00  0.00     0.002 A 
ATOM     73  C   UNL A   1      42.197  32.671  36.737  1.00  0.00     0.091 A 
ATOM     74  F   UNL A   1      41.491  30.479  36.110  1.00  0.00    -0.205 F 
ATOM     75  C   UNL A   1      42.968  33.812  36.461  1.00  0.00     0.022 A 
BRANCH  73  76
ATOM     76  S   UNL A   1      41.226  32.695  38.247  1.00  0.00     0.127 S 
ATOM     77  O   UNL A   1      39.952  32.144  37.788  1.00  0.00    -0.237 OA
ATOM     78  O   UNL A   1      41.995  31.809  39.120  1.00  0.00    -0.237 OA
ATOM     79  O   UNL A   1      41.184  34.086  38.677  1.00  0.00    -0.744 OA
ENDBRANCH  73  76
ENDBRANCH  55  69
BRANCH  56  80
ATOM     80  C   UNL A   1      42.404  24.783  27.432  1.00  0.00     0.023 A 
ATOM     81  C   UNL A   1      43.132  25.022  26.251  1.00  0.00     0.012 A 
ATOM     82  C   UNL A   1      41.669  23.590  27.557  1.00  0.00     0.148 A 
ATOM     83  C   UNL A   1      43.099  24.106  25.198  1.00  0.00     0.002 A 
ATOM     84  C   UNL A   1      41.688  22.654  26.529  1.00  0.00     0.091 A 
ATOM     85  F   UNL A   1      40.978  23.385  28.687  1.00  0.00    -0.205 F 
ATOM     86  C   UNL A   1      42.385  22.919  25.341  1.00  0.00     0.022 A 
BRANCH  84  87
ATOM     87  S   UNL A   1      40.909  21.043  26.678  1.00  0.00     0.127 S 
ATOM     88  O   UNL A   1      39.644  21.256  25.978  1.00  0.00    -0.237 OA
ATOM     89  O   UNL A   1      41.864  20.183  25.978  1.00  0.00    -0.237 OA
ATOM     90  O   UNL A   1      40.804  20.786  28.106  1.00  0.00    -0.744 OA
ENDBRANCH  84  87
ENDBRANCH  56  80
BRANCH  68  91
ATOM     91  C   UNL A   1      46.760  25.887  32.779  1.00  0.00     0.023 A 
ATOM     92  C   UNL A   1      48.038  26.320  32.374  1.00  0.00     0.012 A 
ATOM     93  C   UNL A   1      46.649  24.816  33.688  1.00  0.00     0.148 A 
ATOM     94  C   UNL A   1      49.184  25.674  32.834  1.00  0.00     0.002 A 
ATOM     95  C   UNL A   1      47.797  24.213  34.187  1.00  0.00     0.091 A 
ATOM     96  F   UNL A   1      45.424  24.407  34.050  1.00  0.00    -0.205 F 
ATOM     97  C   UNL A   1      49.064  24.630  33.748  1.00  0.00     0.022 A 
BRANCH  95  98
ATOM     98  S   UNL A   1      47.743  22.931  35.443  1.00  0.00     0.127 S 
ATOM     99  O   UNL A   1      49.159  22.601  35.593  1.00  0.00    -0.237 OA
ATOM    100  O   UNL A   1      47.157  23.638  36.582  1.00  0.00    -0.237 OA
ATOM    101  O   UNL A   1      46.909  21.869  34.898  1.00  0.00    -0.744 OA
ENDBRANCH  95  98
ENDBRANCH  68  91
ENDBRANCH  42  43
ENDBRANCH  34  37
ENDBRANCH  32  33
ENDBRANCH  31  32
ENDBRANCH  30  31
ENDBRANCH   1  30
TORSDOF 21
ENDMDL
