MODEL 1
REMARK VINA RESULT:     -13.1      0.000      0.000
REMARK SMILES COc1ccccc1-n1nnc(C(=O)NCCCCNC(=O)c2ccc(-c3c4nc(c(-c5cccc(S(=O)(=O)[O-])c5F)c5ccc([nH]5)c(-c5cccc(S(=O)(=O)[O-])c5F)c5nc(c(-c6cccc(S(=O)(=O)[O-])c6F)c6ccc3[nH]6)C=C5)C=C4)cc2)c1-c1ccc(Cl)cc1
REMARK SMILES IDX 18 1 17 2 16 3 15 4 13 5 14 6 12 8 9 9 10 10 86 11 11 12
REMARK SMILES IDX 8 13 3 14 4 15 5 16 7 17 6 18 2 19 1 20 87 21 88 22 93 23
REMARK SMILES IDX 89 24 92 25 90 26 91 27 19 28 20 29 21 30 22 32 23 33 24 34
REMARK SMILES IDX 85 35 25 36 84 37 26 38 27 39 28 40 78 41 29 42 83 43 77 44
REMARK SMILES IDX 79 45 30 46 82 47 76 48 75 49 31 51 63 52 43 53 62 54 44 55
REMARK SMILES IDX 47 56 61 57 80 58 45 59 46 60 60 62 81 63 48 64 32 65 33 66
REMARK SMILES IDX 41 67 34 68 36 69 42 70 35 71 37 72 38 73 39 74 40 75 64 76
REMARK SMILES IDX 65 77 73 78 66 79 68 80 74 81 67 82 69 83 70 84 71 85 72 86
REMARK SMILES IDX 49 87 50 88 58 89 51 90 53 91 59 92 52 93 54 94 55 95 56 96
REMARK SMILES IDX 57 97
REMARK H PARENT 15 7 20 31 79 50 47 61
REMARK Flexibility Score: inf
ROOT
ATOM      1  C   UNL A   1      37.431  20.930  24.631  1.00  0.00     0.023 C 
ENDROOT
BRANCH   1   2
ATOM      2  C   UNL A   1      36.025  20.976  25.225  1.00  0.00     0.023 C 
BRANCH   2   3
ATOM      3  C   UNL A   1      35.527  22.293  25.807  1.00  0.00     0.116 C 
BRANCH   3   4
ATOM      4  N   UNL A   1      34.707  22.287  26.983  1.00  0.00    -0.351 N 
ATOM      5  C   UNL A   1      33.393  22.712  27.126  1.00  0.00     0.274 C 
ATOM      6  O   UNL A   1      32.940  22.622  28.272  1.00  0.00    -0.267 OA
ATOM      7  H   UNL A   1      35.132  21.934  27.798  1.00  0.00     0.163 HD
BRANCH   5   8
ATOM      8  C   UNL A   1      32.569  23.318  26.051  1.00  0.00     0.178 A 
ATOM      9  N   UNL A   1      31.434  24.415  24.513  1.00  0.00    -0.208 N 
ATOM     10  N   UNL A   1      31.033  23.133  24.458  1.00  0.00    -0.061 NA
ATOM     11  C   UNL A   1      32.291  24.614  25.598  1.00  0.00     0.108 A 
ATOM     12  N   UNL A   1      31.797  22.444  25.288  1.00  0.00    -0.124 NA
BRANCH   9  13
ATOM     13  C   UNL A   1      30.806  25.421  23.740  1.00  0.00     0.109 A 
ATOM     14  C   UNL A   1      31.508  26.132  22.757  1.00  0.00     0.144 A 
ATOM     15  C   UNL A   1      30.998  27.358  22.317  1.00  0.00     0.049 A 
ATOM     16  C   UNL A   1      29.790  27.848  22.812  1.00  0.00     0.004 A 
ATOM     17  C   UNL A   1      29.552  25.876  24.187  1.00  0.00     0.032 A 
ATOM     18  C   UNL A   1      29.058  27.100  23.732  1.00  0.00     0.003 A 
BRANCH  14  19
ATOM     19  O   UNL A   1      32.725  25.806  22.226  1.00  0.00    -0.494 OA
ATOM     20  C   UNL A   1      33.710  26.843  22.222  1.00  0.00     0.278 C 
ENDBRANCH  14  19
ENDBRANCH   9  13
BRANCH  11  21
ATOM     21  C   UNL A   1      32.524  25.967  26.105  1.00  0.00     0.003 A 
ATOM     22  C   UNL A   1      31.564  26.675  26.831  1.00  0.00     0.012 A 
ATOM     23  C   UNL A   1      33.760  26.581  25.804  1.00  0.00     0.012 A 
ATOM     24  C   UNL A   1      31.832  27.989  27.232  1.00  0.00     0.021 A 
ATOM     25  C   UNL A   1      34.015  27.893  26.189  1.00  0.00     0.021 A 
ATOM     26  C   UNL A   1      33.047  28.592  26.902  1.00  0.00     0.041 A 
ATOM     27  Cl  UNL A   1      33.366  30.212  27.376  1.00  0.00    -0.084 Cl
ENDBRANCH  11  21
ENDBRANCH   5   8
ENDBRANCH   3   4
ENDBRANCH   2   3
ENDBRANCH   1   2
BRANCH   1  28
ATOM     28  C   UNL A   1      38.583  21.002  25.629  1.00  0.00     0.116 C 
BRANCH  28  29
ATOM     29  N   UNL A   1      39.367  19.771  25.764  1.00  0.00    -0.352 N 
ATOM     30  C   UNL A   1      40.730  19.691  26.006  1.00  0.00     0.251 C 
ATOM     31  H   UNL A   1      38.881  18.920  25.672  1.00  0.00     0.163 HD
ATOM     32  O   UNL A   1      41.375  18.677  25.743  1.00  0.00    -0.269 OA
BRANCH  30  33
ATOM     33  C   UNL A   1      41.402  20.863  26.600  1.00  0.00     0.039 A 
ATOM     34  C   UNL A   1      42.231  21.702  25.845  1.00  0.00     0.014 A 
ATOM     35  C   UNL A   1      41.115  21.151  27.931  1.00  0.00     0.014 A 
ATOM     36  C   UNL A   1      42.673  22.898  26.408  1.00  0.00     0.010 A 
ATOM     37  C   UNL A   1      41.444  22.377  28.443  1.00  0.00     0.010 A 
ATOM     38  C   UNL A   1      42.243  23.241  27.696  1.00  0.00    -0.014 A 
BRANCH  38  39
ATOM     39  C   UNL A   1      42.421  24.591  28.223  1.00  0.00     0.031 A 
ATOM     40  C   UNL A   1      41.256  25.495  27.977  1.00  0.00     0.074 A 
ATOM     41  C   UNL A   1      43.388  24.845  29.134  1.00  0.00     0.049 A 
ATOM     42  N   UNL A   1      41.245  26.621  27.344  1.00  0.00    -0.248 NA
ATOM     43  C   UNL A   1      39.908  25.015  28.339  1.00  0.00     0.031 C 
ATOM     44  C   UNL A   1      44.375  23.892  29.658  1.00  0.00     0.029 A 
ATOM     45  N   UNL A   1      43.557  25.926  29.944  1.00  0.00    -0.354 N 
ATOM     46  C   UNL A   1      39.940  27.103  27.459  1.00  0.00     0.074 A 
ATOM     47  C   UNL A   1      39.133  25.977  27.836  1.00  0.00     0.031 C 
ATOM     48  C   UNL A   1      44.819  24.324  30.856  1.00  0.00     0.029 A 
ATOM     49  C   UNL A   1      44.255  25.633  31.119  1.00  0.00     0.049 A 
ATOM     50  H   UNL A   1      43.222  26.825  29.724  1.00  0.00     0.167 HD
ATOM     51  C   UNL A   1      39.682  28.439  27.538  1.00  0.00     0.034 A 
ATOM     52  C   UNL A   1      44.285  26.369  32.260  1.00  0.00     0.034 A 
ATOM     53  C   UNL A   1      40.840  29.210  27.156  1.00  0.00     0.049 A 
ATOM     54  C   UNL A   1      43.854  27.742  31.906  1.00  0.00     0.074 A 
ATOM     55  C   UNL A   1      41.646  29.267  26.037  1.00  0.00     0.029 A 
ATOM     56  N   UNL A   1      41.560  29.788  28.175  1.00  0.00    -0.354 N 
ATOM     57  N   UNL A   1      44.541  28.522  31.120  1.00  0.00    -0.248 NA
ATOM     58  C   UNL A   1      42.442  28.068  32.034  1.00  0.00     0.031 C 
ATOM     59  C   UNL A   1      42.967  29.413  26.552  1.00  0.00     0.029 A 
ATOM     60  C   UNL A   1      42.884  29.537  27.940  1.00  0.00     0.049 A 
ATOM     61  H   UNL A   1      41.190  30.291  28.937  1.00  0.00     0.167 HD
ATOM     62  C   UNL A   1      43.584  29.091  30.290  1.00  0.00     0.074 A 
ATOM     63  C   UNL A   1      42.309  28.875  30.976  1.00  0.00     0.031 C 
ATOM     64  C   UNL A   1      43.871  29.388  28.988  1.00  0.00     0.034 A 
BRANCH  51  65
ATOM     65  C   UNL A   1      38.556  29.077  28.332  1.00  0.00     0.023 A 
ATOM     66  C   UNL A   1      37.746  30.018  27.651  1.00  0.00     0.012 A 
ATOM     67  C   UNL A   1      38.427  29.035  29.739  1.00  0.00     0.148 A 
ATOM     68  C   UNL A   1      36.921  30.916  28.336  1.00  0.00     0.002 A 
ATOM     69  C   UNL A   1      37.547  29.877  30.410  1.00  0.00     0.091 A 
ATOM     70  F   UNL A   1      39.248  28.279  30.470  1.00  0.00    -0.205 F 
ATOM     71  C   UNL A   1      36.819  30.845  29.718  1.00  0.00     0.022 A 
BRANCH  69  72
ATOM     72  S   UNL A   1      37.346  29.795  32.196  1.00  0.00     0.127 S 
ATOM     73  O   UNL A   1      38.541  30.497  32.656  1.00  0.00    -0.237 OA
ATOM     74  O   UNL A   1      36.088  30.517  32.389  1.00  0.00    -0.237 OA
ATOM     75  O   UNL A   1      37.275  28.376  32.518  1.00  0.00    -0.744 OA
ENDBRANCH  69  72
ENDBRANCH  51  65
BRANCH  52  76
ATOM     76  C   UNL A   1      44.402  25.911  33.669  1.00  0.00     0.023 A 
ATOM     77  C   UNL A   1      45.671  25.635  34.220  1.00  0.00     0.012 A 
ATOM     78  C   UNL A   1      43.303  25.984  34.555  1.00  0.00     0.148 A 
ATOM     79  C   UNL A   1      45.839  25.467  35.602  1.00  0.00     0.002 A 
ATOM     80  C   UNL A   1      43.471  25.798  35.923  1.00  0.00     0.091 A 
ATOM     81  F   UNL A   1      42.105  26.341  34.076  1.00  0.00    -0.205 F 
ATOM     82  C   UNL A   1      44.741  25.550  36.454  1.00  0.00     0.022 A 
BRANCH  80  83
ATOM     83  S   UNL A   1      42.086  25.917  37.066  1.00  0.00     0.127 S 
ATOM     84  O   UNL A   1      41.394  24.647  36.845  1.00  0.00    -0.237 OA
ATOM     85  O   UNL A   1      42.767  26.033  38.350  1.00  0.00    -0.237 OA
ATOM     86  O   UNL A   1      41.323  27.088  36.643  1.00  0.00    -0.744 OA
ENDBRANCH  80  83
ENDBRANCH  52  76
BRANCH  64  87
ATOM     87  C   UNL A   1      45.307  29.295  28.530  1.00  0.00     0.023 A 
ATOM     88  C   UNL A   1      45.910  28.072  28.163  1.00  0.00     0.012 A 
ATOM     89  C   UNL A   1      45.995  30.490  28.267  1.00  0.00     0.148 A 
ATOM     90  C   UNL A   1      47.174  28.041  27.567  1.00  0.00     0.002 A 
ATOM     91  C   UNL A   1      47.229  30.459  27.628  1.00  0.00     0.091 A 
ATOM     92  F   UNL A   1      45.410  31.646  28.614  1.00  0.00    -0.205 F 
ATOM     93  C   UNL A   1      47.827  29.236  27.285  1.00  0.00     0.022 A 
BRANCH  91  94
ATOM     94  S   UNL A   1      48.049  31.968  27.117  1.00  0.00     0.127 S 
ATOM     95  O   UNL A   1      49.311  31.463  26.583  1.00  0.00    -0.237 OA
ATOM     96  O   UNL A   1      47.128  32.503  26.111  1.00  0.00    -0.237 OA
ATOM     97  O   UNL A   1      48.157  32.791  28.316  1.00  0.00    -0.744 OA
ENDBRANCH  91  94
ENDBRANCH  64  87
ENDBRANCH  38  39
ENDBRANCH  30  33
ENDBRANCH  28  29
ENDBRANCH   1  28
TORSDOF 17
ENDMDL
MODEL 2
REMARK VINA RESULT:     -13.1      2.106      2.377
REMARK SMILES COc1ccccc1-n1nnc(C(=O)NCCCCNC(=O)c2ccc(-c3c4nc(c(-c5cccc(S(=O)(=O)[O-])c5F)c5ccc([nH]5)c(-c5cccc(S(=O)(=O)[O-])c5F)c5nc(c(-c6cccc(S(=O)(=O)[O-])c6F)c6ccc3[nH]6)C=C5)C=C4)cc2)c1-c1ccc(Cl)cc1
REMARK SMILES IDX 18 1 17 2 16 3 15 4 13 5 14 6 12 8 9 9 10 10 86 11 11 12
REMARK SMILES IDX 8 13 3 14 4 15 5 16 7 17 6 18 2 19 1 20 87 21 88 22 93 23
REMARK SMILES IDX 89 24 92 25 90 26 91 27 19 28 20 29 21 30 22 32 23 33 24 34
REMARK SMILES IDX 85 35 25 36 84 37 26 38 27 39 28 40 78 41 29 42 83 43 77 44
REMARK SMILES IDX 79 45 30 46 82 47 76 48 75 49 31 51 63 52 43 53 62 54 44 55
REMARK SMILES IDX 47 56 61 57 80 58 45 59 46 60 60 62 81 63 48 64 32 65 33 66
REMARK SMILES IDX 41 67 34 68 36 69 42 70 35 71 37 72 38 73 39 74 40 75 64 76
REMARK SMILES IDX 65 77 73 78 66 79 68 80 74 81 67 82 69 83 70 84 71 85 72 86
REMARK SMILES IDX 49 87 50 88 58 89 51 90 53 91 59 92 52 93 54 94 55 95 56 96
REMARK SMILES IDX 57 97
REMARK H PARENT 15 7 20 31 79 50 47 61
REMARK Flexibility Score: inf
ROOT
ATOM      1  C   UNL A   1      37.042  21.633  24.368  1.00  0.00     0.023 C 
ENDROOT
BRANCH   1   2
ATOM      2  C   UNL A   1      35.634  21.820  24.926  1.00  0.00     0.023 C 
BRANCH   2   3
ATOM      3  C   UNL A   1      35.407  22.903  25.973  1.00  0.00     0.116 C 
BRANCH   3   4
ATOM      4  N   UNL A   1      34.479  22.676  27.042  1.00  0.00    -0.351 N 
ATOM      5  C   UNL A   1      33.120  22.958  27.085  1.00  0.00     0.274 C 
ATOM      6  O   UNL A   1      32.567  22.685  28.156  1.00  0.00    -0.267 OA
ATOM      7  H   UNL A   1      34.855  22.266  27.854  1.00  0.00     0.163 HD
BRANCH   5   8
ATOM      8  C   UNL A   1      32.348  23.613  26.000  1.00  0.00     0.178 A 
ATOM      9  N   UNL A   1      31.297  24.780  24.454  1.00  0.00    -0.208 N 
ATOM     10  N   UNL A   1      30.851  23.515  24.365  1.00  0.00    -0.061 NA
ATOM     11  C   UNL A   1      32.131  24.926  25.565  1.00  0.00     0.108 A 
ATOM     12  N   UNL A   1      31.565  22.783  25.201  1.00  0.00    -0.124 NA
BRANCH   9  13
ATOM     13  C   UNL A   1      30.728  25.823  23.684  1.00  0.00     0.109 A 
ATOM     14  C   UNL A   1      31.519  26.644  22.868  1.00  0.00     0.144 A 
ATOM     15  C   UNL A   1      31.010  27.881  22.461  1.00  0.00     0.049 A 
ATOM     16  C   UNL A   1      29.722  28.278  22.821  1.00  0.00     0.004 A 
ATOM     17  C   UNL A   1      29.403  26.187  23.987  1.00  0.00     0.032 A 
ATOM     18  C   UNL A   1      28.912  27.424  23.568  1.00  0.00     0.003 A 
BRANCH  14  19
ATOM     19  O   UNL A   1      32.812  26.414  22.488  1.00  0.00    -0.494 OA
ATOM     20  C   UNL A   1      33.594  27.571  22.181  1.00  0.00     0.278 C 
ENDBRANCH  14  19
ENDBRANCH   9  13
BRANCH  11  21
ATOM     21  C   UNL A   1      32.401  26.260  26.103  1.00  0.00     0.003 A 
ATOM     22  C   UNL A   1      31.449  26.991  26.818  1.00  0.00     0.012 A 
ATOM     23  C   UNL A   1      33.666  26.834  25.846  1.00  0.00     0.012 A 
ATOM     24  C   UNL A   1      31.755  28.286  27.251  1.00  0.00     0.021 A 
ATOM     25  C   UNL A   1      33.959  28.128  26.262  1.00  0.00     0.021 A 
ATOM     26  C   UNL A   1      32.999  28.849  26.964  1.00  0.00     0.041 A 
ATOM     27  Cl  UNL A   1      33.366  30.448  27.476  1.00  0.00    -0.084 Cl
ENDBRANCH  11  21
ENDBRANCH   5   8
ENDBRANCH   3   4
ENDBRANCH   2   3
ENDBRANCH   1   2
BRANCH   1  28
ATOM     28  C   UNL A   1      38.166  21.553  25.397  1.00  0.00     0.116 C 
BRANCH  28  29
ATOM     29  N   UNL A   1      38.762  20.224  25.565  1.00  0.00    -0.352 N 
ATOM     30  C   UNL A   1      40.092  19.954  25.849  1.00  0.00     0.251 C 
ATOM     31  H   UNL A   1      38.162  19.450  25.466  1.00  0.00     0.163 HD
ATOM     32  O   UNL A   1      40.592  18.855  25.614  1.00  0.00    -0.269 OA
BRANCH  30  33
ATOM     33  C   UNL A   1      40.908  21.025  26.452  1.00  0.00     0.039 A 
ATOM     34  C   UNL A   1      41.656  21.915  25.672  1.00  0.00     0.014 A 
ATOM     35  C   UNL A   1      40.842  21.168  27.836  1.00  0.00     0.014 A 
ATOM     36  C   UNL A   1      42.240  23.023  26.285  1.00  0.00     0.010 A 
ATOM     37  C   UNL A   1      41.309  22.315  28.419  1.00  0.00     0.010 A 
ATOM     38  C   UNL A   1      42.030  23.230  27.653  1.00  0.00    -0.014 A 
BRANCH  38  39
ATOM     39  C   UNL A   1      42.357  24.504  28.289  1.00  0.00     0.031 A 
ATOM     40  C   UNL A   1      41.286  25.538  28.159  1.00  0.00     0.074 A 
ATOM     41  C   UNL A   1      43.365  24.578  29.187  1.00  0.00     0.049 A 
ATOM     42  N   UNL A   1      41.375  26.712  27.625  1.00  0.00    -0.248 NA
ATOM     43  C   UNL A   1      39.904  25.164  28.521  1.00  0.00     0.031 C 
ATOM     44  C   UNL A   1      44.262  23.488  29.596  1.00  0.00     0.029 A 
ATOM     45  N   UNL A   1      43.663  25.561  30.081  1.00  0.00    -0.354 N 
ATOM     46  C   UNL A   1      40.129  27.309  27.823  1.00  0.00     0.074 A 
ATOM     47  C   UNL A   1      39.220  26.240  28.127  1.00  0.00     0.031 C 
ATOM     48  C   UNL A   1      44.774  23.766  30.812  1.00  0.00     0.029 A 
ATOM     49  C   UNL A   1      44.354  25.096  31.204  1.00  0.00     0.049 A 
ATOM     50  H   UNL A   1      43.416  26.504  29.950  1.00  0.00     0.167 HD
ATOM     51  C   UNL A   1      40.011  28.652  28.025  1.00  0.00     0.034 A 
ATOM     52  C   UNL A   1      44.484  25.721  32.403  1.00  0.00     0.034 A 
ATOM     53  C   UNL A   1      41.232  29.335  27.674  1.00  0.00     0.049 A 
ATOM     54  C   UNL A   1      44.188  27.156  32.182  1.00  0.00     0.074 A 
ATOM     55  C   UNL A   1      42.015  29.409  26.539  1.00  0.00     0.029 A 
ATOM     56  N   UNL A   1      42.031  29.745  28.716  1.00  0.00    -0.354 N 
ATOM     57  N   UNL A   1      44.934  27.931  31.444  1.00  0.00    -0.248 NA
ATOM     58  C   UNL A   1      42.821  27.609  32.382  1.00  0.00     0.031 C 
ATOM     59  C   UNL A   1      43.355  29.376  27.022  1.00  0.00     0.029 A 
ATOM     60  C   UNL A   1      43.317  29.385  28.418  1.00  0.00     0.049 A 
ATOM     61  H   UNL A   1      41.732  30.212  29.529  1.00  0.00     0.167 HD
ATOM     62  C   UNL A   1      44.021  28.664  30.698  1.00  0.00     0.074 A 
ATOM     63  C   UNL A   1      42.747  28.516  31.403  1.00  0.00     0.031 C 
ATOM     64  C   UNL A   1      44.307  29.044  29.418  1.00  0.00     0.034 A 
BRANCH  51  65
ATOM     65  C   UNL A   1      38.975  29.326  28.906  1.00  0.00     0.023 A 
ATOM     66  C   UNL A   1      38.266  30.414  28.342  1.00  0.00     0.012 A 
ATOM     67  C   UNL A   1      38.861  29.156  30.304  1.00  0.00     0.148 A 
ATOM     68  C   UNL A   1      37.556  31.324  29.133  1.00  0.00     0.002 A 
ATOM     69  C   UNL A   1      38.090  30.018  31.078  1.00  0.00     0.091 A 
ATOM     70  F   UNL A   1      39.602  28.244  30.936  1.00  0.00    -0.205 F 
ATOM     71  C   UNL A   1      37.465  31.125  30.504  1.00  0.00     0.022 A 
BRANCH  69  72
ATOM     72  S   UNL A   1      37.906  29.777  32.851  1.00  0.00     0.127 S 
ATOM     73  O   UNL A   1      36.949  30.827  33.189  1.00  0.00    -0.237 OA
ATOM     74  O   UNL A   1      37.382  28.413  32.915  1.00  0.00    -0.237 OA
ATOM     75  O   UNL A   1      39.244  29.928  33.408  1.00  0.00    -0.744 OA
ENDBRANCH  69  72
ENDBRANCH  51  65
BRANCH  52  76
ATOM     76  C   UNL A   1      44.586  25.130  33.763  1.00  0.00     0.023 A 
ATOM     77  C   UNL A   1      43.421  24.733  34.451  1.00  0.00     0.012 A 
ATOM     78  C   UNL A   1      45.832  24.718  34.288  1.00  0.00     0.148 A 
ATOM     79  C   UNL A   1      43.496  23.935  35.601  1.00  0.00     0.002 A 
ATOM     80  C   UNL A   1      45.903  23.941  35.440  1.00  0.00     0.091 A 
ATOM     81  F   UNL A   1      46.950  24.994  33.604  1.00  0.00    -0.205 F 
ATOM     82  C   UNL A   1      44.735  23.536  36.095  1.00  0.00     0.022 A 
BRANCH  80  83
ATOM     83  S   UNL A   1      47.481  23.385  36.104  1.00  0.00     0.127 S 
ATOM     84  O   UNL A   1      47.088  22.808  37.390  1.00  0.00    -0.237 OA
ATOM     85  O   UNL A   1      47.904  22.418  35.098  1.00  0.00    -0.237 OA
ATOM     86  O   UNL A   1      48.306  24.584  36.221  1.00  0.00    -0.744 OA
ENDBRANCH  80  83
ENDBRANCH  52  76
BRANCH  64  87
ATOM     87  C   UNL A   1      45.716  28.850  28.908  1.00  0.00     0.023 A 
ATOM     88  C   UNL A   1      46.778  29.708  29.263  1.00  0.00     0.012 A 
ATOM     89  C   UNL A   1      46.012  27.659  28.225  1.00  0.00     0.148 A 
ATOM     90  C   UNL A   1      48.099  29.398  28.931  1.00  0.00     0.002 A 
ATOM     91  C   UNL A   1      47.331  27.328  27.941  1.00  0.00     0.091 A 
ATOM     92  F   UNL A   1      44.995  26.848  27.898  1.00  0.00    -0.205 F 
ATOM     93  C   UNL A   1      48.378  28.199  28.283  1.00  0.00     0.022 A 
BRANCH  91  94
ATOM     94  S   UNL A   1      47.759  25.737  27.234  1.00  0.00     0.127 S 
ATOM     95  O   UNL A   1      49.218  25.800  27.204  1.00  0.00    -0.237 OA
ATOM     96  O   UNL A   1      47.206  24.798  28.213  1.00  0.00    -0.237 OA
ATOM     97  O   UNL A   1      47.104  25.689  25.932  1.00  0.00    -0.744 OA
ENDBRANCH  91  94
ENDBRANCH  64  87
ENDBRANCH  38  39
ENDBRANCH  30  33
ENDBRANCH  28  29
ENDBRANCH   1  28
TORSDOF 17
ENDMDL
MODEL 3
REMARK VINA RESULT:     -12.3      2.924      7.380
REMARK SMILES COc1ccccc1-n1nnc(C(=O)NCCCCNC(=O)c2ccc(-c3c4nc(c(-c5cccc(S(=O)(=O)[O-])c5F)c5ccc([nH]5)c(-c5cccc(S(=O)(=O)[O-])c5F)c5nc(c(-c6cccc(S(=O)(=O)[O-])c6F)c6ccc3[nH]6)C=C5)C=C4)cc2)c1-c1ccc(Cl)cc1
REMARK SMILES IDX 18 1 17 2 16 3 15 4 13 5 14 6 12 8 9 9 10 10 86 11 11 12
REMARK SMILES IDX 8 13 3 14 4 15 5 16 7 17 6 18 2 19 1 20 87 21 88 22 93 23
REMARK SMILES IDX 89 24 92 25 90 26 91 27 19 28 20 29 21 30 22 32 23 33 24 34
REMARK SMILES IDX 85 35 25 36 84 37 26 38 27 39 28 40 78 41 29 42 83 43 77 44
REMARK SMILES IDX 79 45 30 46 82 47 76 48 75 49 31 51 63 52 43 53 62 54 44 55
REMARK SMILES IDX 47 56 61 57 80 58 45 59 46 60 60 62 81 63 48 64 32 65 33 66
REMARK SMILES IDX 41 67 34 68 36 69 42 70 35 71 37 72 38 73 39 74 40 75 64 76
REMARK SMILES IDX 65 77 73 78 66 79 68 80 74 81 67 82 69 83 70 84 71 85 72 86
REMARK SMILES IDX 49 87 50 88 58 89 51 90 53 91 59 92 52 93 54 94 55 95 56 96
REMARK SMILES IDX 57 97
REMARK H PARENT 15 7 20 31 79 50 47 61
REMARK Flexibility Score: inf
ROOT
ATOM      1  C   UNL A   1      33.884  28.256  26.337  1.00  0.00     0.023 C 
ENDROOT
BRANCH   1   2
ATOM      2  C   UNL A   1      32.433  28.238  25.864  1.00  0.00     0.023 C 
BRANCH   2   3
ATOM      3  C   UNL A   1      32.104  28.850  24.508  1.00  0.00     0.116 C 
BRANCH   3   4
ATOM      4  N   UNL A   1      33.010  28.674  23.410  1.00  0.00    -0.351 N 
ATOM      5  C   UNL A   1      33.261  27.526  22.670  1.00  0.00     0.274 C 
ATOM      6  O   UNL A   1      34.123  27.652  21.794  1.00  0.00    -0.267 OA
ATOM      7  H   UNL A   1      33.521  29.472  23.146  1.00  0.00     0.163 HD
BRANCH   5   8
ATOM      8  C   UNL A   1      32.642  26.199  22.914  1.00  0.00     0.178 A 
ATOM      9  N   UNL A   1      31.910  24.175  23.390  1.00  0.00    -0.208 N 
ATOM     10  N   UNL A   1      30.989  24.751  22.598  1.00  0.00    -0.061 NA
ATOM     11  C   UNL A   1      33.040  24.990  23.498  1.00  0.00     0.108 A 
ATOM     12  N   UNL A   1      31.358  26.007  22.411  1.00  0.00    -0.124 NA
BRANCH   9  13
ATOM     13  C   UNL A   1      31.811  22.817  23.776  1.00  0.00     0.109 A 
ATOM     14  C   UNL A   1      31.743  22.444  25.125  1.00  0.00     0.144 A 
ATOM     15  C   UNL A   1      32.056  21.128  25.478  1.00  0.00     0.049 A 
ATOM     16  C   UNL A   1      32.388  20.186  24.504  1.00  0.00     0.004 A 
ATOM     17  C   UNL A   1      32.073  21.854  22.784  1.00  0.00     0.032 A 
ATOM     18  C   UNL A   1      32.378  20.544  23.156  1.00  0.00     0.003 A 
BRANCH  14  19
ATOM     19  O   UNL A   1      31.492  23.266  26.188  1.00  0.00    -0.494 OA
ATOM     20  C   UNL A   1      30.222  23.104  26.826  1.00  0.00     0.278 C 
ENDBRANCH  14  19
ENDBRANCH   9  13
BRANCH  11  21
ATOM     21  C   UNL A   1      34.310  24.419  23.949  1.00  0.00     0.003 A 
ATOM     22  C   UNL A   1      35.109  23.618  23.130  1.00  0.00     0.012 A 
ATOM     23  C   UNL A   1      34.709  24.665  25.282  1.00  0.00     0.012 A 
ATOM     24  C   UNL A   1      36.282  23.055  23.647  1.00  0.00     0.021 A 
ATOM     25  C   UNL A   1      35.865  24.088  25.796  1.00  0.00     0.021 A 
ATOM     26  C   UNL A   1      36.647  23.284  24.974  1.00  0.00     0.041 A 
ATOM     27  Cl  UNL A   1      38.074  22.574  25.614  1.00  0.00    -0.084 Cl
ENDBRANCH  11  21
ENDBRANCH   5   8
ENDBRANCH   3   4
ENDBRANCH   2   3
ENDBRANCH   1   2
BRANCH   1  28
ATOM     28  C   UNL A   1      34.201  29.199  27.493  1.00  0.00     0.116 C 
BRANCH  28  29
ATOM     29  N   UNL A   1      34.506  30.579  27.103  1.00  0.00    -0.352 N 
ATOM     30  C   UNL A   1      35.521  31.370  27.621  1.00  0.00     0.251 C 
ATOM     31  H   UNL A   1      33.937  30.984  26.410  1.00  0.00     0.163 HD
ATOM     32  O   UNL A   1      35.493  32.597  27.531  1.00  0.00    -0.269 OA
BRANCH  30  33
ATOM     33  C   UNL A   1      36.656  30.702  28.286  1.00  0.00     0.039 A 
ATOM     34  C   UNL A   1      36.933  29.344  28.090  1.00  0.00     0.014 A 
ATOM     35  C   UNL A   1      37.494  31.498  29.062  1.00  0.00     0.014 A 
ATOM     36  C   UNL A   1      38.128  28.821  28.582  1.00  0.00     0.010 A 
ATOM     37  C   UNL A   1      38.720  31.020  29.439  1.00  0.00     0.010 A 
ATOM     38  C   UNL A   1      39.029  29.678  29.225  1.00  0.00    -0.014 A 
BRANCH  38  39
ATOM     39  C   UNL A   1      40.405  29.270  29.497  1.00  0.00     0.031 A 
ATOM     40  C   UNL A   1      40.764  29.281  30.947  1.00  0.00     0.074 A 
ATOM     41  C   UNL A   1      41.123  28.622  28.551  1.00  0.00     0.049 A 
ATOM     42  N   UNL A   1      41.709  29.947  31.527  1.00  0.00    -0.248 NA
ATOM     43  C   UNL A   1      39.867  28.593  31.897  1.00  0.00     0.031 C 
ATOM     44  C   UNL A   1      40.689  28.298  27.185  1.00  0.00     0.029 A 
ATOM     45  N   UNL A   1      42.287  27.926  28.669  1.00  0.00    -0.354 N 
ATOM     46  C   UNL A   1      41.677  29.554  32.865  1.00  0.00     0.074 A 
ATOM     47  C   UNL A   1      40.392  28.948  33.071  1.00  0.00     0.031 C 
ATOM     48  C   UNL A   1      41.413  27.258  26.724  1.00  0.00     0.029 A 
ATOM     49  C   UNL A   1      42.438  26.933  27.696  1.00  0.00     0.049 A 
ATOM     50  H   UNL A   1      42.956  28.104  29.367  1.00  0.00     0.167 HD
ATOM     51  C   UNL A   1      42.816  29.481  33.610  1.00  0.00     0.034 A 
ATOM     52  C   UNL A   1      43.277  25.866  27.738  1.00  0.00     0.034 A 
ATOM     53  C   UNL A   1      43.906  30.157  32.951  1.00  0.00     0.049 A 
ATOM     54  C   UNL A   1      44.327  26.175  28.737  1.00  0.00     0.074 A 
ATOM     55  C   UNL A   1      44.110  31.435  32.468  1.00  0.00     0.029 A 
ATOM     56  N   UNL A   1      44.843  29.362  32.334  1.00  0.00    -0.354 N 
ATOM     57  N   UNL A   1      45.195  27.135  28.582  1.00  0.00    -0.248 NA
ATOM     58  C   UNL A   1      44.114  25.738  30.107  1.00  0.00     0.031 C 
ATOM     59  C   UNL A   1      44.808  31.249  31.240  1.00  0.00     0.029 A 
ATOM     60  C   UNL A   1      45.078  29.886  31.092  1.00  0.00     0.049 A 
ATOM     61  H   UNL A   1      45.268  28.560  32.716  1.00  0.00     0.167 HD
ATOM     62  C   UNL A   1      45.247  27.746  29.828  1.00  0.00     0.074 A 
ATOM     63  C   UNL A   1      44.663  26.772  30.752  1.00  0.00     0.031 C 
ATOM     64  C   UNL A   1      45.451  29.091  29.942  1.00  0.00     0.034 A 
BRANCH  51  65
ATOM     65  C   UNL A   1      43.086  28.478  34.718  1.00  0.00     0.023 A 
ATOM     66  C   UNL A   1      43.613  28.988  35.928  1.00  0.00     0.012 A 
ATOM     67  C   UNL A   1      43.131  27.075  34.552  1.00  0.00     0.148 A 
ATOM     68  C   UNL A   1      44.222  28.160  36.878  1.00  0.00     0.002 A 
ATOM     69  C   UNL A   1      43.667  26.247  35.533  1.00  0.00     0.091 A 
ATOM     70  F   UNL A   1      42.784  26.521  33.389  1.00  0.00    -0.205 F 
ATOM     71  C   UNL A   1      44.247  26.786  36.681  1.00  0.00     0.022 A 
BRANCH  69  72
ATOM     72  S   UNL A   1      43.684  24.458  35.345  1.00  0.00     0.127 S 
ATOM     73  O   UNL A   1      44.476  24.300  34.129  1.00  0.00    -0.237 OA
ATOM     74  O   UNL A   1      44.348  24.034  36.578  1.00  0.00    -0.237 OA
ATOM     75  O   UNL A   1      42.285  24.060  35.254  1.00  0.00    -0.744 OA
ENDBRANCH  69  72
ENDBRANCH  51  65
BRANCH  52  76
ATOM     76  C   UNL A   1      43.090  24.503  27.175  1.00  0.00     0.023 A 
ATOM     77  C   UNL A   1      41.824  23.884  27.227  1.00  0.00     0.012 A 
ATOM     78  C   UNL A   1      44.080  23.907  26.362  1.00  0.00     0.148 A 
ATOM     79  C   UNL A   1      41.549  22.732  26.476  1.00  0.00     0.002 A 
ATOM     80  C   UNL A   1      43.810  22.753  25.633  1.00  0.00     0.091 A 
ATOM     81  F   UNL A   1      45.260  24.524  26.214  1.00  0.00    -0.205 F 
ATOM     82  C   UNL A   1      42.541  22.167  25.677  1.00  0.00     0.022 A 
BRANCH  80  83
ATOM     83  S   UNL A   1      45.052  21.998  24.571  1.00  0.00     0.127 S 
ATOM     84  O   UNL A   1      45.277  23.041  23.570  1.00  0.00    -0.237 OA
ATOM     85  O   UNL A   1      46.154  21.789  25.503  1.00  0.00    -0.237 OA
ATOM     86  O   UNL A   1      44.434  20.788  24.037  1.00  0.00    -0.744 OA
ENDBRANCH  80  83
ENDBRANCH  52  76
BRANCH  64  87
ATOM     87  C   UNL A   1      45.843  29.866  28.706  1.00  0.00     0.023 A 
ATOM     88  C   UNL A   1      44.891  30.429  27.829  1.00  0.00     0.012 A 
ATOM     89  C   UNL A   1      47.195  30.207  28.542  1.00  0.00     0.148 A 
ATOM     90  C   UNL A   1      45.279  31.296  26.804  1.00  0.00     0.002 A 
ATOM     91  C   UNL A   1      47.571  31.108  27.553  1.00  0.00     0.091 A 
ATOM     92  F   UNL A   1      48.090  29.670  29.384  1.00  0.00    -0.205 F 
ATOM     93  C   UNL A   1      46.618  31.648  26.676  1.00  0.00     0.022 A 
BRANCH  91  94
ATOM     94  S   UNL A   1      49.258  31.703  27.431  1.00  0.00     0.127 S 
ATOM     95  O   UNL A   1      49.999  30.468  27.191  1.00  0.00    -0.237 OA
ATOM     96  O   UNL A   1      49.190  32.610  26.283  1.00  0.00    -0.237 OA
ATOM     97  O   UNL A   1      49.540  32.370  28.696  1.00  0.00    -0.744 OA
ENDBRANCH  91  94
ENDBRANCH  64  87
ENDBRANCH  38  39
ENDBRANCH  30  33
ENDBRANCH  28  29
ENDBRANCH   1  28
TORSDOF 17
ENDMDL
