MODEL 1
REMARK VINA RESULT:     -12.6      0.000      0.000
REMARK SMILES Cc1nc(-c2ccc(S(=O)(=O)N3CC[NH2+][C@H](C(=O)NCCCCNC(=O)c4ccc(-c5c6nc(c(-c7cccc(S(=O)(=O)[O-])c7F)c7ccc([nH]7)c(-c7cccc(S(=O)(=O)[O-])c7F)c7nc(c(-c8cccc(S(=O)(=O)[O-])c8F)c8ccc5[nH]8)C=C7)C=C6)cc4)C3)s2)cs1
REMARK SMILES IDX 21 1 20 2 19 3 17 4 18 5 16 7 12 8 13 9 90 10 14 11 15 12
REMARK SMILES IDX 9 15 10 16 11 17 8 18 5 19 6 20 91 21 7 22 4 23 1 24 2 25
REMARK SMILES IDX 3 26 93 27 92 28 22 29 23 30 24 31 25 32 26 34 27 35 28 36
REMARK SMILES IDX 89 37 29 38 88 39 30 40 31 41 32 42 82 43 33 44 87 45 81 46
REMARK SMILES IDX 83 47 34 48 86 49 80 50 79 51 35 53 67 54 47 55 66 56 48 57
REMARK SMILES IDX 51 58 65 59 84 60 49 61 50 62 64 64 85 65 52 66 36 67 37 68
REMARK SMILES IDX 45 69 38 70 40 71 46 72 39 73 41 74 42 75 43 76 44 77 68 78
REMARK SMILES IDX 69 79 77 80 70 81 72 82 78 83 71 84 73 85 74 86 75 87 76 88
REMARK SMILES IDX 53 89 54 90 62 91 55 92 57 93 63 94 56 95 58 96 59 97 60 98
REMARK SMILES IDX 61 99
REMARK H PARENT 19 6 15 13 15 14 24 33 83 52 51 63
REMARK Flexibility Score: inf
ROOT
ATOM      1  C   UNL A   1      35.554  23.591  24.716  1.00  0.00     0.023 C 
ENDROOT
BRANCH   1   2
ATOM      2  C   UNL A   1      34.744  23.036  23.540  1.00  0.00     0.116 C 
BRANCH   2   3
ATOM      3  N   UNL A   1      34.448  24.108  22.617  1.00  0.00    -0.351 N 
ATOM      4  C   UNL A   1      33.300  24.814  22.435  1.00  0.00     0.279 C 
ATOM      5  O   UNL A   1      33.142  25.302  21.309  1.00  0.00    -0.268 OA
ATOM      6  H   UNL A   1      35.194  24.368  22.028  1.00  0.00     0.163 HD
BRANCH   4   7
ATOM      7  C   UNL A   1      32.308  25.141  23.589  1.00  0.00     0.287 C 
ATOM      8  N   UNL A   1      30.317  24.742  24.984  1.00  0.00    -0.185 NA
ATOM      9  C   UNL A   1      29.762  26.092  24.797  1.00  0.00     0.164 C 
ATOM     10  C   UNL A   1      31.055  24.292  23.775  1.00  0.00     0.178 C 
ATOM     11  C   UNL A   1      30.819  27.085  24.288  1.00  0.00     0.278 C 
ATOM     12  N   UNL A   1      31.954  26.596  23.490  1.00  0.00    -0.334 N 
ATOM     13  H   UNL A   1      32.776  27.129  23.772  1.00  0.00     0.347 HD
ATOM     14  H   UNL A   1      31.656  26.720  22.522  1.00  0.00     0.347 HD
BRANCH   8  15
ATOM     15  S   UNL A   1      30.819  24.218  26.518  1.00  0.00     0.253 S 
ATOM     16  O   UNL A   1      29.641  23.683  27.179  1.00  0.00    -0.206 OA
ATOM     17  O   UNL A   1      31.586  25.293  27.104  1.00  0.00    -0.206 OA
BRANCH  15  18
ATOM     18  C   UNL A   1      31.972  22.843  26.477  1.00  0.00     0.135 A 
ATOM     19  C   UNL A   1      32.917  20.636  25.846  1.00  0.00     0.055 A 
ATOM     20  C   UNL A   1      33.607  21.220  26.879  1.00  0.00     0.023 A 
ATOM     21  S   UNL A   1      31.673  21.644  25.261  1.00  0.00    -0.121 S 
ATOM     22  C   UNL A   1      33.079  22.484  27.219  1.00  0.00     0.034 A 
BRANCH  19  23
ATOM     23  C   UNL A   1      33.281  19.260  25.400  1.00  0.00     0.091 A 
ATOM     24  C   UNL A   1      32.331  15.755  25.664  1.00  0.00     0.079 C 
ATOM     25  C   UNL A   1      32.971  17.067  25.380  1.00  0.00     0.090 A 
ATOM     26  N   UNL A   1      32.574  18.191  25.926  1.00  0.00    -0.241 NA
ATOM     27  S   UNL A   1      34.294  17.212  24.296  1.00  0.00    -0.127 S 
ATOM     28  C   UNL A   1      34.266  18.923  24.500  1.00  0.00     0.096 A 
ENDBRANCH  19  23
ENDBRANCH  15  18
ENDBRANCH   8  15
ENDBRANCH   4   7
ENDBRANCH   2   3
ENDBRANCH   1   2
BRANCH   1  29
ATOM     29  C   UNL A   1      36.388  22.522  25.436  1.00  0.00     0.023 C 
BRANCH  29  30
ATOM     30  C   UNL A   1      37.809  22.378  24.906  1.00  0.00     0.116 C 
BRANCH  30  31
ATOM     31  N   UNL A   1      38.544  21.307  25.560  1.00  0.00    -0.352 N 
ATOM     32  C   UNL A   1      39.586  21.413  26.446  1.00  0.00     0.251 C 
ATOM     33  H   UNL A   1      38.259  20.391  25.339  1.00  0.00     0.163 HD
ATOM     34  O   UNL A   1      40.189  20.410  26.815  1.00  0.00    -0.269 OA
BRANCH  32  35
ATOM     35  C   UNL A   1      39.997  22.751  26.914  1.00  0.00     0.039 A 
ATOM     36  C   UNL A   1      40.910  22.840  27.965  1.00  0.00     0.014 A 
ATOM     37  C   UNL A   1      39.515  23.904  26.290  1.00  0.00     0.014 A 
ATOM     38  C   UNL A   1      41.377  24.092  28.363  1.00  0.00     0.010 A 
ATOM     39  C   UNL A   1      40.037  25.145  26.640  1.00  0.00     0.010 A 
ATOM     40  C   UNL A   1      40.965  25.252  27.685  1.00  0.00    -0.014 A 
BRANCH  40  41
ATOM     41  C   UNL A   1      41.510  26.580  28.056  1.00  0.00     0.031 A 
ATOM     42  C   UNL A   1      42.938  26.932  27.743  1.00  0.00     0.074 A 
ATOM     43  C   UNL A   1      40.732  27.445  28.737  1.00  0.00     0.049 A 
ATOM     44  N   UNL A   1      43.580  28.047  27.973  1.00  0.00    -0.248 NA
ATOM     45  C   UNL A   1      43.763  25.886  27.116  1.00  0.00     0.031 C 
ATOM     46  C   UNL A   1      39.366  27.178  29.191  1.00  0.00     0.029 A 
ATOM     47  N   UNL A   1      40.986  28.718  29.182  1.00  0.00    -0.354 N 
ATOM     48  C   UNL A   1      44.885  27.830  27.550  1.00  0.00     0.074 A 
ATOM     49  C   UNL A   1      44.957  26.461  27.088  1.00  0.00     0.031 C 
ATOM     50  C   UNL A   1      38.896  28.258  29.834  1.00  0.00     0.029 A 
ATOM     51  C   UNL A   1      39.929  29.289  29.852  1.00  0.00     0.049 A 
ATOM     52  H   UNL A   1      41.843  29.178  29.036  1.00  0.00     0.167 HD
ATOM     53  C   UNL A   1      45.922  28.701  27.515  1.00  0.00     0.034 A 
ATOM     54  C   UNL A   1      39.803  30.511  30.403  1.00  0.00     0.034 A 
ATOM     55  C   UNL A   1      45.829  30.074  27.929  1.00  0.00     0.049 A 
ATOM     56  C   UNL A   1      40.939  31.488  30.270  1.00  0.00     0.074 A 
ATOM     57  C   UNL A   1      46.791  31.065  27.853  1.00  0.00     0.029 A 
ATOM     58  N   UNL A   1      44.705  30.653  28.498  1.00  0.00    -0.354 N 
ATOM     59  N   UNL A   1      42.110  31.320  29.704  1.00  0.00    -0.248 NA
ATOM     60  C   UNL A   1      40.720  32.840  30.804  1.00  0.00     0.031 C 
ATOM     61  C   UNL A   1      46.251  32.241  28.384  1.00  0.00     0.029 A 
ATOM     62  C   UNL A   1      44.947  31.988  28.775  1.00  0.00     0.049 A 
ATOM     63  H   UNL A   1      43.858  30.183  28.679  1.00  0.00     0.167 HD
ATOM     64  C   UNL A   1      42.750  32.551  29.777  1.00  0.00     0.074 A 
ATOM     65  C   UNL A   1      41.827  33.463  30.424  1.00  0.00     0.031 C 
ATOM     66  C   UNL A   1      43.994  32.895  29.362  1.00  0.00     0.034 A 
BRANCH  53  67
ATOM     67  C   UNL A   1      47.226  28.210  26.945  1.00  0.00     0.023 A 
ATOM     68  C   UNL A   1      48.282  27.877  27.820  1.00  0.00     0.012 A 
ATOM     69  C   UNL A   1      47.396  28.028  25.560  1.00  0.00     0.148 A 
ATOM     70  C   UNL A   1      49.496  27.405  27.323  1.00  0.00     0.002 A 
ATOM     71  C   UNL A   1      48.594  27.516  25.075  1.00  0.00     0.091 A 
ATOM     72  F   UNL A   1      46.392  28.372  24.740  1.00  0.00    -0.205 F 
ATOM     73  C   UNL A   1      49.649  27.216  25.953  1.00  0.00     0.022 A 
BRANCH  71  74
ATOM     74  S   UNL A   1      48.861  27.160  23.334  1.00  0.00     0.127 S 
ATOM     75  O   UNL A   1      50.311  26.982  23.287  1.00  0.00    -0.237 OA
ATOM     76  O   UNL A   1      48.090  25.930  23.148  1.00  0.00    -0.237 OA
ATOM     77  O   UNL A   1      48.347  28.312  22.607  1.00  0.00    -0.744 OA
ENDBRANCH  71  74
ENDBRANCH  53  67
BRANCH  54  78
ATOM     78  C   UNL A   1      38.514  30.912  31.033  1.00  0.00     0.023 A 
ATOM     79  C   UNL A   1      38.324  30.698  32.412  1.00  0.00     0.012 A 
ATOM     80  C   UNL A   1      37.493  31.534  30.288  1.00  0.00     0.148 A 
ATOM     81  C   UNL A   1      37.129  31.064  33.032  1.00  0.00     0.002 A 
ATOM     82  C   UNL A   1      36.327  31.946  30.923  1.00  0.00     0.091 A 
ATOM     83  F   UNL A   1      37.688  31.720  28.975  1.00  0.00    -0.205 F 
ATOM     84  C   UNL A   1      36.135  31.696  32.291  1.00  0.00     0.022 A 
BRANCH  82  85
ATOM     85  S   UNL A   1      35.054  32.887  30.074  1.00  0.00     0.127 S 
ATOM     86  O   UNL A   1      34.543  31.908  29.119  1.00  0.00    -0.237 OA
ATOM     87  O   UNL A   1      34.139  33.218  31.167  1.00  0.00    -0.237 OA
ATOM     88  O   UNL A   1      35.739  34.038  29.501  1.00  0.00    -0.744 OA
ENDBRANCH  82  85
ENDBRANCH  54  78
BRANCH  66  89
ATOM     89  C   UNL A   1      44.421  34.326  29.552  1.00  0.00     0.023 A 
ATOM     90  C   UNL A   1      44.984  34.732  30.777  1.00  0.00     0.012 A 
ATOM     91  C   UNL A   1      44.323  35.251  28.495  1.00  0.00     0.148 A 
ATOM     92  C   UNL A   1      45.410  36.048  30.960  1.00  0.00     0.002 A 
ATOM     93  C   UNL A   1      44.794  36.548  28.669  1.00  0.00     0.091 A 
ATOM     94  F   UNL A   1      43.764  34.853  27.343  1.00  0.00    -0.205 F 
ATOM     95  C   UNL A   1      45.325  36.951  29.903  1.00  0.00     0.022 A 
BRANCH  93  96
ATOM     96  S   UNL A   1      44.809  37.742  27.326  1.00  0.00     0.127 S 
ATOM     97  O   UNL A   1      45.827  37.183  26.440  1.00  0.00    -0.237 OA
ATOM     98  O   UNL A   1      43.440  37.656  26.814  1.00  0.00    -0.237 OA
ATOM     99  O   UNL A   1      45.139  39.022  27.940  1.00  0.00    -0.744 OA
ENDBRANCH  93  96
ENDBRANCH  66  89
ENDBRANCH  40  41
ENDBRANCH  32  35
ENDBRANCH  30  31
ENDBRANCH  29  30
ENDBRANCH   1  29
TORSDOF 17
ENDMDL
MODEL 2
REMARK VINA RESULT:     -11.9      1.851      2.151
REMARK SMILES Cc1nc(-c2ccc(S(=O)(=O)N3CC[NH2+][C@H](C(=O)NCCCCNC(=O)c4ccc(-c5c6nc(c(-c7cccc(S(=O)(=O)[O-])c7F)c7ccc([nH]7)c(-c7cccc(S(=O)(=O)[O-])c7F)c7nc(c(-c8cccc(S(=O)(=O)[O-])c8F)c8ccc5[nH]8)C=C7)C=C6)cc4)C3)s2)cs1
REMARK SMILES IDX 21 1 20 2 19 3 17 4 18 5 16 7 12 8 13 9 90 10 14 11 15 12
REMARK SMILES IDX 9 15 10 16 11 17 8 18 5 19 6 20 91 21 7 22 4 23 1 24 2 25
REMARK SMILES IDX 3 26 93 27 92 28 22 29 23 30 24 31 25 32 26 34 27 35 28 36
REMARK SMILES IDX 89 37 29 38 88 39 30 40 31 41 32 42 82 43 33 44 87 45 81 46
REMARK SMILES IDX 83 47 34 48 86 49 80 50 79 51 35 53 67 54 47 55 66 56 48 57
REMARK SMILES IDX 51 58 65 59 84 60 49 61 50 62 64 64 85 65 52 66 36 67 37 68
REMARK SMILES IDX 45 69 38 70 40 71 46 72 39 73 41 74 42 75 43 76 44 77 68 78
REMARK SMILES IDX 69 79 77 80 70 81 72 82 78 83 71 84 73 85 74 86 75 87 76 88
REMARK SMILES IDX 53 89 54 90 62 91 55 92 57 93 63 94 56 95 58 96 59 97 60 98
REMARK SMILES IDX 61 99
REMARK H PARENT 19 6 15 13 15 14 24 33 83 52 51 63
REMARK Flexibility Score: inf
ROOT
ATOM      1  C   UNL A   1      35.227  23.911  24.489  1.00  0.00     0.023 C 
ENDROOT
BRANCH   1   2
ATOM      2  C   UNL A   1      34.550  23.579  23.155  1.00  0.00     0.116 C 
BRANCH   2   3
ATOM      3  N   UNL A   1      34.338  24.801  22.412  1.00  0.00    -0.351 N 
ATOM      4  C   UNL A   1      33.213  25.551  22.266  1.00  0.00     0.279 C 
ATOM      5  O   UNL A   1      33.150  26.229  21.233  1.00  0.00    -0.268 OA
ATOM      6  H   UNL A   1      35.130  25.142  21.937  1.00  0.00     0.163 HD
BRANCH   4   7
ATOM      7  C   UNL A   1      32.134  25.695  23.378  1.00  0.00     0.287 C 
ATOM      8  N   UNL A   1      30.220  24.927  24.727  1.00  0.00    -0.185 NA
ATOM      9  C   UNL A   1      29.403  26.125  24.477  1.00  0.00     0.164 C 
ATOM     10  C   UNL A   1      31.079  24.608  23.555  1.00  0.00     0.178 C 
ATOM     11  C   UNL A   1      30.249  27.303  23.966  1.00  0.00     0.278 C 
ATOM     12  N   UNL A   1      31.488  27.040  23.219  1.00  0.00    -0.334 N 
ATOM     13  H   UNL A   1      32.171  27.741  23.507  1.00  0.00     0.347 HD
ATOM     14  H   UNL A   1      31.207  27.073  22.239  1.00  0.00     0.347 HD
BRANCH   8  15
ATOM     15  S   UNL A   1      30.764  24.561  26.292  1.00  0.00     0.253 S 
ATOM     16  O   UNL A   1      29.600  24.126  27.044  1.00  0.00    -0.206 OA
ATOM     17  O   UNL A   1      31.571  25.677  26.733  1.00  0.00    -0.206 OA
BRANCH  15  18
ATOM     18  C   UNL A   1      31.891  23.166  26.364  1.00  0.00     0.135 A 
ATOM     19  C   UNL A   1      32.863  20.948  25.815  1.00  0.00     0.055 A 
ATOM     20  C   UNL A   1      33.441  21.508  26.927  1.00  0.00     0.023 A 
ATOM     21  S   UNL A   1      31.711  21.985  25.107  1.00  0.00    -0.121 S 
ATOM     22  C   UNL A   1      32.900  22.777  27.221  1.00  0.00     0.034 A 
BRANCH  19  23
ATOM     23  C   UNL A   1      33.251  19.571  25.395  1.00  0.00     0.091 A 
ATOM     24  C   UNL A   1      32.342  16.057  25.697  1.00  0.00     0.079 C 
ATOM     25  C   UNL A   1      32.969  17.373  25.404  1.00  0.00     0.090 A 
ATOM     26  N   UNL A   1      32.550  18.500  25.927  1.00  0.00    -0.241 NA
ATOM     27  S   UNL A   1      34.307  17.519  24.338  1.00  0.00    -0.127 S 
ATOM     28  C   UNL A   1      34.253  19.232  24.515  1.00  0.00     0.096 A 
ENDBRANCH  19  23
ENDBRANCH  15  18
ENDBRANCH   8  15
ENDBRANCH   4   7
ENDBRANCH   2   3
ENDBRANCH   1   2
BRANCH   1  29
ATOM     29  C   UNL A   1      35.937  22.707  25.124  1.00  0.00     0.023 C 
BRANCH  29  30
ATOM     30  C   UNL A   1      37.351  22.473  24.604  1.00  0.00     0.116 C 
BRANCH  30  31
ATOM     31  N   UNL A   1      37.989  21.320  25.220  1.00  0.00    -0.352 N 
ATOM     32  C   UNL A   1      39.031  21.304  26.110  1.00  0.00     0.251 C 
ATOM     33  H   UNL A   1      37.626  20.441  24.964  1.00  0.00     0.163 HD
ATOM     34  O   UNL A   1      39.544  20.239  26.442  1.00  0.00    -0.269 OA
BRANCH  32  35
ATOM     35  C   UNL A   1      39.553  22.583  26.628  1.00  0.00     0.039 A 
ATOM     36  C   UNL A   1      40.571  22.552  27.582  1.00  0.00     0.014 A 
ATOM     37  C   UNL A   1      39.068  23.800  26.143  1.00  0.00     0.014 A 
ATOM     38  C   UNL A   1      41.137  23.750  28.017  1.00  0.00     0.010 A 
ATOM     39  C   UNL A   1      39.683  24.988  26.525  1.00  0.00     0.010 A 
ATOM     40  C   UNL A   1      40.717  24.975  27.472  1.00  0.00    -0.014 A 
BRANCH  40  41
ATOM     41  C   UNL A   1      41.361  26.246  27.879  1.00  0.00     0.031 A 
ATOM     42  C   UNL A   1      42.789  26.531  27.503  1.00  0.00     0.074 A 
ATOM     43  C   UNL A   1      40.676  27.117  28.647  1.00  0.00     0.049 A 
ATOM     44  N   UNL A   1      43.510  27.592  27.753  1.00  0.00    -0.248 NA
ATOM     45  C   UNL A   1      43.513  25.475  26.776  1.00  0.00     0.031 C 
ATOM     46  C   UNL A   1      39.322  26.905  29.164  1.00  0.00     0.029 A 
ATOM     47  N   UNL A   1      41.031  28.346  29.142  1.00  0.00    -0.354 N 
ATOM     48  C   UNL A   1      44.774  27.323  27.245  1.00  0.00     0.074 A 
ATOM     49  C   UNL A   1      44.737  25.980  26.709  1.00  0.00     0.031 C 
ATOM     50  C   UNL A   1      38.955  27.975  29.888  1.00  0.00     0.029 A 
ATOM     51  C   UNL A   1      40.049  28.940  29.899  1.00  0.00     0.049 A 
ATOM     52  H   UNL A   1      41.906  28.763  28.970  1.00  0.00     0.167 HD
ATOM     53  C   UNL A   1      45.859  28.133  27.196  1.00  0.00     0.034 A 
ATOM     54  C   UNL A   1      40.028  30.136  30.519  1.00  0.00     0.034 A 
ATOM     55  C   UNL A   1      45.873  29.484  27.684  1.00  0.00     0.049 A 
ATOM     56  C   UNL A   1      41.213  31.051  30.371  1.00  0.00     0.074 A 
ATOM     57  C   UNL A   1      46.889  30.420  27.603  1.00  0.00     0.029 A 
ATOM     58  N   UNL A   1      44.819  30.095  28.346  1.00  0.00    -0.354 N 
ATOM     59  N   UNL A   1      42.339  30.846  29.731  1.00  0.00    -0.248 NA
ATOM     60  C   UNL A   1      41.107  32.382  30.986  1.00  0.00     0.031 C 
ATOM     61  C   UNL A   1      46.452  31.595  28.225  1.00  0.00     0.029 A 
ATOM     62  C   UNL A   1      45.157  31.397  28.676  1.00  0.00     0.049 A 
ATOM     63  H   UNL A   1      43.956  29.667  28.550  1.00  0.00     0.167 HD
ATOM     64  C   UNL A   1      43.057  32.032  29.831  1.00  0.00     0.074 A 
ATOM     65  C   UNL A   1      42.228  32.959  30.575  1.00  0.00     0.031 C 
ATOM     66  C   UNL A   1      44.295  32.325  29.363  1.00  0.00     0.034 A 
BRANCH  53  67
ATOM     67  C   UNL A   1      47.098  27.599  26.526  1.00  0.00     0.023 A 
ATOM     68  C   UNL A   1      47.347  27.919  25.175  1.00  0.00     0.012 A 
ATOM     69  C   UNL A   1      48.038  26.829  27.236  1.00  0.00     0.148 A 
ATOM     70  C   UNL A   1      48.493  27.454  24.532  1.00  0.00     0.002 A 
ATOM     71  C   UNL A   1      49.201  26.405  26.601  1.00  0.00     0.091 A 
ATOM     72  F   UNL A   1      47.775  26.513  28.512  1.00  0.00    -0.205 F 
ATOM     73  C   UNL A   1      49.423  26.705  25.247  1.00  0.00     0.022 A 
BRANCH  71  74
ATOM     74  S   UNL A   1      50.497  25.504  27.457  1.00  0.00     0.127 S 
ATOM     75  O   UNL A   1      51.513  25.383  26.412  1.00  0.00    -0.237 OA
ATOM     76  O   UNL A   1      50.847  26.421  28.542  1.00  0.00    -0.237 OA
ATOM     77  O   UNL A   1      49.895  24.252  27.893  1.00  0.00    -0.744 OA
ENDBRANCH  71  74
ENDBRANCH  53  67
BRANCH  54  78
ATOM     78  C   UNL A   1      38.803  30.576  31.242  1.00  0.00     0.023 A 
ATOM     79  C   UNL A   1      38.697  30.343  32.627  1.00  0.00     0.012 A 
ATOM     80  C   UNL A   1      37.761  31.254  30.579  1.00  0.00     0.148 A 
ATOM     81  C   UNL A   1      37.562  30.745  33.332  1.00  0.00     0.002 A 
ATOM     82  C   UNL A   1      36.659  31.700  31.298  1.00  0.00     0.091 A 
ATOM     83  F   UNL A   1      37.875  31.458  29.258  1.00  0.00    -0.205 F 
ATOM     84  C   UNL A   1      36.549  31.431  32.671  1.00  0.00     0.022 A 
BRANCH  82  85
ATOM     85  S   UNL A   1      35.372  32.709  30.554  1.00  0.00     0.127 S 
ATOM     86  O   UNL A   1      34.381  32.771  31.625  1.00  0.00    -0.237 OA
ATOM     87  O   UNL A   1      36.080  33.964  30.294  1.00  0.00    -0.237 OA
ATOM     88  O   UNL A   1      34.965  31.994  29.351  1.00  0.00    -0.744 OA
ENDBRANCH  82  85
ENDBRANCH  54  78
BRANCH  66  89
ATOM     89  C   UNL A   1      44.819  33.716  29.601  1.00  0.00     0.023 A 
ATOM     90  C   UNL A   1      44.573  34.729  28.654  1.00  0.00     0.012 A 
ATOM     91  C   UNL A   1      45.498  34.032  30.794  1.00  0.00     0.148 A 
ATOM     92  C   UNL A   1      45.028  36.029  28.874  1.00  0.00     0.002 A 
ATOM     93  C   UNL A   1      45.906  35.341  31.027  1.00  0.00     0.091 A 
ATOM     94  F   UNL A   1      45.742  33.051  31.674  1.00  0.00    -0.205 F 
ATOM     95  C   UNL A   1      45.683  36.337  30.064  1.00  0.00     0.022 A 
BRANCH  93  96
ATOM     96  S   UNL A   1      46.669  35.837  32.576  1.00  0.00     0.127 S 
ATOM     97  O   UNL A   1      45.701  35.349  33.556  1.00  0.00    -0.237 OA
ATOM     98  O   UNL A   1      47.935  35.103  32.552  1.00  0.00    -0.237 OA
ATOM     99  O   UNL A   1      46.815  37.284  32.499  1.00  0.00    -0.744 OA
ENDBRANCH  93  96
ENDBRANCH  66  89
ENDBRANCH  40  41
ENDBRANCH  32  35
ENDBRANCH  30  31
ENDBRANCH  29  30
ENDBRANCH   1  29
TORSDOF 17
ENDMDL
MODEL 3
REMARK VINA RESULT:     -11.6      2.732      5.126
REMARK SMILES Cc1nc(-c2ccc(S(=O)(=O)N3CC[NH2+][C@H](C(=O)NCCCCNC(=O)c4ccc(-c5c6nc(c(-c7cccc(S(=O)(=O)[O-])c7F)c7ccc([nH]7)c(-c7cccc(S(=O)(=O)[O-])c7F)c7nc(c(-c8cccc(S(=O)(=O)[O-])c8F)c8ccc5[nH]8)C=C7)C=C6)cc4)C3)s2)cs1
REMARK SMILES IDX 21 1 20 2 19 3 17 4 18 5 16 7 12 8 13 9 90 10 14 11 15 12
REMARK SMILES IDX 9 15 10 16 11 17 8 18 5 19 6 20 91 21 7 22 4 23 1 24 2 25
REMARK SMILES IDX 3 26 93 27 92 28 22 29 23 30 24 31 25 32 26 34 27 35 28 36
REMARK SMILES IDX 89 37 29 38 88 39 30 40 31 41 32 42 82 43 33 44 87 45 81 46
REMARK SMILES IDX 83 47 34 48 86 49 80 50 79 51 35 53 67 54 47 55 66 56 48 57
REMARK SMILES IDX 51 58 65 59 84 60 49 61 50 62 64 64 85 65 52 66 36 67 37 68
REMARK SMILES IDX 45 69 38 70 40 71 46 72 39 73 41 74 42 75 43 76 44 77 68 78
REMARK SMILES IDX 69 79 77 80 70 81 72 82 78 83 71 84 73 85 74 86 75 87 76 88
REMARK SMILES IDX 53 89 54 90 62 91 55 92 57 93 63 94 56 95 58 96 59 97 60 98
REMARK SMILES IDX 61 99
REMARK H PARENT 19 6 15 13 15 14 24 33 83 52 51 63
REMARK Flexibility Score: inf
ROOT
ATOM      1  C   UNL A   1      38.144  22.583  25.755  1.00  0.00     0.023 C 
ENDROOT
BRANCH   1   2
ATOM      2  C   UNL A   1      36.751  23.196  25.934  1.00  0.00     0.116 C 
BRANCH   2   3
ATOM      3  N   UNL A   1      35.858  22.196  26.476  1.00  0.00    -0.351 N 
ATOM      4  C   UNL A   1      34.499  22.147  26.477  1.00  0.00     0.279 C 
ATOM      5  O   UNL A   1      33.986  21.491  27.392  1.00  0.00    -0.268 OA
ATOM      6  H   UNL A   1      36.302  21.434  26.913  1.00  0.00     0.163 HD
BRANCH   4   7
ATOM      7  C   UNL A   1      33.624  22.728  25.328  1.00  0.00     0.287 C 
ATOM      8  N   UNL A   1      31.672  23.919  24.411  1.00  0.00    -0.185 NA
ATOM      9  C   UNL A   1      31.299  22.845  23.476  1.00  0.00     0.164 C 
ATOM     10  C   UNL A   1      32.277  23.366  25.652  1.00  0.00     0.178 C 
ATOM     11  C   UNL A   1      32.456  21.861  23.238  1.00  0.00     0.278 C 
ATOM     12  N   UNL A   1      33.468  21.660  24.285  1.00  0.00    -0.334 N 
ATOM     13  H   UNL A   1      34.370  21.556  23.820  1.00  0.00     0.347 HD
ATOM     14  H   UNL A   1      33.141  20.844  24.802  1.00  0.00     0.347 HD
BRANCH   8  15
ATOM     15  S   UNL A   1      32.176  25.433  23.834  1.00  0.00     0.253 S 
ATOM     16  O   UNL A   1      32.761  25.203  22.525  1.00  0.00    -0.206 OA
ATOM     17  O   UNL A   1      32.929  26.063  24.894  1.00  0.00    -0.206 OA
BRANCH  15  18
ATOM     18  C   UNL A   1      30.830  26.580  23.527  1.00  0.00     0.135 A 
ATOM     19  C   UNL A   1      29.694  28.713  22.957  1.00  0.00     0.055 A 
ATOM     20  C   UNL A   1      28.818  27.769  23.431  1.00  0.00     0.023 A 
ATOM     21  S   UNL A   1      31.280  28.102  22.829  1.00  0.00    -0.121 S 
ATOM     22  C   UNL A   1      29.465  26.552  23.733  1.00  0.00     0.034 A 
BRANCH  19  23
ATOM     23  C   UNL A   1      29.205  30.090  22.659  1.00  0.00     0.091 A 
ATOM     24  C   UNL A   1      27.867  32.209  20.018  1.00  0.00     0.079 C 
ATOM     25  C   UNL A   1      28.402  31.621  21.274  1.00  0.00     0.090 A 
ATOM     26  N   UNL A   1      28.876  30.401  21.349  1.00  0.00    -0.241 NA
ATOM     27  S   UNL A   1      28.436  32.507  22.744  1.00  0.00    -0.127 S 
ATOM     28  C   UNL A   1      29.039  31.115  23.562  1.00  0.00     0.096 A 
ENDBRANCH  19  23
ENDBRANCH  15  18
ENDBRANCH   8  15
ENDBRANCH   4   7
ENDBRANCH   2   3
ENDBRANCH   1   2
BRANCH   1  29
ATOM     29  C   UNL A   1      39.222  23.273  26.604  1.00  0.00     0.023 C 
BRANCH  29  30
ATOM     30  C   UNL A   1      40.262  22.321  27.182  1.00  0.00     0.116 C 
BRANCH  30  31
ATOM     31  N   UNL A   1      41.266  21.929  26.205  1.00  0.00    -0.352 N 
ATOM     32  C   UNL A   1      42.341  22.654  25.757  1.00  0.00     0.251 C 
ATOM     33  H   UNL A   1      41.159  21.031  25.816  1.00  0.00     0.163 HD
ATOM     34  O   UNL A   1      43.027  22.233  24.830  1.00  0.00    -0.269 OA
BRANCH  32  35
ATOM     35  C   UNL A   1      42.631  23.962  26.374  1.00  0.00     0.039 A 
ATOM     36  C   UNL A   1      42.396  25.119  25.629  1.00  0.00     0.014 A 
ATOM     37  C   UNL A   1      43.094  24.044  27.690  1.00  0.00     0.014 A 
ATOM     38  C   UNL A   1      42.582  26.366  26.225  1.00  0.00     0.010 A 
ATOM     39  C   UNL A   1      43.209  25.287  28.303  1.00  0.00     0.010 A 
ATOM     40  C   UNL A   1      42.963  26.459  27.575  1.00  0.00    -0.014 A 
BRANCH  40  41
ATOM     41  C   UNL A   1      43.095  27.780  28.234  1.00  0.00     0.031 A 
ATOM     42  C   UNL A   1      44.449  28.410  28.413  1.00  0.00     0.074 A 
ATOM     43  C   UNL A   1      41.997  28.382  28.732  1.00  0.00     0.049 A 
ATOM     44  N   UNL A   1      44.756  29.564  28.946  1.00  0.00    -0.248 NA
ATOM     45  C   UNL A   1      45.615  27.632  27.961  1.00  0.00     0.031 C 
ATOM     46  C   UNL A   1      40.643  27.822  28.714  1.00  0.00     0.029 A 
ATOM     47  N   UNL A   1      41.847  29.589  29.365  1.00  0.00    -0.354 N 
ATOM     48  C   UNL A   1      46.142  29.638  28.923  1.00  0.00     0.074 A 
ATOM     49  C   UNL A   1      46.622  28.394  28.362  1.00  0.00     0.031 C 
ATOM     50  C   UNL A   1      39.800  28.690  29.293  1.00  0.00     0.029 A 
ATOM     51  C   UNL A   1      40.550  29.861  29.735  1.00  0.00     0.049 A 
ATOM     52  H   UNL A   1      42.596  30.204  29.539  1.00  0.00     0.167 HD
ATOM     53  C   UNL A   1      46.944  30.662  29.300  1.00  0.00     0.034 A 
ATOM     54  C   UNL A   1      40.025  30.939  30.348  1.00  0.00     0.034 A 
ATOM     55  C   UNL A   1      46.458  31.915  29.809  1.00  0.00     0.049 A 
ATOM     56  C   UNL A   1      40.925  32.100  30.674  1.00  0.00     0.074 A 
ATOM     57  C   UNL A   1      47.176  33.051  30.136  1.00  0.00     0.029 A 
ATOM     58  N   UNL A   1      45.125  32.199  30.064  1.00  0.00    -0.354 N 
ATOM     59  N   UNL A   1      42.216  32.222  30.480  1.00  0.00    -0.248 NA
ATOM     60  C   UNL A   1      40.291  33.291  31.256  1.00  0.00     0.031 C 
ATOM     61  C   UNL A   1      46.278  34.019  30.598  1.00  0.00     0.029 A 
ATOM     62  C   UNL A   1      44.998  33.492  30.541  1.00  0.00     0.049 A 
ATOM     63  H   UNL A   1      44.377  31.572  29.925  1.00  0.00     0.167 HD
ATOM     64  C   UNL A   1      42.541  33.514  30.876  1.00  0.00     0.074 A 
ATOM     65  C   UNL A   1      41.306  34.142  31.301  1.00  0.00     0.031 C 
ATOM     66  C   UNL A   1      43.753  34.122  30.901  1.00  0.00     0.034 A 
BRANCH  53  67
ATOM     67  C   UNL A   1      48.428  30.494  29.108  1.00  0.00     0.023 A 
ATOM     68  C   UNL A   1      49.213  30.009  30.176  1.00  0.00     0.012 A 
ATOM     69  C   UNL A   1      49.040  30.762  27.869  1.00  0.00     0.148 A 
ATOM     70  C   UNL A   1      50.588  29.827  30.024  1.00  0.00     0.002 A 
ATOM     71  C   UNL A   1      50.403  30.536  27.712  1.00  0.00     0.091 A 
ATOM     72  F   UNL A   1      48.285  31.245  26.872  1.00  0.00    -0.205 F 
ATOM     73  C   UNL A   1      51.180  30.081  28.791  1.00  0.00     0.022 A 
BRANCH  71  74
ATOM     74  S   UNL A   1      51.246  30.757  26.141  1.00  0.00     0.127 S 
ATOM     75  O   UNL A   1      50.735  29.626  25.369  1.00  0.00    -0.237 OA
ATOM     76  O   UNL A   1      50.752  32.064  25.706  1.00  0.00    -0.237 OA
ATOM     77  O   UNL A   1      52.670  30.719  26.442  1.00  0.00    -0.744 OA
ENDBRANCH  71  74
ENDBRANCH  53  67
BRANCH  54  78
ATOM     78  C   UNL A   1      38.557  31.013  30.592  1.00  0.00     0.023 A 
ATOM     79  C   UNL A   1      38.016  30.404  31.741  1.00  0.00     0.012 A 
ATOM     80  C   UNL A   1      37.700  31.710  29.717  1.00  0.00     0.148 A 
ATOM     81  C   UNL A   1      36.646  30.457  31.998  1.00  0.00     0.002 A 
ATOM     82  C   UNL A   1      36.344  31.805  30.008  1.00  0.00     0.091 A 
ATOM     83  F   UNL A   1      38.232  32.275  28.623  1.00  0.00    -0.205 F 
ATOM     84  C   UNL A   1      35.813  31.165  31.138  1.00  0.00     0.022 A 
BRANCH  82  85
ATOM     85  S   UNL A   1      35.222  32.810  29.030  1.00  0.00     0.127 S 
ATOM     86  O   UNL A   1      35.081  32.008  27.817  1.00  0.00    -0.237 OA
ATOM     87  O   UNL A   1      34.032  32.856  29.881  1.00  0.00    -0.237 OA
ATOM     88  O   UNL A   1      35.890  34.095  28.869  1.00  0.00    -0.744 OA
ENDBRANCH  82  85
ENDBRANCH  54  78
BRANCH  66  89
ATOM     89  C   UNL A   1      43.804  35.553  31.363  1.00  0.00     0.023 A 
ATOM     90  C   UNL A   1      44.006  35.842  32.727  1.00  0.00     0.012 A 
ATOM     91  C   UNL A   1      43.717  36.611  30.437  1.00  0.00     0.148 A 
ATOM     92  C   UNL A   1      44.083  37.163  33.168  1.00  0.00     0.002 A 
ATOM     93  C   UNL A   1      43.843  37.924  30.878  1.00  0.00     0.091 A 
ATOM     94  F   UNL A   1      43.503  36.318  29.147  1.00  0.00    -0.205 F 
ATOM     95  C   UNL A   1      44.013  38.202  32.243  1.00  0.00     0.022 A 
BRANCH  93  96
ATOM     96  S   UNL A   1      43.861  39.312  29.737  1.00  0.00     0.127 S 
ATOM     97  O   UNL A   1      42.694  39.030  28.905  1.00  0.00    -0.237 OA
ATOM     98  O   UNL A   1      43.708  40.458  30.634  1.00  0.00    -0.237 OA
ATOM     99  O   UNL A   1      45.150  39.249  29.060  1.00  0.00    -0.744 OA
ENDBRANCH  93  96
ENDBRANCH  66  89
ENDBRANCH  40  41
ENDBRANCH  32  35
ENDBRANCH  30  31
ENDBRANCH  29  30
ENDBRANCH   1  29
TORSDOF 17
ENDMDL
