MODEL 1
REMARK VINA RESULT:      -9.8      0.000      0.000
REMARK SMILES O=C(NCCCCNC(=O)[C@H](CO)Nc1ccc(C(F)(F)F)cc1[N+](=O)[O-])c1ccc(-c2c3nc(c(-c4cccc(S(=O)(=O)[O-])c4F)c4ccc([nH]4)c(-c4cccc(S(=O)(=O)[O-])c4F)c4nc(c(-c5cccc(S(=O)(=O)[O-])c5F)c5ccc2[nH]5)C=C4)C=C3)cc1
REMARK SMILES IDX 5 1 4 2 3 3 1 4 2 5 28 7 29 8 90 9 30 10 89 11 31 12 32 13
REMARK SMILES IDX 33 14 83 15 34 16 88 17 82 18 84 19 35 20 87 21 81 22 80 23
REMARK SMILES IDX 36 25 68 26 48 27 67 28 49 29 52 30 66 31 85 32 50 33 51 34
REMARK SMILES IDX 65 36 86 37 53 38 37 39 38 40 46 41 39 42 41 43 47 44 40 45
REMARK SMILES IDX 42 46 43 47 44 48 45 49 69 50 70 51 78 52 71 53 73 54 79 55
REMARK SMILES IDX 72 56 74 57 75 58 76 59 77 60 54 61 55 62 63 63 56 64 58 65
REMARK SMILES IDX 64 66 57 67 59 68 60 69 61 70 62 71 6 72 7 73 8 74 9 75
REMARK SMILES IDX 10 77 11 78 14 79 15 81 16 82 24 83 17 84 23 85 18 86 25 87
REMARK SMILES IDX 26 88 27 89 19 90 20 91 21 92 22 93 12 94 13 95
REMARK H PARENT 3 6 84 24 52 35 8 76 14 80 13 96
REMARK Flexibility Score: inf
ROOT
ATOM      1  C   UNL A   1      34.564  34.027  28.007  1.00  0.00     0.023 C 
ENDROOT
BRANCH   1   2
ATOM      2  C   UNL A   1      34.384  32.709  28.751  1.00  0.00     0.116 C 
BRANCH   2   3
ATOM      3  N   UNL A   1      33.868  31.619  27.932  1.00  0.00    -0.352 N 
ATOM      4  O   UNL A   1      33.966  29.624  26.868  1.00  0.00    -0.269 OA
ATOM      5  C   UNL A   1      34.494  30.431  27.626  1.00  0.00     0.251 C 
ATOM      6  H   UNL A   1      32.968  31.748  27.555  1.00  0.00     0.163 HD
BRANCH   5   7
ATOM      7  C   UNL A   1      35.836  30.177  28.188  1.00  0.00     0.039 A 
ATOM      8  C   UNL A   1      36.976  30.510  27.454  1.00  0.00     0.014 A 
ATOM      9  C   UNL A   1      35.949  29.520  29.416  1.00  0.00     0.014 A 
ATOM     10  C   UNL A   1      38.216  30.040  27.865  1.00  0.00     0.010 A 
ATOM     11  C   UNL A   1      37.209  29.124  29.870  1.00  0.00     0.010 A 
ATOM     12  C   UNL A   1      38.347  29.342  29.077  1.00  0.00    -0.014 A 
BRANCH  12  13
ATOM     13  C   UNL A   1      39.695  28.903  29.517  1.00  0.00     0.031 A 
ATOM     14  C   UNL A   1      40.414  29.589  30.645  1.00  0.00     0.074 A 
ATOM     15  C   UNL A   1      40.261  27.855  28.889  1.00  0.00     0.049 A 
ATOM     16  N   UNL A   1      41.581  29.305  31.166  1.00  0.00    -0.248 NA
ATOM     17  C   UNL A   1      39.749  30.747  31.267  1.00  0.00     0.031 C 
ATOM     18  C   UNL A   1      39.671  27.139  27.755  1.00  0.00     0.029 A 
ATOM     19  N   UNL A   1      41.448  27.207  29.110  1.00  0.00    -0.354 N 
ATOM     20  C   UNL A   1      41.809  30.267  32.144  1.00  0.00     0.074 A 
ATOM     21  C   UNL A   1      40.661  31.147  32.144  1.00  0.00     0.031 C 
ATOM     22  C   UNL A   1      40.484  26.135  27.398  1.00  0.00     0.029 A 
ATOM     23  C   UNL A   1      41.673  26.166  28.241  1.00  0.00     0.049 A 
ATOM     24  H   UNL A   1      42.079  27.462  29.821  1.00  0.00     0.167 HD
ATOM     25  C   UNL A   1      42.873  30.392  32.974  1.00  0.00     0.034 A 
ATOM     26  C   UNL A   1      42.725  25.334  28.123  1.00  0.00     0.034 A 
ATOM     27  C   UNL A   1      43.991  29.485  32.997  1.00  0.00     0.049 A 
ATOM     28  C   UNL A   1      43.871  25.476  29.081  1.00  0.00     0.074 A 
ATOM     29  C   UNL A   1      45.086  29.490  33.845  1.00  0.00     0.029 A 
ATOM     30  N   UNL A   1      44.162  28.414  32.133  1.00  0.00    -0.354 N 
ATOM     31  N   UNL A   1      44.010  26.315  30.078  1.00  0.00    -0.248 NA
ATOM     32  C   UNL A   1      44.994  24.544  28.914  1.00  0.00     0.031 C 
ATOM     33  C   UNL A   1      45.924  28.428  33.485  1.00  0.00     0.029 A 
ATOM     34  C   UNL A   1      45.345  27.755  32.421  1.00  0.00     0.049 A 
ATOM     35  H   UNL A   1      43.534  28.159  31.419  1.00  0.00     0.167 HD
ATOM     36  C   UNL A   1      45.226  26.002  30.670  1.00  0.00     0.074 A 
ATOM     37  C   UNL A   1      45.770  24.876  29.938  1.00  0.00     0.031 C 
ATOM     38  C   UNL A   1      45.848  26.607  31.712  1.00  0.00     0.034 A 
BRANCH  25  39
ATOM     39  C   UNL A   1      42.866  31.527  33.966  1.00  0.00     0.023 A 
ATOM     40  C   UNL A   1      43.443  32.761  33.609  1.00  0.00     0.012 A 
ATOM     41  C   UNL A   1      42.220  31.400  35.211  1.00  0.00     0.148 A 
ATOM     42  C   UNL A   1      43.397  33.847  34.484  1.00  0.00     0.002 A 
ATOM     43  C   UNL A   1      42.147  32.497  36.064  1.00  0.00     0.091 A 
ATOM     44  F   UNL A   1      41.697  30.211  35.544  1.00  0.00    -0.205 F 
ATOM     45  C   UNL A   1      42.740  33.718  35.705  1.00  0.00     0.022 A 
BRANCH  43  46
ATOM     46  S   UNL A   1      41.258  32.448  37.626  1.00  0.00     0.127 S 
ATOM     47  O   UNL A   1      41.252  33.861  38.005  1.00  0.00    -0.237 OA
ATOM     48  O   UNL A   1      39.954  31.919  37.227  1.00  0.00    -0.237 OA
ATOM     49  O   UNL A   1      42.028  31.567  38.494  1.00  0.00    -0.744 OA
ENDBRANCH  43  46
ENDBRANCH  25  39
BRANCH  26  50
ATOM     50  C   UNL A   1      42.699  24.265  27.087  1.00  0.00     0.023 A 
ATOM     51  C   UNL A   1      43.425  24.440  25.894  1.00  0.00     0.012 A 
ATOM     52  C   UNL A   1      42.024  23.049  27.311  1.00  0.00     0.148 A 
ATOM     53  C   UNL A   1      43.468  23.426  24.936  1.00  0.00     0.002 A 
ATOM     54  C   UNL A   1      42.122  22.022  26.380  1.00  0.00     0.091 A 
ATOM     55  F   UNL A   1      41.321  22.909  28.444  1.00  0.00    -0.205 F 
ATOM     56  C   UNL A   1      42.831  22.213  25.185  1.00  0.00     0.022 A 
BRANCH  54  57
ATOM     57  S   UNL A   1      41.464  20.383  26.706  1.00  0.00     0.127 S 
ATOM     58  O   UNL A   1      40.037  20.655  26.850  1.00  0.00    -0.237 OA
ATOM     59  O   UNL A   1      41.834  19.653  25.492  1.00  0.00    -0.237 OA
ATOM     60  O   UNL A   1      42.154  19.924  27.906  1.00  0.00    -0.744 OA
ENDBRANCH  54  57
ENDBRANCH  26  50
BRANCH  38  61
ATOM     61  C   UNL A   1      47.185  26.056  32.129  1.00  0.00     0.023 A 
ATOM     62  C   UNL A   1      47.259  25.179  33.229  1.00  0.00     0.012 A 
ATOM     63  C   UNL A   1      48.351  26.358  31.402  1.00  0.00     0.148 A 
ATOM     64  C   UNL A   1      48.482  24.632  33.616  1.00  0.00     0.002 A 
ATOM     65  C   UNL A   1      49.559  25.776  31.768  1.00  0.00     0.091 A 
ATOM     66  F   UNL A   1      48.263  27.214  30.373  1.00  0.00    -0.205 F 
ATOM     67  C   UNL A   1      49.628  24.921  32.880  1.00  0.00     0.022 A 
BRANCH  65  68
ATOM     68  S   UNL A   1      51.067  26.030  30.824  1.00  0.00     0.127 S 
ATOM     69  O   UNL A   1      52.029  25.229  31.577  1.00  0.00    -0.237 OA
ATOM     70  O   UNL A   1      50.711  25.483  29.514  1.00  0.00    -0.237 OA
ATOM     71  O   UNL A   1      51.299  27.467  30.830  1.00  0.00    -0.744 OA
ENDBRANCH  65  68
ENDBRANCH  38  61
ENDBRANCH  12  13
ENDBRANCH   5   7
ENDBRANCH   2   3
ENDBRANCH   1   2
BRANCH   1  72
ATOM     72  C   UNL A   1      34.132  35.270  28.781  1.00  0.00     0.023 C 
BRANCH  72  73
ATOM     73  C   UNL A   1      33.278  34.998  30.018  1.00  0.00     0.116 C 
BRANCH  73  74
ATOM     74  N   UNL A   1      33.626  35.844  31.140  1.00  0.00    -0.354 N 
ATOM     75  C   UNL A   1      34.516  35.583  32.152  1.00  0.00     0.244 C 
ATOM     76  H   UNL A   1      33.168  36.715  31.183  1.00  0.00     0.163 HD
ATOM     77  O   UNL A   1      34.783  36.497  32.934  1.00  0.00    -0.273 OA
BRANCH  75  78
ATOM     78  C   UNL A   1      35.166  34.174  32.242  1.00  0.00     0.195 C 
BRANCH  78  79
ATOM     79  N   UNL A   1      36.466  34.276  32.943  1.00  0.00    -0.366 N 
ATOM     80  H   UNL A   1      36.385  34.234  33.924  1.00  0.00     0.161 HD
BRANCH  79  81
ATOM     81  C   UNL A   1      37.765  34.418  32.510  1.00  0.00     0.114 A 
ATOM     82  C   UNL A   1      37.942  34.364  31.111  1.00  0.00     0.033 A 
ATOM     83  C   UNL A   1      38.952  34.578  33.247  1.00  0.00     0.292 A 
ATOM     84  C   UNL A   1      39.201  34.397  30.494  1.00  0.00     0.016 A 
ATOM     85  C   UNL A   1      40.232  34.572  32.646  1.00  0.00     0.101 A 
ATOM     86  C   UNL A   1      40.366  34.463  31.259  1.00  0.00     0.062 A 
BRANCH  83  87
ATOM     87  N   UNL A   1      38.957  34.819  34.676  1.00  0.00     0.064 N 
ATOM     88  O   UNL A   1      39.626  35.780  35.080  1.00  0.00    -0.258 OA
ATOM     89  O   UNL A   1      38.256  34.084  35.384  1.00  0.00    -0.258 OA
ENDBRANCH  83  87
BRANCH  86  90
ATOM     90  C   UNL A   1      41.727  34.471  30.607  1.00  0.00     0.416 C 
ATOM     91  F   UNL A   1      42.180  33.224  30.300  1.00  0.00    -0.166 F 
ATOM     92  F   UNL A   1      41.729  35.169  29.439  1.00  0.00    -0.166 F 
ATOM     93  F   UNL A   1      42.686  35.038  31.387  1.00  0.00    -0.166 F 
ENDBRANCH  86  90
ENDBRANCH  79  81
ENDBRANCH  78  79
BRANCH  78  94
ATOM     94  C   UNL A   1      34.245  33.205  33.033  1.00  0.00     0.191 C 
BRANCH  94  95
ATOM     95  O   UNL A   1      32.948  33.768  33.281  1.00  0.00    -0.394 OA
ATOM     96  H   UNL A   1      32.933  34.692  32.984  1.00  0.00     0.210 HD
ENDBRANCH  94  95
ENDBRANCH  78  94
ENDBRANCH  75  78
ENDBRANCH  73  74
ENDBRANCH  72  73
ENDBRANCH   1  72
TORSDOF 20
ENDMDL
MODEL 2
REMARK VINA RESULT:      -9.6      4.741      8.590
REMARK SMILES O=C(NCCCCNC(=O)[C@H](CO)Nc1ccc(C(F)(F)F)cc1[N+](=O)[O-])c1ccc(-c2c3nc(c(-c4cccc(S(=O)(=O)[O-])c4F)c4ccc([nH]4)c(-c4cccc(S(=O)(=O)[O-])c4F)c4nc(c(-c5cccc(S(=O)(=O)[O-])c5F)c5ccc2[nH]5)C=C4)C=C3)cc1
REMARK SMILES IDX 5 1 4 2 3 3 1 4 2 5 28 7 29 8 90 9 30 10 89 11 31 12 32 13
REMARK SMILES IDX 33 14 83 15 34 16 88 17 82 18 84 19 35 20 87 21 81 22 80 23
REMARK SMILES IDX 36 25 68 26 48 27 67 28 49 29 52 30 66 31 85 32 50 33 51 34
REMARK SMILES IDX 65 36 86 37 53 38 37 39 38 40 46 41 39 42 41 43 47 44 40 45
REMARK SMILES IDX 42 46 43 47 44 48 45 49 69 50 70 51 78 52 71 53 73 54 79 55
REMARK SMILES IDX 72 56 74 57 75 58 76 59 77 60 54 61 55 62 63 63 56 64 58 65
REMARK SMILES IDX 64 66 57 67 59 68 60 69 61 70 62 71 6 72 7 73 8 74 9 75
REMARK SMILES IDX 10 77 11 78 14 79 15 81 16 82 24 83 17 84 23 85 18 86 25 87
REMARK SMILES IDX 26 88 27 89 19 90 20 91 21 92 22 93 12 94 13 95
REMARK H PARENT 3 6 84 24 52 35 8 76 14 80 13 96
REMARK Flexibility Score: inf
ROOT
ATOM      1  C   UNL A   1      32.119  28.727  26.478  1.00  0.00     0.023 C 
ENDROOT
BRANCH   1   2
ATOM      2  C   UNL A   1      33.157  29.796  26.154  1.00  0.00     0.116 C 
BRANCH   2   3
ATOM      3  N   UNL A   1      32.826  31.127  26.645  1.00  0.00    -0.352 N 
ATOM      4  O   UNL A   1      33.143  33.002  27.873  1.00  0.00    -0.269 OA
ATOM      5  C   UNL A   1      33.574  31.921  27.486  1.00  0.00     0.251 C 
ATOM      6  H   UNL A   1      31.968  31.502  26.340  1.00  0.00     0.163 HD
BRANCH   5   7
ATOM      7  C   UNL A   1      34.881  31.416  27.953  1.00  0.00     0.039 A 
ATOM      8  C   UNL A   1      35.000  30.103  28.412  1.00  0.00     0.014 A 
ATOM      9  C   UNL A   1      35.969  32.291  28.014  1.00  0.00     0.014 A 
ATOM     10  C   UNL A   1      36.151  29.714  29.083  1.00  0.00     0.010 A 
ATOM     11  C   UNL A   1      37.158  31.868  28.613  1.00  0.00     0.010 A 
ATOM     12  C   UNL A   1      37.243  30.592  29.192  1.00  0.00    -0.014 A 
BRANCH  12  13
ATOM     13  C   UNL A   1      38.481  30.127  29.866  1.00  0.00     0.031 A 
ATOM     14  C   UNL A   1      38.845  30.594  31.248  1.00  0.00     0.074 A 
ATOM     15  C   UNL A   1      39.273  29.254  29.214  1.00  0.00     0.049 A 
ATOM     16  N   UNL A   1      39.874  30.257  31.982  1.00  0.00    -0.248 NA
ATOM     17  C   UNL A   1      37.949  31.571  31.889  1.00  0.00     0.031 C 
ATOM     18  C   UNL A   1      39.038  28.764  27.854  1.00  0.00     0.029 A 
ATOM     19  N   UNL A   1      40.427  28.623  29.601  1.00  0.00    -0.354 N 
ATOM     20  C   UNL A   1      39.775  31.005  33.149  1.00  0.00     0.074 A 
ATOM     21  C   UNL A   1      38.586  31.819  33.027  1.00  0.00     0.031 C 
ATOM     22  C   UNL A   1      40.000  27.888  27.529  1.00  0.00     0.029 A 
ATOM     23  C   UNL A   1      40.945  27.793  28.635  1.00  0.00     0.049 A 
ATOM     24  H   UNL A   1      40.843  28.752  30.482  1.00  0.00     0.167 HD
ATOM     25  C   UNL A   1      40.594  31.000  34.229  1.00  0.00     0.034 A 
ATOM     26  C   UNL A   1      42.066  27.047  28.630  1.00  0.00     0.034 A 
ATOM     27  C   UNL A   1      41.752  30.154  34.361  1.00  0.00     0.049 A 
ATOM     28  C   UNL A   1      42.933  27.035  29.855  1.00  0.00     0.074 A 
ATOM     29  C   UNL A   1      42.607  30.029  35.443  1.00  0.00     0.029 A 
ATOM     30  N   UNL A   1      42.220  29.291  33.382  1.00  0.00    -0.354 N 
ATOM     31  N   UNL A   1      42.753  27.656  30.995  1.00  0.00    -0.248 NA
ATOM     32  C   UNL A   1      44.143  26.204  29.803  1.00  0.00     0.031 C 
ATOM     33  C   UNL A   1      43.600  29.099  35.111  1.00  0.00     0.029 A 
ATOM     34  C   UNL A   1      43.354  28.636  33.828  1.00  0.00     0.049 A 
ATOM     35  H   UNL A   1      41.807  29.163  32.497  1.00  0.00     0.167 HD
ATOM     36  C   UNL A   1      43.816  27.278  31.804  1.00  0.00     0.074 A 
ATOM     37  C   UNL A   1      44.618  26.349  31.033  1.00  0.00     0.031 C 
ATOM     38  C   UNL A   1      44.114  27.679  33.064  1.00  0.00     0.034 A 
BRANCH  25  39
ATOM     39  C   UNL A   1      40.248  31.905  35.384  1.00  0.00     0.023 A 
ATOM     40  C   UNL A   1      40.920  33.135  35.524  1.00  0.00     0.012 A 
ATOM     41  C   UNL A   1      39.209  31.580  36.277  1.00  0.00     0.148 A 
ATOM     42  C   UNL A   1      40.577  34.019  36.547  1.00  0.00     0.002 A 
ATOM     43  C   UNL A   1      38.849  32.481  37.274  1.00  0.00     0.091 A 
ATOM     44  F   UNL A   1      38.596  30.394  36.143  1.00  0.00    -0.205 F 
ATOM     45  C   UNL A   1      39.535  33.698  37.413  1.00  0.00     0.022 A 
BRANCH  43  46
ATOM     46  S   UNL A   1      37.472  32.186  38.391  1.00  0.00     0.127 S 
ATOM     47  O   UNL A   1      37.991  32.727  39.647  1.00  0.00    -0.237 OA
ATOM     48  O   UNL A   1      36.402  32.978  37.784  1.00  0.00    -0.237 OA
ATOM     49  O   UNL A   1      37.245  30.747  38.371  1.00  0.00    -0.744 OA
ENDBRANCH  43  46
ENDBRANCH  25  39
BRANCH  26  50
ATOM     50  C   UNL A   1      42.385  26.215  27.438  1.00  0.00     0.023 A 
ATOM     51  C   UNL A   1      43.198  26.746  26.420  1.00  0.00     0.012 A 
ATOM     52  C   UNL A   1      41.952  24.877  27.347  1.00  0.00     0.148 A 
ATOM     53  C   UNL A   1      43.563  25.964  25.324  1.00  0.00     0.002 A 
ATOM     54  C   UNL A   1      42.370  24.087  26.283  1.00  0.00     0.091 A 
ATOM     55  F   UNL A   1      41.162  24.394  28.316  1.00  0.00    -0.205 F 
ATOM     56  C   UNL A   1      43.163  24.631  25.262  1.00  0.00     0.022 A 
BRANCH  54  57
ATOM     57  S   UNL A   1      42.029  22.324  26.223  1.00  0.00     0.127 S 
ATOM     58  O   UNL A   1      42.811  21.906  25.063  1.00  0.00    -0.237 OA
ATOM     59  O   UNL A   1      42.545  21.864  27.513  1.00  0.00    -0.237 OA
ATOM     60  O   UNL A   1      40.581  22.217  26.092  1.00  0.00    -0.744 OA
ENDBRANCH  54  57
ENDBRANCH  26  50
BRANCH  38  61
ATOM     61  C   UNL A   1      45.356  27.110  33.693  1.00  0.00     0.023 A 
ATOM     62  C   UNL A   1      46.566  27.829  33.610  1.00  0.00     0.012 A 
ATOM     63  C   UNL A   1      45.316  25.901  34.411  1.00  0.00     0.148 A 
ATOM     64  C   UNL A   1      47.724  27.337  34.211  1.00  0.00     0.002 A 
ATOM     65  C   UNL A   1      46.465  25.438  35.043  1.00  0.00     0.091 A 
ATOM     66  F   UNL A   1      44.161  25.220  34.458  1.00  0.00    -0.205 F 
ATOM     67  C   UNL A   1      47.671  26.149  34.935  1.00  0.00     0.022 A 
BRANCH  65  68
ATOM     68  S   UNL A   1      46.463  23.960  36.065  1.00  0.00     0.127 S 
ATOM     69  O   UNL A   1      46.446  22.901  35.059  1.00  0.00    -0.237 OA
ATOM     70  O   UNL A   1      47.723  24.085  36.798  1.00  0.00    -0.237 OA
ATOM     71  O   UNL A   1      45.273  24.058  36.899  1.00  0.00    -0.744 OA
ENDBRANCH  65  68
ENDBRANCH  38  61
ENDBRANCH  12  13
ENDBRANCH   5   7
ENDBRANCH   2   3
ENDBRANCH   1   2
BRANCH   1  72
ATOM     72  C   UNL A   1      31.712  27.844  25.301  1.00  0.00     0.023 C 
BRANCH  72  73
ATOM     73  C   UNL A   1      32.318  26.442  25.304  1.00  0.00     0.116 C 
BRANCH  73  74
ATOM     74  N   UNL A   1      31.732  25.575  26.305  1.00  0.00    -0.354 N 
ATOM     75  C   UNL A   1      31.938  24.230  26.485  1.00  0.00     0.244 C 
ATOM     76  H   UNL A   1      31.109  26.004  26.935  1.00  0.00     0.163 HD
ATOM     77  O   UNL A   1      31.459  23.704  27.491  1.00  0.00    -0.273 OA
BRANCH  75  78
ATOM     78  C   UNL A   1      32.785  23.449  25.442  1.00  0.00     0.195 C 
BRANCH  78  79
ATOM     79  N   UNL A   1      33.139  22.121  25.992  1.00  0.00    -0.366 N 
ATOM     80  H   UNL A   1      33.117  22.087  26.976  1.00  0.00     0.161 HD
BRANCH  79  81
ATOM     81  C   UNL A   1      33.492  20.921  25.415  1.00  0.00     0.114 A 
ATOM     82  C   UNL A   1      32.433  20.006  25.236  1.00  0.00     0.033 A 
ATOM     83  C   UNL A   1      34.751  20.452  25.002  1.00  0.00     0.292 A 
ATOM     84  C   UNL A   1      32.618  18.703  24.750  1.00  0.00     0.016 A 
ATOM     85  C   UNL A   1      34.963  19.129  24.549  1.00  0.00     0.101 A 
ATOM     86  C   UNL A   1      33.894  18.235  24.436  1.00  0.00     0.062 A 
BRANCH  83  87
ATOM     87  N   UNL A   1      35.923  21.301  24.954  1.00  0.00     0.064 N 
ATOM     88  O   UNL A   1      36.929  20.905  25.559  1.00  0.00    -0.258 OA
ATOM     89  O   UNL A   1      35.857  22.333  24.273  1.00  0.00    -0.258 OA
ENDBRANCH  83  87
BRANCH  86  90
ATOM     90  C   UNL A   1      34.108  16.826  23.939  1.00  0.00     0.416 C 
ATOM     91  F   UNL A   1      33.014  16.032  24.096  1.00  0.00    -0.166 F 
ATOM     92  F   UNL A   1      34.409  16.794  22.613  1.00  0.00    -0.166 F 
ATOM     93  F   UNL A   1      35.130  16.190  24.572  1.00  0.00    -0.166 F 
ENDBRANCH  86  90
ENDBRANCH  79  81
ENDBRANCH  78  79
BRANCH  78  94
ATOM     94  C   UNL A   1      31.978  23.249  24.131  1.00  0.00     0.191 C 
BRANCH  94  95
ATOM     95  O   UNL A   1      30.560  23.266  24.357  1.00  0.00    -0.394 OA
ATOM     96  H   UNL A   1      30.113  22.781  23.646  1.00  0.00     0.210 HD
ENDBRANCH  94  95
ENDBRANCH  78  94
ENDBRANCH  75  78
ENDBRANCH  73  74
ENDBRANCH  72  73
ENDBRANCH   1  72
TORSDOF 20
ENDMDL
MODEL 3
REMARK VINA RESULT:      -9.6      1.144      7.570
REMARK SMILES O=C(NCCCCNC(=O)[C@H](CO)Nc1ccc(C(F)(F)F)cc1[N+](=O)[O-])c1ccc(-c2c3nc(c(-c4cccc(S(=O)(=O)[O-])c4F)c4ccc([nH]4)c(-c4cccc(S(=O)(=O)[O-])c4F)c4nc(c(-c5cccc(S(=O)(=O)[O-])c5F)c5ccc2[nH]5)C=C4)C=C3)cc1
REMARK SMILES IDX 5 1 4 2 3 3 1 4 2 5 28 7 29 8 90 9 30 10 89 11 31 12 32 13
REMARK SMILES IDX 33 14 83 15 34 16 88 17 82 18 84 19 35 20 87 21 81 22 80 23
REMARK SMILES IDX 36 25 68 26 48 27 67 28 49 29 52 30 66 31 85 32 50 33 51 34
REMARK SMILES IDX 65 36 86 37 53 38 37 39 38 40 46 41 39 42 41 43 47 44 40 45
REMARK SMILES IDX 42 46 43 47 44 48 45 49 69 50 70 51 78 52 71 53 73 54 79 55
REMARK SMILES IDX 72 56 74 57 75 58 76 59 77 60 54 61 55 62 63 63 56 64 58 65
REMARK SMILES IDX 64 66 57 67 59 68 60 69 61 70 62 71 6 72 7 73 8 74 9 75
REMARK SMILES IDX 10 77 11 78 14 79 15 81 16 82 24 83 17 84 23 85 18 86 25 87
REMARK SMILES IDX 26 88 27 89 19 90 20 91 21 92 22 93 12 94 13 95
REMARK H PARENT 3 6 84 24 52 35 8 76 14 80 13 96
REMARK Flexibility Score: inf
ROOT
ATOM      1  C   UNL A   1      35.031  33.504  28.141  1.00  0.00     0.023 C 
ENDROOT
BRANCH   1   2
ATOM      2  C   UNL A   1      34.543  32.307  28.948  1.00  0.00     0.116 C 
BRANCH   2   3
ATOM      3  N   UNL A   1      34.021  31.210  28.143  1.00  0.00    -0.352 N 
ATOM      4  O   UNL A   1      34.131  29.237  27.039  1.00  0.00    -0.269 OA
ATOM      5  C   UNL A   1      34.673  30.053  27.777  1.00  0.00     0.251 C 
ATOM      6  H   UNL A   1      33.094  31.307  27.826  1.00  0.00     0.163 HD
BRANCH   5   7
ATOM      7  C   UNL A   1      36.057  29.846  28.248  1.00  0.00     0.039 A 
ATOM      8  C   UNL A   1      37.133  30.108  27.397  1.00  0.00     0.014 A 
ATOM      9  C   UNL A   1      36.272  29.303  29.517  1.00  0.00     0.014 A 
ATOM     10  C   UNL A   1      38.404  29.673  27.746  1.00  0.00     0.010 A 
ATOM     11  C   UNL A   1      37.567  28.945  29.901  1.00  0.00     0.010 A 
ATOM     12  C   UNL A   1      38.635  29.087  29.002  1.00  0.00    -0.014 A 
BRANCH  12  13
ATOM     13  C   UNL A   1      40.016  28.684  29.368  1.00  0.00     0.031 A 
ATOM     14  C   UNL A   1      40.715  27.551  28.668  1.00  0.00     0.074 A 
ATOM     15  C   UNL A   1      40.645  29.372  30.340  1.00  0.00     0.049 A 
ATOM     16  N   UNL A   1      41.930  27.100  28.852  1.00  0.00    -0.248 NA
ATOM     17  C   UNL A   1      39.958  26.824  27.636  1.00  0.00     0.031 C 
ATOM     18  C   UNL A   1      40.048  30.464  31.114  1.00  0.00     0.029 A 
ATOM     19  N   UNL A   1      41.915  29.264  30.843  1.00  0.00    -0.354 N 
ATOM     20  C   UNL A   1      42.070  26.015  27.994  1.00  0.00     0.074 A 
ATOM     21  C   UNL A   1      40.815  25.872  27.289  1.00  0.00     0.031 C 
ATOM     22  C   UNL A   1      40.959  30.943  31.973  1.00  0.00     0.029 A 
ATOM     23  C   UNL A   1      42.184  30.163  31.848  1.00  0.00     0.049 A 
ATOM     24  H   UNL A   1      42.571  28.607  30.517  1.00  0.00     0.167 HD
ATOM     25  C   UNL A   1      43.153  25.223  27.803  1.00  0.00     0.034 A 
ATOM     26  C   UNL A   1      43.288  30.334  32.599  1.00  0.00     0.034 A 
ATOM     27  C   UNL A   1      44.413  25.400  28.477  1.00  0.00     0.049 A 
ATOM     28  C   UNL A   1      44.483  29.464  32.338  1.00  0.00     0.074 A 
ATOM     29  C   UNL A   1      45.589  24.690  28.304  1.00  0.00     0.029 A 
ATOM     30  N   UNL A   1      44.663  26.351  29.455  1.00  0.00    -0.354 N 
ATOM     31  N   UNL A   1      44.635  28.526  31.435  1.00  0.00    -0.248 NA
ATOM     32  C   UNL A   1      45.665  29.691  33.180  1.00  0.00     0.031 C 
ATOM     33  C   UNL A   1      46.546  25.204  29.186  1.00  0.00     0.029 A 
ATOM     34  C   UNL A   1      45.969  26.243  29.900  1.00  0.00     0.049 A 
ATOM     35  H   UNL A   1      44.007  27.007  29.785  1.00  0.00     0.167 HD
ATOM     36  C   UNL A   1      45.934  28.061  31.587  1.00  0.00     0.074 A 
ATOM     37  C   UNL A   1      46.536  28.843  32.649  1.00  0.00     0.031 C 
ATOM     38  C   UNL A   1      46.566  27.062  30.924  1.00  0.00     0.034 A 
BRANCH  25  39
ATOM     39  C   UNL A   1      43.047  24.113  26.789  1.00  0.00     0.023 A 
ATOM     40  C   UNL A   1      43.678  24.256  25.538  1.00  0.00     0.012 A 
ATOM     41  C   UNL A   1      42.398  22.902  27.101  1.00  0.00     0.148 A 
ATOM     42  C   UNL A   1      43.649  23.219  24.605  1.00  0.00     0.002 A 
ATOM     43  C   UNL A   1      42.402  21.860  26.179  1.00  0.00     0.091 A 
ATOM     44  F   UNL A   1      41.782  22.792  28.287  1.00  0.00    -0.205 F 
ATOM     45  C   UNL A   1      43.021  22.020  24.929  1.00  0.00     0.022 A 
BRANCH  43  46
ATOM     46  S   UNL A   1      41.683  20.252  26.536  1.00  0.00     0.127 S 
ATOM     47  O   UNL A   1      40.256  20.572  26.581  1.00  0.00    -0.237 OA
ATOM     48  O   UNL A   1      42.093  19.462  25.375  1.00  0.00    -0.237 OA
ATOM     49  O   UNL A   1      42.272  19.824  27.797  1.00  0.00    -0.744 OA
ENDBRANCH  43  46
ENDBRANCH  25  39
BRANCH  26  50
ATOM     50  C   UNL A   1      43.315  31.413  33.624  1.00  0.00     0.023 A 
ATOM     51  C   UNL A   1      43.721  32.709  33.254  1.00  0.00     0.012 A 
ATOM     52  C   UNL A   1      42.868  31.180  34.939  1.00  0.00     0.148 A 
ATOM     53  C   UNL A   1      43.694  33.751  34.181  1.00  0.00     0.002 A 
ATOM     54  C   UNL A   1      42.786  32.236  35.838  1.00  0.00     0.091 A 
ATOM     55  F   UNL A   1      42.505  29.935  35.278  1.00  0.00    -0.205 F 
ATOM     56  C   UNL A   1      43.213  33.519  35.467  1.00  0.00     0.022 A 
BRANCH  54  57
ATOM     57  S   UNL A   1      42.027  32.045  37.455  1.00  0.00     0.127 S 
ATOM     58  O   UNL A   1      42.682  30.840  37.955  1.00  0.00    -0.237 OA
ATOM     59  O   UNL A   1      42.418  33.284  38.130  1.00  0.00    -0.237 OA
ATOM     60  O   UNL A   1      40.596  31.937  37.198  1.00  0.00    -0.744 OA
ENDBRANCH  54  57
ENDBRANCH  26  50
BRANCH  38  61
ATOM     61  C   UNL A   1      47.986  26.762  31.321  1.00  0.00     0.023 A 
ATOM     62  C   UNL A   1      49.041  27.454  30.693  1.00  0.00     0.012 A 
ATOM     63  C   UNL A   1      48.273  25.844  32.348  1.00  0.00     0.148 A 
ATOM     64  C   UNL A   1      50.363  27.216  31.064  1.00  0.00     0.002 A 
ATOM     65  C   UNL A   1      49.591  25.644  32.742  1.00  0.00     0.091 A 
ATOM     66  F   UNL A   1      47.257  25.178  32.916  1.00  0.00    -0.205 F 
ATOM     67  C   UNL A   1      50.638  26.320  32.094  1.00  0.00     0.022 A 
BRANCH  65  68
ATOM     68  S   UNL A   1      50.024  24.570  34.116  1.00  0.00     0.127 S 
ATOM     69  O   UNL A   1      49.250  25.155  35.208  1.00  0.00    -0.237 OA
ATOM     70  O   UNL A   1      49.543  23.266  33.658  1.00  0.00    -0.237 OA
ATOM     71  O   UNL A   1      51.472  24.661  34.248  1.00  0.00    -0.744 OA
ENDBRANCH  65  68
ENDBRANCH  38  61
ENDBRANCH  12  13
ENDBRANCH   5   7
ENDBRANCH   2   3
ENDBRANCH   1   2
BRANCH   1  72
ATOM     72  C   UNL A   1      34.886  34.855  28.836  1.00  0.00     0.023 C 
BRANCH  72  73
ATOM     73  C   UNL A   1      33.708  34.962  29.804  1.00  0.00     0.116 C 
BRANCH  73  74
ATOM     74  N   UNL A   1      34.018  35.739  30.986  1.00  0.00    -0.354 N 
ATOM     75  C   UNL A   1      34.740  35.353  32.087  1.00  0.00     0.244 C 
ATOM     76  H   UNL A   1      33.668  36.659  31.001  1.00  0.00     0.163 HD
ATOM     77  O   UNL A   1      35.020  36.213  32.924  1.00  0.00    -0.273 OA
BRANCH  75  78
ATOM     78  C   UNL A   1      35.197  33.872  32.210  1.00  0.00     0.195 C 
BRANCH  78  79
ATOM     79  N   UNL A   1      36.572  33.826  32.758  1.00  0.00    -0.366 N 
ATOM     80  H   UNL A   1      36.603  33.589  33.713  1.00  0.00     0.161 HD
BRANCH  79  81
ATOM     81  C   UNL A   1      37.816  34.044  32.210  1.00  0.00     0.114 A 
ATOM     82  C   UNL A   1      37.899  33.861  30.813  1.00  0.00     0.033 A 
ATOM     83  C   UNL A   1      39.029  34.392  32.830  1.00  0.00     0.292 A 
ATOM     84  C   UNL A   1      39.101  33.949  30.097  1.00  0.00     0.016 A 
ATOM     85  C   UNL A   1      40.257  34.445  32.131  1.00  0.00     0.101 A 
ATOM     86  C   UNL A   1      40.304  34.204  30.755  1.00  0.00     0.062 A 
BRANCH  83  87
ATOM     87  N   UNL A   1      39.110  34.781  34.223  1.00  0.00     0.064 N 
ATOM     88  O   UNL A   1      38.039  34.953  34.821  1.00  0.00    -0.258 OA
ATOM     89  O   UNL A   1      40.236  34.863  34.732  1.00  0.00    -0.258 OA
ENDBRANCH  83  87
BRANCH  86  90
ATOM     90  C   UNL A   1      41.608  34.273  29.998  1.00  0.00     0.416 C 
ATOM     91  F   UNL A   1      42.099  33.048  29.667  1.00  0.00    -0.166 F 
ATOM     92  F   UNL A   1      41.483  34.957  28.829  1.00  0.00    -0.166 F 
ATOM     93  F   UNL A   1      42.594  34.899  30.696  1.00  0.00    -0.166 F 
ENDBRANCH  86  90
ENDBRANCH  79  81
ENDBRANCH  78  79
BRANCH  78  94
ATOM     94  C   UNL A   1      34.251  33.093  33.164  1.00  0.00     0.191 C 
BRANCH  94  95
ATOM     95  O   UNL A   1      32.952  33.698  33.256  1.00  0.00    -0.394 OA
ATOM     96  H   UNL A   1      32.801  34.260  32.480  1.00  0.00     0.210 HD
ENDBRANCH  94  95
ENDBRANCH  78  94
ENDBRANCH  75  78
ENDBRANCH  73  74
ENDBRANCH  72  73
ENDBRANCH   1  72
TORSDOF 20
ENDMDL
