MODEL 1
REMARK VINA RESULT:     -11.3      0.000      0.000
REMARK SMILES CC[C@@H](CNC(=O)NCc1c(C)noc1C)C(=O)NCCCCNC(=O)c1ccc(-c2c3nc(c(-c4cccc(S(=O)(=O)[O-])c4F)c4ccc([nH]4)c(-c4cccc(S(=O)(=O)[O-])c4F)c4nc(c(-c5cccc(S(=O)(=O)[O-])c5F)c5ccc2[nH]5)C=C4)C=C3)cc1
REMARK SMILES IDX 21 1 20 2 19 3 17 4 18 5 3 7 2 8 1 9 4 10 5 11 6 12 7 14
REMARK SMILES IDX 8 15 9 17 10 18 11 19 15 20 12 21 13 22 14 23 16 24 22 25
REMARK SMILES IDX 23 26 24 27 25 28 26 30 27 31 28 32 89 33 29 34 88 35 30 36
REMARK SMILES IDX 31 37 32 38 82 39 33 40 87 41 81 42 83 43 34 44 86 45 80 46
REMARK SMILES IDX 79 47 35 49 67 50 47 51 66 52 48 53 51 54 65 55 84 56 49 57
REMARK SMILES IDX 50 58 64 60 85 61 52 62 36 63 37 64 45 65 38 66 40 67 46 68
REMARK SMILES IDX 39 69 41 70 42 71 43 72 44 73 68 74 69 75 77 76 70 77 72 78
REMARK SMILES IDX 78 79 71 80 73 81 74 82 75 83 76 84 53 85 54 86 62 87 55 88
REMARK SMILES IDX 57 89 63 90 56 91 58 92 59 93 60 94 61 95
REMARK H PARENT 19 6 5 13 8 16 24 29 83 48 51 59
REMARK Flexibility Score: inf
ROOT
ATOM      1  C   UNL A   1      37.392  20.614  24.961  1.00  0.00     0.023 C 
ENDROOT
BRANCH   1   2
ATOM      2  C   UNL A   1      36.123  21.411  24.684  1.00  0.00     0.116 C 
BRANCH   2   3
ATOM      3  N   UNL A   1      35.340  21.669  25.878  1.00  0.00    -0.356 N 
ATOM      4  C   UNL A   1      34.128  21.187  26.265  1.00  0.00     0.224 C 
ATOM      5  O   UNL A   1      33.790  21.362  27.441  1.00  0.00    -0.275 OA
ATOM      6  H   UNL A   1      35.753  22.298  26.513  1.00  0.00     0.163 HD
BRANCH   4   7
ATOM      7  C   UNL A   1      33.198  20.422  25.328  1.00  0.00     0.097 C 
BRANCH   7   8
ATOM      8  C   UNL A   1      32.963  18.955  25.731  1.00  0.00     0.012 C 
ATOM      9  C   UNL A   1      32.422  18.084  24.605  1.00  0.00     0.005 C 
ENDBRANCH   7   8
BRANCH   7  10
ATOM     10  C   UNL A   1      31.977  21.247  24.897  1.00  0.00     0.131 C 
BRANCH  10  11
ATOM     11  N   UNL A   1      31.312  22.008  25.933  1.00  0.00    -0.337 N 
ATOM     12  C   UNL A   1      30.740  23.214  26.005  1.00  0.00     0.315 C 
ATOM     13  H   UNL A   1      31.274  21.522  26.788  1.00  0.00     0.165 HD
ATOM     14  O   UNL A   1      30.409  23.605  27.128  1.00  0.00    -0.249 OA
ATOM     15  N   UNL A   1      30.506  24.020  24.972  1.00  0.00    -0.334 N 
ATOM     16  H   UNL A   1      30.183  24.903  25.261  1.00  0.00     0.165 HD
BRANCH  15  17
ATOM     17  C   UNL A   1      30.603  23.925  23.533  1.00  0.00     0.159 C 
BRANCH  17  18
ATOM     18  C   UNL A   1      31.733  24.773  23.060  1.00  0.00     0.037 A 
ATOM     19  C   UNL A   1      31.769  26.199  22.994  1.00  0.00     0.086 A 
ATOM     20  C   UNL A   1      32.980  24.408  22.585  1.00  0.00     0.138 A 
ATOM     21  C   UNL A   1      30.709  27.170  23.355  1.00  0.00     0.071 C 
ATOM     22  N   UNL A   1      32.945  26.645  22.537  1.00  0.00    -0.085 NA
ATOM     23  O   UNL A   1      33.697  25.522  22.280  1.00  0.00    -0.361 OA
ATOM     24  C   UNL A   1      33.677  23.133  22.338  1.00  0.00     0.091 C 
ENDBRANCH  17  18
ENDBRANCH  15  17
ENDBRANCH  10  11
ENDBRANCH   7  10
ENDBRANCH   4   7
ENDBRANCH   2   3
ENDBRANCH   1   2
BRANCH   1  25
ATOM     25  C   UNL A   1      38.617  21.463  25.293  1.00  0.00     0.023 C 
BRANCH  25  26
ATOM     26  C   UNL A   1      39.459  20.972  26.467  1.00  0.00     0.116 C 
BRANCH  26  27
ATOM     27  N   UNL A   1      40.229  19.768  26.174  1.00  0.00    -0.352 N 
ATOM     28  C   UNL A   1      41.599  19.633  26.103  1.00  0.00     0.251 C 
ATOM     29  H   UNL A   1      39.706  18.951  26.008  1.00  0.00     0.163 HD
ATOM     30  O   UNL A   1      42.116  18.582  25.760  1.00  0.00    -0.269 OA
BRANCH  28  31
ATOM     31  C   UNL A   1      42.430  20.813  26.417  1.00  0.00     0.039 A 
ATOM     32  C   UNL A   1      42.873  21.629  25.374  1.00  0.00     0.014 A 
ATOM     33  C   UNL A   1      42.663  21.160  27.749  1.00  0.00     0.014 A 
ATOM     34  C   UNL A   1      43.475  22.853  25.672  1.00  0.00     0.010 A 
ATOM     35  C   UNL A   1      43.198  22.407  28.041  1.00  0.00     0.010 A 
ATOM     36  C   UNL A   1      43.596  23.272  27.007  1.00  0.00    -0.014 A 
BRANCH  36  37
ATOM     37  C   UNL A   1      44.104  24.617  27.371  1.00  0.00     0.031 A 
ATOM     38  C   UNL A   1      43.151  25.653  27.892  1.00  0.00     0.074 A 
ATOM     39  C   UNL A   1      45.377  24.952  27.080  1.00  0.00     0.049 A 
ATOM     40  N   UNL A   1      43.343  26.930  28.083  1.00  0.00    -0.248 NA
ATOM     41  C   UNL A   1      41.784  25.197  28.195  1.00  0.00     0.031 C 
ATOM     42  C   UNL A   1      46.374  24.057  26.488  1.00  0.00     0.029 A 
ATOM     43  N   UNL A   1      46.034  26.152  27.192  1.00  0.00    -0.354 N 
ATOM     44  C   UNL A   1      42.111  27.443  28.466  1.00  0.00     0.074 A 
ATOM     45  C   UNL A   1      41.173  26.341  28.462  1.00  0.00     0.031 C 
ATOM     46  C   UNL A   1      47.508  24.743  26.275  1.00  0.00     0.029 A 
ATOM     47  C   UNL A   1      47.311  26.132  26.683  1.00  0.00     0.049 A 
ATOM     48  H   UNL A   1      45.629  26.953  27.600  1.00  0.00     0.167 HD
ATOM     49  C   UNL A   1      41.792  28.712  28.813  1.00  0.00     0.034 A 
ATOM     50  C   UNL A   1      48.215  27.121  26.542  1.00  0.00     0.034 A 
ATOM     51  C   UNL A   1      42.744  29.786  28.886  1.00  0.00     0.049 A 
ATOM     52  C   UNL A   1      47.868  28.503  27.022  1.00  0.00     0.074 A 
ATOM     53  C   UNL A   1      42.549  31.079  29.337  1.00  0.00     0.029 A 
ATOM     54  N   UNL A   1      44.072  29.690  28.502  1.00  0.00    -0.354 N 
ATOM     55  N   UNL A   1      46.742  28.936  27.535  1.00  0.00    -0.248 NA
ATOM     56  C   UNL A   1      48.922  29.525  26.939  1.00  0.00     0.031 C 
ATOM     57  C   UNL A   1      43.763  31.767  29.222  1.00  0.00     0.029 A 
ATOM     58  C   UNL A   1      44.713  30.899  28.707  1.00  0.00     0.049 A 
ATOM     59  H   UNL A   1      44.498  28.881  28.137  1.00  0.00     0.167 HD
ATOM     60  C   UNL A   1      46.961  30.267  27.869  1.00  0.00     0.074 A 
ATOM     61  C   UNL A   1      48.332  30.568  27.511  1.00  0.00     0.031 C 
ATOM     62  C   UNL A   1      46.098  31.163  28.409  1.00  0.00     0.034 A 
BRANCH  49  63
ATOM     63  C   UNL A   1      40.364  28.986  29.200  1.00  0.00     0.023 A 
ATOM     64  C   UNL A   1      39.420  29.289  28.198  1.00  0.00     0.012 A 
ATOM     65  C   UNL A   1      39.949  28.920  30.543  1.00  0.00     0.148 A 
ATOM     66  C   UNL A   1      38.095  29.566  28.531  1.00  0.00     0.002 A 
ATOM     67  C   UNL A   1      38.616  29.155  30.863  1.00  0.00     0.091 A 
ATOM     68  F   UNL A   1      40.864  28.660  31.489  1.00  0.00    -0.205 F 
ATOM     69  C   UNL A   1      37.691  29.490  29.861  1.00  0.00     0.022 A 
BRANCH  67  70
ATOM     70  S   UNL A   1      38.003  29.002  32.545  1.00  0.00     0.127 S 
ATOM     71  O   UNL A   1      36.621  29.459  32.401  1.00  0.00    -0.237 OA
ATOM     72  O   UNL A   1      38.145  27.568  32.804  1.00  0.00    -0.237 OA
ATOM     73  O   UNL A   1      38.872  29.845  33.354  1.00  0.00    -0.744 OA
ENDBRANCH  67  70
ENDBRANCH  49  63
BRANCH  50  74
ATOM     74  C   UNL A   1      49.562  26.808  25.987  1.00  0.00     0.023 A 
ATOM     75  C   UNL A   1      50.458  26.040  26.756  1.00  0.00     0.012 A 
ATOM     76  C   UNL A   1      49.933  27.197  24.685  1.00  0.00     0.148 A 
ATOM     77  C   UNL A   1      51.706  25.681  26.246  1.00  0.00     0.002 A 
ATOM     78  C   UNL A   1      51.157  26.793  24.164  1.00  0.00     0.091 A 
ATOM     79  F   UNL A   1      49.068  27.934  23.973  1.00  0.00    -0.205 F 
ATOM     80  C   UNL A   1      52.051  26.046  24.948  1.00  0.00     0.022 A 
BRANCH  78  81
ATOM     81  S   UNL A   1      51.632  27.100  22.458  1.00  0.00     0.127 S 
ATOM     82  O   UNL A   1      52.762  26.192  22.294  1.00  0.00    -0.237 OA
ATOM     83  O   UNL A   1      50.419  26.713  21.735  1.00  0.00    -0.237 OA
ATOM     84  O   UNL A   1      51.945  28.521  22.386  1.00  0.00    -0.744 OA
ENDBRANCH  78  81
ENDBRANCH  50  74
BRANCH  62  85
ATOM     85  C   UNL A   1      46.607  32.550  28.690  1.00  0.00     0.023 A 
ATOM     86  C   UNL A   1      47.099  32.865  29.971  1.00  0.00     0.012 A 
ATOM     87  C   UNL A   1      46.701  33.503  27.656  1.00  0.00     0.148 A 
ATOM     88  C   UNL A   1      47.666  34.114  30.224  1.00  0.00     0.002 A 
ATOM     89  C   UNL A   1      47.305  34.730  27.905  1.00  0.00     0.091 A 
ATOM     90  F   UNL A   1      46.207  33.190  26.450  1.00  0.00    -0.205 F 
ATOM     91  C   UNL A   1      47.781  35.039  29.189  1.00  0.00     0.022 A 
BRANCH  89  92
ATOM     92  S   UNL A   1      47.579  35.945  26.609  1.00  0.00     0.127 S 
ATOM     93  O   UNL A   1      46.268  36.582  26.516  1.00  0.00    -0.237 OA
ATOM     94  O   UNL A   1      48.627  36.787  27.186  1.00  0.00    -0.237 OA
ATOM     95  O   UNL A   1      47.993  35.188  25.434  1.00  0.00    -0.744 OA
ENDBRANCH  89  92
ENDBRANCH  62  85
ENDBRANCH  36  37
ENDBRANCH  28  31
ENDBRANCH  26  27
ENDBRANCH  25  26
ENDBRANCH   1  25
TORSDOF 19
ENDMDL
MODEL 2
REMARK VINA RESULT:     -11.2      2.474      3.461
REMARK SMILES CC[C@@H](CNC(=O)NCc1c(C)noc1C)C(=O)NCCCCNC(=O)c1ccc(-c2c3nc(c(-c4cccc(S(=O)(=O)[O-])c4F)c4ccc([nH]4)c(-c4cccc(S(=O)(=O)[O-])c4F)c4nc(c(-c5cccc(S(=O)(=O)[O-])c5F)c5ccc2[nH]5)C=C4)C=C3)cc1
REMARK SMILES IDX 21 1 20 2 19 3 17 4 18 5 3 7 2 8 1 9 4 10 5 11 6 12 7 14
REMARK SMILES IDX 8 15 9 17 10 18 11 19 15 20 12 21 13 22 14 23 16 24 22 25
REMARK SMILES IDX 23 26 24 27 25 28 26 30 27 31 28 32 89 33 29 34 88 35 30 36
REMARK SMILES IDX 31 37 32 38 82 39 33 40 87 41 81 42 83 43 34 44 86 45 80 46
REMARK SMILES IDX 79 47 35 49 67 50 47 51 66 52 48 53 51 54 65 55 84 56 49 57
REMARK SMILES IDX 50 58 64 60 85 61 52 62 36 63 37 64 45 65 38 66 40 67 46 68
REMARK SMILES IDX 39 69 41 70 42 71 43 72 44 73 68 74 69 75 77 76 70 77 72 78
REMARK SMILES IDX 78 79 71 80 73 81 74 82 75 83 76 84 53 85 54 86 62 87 55 88
REMARK SMILES IDX 57 89 63 90 56 91 58 92 59 93 60 94 61 95
REMARK H PARENT 19 6 5 13 8 16 24 29 83 48 51 59
REMARK Flexibility Score: inf
ROOT
ATOM      1  C   UNL A   1      35.526  22.589  23.497  1.00  0.00     0.023 C 
ENDROOT
BRANCH   1   2
ATOM      2  C   UNL A   1      34.455  22.073  24.449  1.00  0.00     0.116 C 
BRANCH   2   3
ATOM      3  N   UNL A   1      33.282  21.561  23.764  1.00  0.00    -0.356 N 
ATOM      4  C   UNL A   1      32.279  22.212  23.116  1.00  0.00     0.224 C 
ATOM      5  O   UNL A   1      31.530  21.540  22.397  1.00  0.00    -0.275 OA
ATOM      6  H   UNL A   1      33.198  20.580  23.771  1.00  0.00     0.163 HD
BRANCH   4   7
ATOM      7  C   UNL A   1      32.065  23.719  23.212  1.00  0.00     0.097 C 
BRANCH   7   8
ATOM      8  C   UNL A   1      32.622  24.513  22.016  1.00  0.00     0.012 C 
ATOM      9  C   UNL A   1      32.190  25.974  21.989  1.00  0.00     0.005 C 
ENDBRANCH   7   8
BRANCH   7  10
ATOM     10  C   UNL A   1      30.666  24.091  23.724  1.00  0.00     0.131 C 
BRANCH  10  11
ATOM     11  N   UNL A   1      30.360  23.723  25.090  1.00  0.00    -0.337 N 
ATOM     12  C   UNL A   1      30.501  24.307  26.284  1.00  0.00     0.315 C 
ATOM     13  H   UNL A   1      29.950  22.830  25.154  1.00  0.00     0.165 HD
ATOM     14  O   UNL A   1      30.268  23.608  27.274  1.00  0.00    -0.249 OA
ATOM     15  N   UNL A   1      30.874  25.568  26.487  1.00  0.00    -0.334 N 
ATOM     16  H   UNL A   1      31.025  25.758  27.441  1.00  0.00     0.165 HD
BRANCH  15  17
ATOM     17  C   UNL A   1      31.112  26.731  25.661  1.00  0.00     0.159 C 
BRANCH  17  18
ATOM     18  C   UNL A   1      32.421  27.338  26.032  1.00  0.00     0.037 A 
ATOM     19  C   UNL A   1      32.639  28.622  26.616  1.00  0.00     0.086 A 
ATOM     20  C   UNL A   1      33.702  26.830  25.910  1.00  0.00     0.138 A 
ATOM     21  C   UNL A   1      31.642  29.658  26.974  1.00  0.00     0.071 C 
ATOM     22  N   UNL A   1      33.938  28.852  26.839  1.00  0.00    -0.085 NA
ATOM     23  O   UNL A   1      34.598  27.730  26.394  1.00  0.00    -0.361 OA
ATOM     24  C   UNL A   1      34.292  25.585  25.387  1.00  0.00     0.091 C 
ENDBRANCH  17  18
ENDBRANCH  15  17
ENDBRANCH  10  11
ENDBRANCH   7  10
ENDBRANCH   4   7
ENDBRANCH   2   3
ENDBRANCH   1   2
BRANCH   1  25
ATOM     25  C   UNL A   1      36.930  22.651  24.093  1.00  0.00     0.023 C 
BRANCH  25  26
ATOM     26  C   UNL A   1      37.076  22.063  25.494  1.00  0.00     0.116 C 
BRANCH  26  27
ATOM     27  N   UNL A   1      38.049  20.978  25.577  1.00  0.00    -0.352 N 
ATOM     28  C   UNL A   1      39.324  21.019  26.099  1.00  0.00     0.251 C 
ATOM     29  H   UNL A   1      37.759  20.110  25.215  1.00  0.00     0.163 HD
ATOM     30  O   UNL A   1      40.071  20.057  26.026  1.00  0.00    -0.269 OA
BRANCH  28  31
ATOM     31  C   UNL A   1      39.779  22.280  26.720  1.00  0.00     0.039 A 
ATOM     32  C   UNL A   1      40.751  22.232  27.721  1.00  0.00     0.014 A 
ATOM     33  C   UNL A   1      39.319  23.501  26.223  1.00  0.00     0.014 A 
ATOM     34  C   UNL A   1      41.337  23.420  28.162  1.00  0.00     0.010 A 
ATOM     35  C   UNL A   1      39.952  24.673  26.613  1.00  0.00     0.010 A 
ATOM     36  C   UNL A   1      40.976  24.644  27.575  1.00  0.00    -0.014 A 
BRANCH  36  37
ATOM     37  C   UNL A   1      41.661  25.916  27.912  1.00  0.00     0.031 A 
ATOM     38  C   UNL A   1      40.924  26.975  28.678  1.00  0.00     0.074 A 
ATOM     39  C   UNL A   1      42.876  26.177  27.390  1.00  0.00     0.049 A 
ATOM     40  N   UNL A   1      41.262  28.215  28.905  1.00  0.00    -0.248 NA
ATOM     41  C   UNL A   1      39.609  26.598  29.223  1.00  0.00     0.031 C 
ATOM     42  C   UNL A   1      43.655  25.261  26.555  1.00  0.00     0.029 A 
ATOM     43  N   UNL A   1      43.645  27.314  27.442  1.00  0.00    -0.354 N 
ATOM     44  C   UNL A   1      40.179  28.786  29.561  1.00  0.00     0.074 A 
ATOM     45  C   UNL A   1      39.165  27.760  29.679  1.00  0.00     0.031 C 
ATOM     46  C   UNL A   1      44.781  25.876  26.159  1.00  0.00     0.029 A 
ATOM     47  C   UNL A   1      44.791  27.239  26.684  1.00  0.00     0.049 A 
ATOM     48  H   UNL A   1      43.401  28.107  27.972  1.00  0.00     0.167 HD
ATOM     49  C   UNL A   1      40.048  30.044  30.044  1.00  0.00     0.034 A 
ATOM     50  C   UNL A   1      45.733  28.167  26.425  1.00  0.00     0.034 A 
ATOM     51  C   UNL A   1      41.085  31.036  29.990  1.00  0.00     0.049 A 
ATOM     52  C   UNL A   1      45.610  29.529  27.051  1.00  0.00     0.074 A 
ATOM     53  C   UNL A   1      41.098  32.300  30.550  1.00  0.00     0.029 A 
ATOM     54  N   UNL A   1      42.299  30.872  29.339  1.00  0.00    -0.354 N 
ATOM     55  N   UNL A   1      44.650  30.002  27.807  1.00  0.00    -0.248 NA
ATOM     56  C   UNL A   1      46.713  30.474  26.820  1.00  0.00     0.031 C 
ATOM     57  C   UNL A   1      42.321  32.903  30.235  1.00  0.00     0.029 A 
ATOM     58  C   UNL A   1      43.071  32.011  29.485  1.00  0.00     0.049 A 
ATOM     59  H   UNL A   1      42.572  30.065  28.846  1.00  0.00     0.167 HD
ATOM     60  C   UNL A   1      45.046  31.283  28.172  1.00  0.00     0.074 A 
ATOM     61  C   UNL A   1      46.341  31.509  27.563  1.00  0.00     0.031 C 
ATOM     62  C   UNL A   1      44.388  32.195  28.930  1.00  0.00     0.034 A 
BRANCH  49  63
ATOM     63  C   UNL A   1      38.753  30.391  30.728  1.00  0.00     0.023 A 
ATOM     64  C   UNL A   1      38.562  30.026  32.076  1.00  0.00     0.012 A 
ATOM     65  C   UNL A   1      37.738  31.093  30.053  1.00  0.00     0.148 A 
ATOM     66  C   UNL A   1      37.365  30.316  32.729  1.00  0.00     0.002 A 
ATOM     67  C   UNL A   1      36.564  31.418  30.723  1.00  0.00     0.091 A 
ATOM     68  F   UNL A   1      37.922  31.408  28.762  1.00  0.00    -0.205 F 
ATOM     69  C   UNL A   1      36.370  31.020  32.056  1.00  0.00     0.022 A 
BRANCH  67  70
ATOM     70  S   UNL A   1      35.266  32.389  29.947  1.00  0.00     0.127 S 
ATOM     71  O   UNL A   1      34.345  32.600  31.063  1.00  0.00    -0.237 OA
ATOM     72  O   UNL A   1      35.984  33.590  29.517  1.00  0.00    -0.237 OA
ATOM     73  O   UNL A   1      34.766  31.567  28.855  1.00  0.00    -0.744 OA
ENDBRANCH  67  70
ENDBRANCH  49  63
BRANCH  50  74
ATOM     74  C   UNL A   1      46.912  27.800  25.591  1.00  0.00     0.023 A 
ATOM     75  C   UNL A   1      46.824  27.916  24.190  1.00  0.00     0.012 A 
ATOM     76  C   UNL A   1      48.135  27.412  26.173  1.00  0.00     0.148 A 
ATOM     77  C   UNL A   1      47.926  27.635  23.383  1.00  0.00     0.002 A 
ATOM     78  C   UNL A   1      49.244  27.183  25.365  1.00  0.00     0.091 A 
ATOM     79  F   UNL A   1      48.195  27.301  27.508  1.00  0.00    -0.205 F 
ATOM     80  C   UNL A   1      49.137  27.281  23.969  1.00  0.00     0.022 A 
BRANCH  78  81
ATOM     81  S   UNL A   1      50.878  26.853  26.036  1.00  0.00     0.127 S 
ATOM     82  O   UNL A   1      50.780  25.438  26.380  1.00  0.00    -0.237 OA
ATOM     83  O   UNL A   1      51.739  27.152  24.891  1.00  0.00    -0.237 OA
ATOM     84  O   UNL A   1      51.035  27.768  27.158  1.00  0.00    -0.744 OA
ENDBRANCH  78  81
ENDBRANCH  50  74
BRANCH  62  85
ATOM     85  C   UNL A   1      45.062  33.515  29.188  1.00  0.00     0.023 A 
ATOM     86  C   UNL A   1      45.853  33.678  30.342  1.00  0.00     0.012 A 
ATOM     87  C   UNL A   1      45.004  34.549  28.233  1.00  0.00     0.148 A 
ATOM     88  C   UNL A   1      46.565  34.860  30.549  1.00  0.00     0.002 A 
ATOM     89  C   UNL A   1      45.750  35.706  28.426  1.00  0.00     0.091 A 
ATOM     90  F   UNL A   1      44.229  34.380  27.152  1.00  0.00    -0.205 F 
ATOM     91  C   UNL A   1      46.525  35.865  29.586  1.00  0.00     0.022 A 
BRANCH  89  92
ATOM     92  S   UNL A   1      45.830  37.013  27.194  1.00  0.00     0.127 S 
ATOM     93  O   UNL A   1      44.428  37.411  27.092  1.00  0.00    -0.237 OA
ATOM     94  O   UNL A   1      46.699  37.997  27.839  1.00  0.00    -0.237 OA
ATOM     95  O   UNL A   1      46.396  36.400  26.000  1.00  0.00    -0.744 OA
ENDBRANCH  89  92
ENDBRANCH  62  85
ENDBRANCH  36  37
ENDBRANCH  28  31
ENDBRANCH  26  27
ENDBRANCH  25  26
ENDBRANCH   1  25
TORSDOF 19
ENDMDL
MODEL 3
REMARK VINA RESULT:     -11.2      5.835     11.636
REMARK SMILES CC[C@@H](CNC(=O)NCc1c(C)noc1C)C(=O)NCCCCNC(=O)c1ccc(-c2c3nc(c(-c4cccc(S(=O)(=O)[O-])c4F)c4ccc([nH]4)c(-c4cccc(S(=O)(=O)[O-])c4F)c4nc(c(-c5cccc(S(=O)(=O)[O-])c5F)c5ccc2[nH]5)C=C4)C=C3)cc1
REMARK SMILES IDX 21 1 20 2 19 3 17 4 18 5 3 7 2 8 1 9 4 10 5 11 6 12 7 14
REMARK SMILES IDX 8 15 9 17 10 18 11 19 15 20 12 21 13 22 14 23 16 24 22 25
REMARK SMILES IDX 23 26 24 27 25 28 26 30 27 31 28 32 89 33 29 34 88 35 30 36
REMARK SMILES IDX 31 37 32 38 82 39 33 40 87 41 81 42 83 43 34 44 86 45 80 46
REMARK SMILES IDX 79 47 35 49 67 50 47 51 66 52 48 53 51 54 65 55 84 56 49 57
REMARK SMILES IDX 50 58 64 60 85 61 52 62 36 63 37 64 45 65 38 66 40 67 46 68
REMARK SMILES IDX 39 69 41 70 42 71 43 72 44 73 68 74 69 75 77 76 70 77 72 78
REMARK SMILES IDX 78 79 71 80 73 81 74 82 75 83 76 84 53 85 54 86 62 87 55 88
REMARK SMILES IDX 57 89 63 90 56 91 58 92 59 93 60 94 61 95
REMARK H PARENT 19 6 5 13 8 16 24 29 83 48 51 59
REMARK Flexibility Score: inf
ROOT
ATOM      1  C   UNL A   1      31.949  29.470  27.054  1.00  0.00     0.023 C 
ENDROOT
BRANCH   1   2
ATOM      2  C   UNL A   1      32.436  28.205  26.360  1.00  0.00     0.116 C 
BRANCH   2   3
ATOM      3  N   UNL A   1      33.086  28.466  25.088  1.00  0.00    -0.356 N 
ATOM      4  C   UNL A   1      32.569  28.590  23.837  1.00  0.00     0.224 C 
ATOM      5  O   UNL A   1      33.299  29.063  22.959  1.00  0.00    -0.275 OA
ATOM      6  H   UNL A   1      34.063  28.569  25.141  1.00  0.00     0.163 HD
BRANCH   4   7
ATOM      7  C   UNL A   1      31.135  28.205  23.486  1.00  0.00     0.097 C 
BRANCH   7   8
ATOM      8  C   UNL A   1      30.288  29.365  22.931  1.00  0.00     0.012 C 
ATOM      9  C   UNL A   1      29.865  30.382  23.984  1.00  0.00     0.005 C 
ENDBRANCH   7   8
BRANCH   7  10
ATOM     10  C   UNL A   1      31.039  26.849  22.774  1.00  0.00     0.131 C 
BRANCH  10  11
ATOM     11  N   UNL A   1      32.284  26.268  22.321  1.00  0.00    -0.337 N 
ATOM     12  C   UNL A   1      32.902  25.095  22.495  1.00  0.00     0.315 C 
ATOM     13  H   UNL A   1      32.798  26.882  21.748  1.00  0.00     0.165 HD
ATOM     14  O   UNL A   1      34.060  25.011  22.076  1.00  0.00    -0.249 OA
ATOM     15  N   UNL A   1      32.375  24.024  23.084  1.00  0.00    -0.334 N 
ATOM     16  H   UNL A   1      33.039  23.309  23.210  1.00  0.00     0.165 HD
BRANCH  15  17
ATOM     17  C   UNL A   1      31.073  23.646  23.585  1.00  0.00     0.159 C 
BRANCH  17  18
ATOM     18  C   UNL A   1      31.108  23.619  25.074  1.00  0.00     0.037 A 
ATOM     19  C   UNL A   1      31.729  22.635  25.903  1.00  0.00     0.086 A 
ATOM     20  C   UNL A   1      30.569  24.503  25.991  1.00  0.00     0.138 A 
ATOM     21  C   UNL A   1      32.462  21.413  25.498  1.00  0.00     0.071 C 
ATOM     22  N   UNL A   1      31.588  22.921  27.201  1.00  0.00    -0.085 NA
ATOM     23  O   UNL A   1      30.860  24.087  27.252  1.00  0.00    -0.361 OA
ATOM     24  C   UNL A   1      29.776  25.743  25.913  1.00  0.00     0.091 C 
ENDBRANCH  17  18
ENDBRANCH  15  17
ENDBRANCH  10  11
ENDBRANCH   7  10
ENDBRANCH   4   7
ENDBRANCH   2   3
ENDBRANCH   1   2
BRANCH   1  25
ATOM     25  C   UNL A   1      32.552  30.764  26.514  1.00  0.00     0.023 C 
BRANCH  25  26
ATOM     26  C   UNL A   1      33.299  31.618  27.534  1.00  0.00     0.116 C 
BRANCH  26  27
ATOM     27  N   UNL A   1      32.821  32.995  27.612  1.00  0.00    -0.352 N 
ATOM     28  C   UNL A   1      33.270  34.004  28.436  1.00  0.00     0.251 C 
ATOM     29  H   UNL A   1      32.088  33.232  26.999  1.00  0.00     0.163 HD
ATOM     30  O   UNL A   1      32.720  35.094  28.462  1.00  0.00    -0.269 OA
BRANCH  28  31
ATOM     31  C   UNL A   1      34.417  33.719  29.321  1.00  0.00     0.039 A 
ATOM     32  C   UNL A   1      34.234  32.881  30.423  1.00  0.00     0.014 A 
ATOM     33  C   UNL A   1      35.686  34.193  28.983  1.00  0.00     0.014 A 
ATOM     34  C   UNL A   1      35.348  32.438  31.138  1.00  0.00     0.010 A 
ATOM     35  C   UNL A   1      36.796  33.696  29.652  1.00  0.00     0.010 A 
ATOM     36  C   UNL A   1      36.640  32.804  30.726  1.00  0.00    -0.014 A 
BRANCH  36  37
ATOM     37  C   UNL A   1      37.860  32.254  31.368  1.00  0.00     0.031 A 
ATOM     38  C   UNL A   1      38.607  31.136  30.702  1.00  0.00     0.074 A 
ATOM     39  C   UNL A   1      38.194  32.647  32.613  1.00  0.00     0.049 A 
ATOM     40  N   UNL A   1      39.568  30.389  31.175  1.00  0.00    -0.248 NA
ATOM     41  C   UNL A   1      38.183  30.781  29.337  1.00  0.00     0.031 C 
ATOM     42  C   UNL A   1      37.490  33.663  33.399  1.00  0.00     0.029 A 
ATOM     43  N   UNL A   1      39.179  32.198  33.458  1.00  0.00    -0.354 N 
ATOM     44  C   UNL A   1      39.822  29.438  30.196  1.00  0.00     0.074 A 
ATOM     45  C   UNL A   1      38.900  29.691  29.109  1.00  0.00     0.031 C 
ATOM     46  C   UNL A   1      38.055  33.748  34.614  1.00  0.00     0.029 A 
ATOM     47  C   UNL A   1      39.138  32.772  34.707  1.00  0.00     0.049 A 
ATOM     48  H   UNL A   1      39.852  31.529  33.194  1.00  0.00     0.167 HD
ATOM     49  C   UNL A   1      40.754  28.456  30.189  1.00  0.00     0.034 A 
ATOM     50  C   UNL A   1      39.874  32.529  35.809  1.00  0.00     0.034 A 
ATOM     51  C   UNL A   1      41.716  28.257  31.238  1.00  0.00     0.049 A 
ATOM     52  C   UNL A   1      40.966  31.498  35.746  1.00  0.00     0.074 A 
ATOM     53  C   UNL A   1      42.774  27.368  31.278  1.00  0.00     0.029 A 
ATOM     54  N   UNL A   1      41.737  28.961  32.432  1.00  0.00    -0.354 N 
ATOM     55  N   UNL A   1      41.299  30.714  34.749  1.00  0.00    -0.248 NA
ATOM     56  C   UNL A   1      41.808  31.339  36.941  1.00  0.00     0.031 C 
ATOM     57  C   UNL A   1      43.436  27.534  32.499  1.00  0.00     0.029 A 
ATOM     58  C   UNL A   1      42.793  28.531  33.216  1.00  0.00     0.049 A 
ATOM     59  H   UNL A   1      41.097  29.665  32.685  1.00  0.00     0.167 HD
ATOM     60  C   UNL A   1      42.408  29.995  35.181  1.00  0.00     0.074 A 
ATOM     61  C   UNL A   1      42.698  30.445  36.527  1.00  0.00     0.031 C 
ATOM     62  C   UNL A   1      43.111  29.037  34.527  1.00  0.00     0.034 A 
BRANCH  49  63
ATOM     63  C   UNL A   1      40.813  27.566  28.977  1.00  0.00     0.023 A 
ATOM     64  C   UNL A   1      39.930  26.472  28.877  1.00  0.00     0.012 A 
ATOM     65  C   UNL A   1      41.719  27.821  27.931  1.00  0.00     0.148 A 
ATOM     66  C   UNL A   1      39.977  25.620  27.775  1.00  0.00     0.002 A 
ATOM     67  C   UNL A   1      41.730  26.992  26.814  1.00  0.00     0.091 A 
ATOM     68  F   UNL A   1      42.573  28.848  28.053  1.00  0.00    -0.205 F 
ATOM     69  C   UNL A   1      40.870  25.885  26.740  1.00  0.00     0.022 A 
BRANCH  67  70
ATOM     70  S   UNL A   1      42.799  27.312  25.406  1.00  0.00     0.127 S 
ATOM     71  O   UNL A   1      42.655  26.077  24.636  1.00  0.00    -0.237 OA
ATOM     72  O   UNL A   1      42.172  28.485  24.794  1.00  0.00    -0.237 OA
ATOM     73  O   UNL A   1      44.118  27.563  25.968  1.00  0.00    -0.744 OA
ENDBRANCH  67  70
ENDBRANCH  49  63
BRANCH  50  74
ATOM     74  C   UNL A   1      39.643  33.340  37.037  1.00  0.00     0.023 A 
ATOM     75  C   UNL A   1      38.571  33.006  37.888  1.00  0.00     0.012 A 
ATOM     76  C   UNL A   1      40.515  34.383  37.407  1.00  0.00     0.148 A 
ATOM     77  C   UNL A   1      38.360  33.709  39.074  1.00  0.00     0.002 A 
ATOM     78  C   UNL A   1      40.329  35.045  38.616  1.00  0.00     0.091 A 
ATOM     79  F   UNL A   1      41.525  34.689  36.580  1.00  0.00    -0.205 F 
ATOM     80  C   UNL A   1      39.243  34.718  39.445  1.00  0.00     0.022 A 
BRANCH  78  81
ATOM     81  S   UNL A   1      41.491  36.265  39.241  1.00  0.00     0.127 S 
ATOM     82  O   UNL A   1      41.398  37.312  38.227  1.00  0.00    -0.237 OA
ATOM     83  O   UNL A   1      40.901  36.607  40.535  1.00  0.00    -0.237 OA
ATOM     84  O   UNL A   1      42.773  35.579  39.329  1.00  0.00    -0.744 OA
ENDBRANCH  78  81
ENDBRANCH  50  74
BRANCH  62  85
ATOM     85  C   UNL A   1      44.293  28.428  35.229  1.00  0.00     0.023 A 
ATOM     86  C   UNL A   1      45.581  28.953  35.007  1.00  0.00     0.012 A 
ATOM     87  C   UNL A   1      44.113  27.415  36.191  1.00  0.00     0.148 A 
ATOM     88  C   UNL A   1      46.675  28.467  35.722  1.00  0.00     0.002 A 
ATOM     89  C   UNL A   1      45.201  26.965  36.929  1.00  0.00     0.091 A 
ATOM     90  F   UNL A   1      42.882  26.915  36.371  1.00  0.00    -0.205 F 
ATOM     91  C   UNL A   1      46.483  27.485  36.691  1.00  0.00     0.022 A 
BRANCH  89  92
ATOM     92  S   UNL A   1      45.030  25.770  38.261  1.00  0.00     0.127 S 
ATOM     93  O   UNL A   1      44.166  26.489  39.195  1.00  0.00    -0.237 OA
ATOM     94  O   UNL A   1      44.392  24.639  37.587  1.00  0.00    -0.237 OA
ATOM     95  O   UNL A   1      46.382  25.505  38.735  1.00  0.00    -0.744 OA
ENDBRANCH  89  92
ENDBRANCH  62  85
ENDBRANCH  36  37
ENDBRANCH  28  31
ENDBRANCH  26  27
ENDBRANCH  25  26
ENDBRANCH   1  25
TORSDOF 19
ENDMDL
