MODEL 1
REMARK VINA RESULT:     -11.9      0.000      0.000
REMARK SMILES C[NH2+][C@@]1(C(=O)NCCCCNC(=O)c2ccc(-c3c4nc(c(-c5cccc(S(=O)(=O)[O-])c5F)c5ccc([nH]5)c(-c5cccc(S(=O)(=O)[O-])c5F)c5nc(c(-c6cccc(S(=O)(=O)[O-])c6F)c6ccc3[nH]6)C=C5)C=C4)cc2)CC[C@H](Sc2ccc(C)c(C)c2)C1
REMARK SMILES IDX 9 1 8 2 7 3 6 4 4 5 5 6 3 8 77 9 89 10 78 11 79 12 2 13 1 14
REMARK SMILES IDX 80 17 81 18 82 19 88 20 83 21 86 22 84 23 87 24 85 25 10 26
REMARK SMILES IDX 11 27 12 28 13 30 14 31 15 32 76 33 16 34 75 35 17 36 18 37
REMARK SMILES IDX 19 38 69 39 20 40 74 41 68 42 70 43 21 44 73 45 67 46 66 47
REMARK SMILES IDX 22 49 54 50 34 51 53 52 35 53 38 54 52 55 71 56 36 57 37 58
REMARK SMILES IDX 51 60 72 61 39 62 23 63 24 64 32 65 25 66 27 67 33 68 26 69
REMARK SMILES IDX 28 70 29 71 30 72 31 73 55 74 56 75 64 76 57 77 59 78 65 79
REMARK SMILES IDX 58 80 60 81 61 82 62 83 63 84 40 85 41 86 49 87 42 88 44 89
REMARK SMILES IDX 50 90 43 91 45 92 46 93 47 94 48 95
REMARK H PARENT 6 7 2 15 2 16 11 29 70 48 38 59
REMARK Flexibility Score: inf
ROOT
ATOM      1  C   UNL A   1      31.766  28.993  26.570  1.00  0.00     0.023 C 
ENDROOT
BRANCH   1   2
ATOM      2  C   UNL A   1      32.310  27.621  26.918  1.00  0.00     0.023 C 
BRANCH   2   3
ATOM      3  C   UNL A   1      31.772  26.475  26.077  1.00  0.00     0.116 C 
BRANCH   3   4
ATOM      4  N   UNL A   1      31.371  25.342  26.864  1.00  0.00    -0.351 N 
ATOM      5  C   UNL A   1      31.764  24.039  26.811  1.00  0.00     0.281 C 
ATOM      6  O   UNL A   1      31.082  23.278  27.508  1.00  0.00    -0.268 OA
ATOM      7  H   UNL A   1      30.700  25.540  27.556  1.00  0.00     0.163 HD
BRANCH   5   8
ATOM      8  C   UNL A   1      32.987  23.531  25.924  1.00  0.00     0.176 C 
ATOM      9  C   UNL A   1      34.246  24.424  25.969  1.00  0.00     0.080 C 
ATOM     10  C   UNL A   1      32.581  23.478  24.429  1.00  0.00     0.094 C 
ATOM     11  C   UNL A   1      34.379  25.148  24.629  1.00  0.00     0.022 C 
ATOM     12  C   UNL A   1      33.614  24.296  23.624  1.00  0.00     0.058 C 
BRANCH   8  13
ATOM     13  N   UNL A   1      33.345  22.140  26.348  1.00  0.00    -0.336 N 
ATOM     14  C   UNL A   1      34.761  21.796  26.233  1.00  0.00     0.331 C 
ATOM     15  H   UNL A   1      33.072  22.029  27.324  1.00  0.00     0.346 HD
ATOM     16  H   UNL A   1      32.850  21.515  25.712  1.00  0.00     0.346 HD
ENDBRANCH   8  13
BRANCH  12  17
ATOM     17  S   UNL A   1      32.787  25.040  22.138  1.00  0.00    -0.122 SA
BRANCH  17  18
ATOM     18  C   UNL A   1      31.911  26.520  22.625  1.00  0.00     0.008 A 
ATOM     19  C   UNL A   1      32.458  27.797  22.549  1.00  0.00     0.015 A 
ATOM     20  C   UNL A   1      30.547  26.405  22.950  1.00  0.00     0.018 A 
ATOM     21  C   UNL A   1      31.670  28.922  22.819  1.00  0.00     0.005 A 
ATOM     22  C   UNL A   1      29.740  27.526  23.243  1.00  0.00    -0.047 A 
ATOM     23  C   UNL A   1      30.309  28.807  23.151  1.00  0.00    -0.048 A 
ATOM     24  C   UNL A   1      28.290  27.311  23.591  1.00  0.00     0.044 C 
ATOM     25  C   UNL A   1      29.523  30.079  23.341  1.00  0.00     0.044 C 
ENDBRANCH  17  18
ENDBRANCH  12  17
ENDBRANCH   5   8
ENDBRANCH   3   4
ENDBRANCH   2   3
ENDBRANCH   1   2
BRANCH   1  26
ATOM     26  C   UNL A   1      32.806  30.036  26.185  1.00  0.00     0.116 C 
BRANCH  26  27
ATOM     27  N   UNL A   1      32.568  31.384  26.698  1.00  0.00    -0.352 N 
ATOM     28  C   UNL A   1      33.441  32.178  27.416  1.00  0.00     0.251 C 
ATOM     29  H   UNL A   1      31.682  31.770  26.509  1.00  0.00     0.163 HD
ATOM     30  O   UNL A   1      33.198  33.333  27.695  1.00  0.00    -0.269 OA
BRANCH  28  31
ATOM     31  C   UNL A   1      34.683  31.556  27.894  1.00  0.00     0.039 A 
ATOM     32  C   UNL A   1      35.801  32.367  28.096  1.00  0.00     0.014 A 
ATOM     33  C   UNL A   1      34.672  30.214  28.271  1.00  0.00     0.014 A 
ATOM     34  C   UNL A   1      36.909  31.839  28.753  1.00  0.00     0.010 A 
ATOM     35  C   UNL A   1      35.736  29.724  29.006  1.00  0.00     0.010 A 
ATOM     36  C   UNL A   1      36.865  30.527  29.246  1.00  0.00    -0.014 A 
BRANCH  36  37
ATOM     37  C   UNL A   1      37.998  29.928  29.985  1.00  0.00     0.031 A 
ATOM     38  C   UNL A   1      38.260  30.392  31.389  1.00  0.00     0.074 A 
ATOM     39  C   UNL A   1      38.853  29.097  29.359  1.00  0.00     0.049 A 
ATOM     40  N   UNL A   1      39.298  30.181  32.150  1.00  0.00    -0.248 NA
ATOM     41  C   UNL A   1      37.235  31.262  31.997  1.00  0.00     0.031 C 
ATOM     42  C   UNL A   1      38.734  28.638  27.973  1.00  0.00     0.029 A 
ATOM     43  N   UNL A   1      40.019  28.524  29.799  1.00  0.00    -0.354 N 
ATOM     44  C   UNL A   1      39.089  30.947  33.289  1.00  0.00     0.074 A 
ATOM     45  C   UNL A   1      37.839  31.649  33.110  1.00  0.00     0.031 C 
ATOM     46  C   UNL A   1      39.790  27.863  27.674  1.00  0.00     0.029 A 
ATOM     47  C   UNL A   1      40.675  27.798  28.832  1.00  0.00     0.049 A 
ATOM     48  H   UNL A   1      40.354  28.622  30.720  1.00  0.00     0.167 HD
ATOM     49  C   UNL A   1      39.856  31.033  34.399  1.00  0.00     0.034 A 
ATOM     50  C   UNL A   1      41.865  27.167  28.876  1.00  0.00     0.034 A 
ATOM     51  C   UNL A   1      41.048  30.260  34.598  1.00  0.00     0.049 A 
ATOM     52  C   UNL A   1      42.651  27.199  30.160  1.00  0.00     0.074 A 
ATOM     53  C   UNL A   1      41.843  30.178  35.727  1.00  0.00     0.029 A 
ATOM     54  N   UNL A   1      41.609  29.421  33.647  1.00  0.00    -0.354 N 
ATOM     55  N   UNL A   1      42.369  27.814  31.283  1.00  0.00    -0.248 NA
ATOM     56  C   UNL A   1      43.899  26.423  30.197  1.00  0.00     0.031 C 
ATOM     57  C   UNL A   1      42.890  29.292  35.454  1.00  0.00     0.029 A 
ATOM     58  C   UNL A   1      42.739  28.812  34.162  1.00  0.00     0.049 A 
ATOM     59  H   UNL A   1      41.257  29.281  32.738  1.00  0.00     0.167 HD
ATOM     60  C   UNL A   1      43.383  27.475  32.171  1.00  0.00     0.074 A 
ATOM     61  C   UNL A   1      44.276  26.582  31.459  1.00  0.00     0.031 C 
ATOM     62  C   UNL A   1      43.573  27.878  33.451  1.00  0.00     0.034 A 
BRANCH  49  63
ATOM     63  C   UNL A   1      39.390  31.947  35.500  1.00  0.00     0.023 A 
ATOM     64  C   UNL A   1      38.502  31.462  36.482  1.00  0.00     0.012 A 
ATOM     65  C   UNL A   1      39.853  33.274  35.584  1.00  0.00     0.148 A 
ATOM     66  C   UNL A   1      38.050  32.292  37.505  1.00  0.00     0.002 A 
ATOM     67  C   UNL A   1      39.435  34.082  36.635  1.00  0.00     0.091 A 
ATOM     68  F   UNL A   1      40.675  33.728  34.627  1.00  0.00    -0.205 F 
ATOM     69  C   UNL A   1      38.524  33.598  37.588  1.00  0.00     0.022 A 
BRANCH  67  70
ATOM     70  S   UNL A   1      40.049  35.753  36.875  1.00  0.00     0.127 S 
ATOM     71  O   UNL A   1      41.491  35.528  36.967  1.00  0.00    -0.237 OA
ATOM     72  O   UNL A   1      39.615  36.420  35.646  1.00  0.00    -0.237 OA
ATOM     73  O   UNL A   1      39.414  36.244  38.089  1.00  0.00    -0.744 OA
ENDBRANCH  67  70
ENDBRANCH  49  63
BRANCH  50  74
ATOM     74  C   UNL A   1      42.344  26.393  27.695  1.00  0.00     0.023 A 
ATOM     75  C   UNL A   1      43.225  27.008  26.785  1.00  0.00     0.012 A 
ATOM     76  C   UNL A   1      41.972  25.051  27.489  1.00  0.00     0.148 A 
ATOM     77  C   UNL A   1      43.704  26.311  25.675  1.00  0.00     0.002 A 
ATOM     78  C   UNL A   1      42.495  24.346  26.410  1.00  0.00     0.091 A 
ATOM     79  F   UNL A   1      41.124  24.485  28.360  1.00  0.00    -0.205 F 
ATOM     80  C   UNL A   1      43.349  24.979  25.493  1.00  0.00     0.022 A 
BRANCH  78  81
ATOM     81  S   UNL A   1      42.197  22.590  26.171  1.00  0.00     0.127 S 
ATOM     82  O   UNL A   1      40.741  22.543  26.075  1.00  0.00    -0.237 OA
ATOM     83  O   UNL A   1      42.906  22.329  24.918  1.00  0.00    -0.237 OA
ATOM     84  O   UNL A   1      42.779  21.934  27.334  1.00  0.00    -0.744 OA
ENDBRANCH  78  81
ENDBRANCH  50  74
BRANCH  62  85
ATOM     85  C   UNL A   1      44.766  27.330  34.185  1.00  0.00     0.023 A 
ATOM     86  C   UNL A   1      45.977  28.049  34.182  1.00  0.00     0.012 A 
ATOM     87  C   UNL A   1      44.656  26.156  34.954  1.00  0.00     0.148 A 
ATOM     88  C   UNL A   1      47.071  27.592  34.915  1.00  0.00     0.002 A 
ATOM     89  C   UNL A   1      45.735  25.732  35.720  1.00  0.00     0.091 A 
ATOM     90  F   UNL A   1      43.500  25.477  34.927  1.00  0.00    -0.205 F 
ATOM     91  C   UNL A   1      46.946  26.443  35.694  1.00  0.00     0.022 A 
BRANCH  89  92
ATOM     92  S   UNL A   1      45.630  24.321  36.826  1.00  0.00     0.127 S 
ATOM     93  O   UNL A   1      47.024  24.154  37.230  1.00  0.00    -0.237 OA
ATOM     94  O   UNL A   1      44.743  24.815  37.880  1.00  0.00    -0.237 OA
ATOM     95  O   UNL A   1      45.071  23.233  36.033  1.00  0.00    -0.744 OA
ENDBRANCH  89  92
ENDBRANCH  62  85
ENDBRANCH  36  37
ENDBRANCH  28  31
ENDBRANCH  26  27
ENDBRANCH   1  26
TORSDOF 17
ENDMDL
MODEL 2
REMARK VINA RESULT:     -11.9      2.641      8.436
REMARK SMILES C[NH2+][C@@]1(C(=O)NCCCCNC(=O)c2ccc(-c3c4nc(c(-c5cccc(S(=O)(=O)[O-])c5F)c5ccc([nH]5)c(-c5cccc(S(=O)(=O)[O-])c5F)c5nc(c(-c6cccc(S(=O)(=O)[O-])c6F)c6ccc3[nH]6)C=C5)C=C4)cc2)CC[C@H](Sc2ccc(C)c(C)c2)C1
REMARK SMILES IDX 9 1 8 2 7 3 6 4 4 5 5 6 3 8 77 9 89 10 78 11 79 12 2 13 1 14
REMARK SMILES IDX 80 17 81 18 82 19 88 20 83 21 86 22 84 23 87 24 85 25 10 26
REMARK SMILES IDX 11 27 12 28 13 30 14 31 15 32 76 33 16 34 75 35 17 36 18 37
REMARK SMILES IDX 19 38 69 39 20 40 74 41 68 42 70 43 21 44 73 45 67 46 66 47
REMARK SMILES IDX 22 49 54 50 34 51 53 52 35 53 38 54 52 55 71 56 36 57 37 58
REMARK SMILES IDX 51 60 72 61 39 62 23 63 24 64 32 65 25 66 27 67 33 68 26 69
REMARK SMILES IDX 28 70 29 71 30 72 31 73 55 74 56 75 64 76 57 77 59 78 65 79
REMARK SMILES IDX 58 80 60 81 61 82 62 83 63 84 40 85 41 86 49 87 42 88 44 89
REMARK SMILES IDX 50 90 43 91 45 92 46 93 47 94 48 95
REMARK H PARENT 6 7 2 15 2 16 11 29 70 48 38 59
REMARK Flexibility Score: inf
ROOT
ATOM      1  C   UNL A   1      32.804  30.933  27.207  1.00  0.00     0.023 C 
ENDROOT
BRANCH   1   2
ATOM      2  C   UNL A   1      31.473  31.121  26.505  1.00  0.00     0.023 C 
BRANCH   2   3
ATOM      3  C   UNL A   1      31.313  30.363  25.197  1.00  0.00     0.116 C 
BRANCH   3   4
ATOM      4  N   UNL A   1      32.497  29.644  24.816  1.00  0.00    -0.351 N 
ATOM      5  C   UNL A   1      32.655  28.550  24.020  1.00  0.00     0.281 C 
ATOM      6  O   UNL A   1      33.793  28.066  24.049  1.00  0.00    -0.268 OA
ATOM      7  H   UNL A   1      33.333  30.002  25.192  1.00  0.00     0.163 HD
BRANCH   5   8
ATOM      8  C   UNL A   1      31.479  27.935  23.137  1.00  0.00     0.176 C 
ATOM      9  C   UNL A   1      30.165  27.653  23.898  1.00  0.00     0.080 C 
ATOM     10  C   UNL A   1      31.908  26.568  22.547  1.00  0.00     0.094 C 
ATOM     11  C   UNL A   1      30.005  26.140  24.051  1.00  0.00     0.022 C 
ATOM     12  C   UNL A   1      30.837  25.524  22.931  1.00  0.00     0.058 C 
BRANCH   8  13
ATOM     13  N   UNL A   1      31.204  28.859  21.991  1.00  0.00    -0.336 N 
ATOM     14  C   UNL A   1      29.924  29.563  22.050  1.00  0.00     0.331 C 
ATOM     15  H   UNL A   1      31.946  29.556  21.964  1.00  0.00     0.346 HD
ATOM     16  H   UNL A   1      31.165  28.272  21.158  1.00  0.00     0.346 HD
ENDBRANCH   8  13
BRANCH  12  17
ATOM     17  S   UNL A   1      31.636  23.858  23.108  1.00  0.00    -0.122 SA
BRANCH  17  18
ATOM     18  C   UNL A   1      33.227  24.044  23.902  1.00  0.00     0.008 A 
ATOM     19  C   UNL A   1      33.399  24.637  25.148  1.00  0.00     0.015 A 
ATOM     20  C   UNL A   1      34.338  23.415  23.311  1.00  0.00     0.018 A 
ATOM     21  C   UNL A   1      34.653  24.628  25.770  1.00  0.00     0.005 A 
ATOM     22  C   UNL A   1      35.615  23.410  23.914  1.00  0.00    -0.047 A 
ATOM     23  C   UNL A   1      35.766  24.007  25.176  1.00  0.00    -0.048 A 
ATOM     24  C   UNL A   1      36.753  22.722  23.206  1.00  0.00     0.044 C 
ATOM     25  C   UNL A   1      37.053  23.975  25.960  1.00  0.00     0.044 C 
ENDBRANCH  17  18
ENDBRANCH  12  17
ENDBRANCH   5   8
ENDBRANCH   3   4
ENDBRANCH   2   3
ENDBRANCH   1   2
BRANCH   1  26
ATOM     26  C   UNL A   1      33.655  32.186  27.350  1.00  0.00     0.116 C 
BRANCH  26  27
ATOM     27  N   UNL A   1      32.931  33.403  27.715  1.00  0.00    -0.352 N 
ATOM     28  C   UNL A   1      33.297  34.352  28.649  1.00  0.00     0.251 C 
ATOM     29  H   UNL A   1      32.084  33.563  27.239  1.00  0.00     0.163 HD
ATOM     30  O   UNL A   1      32.693  35.392  28.798  1.00  0.00    -0.269 OA
BRANCH  28  31
ATOM     31  C   UNL A   1      34.438  34.037  29.521  1.00  0.00     0.039 A 
ATOM     32  C   UNL A   1      34.226  33.204  30.622  1.00  0.00     0.014 A 
ATOM     33  C   UNL A   1      35.715  34.451  29.148  1.00  0.00     0.014 A 
ATOM     34  C   UNL A   1      35.326  32.720  31.323  1.00  0.00     0.010 A 
ATOM     35  C   UNL A   1      36.806  33.892  29.789  1.00  0.00     0.010 A 
ATOM     36  C   UNL A   1      36.622  33.031  30.886  1.00  0.00    -0.014 A 
BRANCH  36  37
ATOM     37  C   UNL A   1      37.827  32.512  31.570  1.00  0.00     0.031 A 
ATOM     38  C   UNL A   1      38.598  31.402  30.915  1.00  0.00     0.074 A 
ATOM     39  C   UNL A   1      38.133  32.929  32.813  1.00  0.00     0.049 A 
ATOM     40  N   UNL A   1      39.543  30.650  31.408  1.00  0.00    -0.248 NA
ATOM     41  C   UNL A   1      38.211  31.057  29.535  1.00  0.00     0.031 C 
ATOM     42  C   UNL A   1      37.407  33.950  33.573  1.00  0.00     0.029 A 
ATOM     43  N   UNL A   1      39.115  32.511  33.676  1.00  0.00    -0.354 N 
ATOM     44  C   UNL A   1      39.809  29.699  30.431  1.00  0.00     0.074 A 
ATOM     45  C   UNL A   1      38.910  29.951  29.329  1.00  0.00     0.031 C 
ATOM     46  C   UNL A   1      37.963  34.072  34.790  1.00  0.00     0.029 A 
ATOM     47  C   UNL A   1      39.059  33.116  34.909  1.00  0.00     0.049 A 
ATOM     48  H   UNL A   1      39.796  31.842  33.433  1.00  0.00     0.167 HD
ATOM     49  C   UNL A   1      40.743  28.720  30.440  1.00  0.00     0.034 A 
ATOM     50  C   UNL A   1      39.800  32.907  36.015  1.00  0.00     0.034 A 
ATOM     51  C   UNL A   1      41.689  28.540  31.505  1.00  0.00     0.049 A 
ATOM     52  C   UNL A   1      40.898  31.877  35.963  1.00  0.00     0.074 A 
ATOM     53  C   UNL A   1      42.752  27.658  31.572  1.00  0.00     0.029 A 
ATOM     54  N   UNL A   1      41.692  29.268  32.685  1.00  0.00    -0.354 N 
ATOM     55  N   UNL A   1      41.233  31.079  34.976  1.00  0.00    -0.248 NA
ATOM     56  C   UNL A   1      41.743  31.742  37.157  1.00  0.00     0.031 C 
ATOM     57  C   UNL A   1      43.395  27.850  32.798  1.00  0.00     0.029 A 
ATOM     58  C   UNL A   1      42.742  28.861  33.487  1.00  0.00     0.049 A 
ATOM     59  H   UNL A   1      41.043  29.970  32.918  1.00  0.00     0.167 HD
ATOM     60  C   UNL A   1      42.345  30.372  35.417  1.00  0.00     0.074 A 
ATOM     61  C   UNL A   1      42.640  30.853  36.753  1.00  0.00     0.031 C 
ATOM     62  C   UNL A   1      43.050  29.402  34.786  1.00  0.00     0.034 A 
BRANCH  49  63
ATOM     63  C   UNL A   1      40.821  27.819  29.238  1.00  0.00     0.023 A 
ATOM     64  C   UNL A   1      40.003  26.671  29.173  1.00  0.00     0.012 A 
ATOM     65  C   UNL A   1      41.676  28.120  28.161  1.00  0.00     0.148 A 
ATOM     66  C   UNL A   1      40.064  25.816  28.074  1.00  0.00     0.002 A 
ATOM     67  C   UNL A   1      41.696  27.288  27.047  1.00  0.00     0.091 A 
ATOM     68  F   UNL A   1      42.466  29.199  28.252  1.00  0.00    -0.205 F 
ATOM     69  C   UNL A   1      40.902  26.130  27.007  1.00  0.00     0.022 A 
BRANCH  67  70
ATOM     70  S   UNL A   1      42.681  27.648  25.589  1.00  0.00     0.127 S 
ATOM     71  O   UNL A   1      42.461  26.449  24.781  1.00  0.00    -0.237 OA
ATOM     72  O   UNL A   1      42.037  28.856  25.073  1.00  0.00    -0.237 OA
ATOM     73  O   UNL A   1      44.044  27.842  26.063  1.00  0.00    -0.744 OA
ENDBRANCH  67  70
ENDBRANCH  49  63
BRANCH  50  74
ATOM     74  C   UNL A   1      39.577  33.737  37.232  1.00  0.00     0.023 A 
ATOM     75  C   UNL A   1      40.061  35.060  37.257  1.00  0.00     0.012 A 
ATOM     76  C   UNL A   1      38.859  33.249  38.341  1.00  0.00     0.148 A 
ATOM     77  C   UNL A   1      39.861  35.871  38.375  1.00  0.00     0.002 A 
ATOM     78  C   UNL A   1      38.617  34.080  39.429  1.00  0.00     0.091 A 
ATOM     79  F   UNL A   1      38.415  31.985  38.303  1.00  0.00    -0.205 F 
ATOM     80  C   UNL A   1      39.130  35.386  39.456  1.00  0.00     0.022 A 
BRANCH  78  81
ATOM     81  S   UNL A   1      37.574  33.584  40.807  1.00  0.00     0.127 S 
ATOM     82  O   UNL A   1      38.412  32.592  41.475  1.00  0.00    -0.237 OA
ATOM     83  O   UNL A   1      37.412  34.844  41.534  1.00  0.00    -0.237 OA
ATOM     84  O   UNL A   1      36.347  33.080  40.205  1.00  0.00    -0.744 OA
ENDBRANCH  78  81
ENDBRANCH  50  74
BRANCH  62  85
ATOM     85  C   UNL A   1      44.233  28.816  35.508  1.00  0.00     0.023 A 
ATOM     86  C   UNL A   1      45.514  29.363  35.306  1.00  0.00     0.012 A 
ATOM     87  C   UNL A   1      44.056  27.790  36.456  1.00  0.00     0.148 A 
ATOM     88  C   UNL A   1      46.609  28.879  36.020  1.00  0.00     0.002 A 
ATOM     89  C   UNL A   1      45.143  27.345  37.198  1.00  0.00     0.091 A 
ATOM     90  F   UNL A   1      42.830  27.271  36.618  1.00  0.00    -0.205 F 
ATOM     91  C   UNL A   1      46.421  27.881  36.974  1.00  0.00     0.022 A 
BRANCH  89  92
ATOM     92  S   UNL A   1      44.973  26.134  38.514  1.00  0.00     0.127 S 
ATOM     93  O   UNL A   1      44.563  24.944  37.773  1.00  0.00    -0.237 OA
ATOM     94  O   UNL A   1      46.328  26.077  39.062  1.00  0.00    -0.237 OA
ATOM     95  O   UNL A   1      43.978  26.678  39.429  1.00  0.00    -0.744 OA
ENDBRANCH  89  92
ENDBRANCH  62  85
ENDBRANCH  36  37
ENDBRANCH  28  31
ENDBRANCH  26  27
ENDBRANCH   1  26
TORSDOF 17
ENDMDL
MODEL 3
REMARK VINA RESULT:     -11.8      1.452      7.650
REMARK SMILES C[NH2+][C@@]1(C(=O)NCCCCNC(=O)c2ccc(-c3c4nc(c(-c5cccc(S(=O)(=O)[O-])c5F)c5ccc([nH]5)c(-c5cccc(S(=O)(=O)[O-])c5F)c5nc(c(-c6cccc(S(=O)(=O)[O-])c6F)c6ccc3[nH]6)C=C5)C=C4)cc2)CC[C@H](Sc2ccc(C)c(C)c2)C1
REMARK SMILES IDX 9 1 8 2 7 3 6 4 4 5 5 6 3 8 77 9 89 10 78 11 79 12 2 13 1 14
REMARK SMILES IDX 80 17 81 18 82 19 88 20 83 21 86 22 84 23 87 24 85 25 10 26
REMARK SMILES IDX 11 27 12 28 13 30 14 31 15 32 76 33 16 34 75 35 17 36 18 37
REMARK SMILES IDX 19 38 69 39 20 40 74 41 68 42 70 43 21 44 73 45 67 46 66 47
REMARK SMILES IDX 22 49 54 50 34 51 53 52 35 53 38 54 52 55 71 56 36 57 37 58
REMARK SMILES IDX 51 60 72 61 39 62 23 63 24 64 32 65 25 66 27 67 33 68 26 69
REMARK SMILES IDX 28 70 29 71 30 72 31 73 55 74 56 75 64 76 57 77 59 78 65 79
REMARK SMILES IDX 58 80 60 81 61 82 62 83 63 84 40 85 41 86 49 87 42 88 44 89
REMARK SMILES IDX 50 90 43 91 45 92 46 93 47 94 48 95
REMARK H PARENT 6 7 2 15 2 16 11 29 70 48 38 59
REMARK Flexibility Score: inf
ROOT
ATOM      1  C   UNL A   1      32.509  28.553  27.275  1.00  0.00     0.023 C 
ENDROOT
BRANCH   1   2
ATOM      2  C   UNL A   1      31.432  27.616  26.762  1.00  0.00     0.023 C 
BRANCH   2   3
ATOM      3  C   UNL A   1      31.919  26.248  26.314  1.00  0.00     0.116 C 
BRANCH   3   4
ATOM      4  N   UNL A   1      31.238  25.167  26.969  1.00  0.00    -0.351 N 
ATOM      5  C   UNL A   1      31.400  23.819  26.861  1.00  0.00     0.281 C 
ATOM      6  O   UNL A   1      30.519  23.158  27.426  1.00  0.00    -0.268 OA
ATOM      7  H   UNL A   1      30.537  25.446  27.601  1.00  0.00     0.163 HD
BRANCH   5   8
ATOM      8  C   UNL A   1      32.608  23.145  26.068  1.00  0.00     0.176 C 
ATOM      9  C   UNL A   1      33.976  23.839  26.243  1.00  0.00     0.080 C 
ATOM     10  C   UNL A   1      32.332  23.171  24.543  1.00  0.00     0.094 C 
ATOM     11  C   UNL A   1      34.332  24.552  24.938  1.00  0.00     0.022 C 
ATOM     12  C   UNL A   1      33.541  23.836  23.850  1.00  0.00     0.058 C 
BRANCH   8  13
ATOM     13  N   UNL A   1      32.717  21.711  26.486  1.00  0.00    -0.336 N 
ATOM     14  C   UNL A   1      33.897  21.381  27.282  1.00  0.00     0.331 C 
ATOM     15  H   UNL A   1      31.891  21.479  27.036  1.00  0.00     0.346 HD
ATOM     16  H   UNL A   1      32.799  21.171  25.624  1.00  0.00     0.346 HD
ENDBRANCH   8  13
BRANCH  12  17
ATOM     17  S   UNL A   1      32.967  24.713  22.319  1.00  0.00    -0.122 SA
BRANCH  17  18
ATOM     18  C   UNL A   1      32.122  26.221  22.779  1.00  0.00     0.008 A 
ATOM     19  C   UNL A   1      32.714  27.478  22.733  1.00  0.00     0.015 A 
ATOM     20  C   UNL A   1      30.743  26.150  23.049  1.00  0.00     0.018 A 
ATOM     21  C   UNL A   1      31.955  28.628  22.977  1.00  0.00     0.005 A 
ATOM     22  C   UNL A   1      29.964  27.296  23.315  1.00  0.00    -0.047 A 
ATOM     23  C   UNL A   1      30.578  28.558  23.254  1.00  0.00    -0.048 A 
ATOM     24  C   UNL A   1      28.494  27.129  23.604  1.00  0.00     0.044 C 
ATOM     25  C   UNL A   1      29.829  29.855  23.420  1.00  0.00     0.044 C 
ENDBRANCH  17  18
ENDBRANCH  12  17
ENDBRANCH   5   8
ENDBRANCH   3   4
ENDBRANCH   2   3
ENDBRANCH   1   2
BRANCH   1  26
ATOM     26  C   UNL A   1      32.896  29.687  26.338  1.00  0.00     0.116 C 
BRANCH  26  27
ATOM     27  N   UNL A   1      32.447  31.020  26.739  1.00  0.00    -0.352 N 
ATOM     28  C   UNL A   1      33.197  32.017  27.333  1.00  0.00     0.251 C 
ATOM     29  H   UNL A   1      31.501  31.230  26.567  1.00  0.00     0.163 HD
ATOM     30  O   UNL A   1      32.769  33.135  27.520  1.00  0.00    -0.269 OA
BRANCH  28  31
ATOM     31  C   UNL A   1      34.546  31.663  27.795  1.00  0.00     0.039 A 
ATOM     32  C   UNL A   1      35.513  32.669  27.865  1.00  0.00     0.014 A 
ATOM     33  C   UNL A   1      34.785  30.381  28.287  1.00  0.00     0.014 A 
ATOM     34  C   UNL A   1      36.720  32.402  28.504  1.00  0.00     0.010 A 
ATOM     35  C   UNL A   1      35.945  30.151  29.003  1.00  0.00     0.010 A 
ATOM     36  C   UNL A   1      36.925  31.154  29.110  1.00  0.00    -0.014 A 
BRANCH  36  37
ATOM     37  C   UNL A   1      38.173  30.830  29.835  1.00  0.00     0.031 A 
ATOM     38  C   UNL A   1      39.147  29.883  29.193  1.00  0.00     0.074 A 
ATOM     39  C   UNL A   1      38.356  31.261  31.098  1.00  0.00     0.049 A 
ATOM     40  N   UNL A   1      40.186  29.289  29.711  1.00  0.00    -0.248 NA
ATOM     41  C   UNL A   1      38.878  29.513  27.791  1.00  0.00     0.031 C 
ATOM     42  C   UNL A   1      37.438  32.124  31.845  1.00  0.00     0.029 A 
ATOM     43  N   UNL A   1      39.360  30.993  31.993  1.00  0.00    -0.354 N 
ATOM     44  C   UNL A   1      40.648  28.422  28.729  1.00  0.00     0.074 A 
ATOM     45  C   UNL A   1      39.762  28.547  27.595  1.00  0.00     0.031 C 
ATOM     46  C   UNL A   1      37.917  32.306  33.086  1.00  0.00     0.029 A 
ATOM     47  C   UNL A   1      39.154  31.547  33.235  1.00  0.00     0.049 A 
ATOM     48  H   UNL A   1      40.154  30.455  31.768  1.00  0.00     0.167 HD
ATOM     49  C   UNL A   1      41.734  27.616  28.760  1.00  0.00     0.034 A 
ATOM     50  C   UNL A   1      39.877  31.438  34.367  1.00  0.00     0.034 A 
ATOM     51  C   UNL A   1      42.654  27.571  29.860  1.00  0.00     0.049 A 
ATOM     52  C   UNL A   1      41.135  30.610  34.342  1.00  0.00     0.074 A 
ATOM     53  C   UNL A   1      43.848  26.880  29.956  1.00  0.00     0.029 A 
ATOM     54  N   UNL A   1      42.488  28.259  31.053  1.00  0.00    -0.354 N 
ATOM     55  N   UNL A   1      41.638  29.907  33.356  1.00  0.00    -0.248 NA
ATOM     56  C   UNL A   1      41.943  30.590  35.569  1.00  0.00     0.031 C 
ATOM     57  C   UNL A   1      44.402  27.147  31.212  1.00  0.00     0.029 A 
ATOM     58  C   UNL A   1      43.560  28.014  31.892  1.00  0.00     0.049 A 
ATOM     59  H   UNL A   1      41.720  28.835  31.271  1.00  0.00     0.167 HD
ATOM     60  C   UNL A   1      42.837  29.387  33.831  1.00  0.00     0.074 A 
ATOM     61  C   UNL A   1      42.994  29.876  35.187  1.00  0.00     0.031 C 
ATOM     62  C   UNL A   1      43.720  28.566  33.212  1.00  0.00     0.034 A 
BRANCH  49  63
ATOM     63  C   UNL A   1      42.010  26.772  27.546  1.00  0.00     0.023 A 
ATOM     64  C   UNL A   1      42.565  27.367  26.394  1.00  0.00     0.012 A 
ATOM     65  C   UNL A   1      41.753  25.388  27.551  1.00  0.00     0.148 A 
ATOM     66  C   UNL A   1      42.822  26.608  25.254  1.00  0.00     0.002 A 
ATOM     67  C   UNL A   1      42.056  24.628  26.427  1.00  0.00     0.091 A 
ATOM     68  F   UNL A   1      41.199  24.844  28.644  1.00  0.00    -0.205 F 
ATOM     69  C   UNL A   1      42.577  25.238  25.274  1.00  0.00     0.022 A 
BRANCH  67  70
ATOM     70  S   UNL A   1      41.852  22.844  26.381  1.00  0.00     0.127 S 
ATOM     71  O   UNL A   1      42.547  22.435  27.600  1.00  0.00    -0.237 OA
ATOM     72  O   UNL A   1      40.396  22.700  26.432  1.00  0.00    -0.237 OA
ATOM     73  O   UNL A   1      42.461  22.403  25.134  1.00  0.00    -0.744 OA
ENDBRANCH  67  70
ENDBRANCH  49  63
BRANCH  50  74
ATOM     74  C   UNL A   1      39.468  32.187  35.589  1.00  0.00     0.023 A 
ATOM     75  C   UNL A   1      39.840  33.540  35.719  1.00  0.00     0.012 A 
ATOM     76  C   UNL A   1      38.686  31.591  36.596  1.00  0.00     0.148 A 
ATOM     77  C   UNL A   1      39.465  34.276  36.844  1.00  0.00     0.002 A 
ATOM     78  C   UNL A   1      38.272  32.345  37.689  1.00  0.00     0.091 A 
ATOM     79  F   UNL A   1      38.351  30.300  36.460  1.00  0.00    -0.205 F 
ATOM     80  C   UNL A   1      38.673  33.684  37.822  1.00  0.00     0.022 A 
BRANCH  78  81
ATOM     81  S   UNL A   1      37.141  31.704  38.930  1.00  0.00     0.127 S 
ATOM     82  O   UNL A   1      36.015  32.626  38.814  1.00  0.00    -0.237 OA
ATOM     83  O   UNL A   1      36.883  30.351  38.436  1.00  0.00    -0.237 OA
ATOM     84  O   UNL A   1      37.875  31.751  40.187  1.00  0.00    -0.744 OA
ENDBRANCH  78  81
ENDBRANCH  50  74
BRANCH  62  85
ATOM     85  C   UNL A   1      44.957  28.170  33.973  1.00  0.00     0.023 A 
ATOM     86  C   UNL A   1      46.098  28.992  33.924  1.00  0.00     0.012 A 
ATOM     87  C   UNL A   1      44.950  27.037  34.809  1.00  0.00     0.148 A 
ATOM     88  C   UNL A   1      47.228  28.678  34.678  1.00  0.00     0.002 A 
ATOM     89  C   UNL A   1      46.061  26.756  35.594  1.00  0.00     0.091 A 
ATOM     90  F   UNL A   1      43.858  26.258  34.825  1.00  0.00    -0.205 F 
ATOM     91  C   UNL A   1      47.204  27.569  35.523  1.00  0.00     0.022 A 
BRANCH  89  92
ATOM     92  S   UNL A   1      46.079  25.408  36.781  1.00  0.00     0.127 S 
ATOM     93  O   UNL A   1      45.728  24.266  35.940  1.00  0.00    -0.237 OA
ATOM     94  O   UNL A   1      47.466  25.420  37.246  1.00  0.00    -0.237 OA
ATOM     95  O   UNL A   1      45.101  25.761  37.801  1.00  0.00    -0.744 OA
ENDBRANCH  89  92
ENDBRANCH  62  85
ENDBRANCH  36  37
ENDBRANCH  28  31
ENDBRANCH  26  27
ENDBRANCH   1  26
TORSDOF 17
ENDMDL
