MODEL 1
REMARK VINA RESULT:     -10.5      0.000      0.000
REMARK SMILES C#CCN(CC(=O)NCCCCNC(=O)c1ccc(-c2c3nc(c(-c4cccc(S(=O)(=O)[O-])c4F)c4ccc([nH]4)c(-c4cccc(S(=O)(=O)[O-])c4F)c4nc(c(-c5cccc(S(=O)(=O)[O-])c5F)c5ccc2[nH]5)C=C4)C=C3)cc1)C(=O)CCc1ccc(Cl)cc1Cl
REMARK SMILES IDX 9 1 8 2 6 3 7 4 5 6 4 7 3 8 2 9 1 10 79 11 80 12 81 13 82 14
REMARK SMILES IDX 83 15 84 16 89 17 85 18 88 19 90 20 86 21 87 22 10 23 11 24
REMARK SMILES IDX 12 25 13 26 14 27 15 29 16 30 17 31 78 32 18 33 77 34 19 35
REMARK SMILES IDX 20 36 21 37 71 38 22 39 76 40 70 41 72 42 23 43 75 44 69 45
REMARK SMILES IDX 68 46 24 48 56 49 36 50 55 51 37 52 40 53 54 54 73 55 38 56
REMARK SMILES IDX 39 57 53 59 74 60 41 61 25 62 26 63 34 64 27 65 29 66 35 67
REMARK SMILES IDX 28 68 30 69 31 70 32 71 33 72 57 73 58 74 66 75 59 76 61 77
REMARK SMILES IDX 67 78 60 79 62 80 63 81 64 82 65 83 42 84 43 85 51 86 44 87
REMARK SMILES IDX 46 88 52 89 45 90 47 91 48 92 49 93 50 94
REMARK H PARENT 8 5 13 28 72 47 40 58
REMARK Flexibility Score: inf
ROOT
ATOM      1  C   UNL A   1      35.368  22.474  25.982  1.00  0.00     0.116 C 
ENDROOT
BRANCH   1   2
ATOM      2  N   UNL A   1      34.218  22.510  26.848  1.00  0.00    -0.355 N 
ATOM      3  C   UNL A   1      32.951  22.890  26.547  1.00  0.00     0.239 C 
ATOM      4  O   UNL A   1      32.131  22.972  27.464  1.00  0.00    -0.273 OA
ATOM      5  H   UNL A   1      34.371  22.223  27.778  1.00  0.00     0.163 HD
BRANCH   3   6
ATOM      6  C   UNL A   1      32.541  23.141  25.091  1.00  0.00     0.220 C 
BRANCH   6   7
ATOM      7  N   UNL A   1      32.103  24.482  24.691  1.00  0.00    -0.322 N 
BRANCH   7   8
ATOM      8  C   UNL A   1      31.036  24.561  23.682  1.00  0.00     0.209 C 
BRANCH   8   9
ATOM      9  C   UNL A   1      29.971  25.592  24.020  1.00  0.00    -0.085 C 
ATOM     10  C   UNL A   1      29.058  26.476  24.309  1.00  0.00     0.006 C 
ENDBRANCH   8   9
ENDBRANCH   7   8
BRANCH   7  11
ATOM     11  C   UNL A   1      32.682  25.661  25.162  1.00  0.00     0.224 C 
ATOM     12  O   UNL A   1      32.433  26.102  26.289  1.00  0.00    -0.275 OA
BRANCH  11  13
ATOM     13  C   UNL A   1      33.661  26.445  24.291  1.00  0.00     0.105 C 
BRANCH  13  14
ATOM     14  C   UNL A   1      33.555  27.974  24.428  1.00  0.00     0.047 C 
BRANCH  14  15
ATOM     15  C   UNL A   1      32.195  28.506  24.019  1.00  0.00    -0.029 A 
ATOM     16  C   UNL A   1      31.804  28.360  22.672  1.00  0.00     0.007 A 
ATOM     17  C   UNL A   1      31.400  29.295  24.866  1.00  0.00     0.045 A 
ATOM     18  C   UNL A   1      30.727  29.091  22.161  1.00  0.00     0.021 A 
ATOM     19  C   UNL A   1      30.337  30.041  24.350  1.00  0.00     0.041 A 
ATOM     20  Cl  UNL A   1      31.711  29.427  26.557  1.00  0.00    -0.084 Cl
ATOM     21  C   UNL A   1      30.026  29.957  22.995  1.00  0.00     0.042 A 
ATOM     22  Cl  UNL A   1      28.810  30.982  22.338  1.00  0.00    -0.084 Cl
ENDBRANCH  14  15
ENDBRANCH  13  14
ENDBRANCH  11  13
ENDBRANCH   7  11
ENDBRANCH   6   7
ENDBRANCH   3   6
ENDBRANCH   1   2
BRANCH   1  23
ATOM     23  C   UNL A   1      35.650  21.046  25.525  1.00  0.00     0.023 C 
BRANCH  23  24
ATOM     24  C   UNL A   1      37.002  20.863  24.831  1.00  0.00     0.023 C 
BRANCH  24  25
ATOM     25  C   UNL A   1      38.176  21.533  25.532  1.00  0.00     0.116 C 
BRANCH  25  26
ATOM     26  N   UNL A   1      39.210  20.592  25.937  1.00  0.00    -0.352 N 
ATOM     27  C   UNL A   1      40.383  20.861  26.602  1.00  0.00     0.251 C 
ATOM     28  H   UNL A   1      39.051  19.649  25.706  1.00  0.00     0.163 HD
ATOM     29  O   UNL A   1      41.198  19.979  26.814  1.00  0.00    -0.269 OA
BRANCH  27  30
ATOM     30  C   UNL A   1      40.646  22.254  27.009  1.00  0.00     0.039 A 
ATOM     31  C   UNL A   1      41.375  22.479  28.177  1.00  0.00     0.014 A 
ATOM     32  C   UNL A   1      40.242  23.317  26.196  1.00  0.00     0.014 A 
ATOM     33  C   UNL A   1      41.751  23.781  28.505  1.00  0.00     0.010 A 
ATOM     34  C   UNL A   1      40.676  24.603  26.490  1.00  0.00     0.010 A 
ATOM     35  C   UNL A   1      41.429  24.848  27.649  1.00  0.00    -0.014 A 
BRANCH  35  36
ATOM     36  C   UNL A   1      41.878  26.228  27.948  1.00  0.00     0.031 A 
ATOM     37  C   UNL A   1      43.282  26.649  27.616  1.00  0.00     0.074 A 
ATOM     38  C   UNL A   1      41.048  27.072  28.591  1.00  0.00     0.049 A 
ATOM     39  N   UNL A   1      43.871  27.794  27.834  1.00  0.00    -0.248 NA
ATOM     40  C   UNL A   1      44.149  25.640  26.981  1.00  0.00     0.031 C 
ATOM     41  C   UNL A   1      39.693  26.747  29.044  1.00  0.00     0.029 A 
ATOM     42  N   UNL A   1      41.231  28.369  29.000  1.00  0.00    -0.354 N 
ATOM     43  C   UNL A   1      45.181  27.636  27.399  1.00  0.00     0.074 A 
ATOM     44  C   UNL A   1      45.312  26.271  26.937  1.00  0.00     0.031 C 
ATOM     45  C   UNL A   1      39.167  27.817  29.662  1.00  0.00     0.029 A 
ATOM     46  C   UNL A   1      40.151  28.895  29.670  1.00  0.00     0.049 A 
ATOM     47  H   UNL A   1      42.058  28.876  28.828  1.00  0.00     0.167 HD
ATOM     48  C   UNL A   1      46.176  28.552  27.356  1.00  0.00     0.034 A 
ATOM     49  C   UNL A   1      39.977  30.109  30.228  1.00  0.00     0.034 A 
ATOM     50  C   UNL A   1      46.023  29.921  27.766  1.00  0.00     0.049 A 
ATOM     51  C   UNL A   1      41.079  31.128  30.111  1.00  0.00     0.074 A 
ATOM     52  C   UNL A   1      46.937  30.955  27.674  1.00  0.00     0.029 A 
ATOM     53  N   UNL A   1      44.880  30.447  28.350  1.00  0.00    -0.354 N 
ATOM     54  N   UNL A   1      42.253  31.010  29.540  1.00  0.00    -0.248 NA
ATOM     55  C   UNL A   1      40.817  32.458  30.679  1.00  0.00     0.031 C 
ATOM     56  C   UNL A   1      46.353  32.103  28.217  1.00  0.00     0.029 A 
ATOM     57  C   UNL A   1      45.067  31.790  28.628  1.00  0.00     0.049 A 
ATOM     58  H   UNL A   1      44.058  29.940  28.538  1.00  0.00     0.167 HD
ATOM     59  C   UNL A   1      42.856  32.258  29.648  1.00  0.00     0.074 A 
ATOM     60  C   UNL A   1      41.907  33.123  30.319  1.00  0.00     0.031 C 
ATOM     61  C   UNL A   1      44.090  32.649  29.244  1.00  0.00     0.034 A 
BRANCH  48  62
ATOM     62  C   UNL A   1      47.501  28.120  26.785  1.00  0.00     0.023 A 
ATOM     63  C   UNL A   1      48.568  27.825  27.660  1.00  0.00     0.012 A 
ATOM     64  C   UNL A   1      47.677  27.953  25.399  1.00  0.00     0.148 A 
ATOM     65  C   UNL A   1      49.799  27.403  27.161  1.00  0.00     0.002 A 
ATOM     66  C   UNL A   1      48.894  27.490  24.912  1.00  0.00     0.091 A 
ATOM     67  F   UNL A   1      46.659  28.262  24.583  1.00  0.00    -0.205 F 
ATOM     68  C   UNL A   1      49.958  27.225  25.791  1.00  0.00     0.022 A 
BRANCH  66  69
ATOM     69  S   UNL A   1      49.177  27.156  23.170  1.00  0.00     0.127 S 
ATOM     70  O   UNL A   1      50.614  26.884  23.152  1.00  0.00    -0.237 OA
ATOM     71  O   UNL A   1      48.332  25.984  22.940  1.00  0.00    -0.237 OA
ATOM     72  O   UNL A   1      48.758  28.355  22.459  1.00  0.00    -0.744 OA
ENDBRANCH  66  69
ENDBRANCH  48  62
BRANCH  49  73
ATOM     73  C   UNL A   1      38.680  30.452  30.875  1.00  0.00     0.023 A 
ATOM     74  C   UNL A   1      38.471  30.110  32.226  1.00  0.00     0.012 A 
ATOM     75  C   UNL A   1      37.667  31.137  30.176  1.00  0.00     0.148 A 
ATOM     76  C   UNL A   1      37.264  30.414  32.858  1.00  0.00     0.002 A 
ATOM     77  C   UNL A   1      36.489  31.484  30.828  1.00  0.00     0.091 A 
ATOM     78  F   UNL A   1      37.879  31.443  28.889  1.00  0.00    -0.205 F 
ATOM     79  C   UNL A   1      36.279  31.109  32.165  1.00  0.00     0.022 A 
BRANCH  77  80
ATOM     80  S   UNL A   1      35.223  32.493  30.049  1.00  0.00     0.127 S 
ATOM     81  O   UNL A   1      34.792  31.634  28.949  1.00  0.00    -0.237 OA
ATOM     82  O   UNL A   1      34.249  32.648  31.130  1.00  0.00    -0.237 OA
ATOM     83  O   UNL A   1      35.891  33.729  29.667  1.00  0.00    -0.744 OA
ENDBRANCH  77  80
ENDBRANCH  49  73
BRANCH  61  84
ATOM     84  C   UNL A   1      44.480  34.083  29.483  1.00  0.00     0.023 A 
ATOM     85  C   UNL A   1      45.147  34.436  30.673  1.00  0.00     0.012 A 
ATOM     86  C   UNL A   1      44.259  35.063  28.495  1.00  0.00     0.148 A 
ATOM     87  C   UNL A   1      45.562  35.749  30.888  1.00  0.00     0.002 A 
ATOM     88  C   UNL A   1      44.719  36.359  28.696  1.00  0.00     0.091 A 
ATOM     89  F   UNL A   1      43.606  34.710  27.379  1.00  0.00    -0.205 F 
ATOM     90  C   UNL A   1      45.361  36.707  29.896  1.00  0.00     0.022 A 
BRANCH  88  91
ATOM     91  S   UNL A   1      44.589  37.630  27.433  1.00  0.00     0.127 S 
ATOM     92  O   UNL A   1      45.742  37.329  26.587  1.00  0.00    -0.237 OA
ATOM     93  O   UNL A   1      43.291  37.333  26.825  1.00  0.00    -0.237 OA
ATOM     94  O   UNL A   1      44.646  38.902  28.140  1.00  0.00    -0.744 OA
ENDBRANCH  88  91
ENDBRANCH  61  84
ENDBRANCH  35  36
ENDBRANCH  27  30
ENDBRANCH  25  26
ENDBRANCH  24  25
ENDBRANCH  23  24
ENDBRANCH   1  23
TORSDOF 21
ENDMDL
MODEL 2
REMARK VINA RESULT:     -10.4      5.640     10.801
REMARK SMILES C#CCN(CC(=O)NCCCCNC(=O)c1ccc(-c2c3nc(c(-c4cccc(S(=O)(=O)[O-])c4F)c4ccc([nH]4)c(-c4cccc(S(=O)(=O)[O-])c4F)c4nc(c(-c5cccc(S(=O)(=O)[O-])c5F)c5ccc2[nH]5)C=C4)C=C3)cc1)C(=O)CCc1ccc(Cl)cc1Cl
REMARK SMILES IDX 9 1 8 2 6 3 7 4 5 6 4 7 3 8 2 9 1 10 79 11 80 12 81 13 82 14
REMARK SMILES IDX 83 15 84 16 89 17 85 18 88 19 90 20 86 21 87 22 10 23 11 24
REMARK SMILES IDX 12 25 13 26 14 27 15 29 16 30 17 31 78 32 18 33 77 34 19 35
REMARK SMILES IDX 20 36 21 37 71 38 22 39 76 40 70 41 72 42 23 43 75 44 69 45
REMARK SMILES IDX 68 46 24 48 56 49 36 50 55 51 37 52 40 53 54 54 73 55 38 56
REMARK SMILES IDX 39 57 53 59 74 60 41 61 25 62 26 63 34 64 27 65 29 66 35 67
REMARK SMILES IDX 28 68 30 69 31 70 32 71 33 72 57 73 58 74 66 75 59 76 61 77
REMARK SMILES IDX 67 78 60 79 62 80 63 81 64 82 65 83 42 84 43 85 51 86 44 87
REMARK SMILES IDX 46 88 52 89 45 90 47 91 48 92 49 93 50 94
REMARK H PARENT 8 5 13 28 72 47 40 58
REMARK Flexibility Score: inf
ROOT
ATOM      1  C   UNL A   1      32.033  29.180  25.435  1.00  0.00     0.116 C 
ENDROOT
BRANCH   1   2
ATOM      2  N   UNL A   1      30.970  29.622  24.570  1.00  0.00    -0.355 N 
ATOM      3  C   UNL A   1      30.782  29.340  23.257  1.00  0.00     0.239 C 
ATOM      4  O   UNL A   1      29.876  29.920  22.657  1.00  0.00    -0.273 OA
ATOM      5  H   UNL A   1      30.292  30.204  24.985  1.00  0.00     0.163 HD
BRANCH   3   6
ATOM      6  C   UNL A   1      31.638  28.274  22.562  1.00  0.00     0.220 C 
BRANCH   6   7
ATOM      7  N   UNL A   1      31.229  26.867  22.635  1.00  0.00    -0.322 N 
BRANCH   7   8
ATOM      8  C   UNL A   1      29.926  26.584  23.255  1.00  0.00     0.209 C 
BRANCH   8   9
ATOM      9  C   UNL A   1      30.040  26.137  24.704  1.00  0.00    -0.085 C 
ATOM     10  C   UNL A   1      30.138  25.754  25.947  1.00  0.00     0.006 C 
ENDBRANCH   8   9
ENDBRANCH   7   8
BRANCH   7  11
ATOM     11  C   UNL A   1      32.027  25.804  22.212  1.00  0.00     0.224 C 
ATOM     12  O   UNL A   1      32.324  25.647  21.023  1.00  0.00    -0.275 OA
BRANCH  11  13
ATOM     13  C   UNL A   1      32.572  24.795  23.221  1.00  0.00     0.105 C 
BRANCH  13  14
ATOM     14  C   UNL A   1      33.198  23.538  22.593  1.00  0.00     0.047 C 
BRANCH  14  15
ATOM     15  C   UNL A   1      34.282  22.927  23.459  1.00  0.00    -0.029 A 
ATOM     16  C   UNL A   1      35.614  23.337  23.242  1.00  0.00     0.007 A 
ATOM     17  C   UNL A   1      34.046  21.847  24.326  1.00  0.00     0.045 A 
ATOM     18  C   UNL A   1      36.679  22.602  23.770  1.00  0.00     0.021 A 
ATOM     19  C   UNL A   1      35.111  21.102  24.836  1.00  0.00     0.041 A 
ATOM     20  Cl  UNL A   1      32.453  21.355  24.767  1.00  0.00    -0.084 Cl
ATOM     21  C   UNL A   1      36.420  21.465  24.531  1.00  0.00     0.042 A 
ATOM     22  Cl  UNL A   1      37.722  20.464  25.044  1.00  0.00    -0.084 Cl
ENDBRANCH  14  15
ENDBRANCH  13  14
ENDBRANCH  11  13
ENDBRANCH   7  11
ENDBRANCH   6   7
ENDBRANCH   3   6
ENDBRANCH   1   2
BRANCH   1  23
ATOM     23  C   UNL A   1      31.925  29.847  26.802  1.00  0.00     0.023 C 
BRANCH  23  24
ATOM     24  C   UNL A   1      31.754  31.368  26.748  1.00  0.00     0.023 C 
BRANCH  24  25
ATOM     25  C   UNL A   1      32.974  32.165  27.189  1.00  0.00     0.116 C 
BRANCH  25  26
ATOM     26  N   UNL A   1      32.656  33.535  27.564  1.00  0.00    -0.352 N 
ATOM     27  C   UNL A   1      33.291  34.326  28.491  1.00  0.00     0.251 C 
ATOM     28  H   UNL A   1      31.891  33.943  27.097  1.00  0.00     0.163 HD
ATOM     29  O   UNL A   1      32.868  35.438  28.758  1.00  0.00    -0.269 OA
BRANCH  27  30
ATOM     30  C   UNL A   1      34.469  33.773  29.184  1.00  0.00     0.039 A 
ATOM     31  C   UNL A   1      34.264  32.880  30.236  1.00  0.00     0.014 A 
ATOM     32  C   UNL A   1      35.758  34.076  28.738  1.00  0.00     0.014 A 
ATOM     33  C   UNL A   1      35.362  32.243  30.812  1.00  0.00     0.010 A 
ATOM     34  C   UNL A   1      36.843  33.389  29.269  1.00  0.00     0.010 A 
ATOM     35  C   UNL A   1      36.655  32.471  30.313  1.00  0.00    -0.014 A 
BRANCH  35  36
ATOM     36  C   UNL A   1      37.825  31.751  30.870  1.00  0.00     0.031 A 
ATOM     37  C   UNL A   1      38.371  32.135  32.217  1.00  0.00     0.074 A 
ATOM     38  C   UNL A   1      38.442  30.811  30.128  1.00  0.00     0.049 A 
ATOM     39  N   UNL A   1      39.405  31.653  32.854  1.00  0.00    -0.248 NA
ATOM     40  C   UNL A   1      37.681  33.225  32.930  1.00  0.00     0.031 C 
ATOM     41  C   UNL A   1      38.057  30.416  28.771  1.00  0.00     0.029 A 
ATOM     42  N   UNL A   1      39.541  30.035  30.400  1.00  0.00    -0.354 N 
ATOM     43  C   UNL A   1      39.513  32.400  34.020  1.00  0.00     0.074 A 
ATOM     44  C   UNL A   1      38.461  33.392  33.988  1.00  0.00     0.031 C 
ATOM     45  C   UNL A   1      38.902  29.469  28.331  1.00  0.00     0.029 A 
ATOM     46  C   UNL A   1      39.900  29.205  29.363  1.00  0.00     0.049 A 
ATOM     47  H   UNL A   1      40.025  30.069  31.256  1.00  0.00     0.167 HD
ATOM     48  C   UNL A   1      40.387  32.251  35.042  1.00  0.00     0.034 A 
ATOM     49  C   UNL A   1      40.920  28.331  29.260  1.00  0.00     0.034 A 
ATOM     50  C   UNL A   1      41.395  31.228  35.093  1.00  0.00     0.049 A 
ATOM     51  C   UNL A   1      41.840  28.143  30.436  1.00  0.00     0.074 A 
ATOM     52  C   UNL A   1      42.268  30.929  36.124  1.00  0.00     0.029 A 
ATOM     53  N   UNL A   1      41.667  30.337  34.065  1.00  0.00    -0.354 N 
ATOM     54  N   UNL A   1      41.820  28.742  31.602  1.00  0.00    -0.248 NA
ATOM     55  C   UNL A   1      42.899  27.133  30.298  1.00  0.00     0.031 C 
ATOM     56  C   UNL A   1      43.079  29.867  35.713  1.00  0.00     0.029 A 
ATOM     57  C   UNL A   1      42.698  29.491  34.435  1.00  0.00     0.049 A 
ATOM     58  H   UNL A   1      41.197  30.311  33.202  1.00  0.00     0.167 HD
ATOM     59  C   UNL A   1      42.836  28.158  32.349  1.00  0.00     0.074 A 
ATOM     60  C   UNL A   1      43.438  27.141  31.510  1.00  0.00     0.031 C 
ATOM     61  C   UNL A   1      43.246  28.446  33.609  1.00  0.00     0.034 A 
BRANCH  48  62
ATOM     62  C   UNL A   1      40.249  33.178  36.221  1.00  0.00     0.023 A 
ATOM     63  C   UNL A   1      40.876  34.441  36.186  1.00  0.00     0.012 A 
ATOM     64  C   UNL A   1      39.461  32.828  37.334  1.00  0.00     0.148 A 
ATOM     65  C   UNL A   1      40.748  35.327  37.254  1.00  0.00     0.002 A 
ATOM     66  C   UNL A   1      39.302  33.735  38.376  1.00  0.00     0.091 A 
ATOM     67  F   UNL A   1      38.893  31.614  37.359  1.00  0.00    -0.205 F 
ATOM     68  C   UNL A   1      39.954  34.979  38.342  1.00  0.00     0.022 A 
BRANCH  66  69
ATOM     69  S   UNL A   1      38.239  33.413  39.788  1.00  0.00     0.127 S 
ATOM     70  O   UNL A   1      36.968  33.099  39.134  1.00  0.00    -0.237 OA
ATOM     71  O   UNL A   1      38.899  32.269  40.416  1.00  0.00    -0.237 OA
ATOM     72  O   UNL A   1      38.248  34.632  40.583  1.00  0.00    -0.744 OA
ENDBRANCH  66  69
ENDBRANCH  48  62
BRANCH  49  73
ATOM     73  C   UNL A   1      41.075  27.510  28.026  1.00  0.00     0.023 A 
ATOM     74  C   UNL A   1      41.690  28.078  26.893  1.00  0.00     0.012 A 
ATOM     75  C   UNL A   1      40.647  26.170  27.975  1.00  0.00     0.148 A 
ATOM     76  C   UNL A   1      41.845  27.336  25.721  1.00  0.00     0.002 A 
ATOM     77  C   UNL A   1      40.853  25.420  26.822  1.00  0.00     0.091 A 
ATOM     78  F   UNL A   1      40.053  25.651  29.059  1.00  0.00    -0.205 F 
ATOM     79  C   UNL A   1      41.438  26.006  25.688  1.00  0.00     0.022 A 
BRANCH  77  80
ATOM     80  S   UNL A   1      40.478  23.665  26.739  1.00  0.00     0.127 S 
ATOM     81  O   UNL A   1      40.769  23.232  28.103  1.00  0.00    -0.237 OA
ATOM     82  O   UNL A   1      39.058  23.674  26.384  1.00  0.00    -0.237 OA
ATOM     83  O   UNL A   1      41.348  23.130  25.702  1.00  0.00    -0.744 OA
ENDBRANCH  77  80
ENDBRANCH  49  73
BRANCH  61  84
ATOM     84  C   UNL A   1      44.379  27.635  34.177  1.00  0.00     0.023 A 
ATOM     85  C   UNL A   1      45.701  28.112  34.071  1.00  0.00     0.012 A 
ATOM     86  C   UNL A   1      44.126  26.444  34.885  1.00  0.00     0.148 A 
ATOM     87  C   UNL A   1      46.757  27.400  34.637  1.00  0.00     0.002 A 
ATOM     88  C   UNL A   1      45.178  25.765  35.488  1.00  0.00     0.091 A 
ATOM     89  F   UNL A   1      42.864  25.998  34.957  1.00  0.00    -0.205 F 
ATOM     90  C   UNL A   1      46.495  26.235  35.355  1.00  0.00     0.022 A 
BRANCH  88  91
ATOM     91  S   UNL A   1      44.921  24.312  36.513  1.00  0.00     0.127 S 
ATOM     92  O   UNL A   1      44.161  24.867  37.631  1.00  0.00    -0.237 OA
ATOM     93  O   UNL A   1      44.152  23.438  35.626  1.00  0.00    -0.237 OA
ATOM     94  O   UNL A   1      46.250  23.816  36.843  1.00  0.00    -0.744 OA
ENDBRANCH  88  91
ENDBRANCH  61  84
ENDBRANCH  35  36
ENDBRANCH  27  30
ENDBRANCH  25  26
ENDBRANCH  24  25
ENDBRANCH  23  24
ENDBRANCH   1  23
TORSDOF 21
ENDMDL
MODEL 3
REMARK VINA RESULT:     -10.3      5.800     11.010
REMARK SMILES C#CCN(CC(=O)NCCCCNC(=O)c1ccc(-c2c3nc(c(-c4cccc(S(=O)(=O)[O-])c4F)c4ccc([nH]4)c(-c4cccc(S(=O)(=O)[O-])c4F)c4nc(c(-c5cccc(S(=O)(=O)[O-])c5F)c5ccc2[nH]5)C=C4)C=C3)cc1)C(=O)CCc1ccc(Cl)cc1Cl
REMARK SMILES IDX 9 1 8 2 6 3 7 4 5 6 4 7 3 8 2 9 1 10 79 11 80 12 81 13 82 14
REMARK SMILES IDX 83 15 84 16 89 17 85 18 88 19 90 20 86 21 87 22 10 23 11 24
REMARK SMILES IDX 12 25 13 26 14 27 15 29 16 30 17 31 78 32 18 33 77 34 19 35
REMARK SMILES IDX 20 36 21 37 71 38 22 39 76 40 70 41 72 42 23 43 75 44 69 45
REMARK SMILES IDX 68 46 24 48 56 49 36 50 55 51 37 52 40 53 54 54 73 55 38 56
REMARK SMILES IDX 39 57 53 59 74 60 41 61 25 62 26 63 34 64 27 65 29 66 35 67
REMARK SMILES IDX 28 68 30 69 31 70 32 71 33 72 57 73 58 74 66 75 59 76 61 77
REMARK SMILES IDX 67 78 60 79 62 80 63 81 64 82 65 83 42 84 43 85 51 86 44 87
REMARK SMILES IDX 46 88 52 89 45 90 47 91 48 92 49 93 50 94
REMARK H PARENT 8 5 13 28 72 47 40 58
REMARK Flexibility Score: inf
ROOT
ATOM      1  C   UNL A   1      32.509  29.840  25.746  1.00  0.00     0.116 C 
ENDROOT
BRANCH   1   2
ATOM      2  N   UNL A   1      31.607  29.648  24.640  1.00  0.00    -0.355 N 
ATOM      3  C   UNL A   1      31.081  28.486  24.177  1.00  0.00     0.239 C 
ATOM      4  O   UNL A   1      30.426  28.516  23.133  1.00  0.00    -0.273 OA
ATOM      5  H   UNL A   1      31.338  30.463  24.158  1.00  0.00     0.163 HD
BRANCH   3   6
ATOM      6  C   UNL A   1      31.245  27.187  24.974  1.00  0.00     0.220 C 
BRANCH   6   7
ATOM      7  N   UNL A   1      32.172  26.160  24.488  1.00  0.00    -0.322 N 
BRANCH   7   8
ATOM      8  C   UNL A   1      31.653  25.215  23.487  1.00  0.00     0.209 C 
BRANCH   8   9
ATOM      9  C   UNL A   1      32.130  25.520  22.076  1.00  0.00    -0.085 C 
ATOM     10  C   UNL A   1      32.540  25.781  20.866  1.00  0.00     0.006 C 
ENDBRANCH   8   9
ENDBRANCH   7   8
BRANCH   7  11
ATOM     11  C   UNL A   1      33.472  25.998  24.966  1.00  0.00     0.224 C 
ATOM     12  O   UNL A   1      34.030  26.870  25.640  1.00  0.00    -0.275 OA
BRANCH  11  13
ATOM     13  C   UNL A   1      34.251  24.716  24.675  1.00  0.00     0.105 C 
BRANCH  13  14
ATOM     14  C   UNL A   1      34.145  23.642  25.771  1.00  0.00     0.047 C 
BRANCH  14  15
ATOM     15  C   UNL A   1      33.835  22.266  25.215  1.00  0.00    -0.029 A 
ATOM     16  C   UNL A   1      32.484  21.867  25.147  1.00  0.00     0.007 A 
ATOM     17  C   UNL A   1      34.831  21.311  24.946  1.00  0.00     0.045 A 
ATOM     18  C   UNL A   1      32.149  20.524  24.949  1.00  0.00     0.021 A 
ATOM     19  C   UNL A   1      34.495  19.967  24.769  1.00  0.00     0.041 A 
ATOM     20  Cl  UNL A   1      36.503  21.726  24.867  1.00  0.00    -0.084 Cl
ATOM     21  C   UNL A   1      33.158  19.577  24.801  1.00  0.00     0.042 A 
ATOM     22  Cl  UNL A   1      32.759  17.905  24.724  1.00  0.00    -0.084 Cl
ENDBRANCH  14  15
ENDBRANCH  13  14
ENDBRANCH  11  13
ENDBRANCH   7  11
ENDBRANCH   6   7
ENDBRANCH   3   6
ENDBRANCH   1   2
BRANCH   1  23
ATOM     23  C   UNL A   1      31.814  30.589  26.880  1.00  0.00     0.023 C 
BRANCH  23  24
ATOM     24  C   UNL A   1      31.767  32.108  26.693  1.00  0.00     0.023 C 
BRANCH  24  25
ATOM     25  C   UNL A   1      32.894  32.872  27.374  1.00  0.00     0.116 C 
BRANCH  25  26
ATOM     26  N   UNL A   1      32.502  34.207  27.800  1.00  0.00    -0.352 N 
ATOM     27  C   UNL A   1      33.069  34.980  28.784  1.00  0.00     0.251 C 
ATOM     28  H   UNL A   1      31.735  34.604  27.326  1.00  0.00     0.163 HD
ATOM     29  O   UNL A   1      32.588  36.059  29.087  1.00  0.00    -0.269 OA
BRANCH  27  30
ATOM     30  C   UNL A   1      34.247  34.446  29.493  1.00  0.00     0.039 A 
ATOM     31  C   UNL A   1      34.046  33.730  30.673  1.00  0.00     0.014 A 
ATOM     32  C   UNL A   1      35.525  34.589  28.946  1.00  0.00     0.014 A 
ATOM     33  C   UNL A   1      35.131  33.101  31.282  1.00  0.00     0.010 A 
ATOM     34  C   UNL A   1      36.591  33.906  29.518  1.00  0.00     0.010 A 
ATOM     35  C   UNL A   1      36.405  33.161  30.693  1.00  0.00    -0.014 A 
BRANCH  35  36
ATOM     36  C   UNL A   1      37.557  32.444  31.292  1.00  0.00     0.031 A 
ATOM     37  C   UNL A   1      38.136  32.914  32.596  1.00  0.00     0.074 A 
ATOM     38  C   UNL A   1      38.126  31.425  30.620  1.00  0.00     0.049 A 
ATOM     39  N   UNL A   1      39.161  32.445  33.257  1.00  0.00    -0.248 NA
ATOM     40  C   UNL A   1      37.499  34.083  33.228  1.00  0.00     0.031 C 
ATOM     41  C   UNL A   1      37.706  30.938  29.304  1.00  0.00     0.029 A 
ATOM     42  N   UNL A   1      39.199  30.632  30.940  1.00  0.00    -0.354 N 
ATOM     43  C   UNL A   1      39.315  33.278  34.358  1.00  0.00     0.074 A 
ATOM     44  C   UNL A   1      38.300  34.304  34.259  1.00  0.00     0.031 C 
ATOM     45  C   UNL A   1      38.509  29.927  28.932  1.00  0.00     0.029 A 
ATOM     46  C   UNL A   1      39.512  29.708  29.970  1.00  0.00     0.049 A 
ATOM     47  H   UNL A   1      39.698  30.716  31.785  1.00  0.00     0.167 HD
ATOM     48  C   UNL A   1      40.199  33.178  35.378  1.00  0.00     0.034 A 
ATOM     49  C   UNL A   1      40.497  28.791  29.924  1.00  0.00     0.034 A 
ATOM     50  C   UNL A   1      41.169  32.125  35.498  1.00  0.00     0.049 A 
ATOM     51  C   UNL A   1      41.428  28.663  31.100  1.00  0.00     0.074 A 
ATOM     52  C   UNL A   1      42.045  31.877  36.539  1.00  0.00     0.029 A 
ATOM     53  N   UNL A   1      41.392  31.145  34.543  1.00  0.00    -0.354 N 
ATOM     54  N   UNL A   1      41.447  29.353  32.215  1.00  0.00    -0.248 NA
ATOM     55  C   UNL A   1      42.445  27.605  31.031  1.00  0.00     0.031 C 
ATOM     56  C   UNL A   1      42.810  30.754  36.206  1.00  0.00     0.029 A 
ATOM     57  C   UNL A   1      42.396  30.292  34.967  1.00  0.00     0.049 A 
ATOM     58  H   UNL A   1      40.907  31.068  33.690  1.00  0.00     0.167 HD
ATOM     59  C   UNL A   1      42.452  28.792  32.993  1.00  0.00     0.074 A 
ATOM     60  C   UNL A   1      43.003  27.690  32.232  1.00  0.00     0.031 C 
ATOM     61  C   UNL A   1      42.892  29.165  34.221  1.00  0.00     0.034 A 
BRANCH  48  62
ATOM     62  C   UNL A   1      40.113  34.201  36.480  1.00  0.00     0.023 A 
ATOM     63  C   UNL A   1      40.481  35.537  36.215  1.00  0.00     0.012 A 
ATOM     64  C   UNL A   1      39.621  33.860  37.754  1.00  0.00     0.148 A 
ATOM     65  C   UNL A   1      40.392  36.509  37.210  1.00  0.00     0.002 A 
ATOM     66  C   UNL A   1      39.494  34.844  38.728  1.00  0.00     0.091 A 
ATOM     67  F   UNL A   1      39.299  32.581  37.993  1.00  0.00    -0.205 F 
ATOM     68  C   UNL A   1      39.890  36.165  38.461  1.00  0.00     0.022 A 
BRANCH  66  69
ATOM     69  S   UNL A   1      38.786  34.519  40.347  1.00  0.00     0.127 S 
ATOM     70  O   UNL A   1      39.784  33.624  40.930  1.00  0.00    -0.237 OA
ATOM     71  O   UNL A   1      38.746  35.856  40.939  1.00  0.00    -0.237 OA
ATOM     72  O   UNL A   1      37.480  33.925  40.101  1.00  0.00    -0.744 OA
ENDBRANCH  66  69
ENDBRANCH  48  62
BRANCH  49  73
ATOM     73  C   UNL A   1      40.603  27.868  28.758  1.00  0.00     0.023 A 
ATOM     74  C   UNL A   1      39.653  26.839  28.605  1.00  0.00     0.012 A 
ATOM     75  C   UNL A   1      41.614  28.018  27.790  1.00  0.00     0.148 A 
ATOM     76  C   UNL A   1      39.728  25.956  27.527  1.00  0.00     0.002 A 
ATOM     77  C   UNL A   1      41.651  27.169  26.690  1.00  0.00     0.091 A 
ATOM     78  F   UNL A   1      42.516  28.995  27.960  1.00  0.00    -0.205 F 
ATOM     79  C   UNL A   1      40.718  26.127  26.564  1.00  0.00     0.022 A 
BRANCH  77  80
ATOM     80  S   UNL A   1      42.812  27.399  25.339  1.00  0.00     0.127 S 
ATOM     81  O   UNL A   1      42.726  26.115  24.649  1.00  0.00    -0.237 OA
ATOM     82  O   UNL A   1      42.221  28.528  24.618  1.00  0.00    -0.237 OA
ATOM     83  O   UNL A   1      44.089  27.699  25.971  1.00  0.00    -0.744 OA
ENDBRANCH  77  80
ENDBRANCH  49  73
BRANCH  61  84
ATOM     84  C   UNL A   1      44.003  28.359  34.838  1.00  0.00     0.023 A 
ATOM     85  C   UNL A   1      45.328  28.834  34.776  1.00  0.00     0.012 A 
ATOM     86  C   UNL A   1      43.723  27.176  35.550  1.00  0.00     0.148 A 
ATOM     87  C   UNL A   1      46.362  28.127  35.387  1.00  0.00     0.002 A 
ATOM     88  C   UNL A   1      44.752  26.502  36.198  1.00  0.00     0.091 A 
ATOM     89  F   UNL A   1      42.458  26.731  35.581  1.00  0.00    -0.205 F 
ATOM     90  C   UNL A   1      46.073  26.970  36.108  1.00  0.00     0.022 A 
BRANCH  88  91
ATOM     91  S   UNL A   1      44.456  25.061  37.228  1.00  0.00     0.127 S 
ATOM     92  O   UNL A   1      44.137  24.042  36.230  1.00  0.00    -0.237 OA
ATOM     93  O   UNL A   1      45.748  24.882  37.892  1.00  0.00    -0.237 OA
ATOM     94  O   UNL A   1      43.365  25.426  38.122  1.00  0.00    -0.744 OA
ENDBRANCH  88  91
ENDBRANCH  61  84
ENDBRANCH  35  36
ENDBRANCH  27  30
ENDBRANCH  25  26
ENDBRANCH  24  25
ENDBRANCH  23  24
ENDBRANCH   1  23
TORSDOF 21
ENDMDL
