MODEL 1
REMARK VINA RESULT:     -11.8      0.000      0.000
REMARK SMILES C[C@](Nc1ccc(S(N)(=O)=O)cc1)(C(=O)NCCCCNC(=O)c1ccc(-c2c3nc(c(-c4cccc(S(=O)(=O)[O-])c4F)c4ccc([nH]4)c(-c4cccc(S(=O)(=O)[O-])c4F)c4nc(c(-c5cccc(S(=O)(=O)[O-])c5F)c5ccc2[nH]5)C=C4)C=C3)cc1)C(F)(F)F
REMARK SMILES IDX 18 1 17 2 16 3 14 4 15 5 2 7 1 8 87 9 88 10 89 11 90 12 3 13
REMARK SMILES IDX 4 15 5 16 13 17 6 18 12 19 7 20 8 21 10 22 11 23 9 24 19 27
REMARK SMILES IDX 20 28 21 29 22 30 23 32 24 33 25 34 86 35 26 36 85 37 27 38
REMARK SMILES IDX 28 39 29 40 79 41 30 42 84 43 78 44 80 45 31 46 83 47 77 48
REMARK SMILES IDX 76 49 32 51 64 52 44 53 63 54 45 55 48 56 62 57 81 58 46 59
REMARK SMILES IDX 47 60 61 62 82 63 49 64 33 65 34 66 42 67 35 68 37 69 43 70
REMARK SMILES IDX 36 71 38 72 39 73 40 74 41 75 65 76 66 77 74 78 67 79 69 80
REMARK SMILES IDX 75 81 68 82 70 83 71 84 72 85 73 86 50 87 51 88 59 89 52 90
REMARK SMILES IDX 54 91 60 92 53 93 55 94 56 95 57 96 58 97
REMARK H PARENT 16 6 3 14 9 25 9 26 21 31 80 50 48 61
REMARK Flexibility Score: inf
ROOT
ATOM      1  C   UNL A   1      33.854  28.940  25.030  1.00  0.00     0.023 C 
ENDROOT
BRANCH   1   2
ATOM      2  C   UNL A   1      33.854  27.764  24.058  1.00  0.00     0.116 C 
BRANCH   2   3
ATOM      3  N   UNL A   1      32.509  27.436  23.617  1.00  0.00    -0.354 N 
ATOM      4  C   UNL A   1      31.747  26.316  23.833  1.00  0.00     0.254 C 
ATOM      5  O   UNL A   1      30.642  26.300  23.289  1.00  0.00    -0.272 OA
ATOM      6  H   UNL A   1      32.074  28.132  23.074  1.00  0.00     0.163 HD
BRANCH   4   7
ATOM      7  C   UNL A   1      32.263  25.165  24.737  1.00  0.00     0.210 C 
ATOM      8  C   UNL A   1      33.770  24.994  24.450  1.00  0.00     0.055 C 
BRANCH   7   9
ATOM      9  C   UNL A   1      32.082  25.649  26.197  1.00  0.00     0.420 C 
ATOM     10  F   UNL A   1      31.822  24.641  27.061  1.00  0.00    -0.168 F 
ATOM     11  F   UNL A   1      33.217  26.252  26.650  1.00  0.00    -0.168 F 
ATOM     12  F   UNL A   1      31.105  26.580  26.320  1.00  0.00    -0.168 F 
ENDBRANCH   7   9
BRANCH   7  13
ATOM     13  N   UNL A   1      31.444  23.939  24.431  1.00  0.00    -0.364 N 
ATOM     14  H   UNL A   1      30.472  24.077  24.355  1.00  0.00     0.161 HD
BRANCH  13  15
ATOM     15  C   UNL A   1      31.887  22.648  24.245  1.00  0.00     0.035 A 
ATOM     16  C   UNL A   1      32.119  21.849  25.378  1.00  0.00     0.027 A 
ATOM     17  C   UNL A   1      31.990  22.042  22.991  1.00  0.00     0.027 A 
ATOM     18  C   UNL A   1      32.374  20.479  25.267  1.00  0.00     0.024 A 
ATOM     19  C   UNL A   1      32.263  20.678  22.861  1.00  0.00     0.024 A 
ATOM     20  C   UNL A   1      32.433  19.898  24.003  1.00  0.00     0.082 A 
BRANCH  20  21
ATOM     21  S   UNL A   1      32.675  18.158  23.849  1.00  0.00     0.238 S 
ATOM     22  O   UNL A   1      34.090  17.896  23.699  1.00  0.00    -0.207 OA
ATOM     23  O   UNL A   1      31.857  17.469  24.815  1.00  0.00    -0.207 OA
BRANCH  21  24
ATOM     24  N   UNL A   1      31.978  17.826  22.358  1.00  0.00    -0.225 NA
ATOM     25  H   UNL A   1      31.347  18.584  22.102  1.00  0.00     0.137 HD
ATOM     26  H   UNL A   1      31.456  16.952  22.415  1.00  0.00     0.137 HD
ENDBRANCH  21  24
ENDBRANCH  20  21
ENDBRANCH  13  15
ENDBRANCH   7  13
ENDBRANCH   4   7
ENDBRANCH   2   3
ENDBRANCH   1   2
BRANCH   1  27
ATOM     27  C   UNL A   1      32.468  29.508  25.331  1.00  0.00     0.023 C 
BRANCH  27  28
ATOM     28  C   UNL A   1      32.272  30.004  26.759  1.00  0.00     0.116 C 
BRANCH  28  29
ATOM     29  N   UNL A   1      32.258  31.457  26.858  1.00  0.00    -0.352 N 
ATOM     30  C   UNL A   1      33.188  32.286  27.441  1.00  0.00     0.251 C 
ATOM     31  H   UNL A   1      31.480  31.905  26.453  1.00  0.00     0.163 HD
ATOM     32  O   UNL A   1      32.953  33.484  27.565  1.00  0.00    -0.269 OA
BRANCH  30  33
ATOM     33  C   UNL A   1      34.454  31.715  27.942  1.00  0.00     0.039 A 
ATOM     34  C   UNL A   1      35.577  32.539  28.039  1.00  0.00     0.014 A 
ATOM     35  C   UNL A   1      34.519  30.381  28.353  1.00  0.00     0.014 A 
ATOM     36  C   UNL A   1      36.748  32.042  28.614  1.00  0.00     0.010 A 
ATOM     37  C   UNL A   1      35.657  29.915  29.003  1.00  0.00     0.010 A 
ATOM     38  C   UNL A   1      36.786  30.738  29.138  1.00  0.00    -0.014 A 
BRANCH  38  39
ATOM     39  C   UNL A   1      37.989  30.223  29.841  1.00  0.00     0.031 A 
ATOM     40  C   UNL A   1      38.313  30.694  31.233  1.00  0.00     0.074 A 
ATOM     41  C   UNL A   1      38.836  29.397  29.194  1.00  0.00     0.049 A 
ATOM     42  N   UNL A   1      39.340  30.396  31.984  1.00  0.00    -0.248 NA
ATOM     43  C   UNL A   1      37.375  31.644  31.854  1.00  0.00     0.031 C 
ATOM     44  C   UNL A   1      38.675  28.929  27.815  1.00  0.00     0.029 A 
ATOM     45  N   UNL A   1      40.015  28.824  29.601  1.00  0.00    -0.354 N 
ATOM     46  C   UNL A   1      39.195  31.148  33.144  1.00  0.00     0.074 A 
ATOM     47  C   UNL A   1      37.997  31.942  32.985  1.00  0.00     0.031 C 
ATOM     48  C   UNL A   1      39.709  28.134  27.496  1.00  0.00     0.029 A 
ATOM     49  C   UNL A   1      40.624  28.063  28.630  1.00  0.00     0.049 A 
ATOM     50  H   UNL A   1      40.390  28.946  30.503  1.00  0.00     0.167 HD
ATOM     51  C   UNL A   1      39.973  31.158  34.252  1.00  0.00     0.034 A 
ATOM     52  C   UNL A   1      41.793  27.393  28.646  1.00  0.00     0.034 A 
ATOM     53  C   UNL A   1      41.142  30.338  34.423  1.00  0.00     0.049 A 
ATOM     54  C   UNL A   1      42.622  27.399  29.902  1.00  0.00     0.074 A 
ATOM     55  C   UNL A   1      41.941  30.205  35.545  1.00  0.00     0.029 A 
ATOM     56  N   UNL A   1      41.688  29.523  33.444  1.00  0.00    -0.354 N 
ATOM     57  N   UNL A   1      42.381  27.988  31.048  1.00  0.00    -0.248 NA
ATOM     58  C   UNL A   1      43.868  26.618  29.880  1.00  0.00     0.031 C 
ATOM     59  C   UNL A   1      42.993  29.338  35.231  1.00  0.00     0.029 A 
ATOM     60  C   UNL A   1      42.823  28.898  33.929  1.00  0.00     0.049 A 
ATOM     61  H   UNL A   1      41.322  29.406  32.538  1.00  0.00     0.167 HD
ATOM     62  C   UNL A   1      43.420  27.618  31.894  1.00  0.00     0.074 A 
ATOM     63  C   UNL A   1      44.283  26.737  31.134  1.00  0.00     0.031 C 
ATOM     64  C   UNL A   1      43.646  27.983  33.181  1.00  0.00     0.034 A 
BRANCH  51  65
ATOM     65  C   UNL A   1      39.564  32.058  35.390  1.00  0.00     0.023 A 
ATOM     66  C   UNL A   1      39.947  33.415  35.383  1.00  0.00     0.012 A 
ATOM     67  C   UNL A   1      38.746  31.578  36.431  1.00  0.00     0.148 A 
ATOM     68  C   UNL A   1      39.553  34.271  36.411  1.00  0.00     0.002 A 
ATOM     69  C   UNL A   1      38.317  32.448  37.426  1.00  0.00     0.091 A 
ATOM     70  F   UNL A   1      38.408  30.280  36.431  1.00  0.00    -0.205 F 
ATOM     71  C   UNL A   1      38.731  33.790  37.425  1.00  0.00     0.022 A 
BRANCH  69  72
ATOM     72  S   UNL A   1      37.187  31.949  38.730  1.00  0.00     0.127 S 
ATOM     73  O   UNL A   1      37.944  32.309  39.929  1.00  0.00    -0.237 OA
ATOM     74  O   UNL A   1      36.022  32.794  38.466  1.00  0.00    -0.237 OA
ATOM     75  O   UNL A   1      36.961  30.523  38.543  1.00  0.00    -0.744 OA
ENDBRANCH  69  72
ENDBRANCH  51  65
BRANCH  52  76
ATOM     76  C   UNL A   1      42.225  26.609  27.454  1.00  0.00     0.023 A 
ATOM     77  C   UNL A   1      42.899  27.262  26.403  1.00  0.00     0.012 A 
ATOM     78  C   UNL A   1      41.984  25.226  27.358  1.00  0.00     0.148 A 
ATOM     79  C   UNL A   1      43.290  26.559  25.262  1.00  0.00     0.002 A 
ATOM     80  C   UNL A   1      42.427  24.520  26.246  1.00  0.00     0.091 A 
ATOM     81  F   UNL A   1      41.333  24.624  28.365  1.00  0.00    -0.205 F 
ATOM     82  C   UNL A   1      43.061  25.188  25.187  1.00  0.00     0.022 A 
BRANCH  80  83
ATOM     83  S   UNL A   1      42.294  22.734  26.121  1.00  0.00     0.127 S 
ATOM     84  O   UNL A   1      43.029  22.296  27.303  1.00  0.00    -0.237 OA
ATOM     85  O   UNL A   1      40.846  22.535  26.185  1.00  0.00    -0.237 OA
ATOM     86  O   UNL A   1      42.891  22.383  24.838  1.00  0.00    -0.744 OA
ENDBRANCH  80  83
ENDBRANCH  52  76
BRANCH  64  87
ATOM     87  C   UNL A   1      44.847  27.396  33.875  1.00  0.00     0.023 A 
ATOM     88  C   UNL A   1      46.056  28.118  33.928  1.00  0.00     0.012 A 
ATOM     89  C   UNL A   1      44.752  26.157  34.540  1.00  0.00     0.148 A 
ATOM     90  C   UNL A   1      47.161  27.599  34.601  1.00  0.00     0.002 A 
ATOM     91  C   UNL A   1      45.840  25.672  35.254  1.00  0.00     0.091 A 
ATOM     92  F   UNL A   1      43.598  25.477  34.463  1.00  0.00    -0.205 F 
ATOM     93  C   UNL A   1      47.050  26.384  35.273  1.00  0.00     0.022 A 
BRANCH  91  94
ATOM     94  S   UNL A   1      45.758  24.168  36.232  1.00  0.00     0.127 S 
ATOM     95  O   UNL A   1      46.718  24.453  37.298  1.00  0.00    -0.237 OA
ATOM     96  O   UNL A   1      44.358  24.153  36.659  1.00  0.00    -0.237 OA
ATOM     97  O   UNL A   1      46.129  23.082  35.335  1.00  0.00    -0.744 OA
ENDBRANCH  91  94
ENDBRANCH  64  87
ENDBRANCH  38  39
ENDBRANCH  30  33
ENDBRANCH  28  29
ENDBRANCH  27  28
ENDBRANCH   1  27
TORSDOF 19
ENDMDL
MODEL 2
REMARK VINA RESULT:     -11.7      5.420     10.511
REMARK SMILES C[C@](Nc1ccc(S(N)(=O)=O)cc1)(C(=O)NCCCCNC(=O)c1ccc(-c2c3nc(c(-c4cccc(S(=O)(=O)[O-])c4F)c4ccc([nH]4)c(-c4cccc(S(=O)(=O)[O-])c4F)c4nc(c(-c5cccc(S(=O)(=O)[O-])c5F)c5ccc2[nH]5)C=C4)C=C3)cc1)C(F)(F)F
REMARK SMILES IDX 18 1 17 2 16 3 14 4 15 5 2 7 1 8 87 9 88 10 89 11 90 12 3 13
REMARK SMILES IDX 4 15 5 16 13 17 6 18 12 19 7 20 8 21 10 22 11 23 9 24 19 27
REMARK SMILES IDX 20 28 21 29 22 30 23 32 24 33 25 34 86 35 26 36 85 37 27 38
REMARK SMILES IDX 28 39 29 40 79 41 30 42 84 43 78 44 80 45 31 46 83 47 77 48
REMARK SMILES IDX 76 49 32 51 64 52 44 53 63 54 45 55 48 56 62 57 81 58 46 59
REMARK SMILES IDX 47 60 61 62 82 63 49 64 33 65 34 66 42 67 35 68 37 69 43 70
REMARK SMILES IDX 36 71 38 72 39 73 40 74 41 75 65 76 66 77 74 78 67 79 69 80
REMARK SMILES IDX 75 81 68 82 70 83 71 84 72 85 73 86 50 87 51 88 59 89 52 90
REMARK SMILES IDX 54 91 60 92 53 93 55 94 56 95 57 96 58 97
REMARK H PARENT 16 6 3 14 9 25 9 26 21 31 80 50 48 61
REMARK Flexibility Score: inf
ROOT
ATOM      1  C   UNL A   1      34.717  22.425  26.706  1.00  0.00     0.023 C 
ENDROOT
BRANCH   1   2
ATOM      2  C   UNL A   1      33.270  22.707  26.314  1.00  0.00     0.116 C 
BRANCH   2   3
ATOM      3  N   UNL A   1      33.025  22.392  24.917  1.00  0.00    -0.354 N 
ATOM      4  C   UNL A   1      32.648  23.197  23.872  1.00  0.00     0.254 C 
ATOM      5  O   UNL A   1      32.470  22.634  22.791  1.00  0.00    -0.272 OA
ATOM      6  H   UNL A   1      33.150  21.444  24.682  1.00  0.00     0.163 HD
BRANCH   4   7
ATOM      7  C   UNL A   1      32.490  24.728  24.066  1.00  0.00     0.210 C 
ATOM      8  C   UNL A   1      32.191  24.976  25.560  1.00  0.00     0.055 C 
BRANCH   7   9
ATOM      9  C   UNL A   1      33.866  25.351  23.720  1.00  0.00     0.420 C 
ATOM     10  F   UNL A   1      34.042  25.540  22.392  1.00  0.00    -0.168 F 
ATOM     11  F   UNL A   1      33.999  26.578  24.298  1.00  0.00    -0.168 F 
ATOM     12  F   UNL A   1      34.903  24.616  24.188  1.00  0.00    -0.168 F 
ENDBRANCH   7   9
BRANCH   7  13
ATOM     13  N   UNL A   1      31.397  25.197  23.143  1.00  0.00    -0.364 N 
ATOM     14  H   UNL A   1      31.160  24.586  22.409  1.00  0.00     0.161 HD
BRANCH  13  15
ATOM     15  C   UNL A   1      30.687  26.376  23.199  1.00  0.00     0.035 A 
ATOM     16  C   UNL A   1      31.259  27.531  22.637  1.00  0.00     0.027 A 
ATOM     17  C   UNL A   1      29.372  26.463  23.663  1.00  0.00     0.027 A 
ATOM     18  C   UNL A   1      30.523  28.708  22.477  1.00  0.00     0.024 A 
ATOM     19  C   UNL A   1      28.628  27.638  23.529  1.00  0.00     0.024 A 
ATOM     20  C   UNL A   1      29.202  28.750  22.917  1.00  0.00     0.082 A 
BRANCH  20  21
ATOM     21  S   UNL A   1      28.235  30.202  22.651  1.00  0.00     0.238 S 
ATOM     22  O   UNL A   1      27.001  30.082  23.396  1.00  0.00    -0.207 OA
ATOM     23  O   UNL A   1      29.081  31.367  22.734  1.00  0.00    -0.207 OA
BRANCH  21  24
ATOM     24  N   UNL A   1      27.819  30.068  21.031  1.00  0.00    -0.225 NA
ATOM     25  H   UNL A   1      27.564  30.986  20.668  1.00  0.00     0.137 HD
ATOM     26  H   UNL A   1      27.027  29.433  20.936  1.00  0.00     0.137 HD
ENDBRANCH  21  24
ENDBRANCH  20  21
ENDBRANCH  13  15
ENDBRANCH   7  13
ENDBRANCH   4   7
ENDBRANCH   2   3
ENDBRANCH   1   2
BRANCH   1  27
ATOM     27  C   UNL A   1      35.467  21.516  25.735  1.00  0.00     0.023 C 
BRANCH  27  28
ATOM     28  C   UNL A   1      36.877  21.975  25.383  1.00  0.00     0.116 C 
BRANCH  28  29
ATOM     29  N   UNL A   1      37.883  20.945  25.607  1.00  0.00    -0.352 N 
ATOM     30  C   UNL A   1      39.164  21.087  26.084  1.00  0.00     0.251 C 
ATOM     31  H   UNL A   1      37.607  20.026  25.389  1.00  0.00     0.163 HD
ATOM     32  O   UNL A   1      39.934  20.131  26.078  1.00  0.00    -0.269 OA
BRANCH  30  33
ATOM     33  C   UNL A   1      39.613  22.407  26.574  1.00  0.00     0.039 A 
ATOM     34  C   UNL A   1      40.635  22.465  27.522  1.00  0.00     0.014 A 
ATOM     35  C   UNL A   1      39.053  23.582  26.066  1.00  0.00     0.014 A 
ATOM     36  C   UNL A   1      41.145  23.706  27.911  1.00  0.00     0.010 A 
ATOM     37  C   UNL A   1      39.618  24.811  26.389  1.00  0.00     0.010 A 
ATOM     38  C   UNL A   1      40.667  24.888  27.317  1.00  0.00    -0.014 A 
BRANCH  38  39
ATOM     39  C   UNL A   1      41.262  26.210  27.644  1.00  0.00     0.031 A 
ATOM     40  C   UNL A   1      42.674  26.528  27.233  1.00  0.00     0.074 A 
ATOM     41  C   UNL A   1      40.560  27.091  28.385  1.00  0.00     0.049 A 
ATOM     42  N   UNL A   1      43.378  27.604  27.470  1.00  0.00    -0.248 NA
ATOM     43  C   UNL A   1      43.402  25.493  26.480  1.00  0.00     0.031 C 
ATOM     44  C   UNL A   1      39.210  26.870  28.911  1.00  0.00     0.029 A 
ATOM     45  N   UNL A   1      40.893  28.341  28.846  1.00  0.00    -0.354 N 
ATOM     46  C   UNL A   1      44.637  27.362  26.934  1.00  0.00     0.074 A 
ATOM     47  C   UNL A   1      44.612  26.024  26.387  1.00  0.00     0.031 C 
ATOM     48  C   UNL A   1      38.829  27.950  29.612  1.00  0.00     0.029 A 
ATOM     49  C   UNL A   1      39.915  28.924  29.617  1.00  0.00     0.049 A 
ATOM     50  H   UNL A   1      41.752  28.778  28.643  1.00  0.00     0.167 HD
ATOM     51  C   UNL A   1      45.708  28.187  26.877  1.00  0.00     0.034 A 
ATOM     52  C   UNL A   1      39.898  30.105  30.265  1.00  0.00     0.034 A 
ATOM     53  C   UNL A   1      45.717  29.532  27.387  1.00  0.00     0.049 A 
ATOM     54  C   UNL A   1      41.093  31.014  30.160  1.00  0.00     0.074 A 
ATOM     55  C   UNL A   1      46.720  30.480  27.294  1.00  0.00     0.029 A 
ATOM     56  N   UNL A   1      44.680  30.116  28.099  1.00  0.00    -0.354 N 
ATOM     57  N   UNL A   1      42.215  30.831  29.507  1.00  0.00    -0.248 NA
ATOM     58  C   UNL A   1      41.006  32.309  30.853  1.00  0.00     0.031 C 
ATOM     59  C   UNL A   1      46.306  31.625  27.981  1.00  0.00     0.029 A 
ATOM     60  C   UNL A   1      45.027  31.404  28.466  1.00  0.00     0.049 A 
ATOM     61  H   UNL A   1      43.825  29.679  28.311  1.00  0.00     0.167 HD
ATOM     62  C   UNL A   1      42.948  32.000  29.675  1.00  0.00     0.074 A 
ATOM     63  C   UNL A   1      42.136  32.892  30.476  1.00  0.00     0.031 C 
ATOM     64  C   UNL A   1      44.189  32.303  29.218  1.00  0.00     0.034 A 
BRANCH  51  65
ATOM     65  C   UNL A   1      46.955  27.675  26.204  1.00  0.00     0.023 A 
ATOM     66  C   UNL A   1      47.880  26.902  26.937  1.00  0.00     0.012 A 
ATOM     67  C   UNL A   1      47.181  27.903  24.833  1.00  0.00     0.148 A 
ATOM     68  C   UNL A   1      49.025  26.393  26.325  1.00  0.00     0.002 A 
ATOM     69  C   UNL A   1      48.298  27.352  24.218  1.00  0.00     0.091 A 
ATOM     70  F   UNL A   1      46.301  28.657  24.158  1.00  0.00    -0.205 F 
ATOM     71  C   UNL A   1      49.228  26.609  24.965  1.00  0.00     0.022 A 
BRANCH  69  72
ATOM     72  S   UNL A   1      48.607  27.500  22.455  1.00  0.00     0.127 S 
ATOM     73  O   UNL A   1      47.436  28.257  22.013  1.00  0.00    -0.237 OA
ATOM     74  O   UNL A   1      49.864  28.248  22.427  1.00  0.00    -0.237 OA
ATOM     75  O   UNL A   1      48.696  26.139  21.946  1.00  0.00    -0.744 OA
ENDBRANCH  69  72
ENDBRANCH  51  65
BRANCH  52  76
ATOM     76  C   UNL A   1      38.686  30.527  31.025  1.00  0.00     0.023 A 
ATOM     77  C   UNL A   1      38.591  30.230  32.399  1.00  0.00     0.012 A 
ATOM     78  C   UNL A   1      37.636  31.227  30.402  1.00  0.00     0.148 A 
ATOM     79  C   UNL A   1      37.457  30.587  33.128  1.00  0.00     0.002 A 
ATOM     80  C   UNL A   1      36.534  31.630  31.146  1.00  0.00     0.091 A 
ATOM     81  F   UNL A   1      37.740  31.493  29.091  1.00  0.00    -0.205 F 
ATOM     82  C   UNL A   1      36.433  31.294  32.505  1.00  0.00     0.022 A 
BRANCH  80  83
ATOM     83  S   UNL A   1      35.230  32.657  30.460  1.00  0.00     0.127 S 
ATOM     84  O   UNL A   1      34.774  31.848  29.333  1.00  0.00    -0.237 OA
ATOM     85  O   UNL A   1      34.292  32.740  31.580  1.00  0.00    -0.237 OA
ATOM     86  O   UNL A   1      35.865  33.922  30.114  1.00  0.00    -0.744 OA
ENDBRANCH  80  83
ENDBRANCH  52  76
BRANCH  64  87
ATOM     87  C   UNL A   1      44.733  33.674  29.525  1.00  0.00     0.023 A 
ATOM     88  C   UNL A   1      45.423  33.907  30.731  1.00  0.00     0.012 A 
ATOM     89  C   UNL A   1      44.624  34.713  28.579  1.00  0.00     0.148 A 
ATOM     90  C   UNL A   1      45.963  35.163  31.006  1.00  0.00     0.002 A 
ATOM     91  C   UNL A   1      45.212  35.944  28.837  1.00  0.00     0.091 A 
ATOM     92  F   UNL A   1      43.949  34.476  27.444  1.00  0.00    -0.205 F 
ATOM     93  C   UNL A   1      45.869  36.176  30.056  1.00  0.00     0.022 A 
BRANCH  91  94
ATOM     94  S   UNL A   1      45.229  37.275  27.631  1.00  0.00     0.127 S 
ATOM     95  O   UNL A   1      43.800  37.499  27.413  1.00  0.00    -0.237 OA
ATOM     96  O   UNL A   1      45.910  38.345  28.361  1.00  0.00    -0.237 OA
ATOM     97  O   UNL A   1      45.961  36.767  26.479  1.00  0.00    -0.744 OA
ENDBRANCH  91  94
ENDBRANCH  64  87
ENDBRANCH  38  39
ENDBRANCH  30  33
ENDBRANCH  28  29
ENDBRANCH  27  28
ENDBRANCH   1  27
TORSDOF 19
ENDMDL
MODEL 3
REMARK VINA RESULT:     -11.7      5.143      9.944
REMARK SMILES C[C@](Nc1ccc(S(N)(=O)=O)cc1)(C(=O)NCCCCNC(=O)c1ccc(-c2c3nc(c(-c4cccc(S(=O)(=O)[O-])c4F)c4ccc([nH]4)c(-c4cccc(S(=O)(=O)[O-])c4F)c4nc(c(-c5cccc(S(=O)(=O)[O-])c5F)c5ccc2[nH]5)C=C4)C=C3)cc1)C(F)(F)F
REMARK SMILES IDX 18 1 17 2 16 3 14 4 15 5 2 7 1 8 87 9 88 10 89 11 90 12 3 13
REMARK SMILES IDX 4 15 5 16 13 17 6 18 12 19 7 20 8 21 10 22 11 23 9 24 19 27
REMARK SMILES IDX 20 28 21 29 22 30 23 32 24 33 25 34 86 35 26 36 85 37 27 38
REMARK SMILES IDX 28 39 29 40 79 41 30 42 84 43 78 44 80 45 31 46 83 47 77 48
REMARK SMILES IDX 76 49 32 51 64 52 44 53 63 54 45 55 48 56 62 57 81 58 46 59
REMARK SMILES IDX 47 60 61 62 82 63 49 64 33 65 34 66 42 67 35 68 37 69 43 70
REMARK SMILES IDX 36 71 38 72 39 73 40 74 41 75 65 76 66 77 74 78 67 79 69 80
REMARK SMILES IDX 75 81 68 82 70 83 71 84 72 85 73 86 50 87 51 88 59 89 52 90
REMARK SMILES IDX 54 91 60 92 53 93 55 94 56 95 57 96 58 97
REMARK H PARENT 16 6 3 14 9 25 9 26 21 31 80 50 48 61
REMARK Flexibility Score: inf
ROOT
ATOM      1  C   UNL A   1      35.781  23.475  26.097  1.00  0.00     0.023 C 
ENDROOT
BRANCH   1   2
ATOM      2  C   UNL A   1      34.583  23.987  25.303  1.00  0.00     0.116 C 
BRANCH   2   3
ATOM      3  N   UNL A   1      33.548  24.511  26.178  1.00  0.00    -0.354 N 
ATOM      4  C   UNL A   1      32.193  24.297  26.185  1.00  0.00     0.254 C 
ATOM      5  O   UNL A   1      31.551  24.921  27.031  1.00  0.00    -0.272 OA
ATOM      6  H   UNL A   1      33.873  25.119  26.881  1.00  0.00     0.163 HD
BRANCH   4   7
ATOM      7  C   UNL A   1      31.540  23.301  25.191  1.00  0.00     0.210 C 
ATOM      8  C   UNL A   1      30.405  22.575  25.944  1.00  0.00     0.055 C 
BRANCH   7   9
ATOM      9  C   UNL A   1      30.922  24.162  24.061  1.00  0.00     0.420 C 
ATOM     10  F   UNL A   1      29.971  25.015  24.507  1.00  0.00    -0.168 F 
ATOM     11  F   UNL A   1      31.874  24.934  23.466  1.00  0.00    -0.168 F 
ATOM     12  F   UNL A   1      30.390  23.412  23.066  1.00  0.00    -0.168 F 
ENDBRANCH   7   9
BRANCH   7  13
ATOM     13  N   UNL A   1      32.620  22.380  24.687  1.00  0.00    -0.364 N 
ATOM     14  H   UNL A   1      33.396  22.815  24.266  1.00  0.00     0.161 HD
BRANCH  13  15
ATOM     15  C   UNL A   1      32.656  21.004  24.744  1.00  0.00     0.035 A 
ATOM     16  C   UNL A   1      32.418  20.279  23.564  1.00  0.00     0.027 A 
ATOM     17  C   UNL A   1      33.049  20.290  25.878  1.00  0.00     0.027 A 
ATOM     18  C   UNL A   1      32.634  18.899  23.498  1.00  0.00     0.024 A 
ATOM     19  C   UNL A   1      33.251  18.908  25.835  1.00  0.00     0.024 A 
ATOM     20  C   UNL A   1      33.062  18.222  24.637  1.00  0.00     0.082 A 
BRANCH  20  21
ATOM     21  S   UNL A   1      33.414  16.495  24.550  1.00  0.00     0.238 S 
ATOM     22  O   UNL A   1      32.385  15.773  25.266  1.00  0.00    -0.207 OA
ATOM     23  O   UNL A   1      33.811  16.151  23.207  1.00  0.00    -0.207 OA
BRANCH  21  24
ATOM     24  N   UNL A   1      34.808  16.363  25.474  1.00  0.00    -0.225 NA
ATOM     25  H   UNL A   1      35.625  16.489  24.878  1.00  0.00     0.137 HD
ATOM     26  H   UNL A   1      34.842  15.441  25.907  1.00  0.00     0.137 HD
ENDBRANCH  21  24
ENDBRANCH  20  21
ENDBRANCH  13  15
ENDBRANCH   7  13
ENDBRANCH   4   7
ENDBRANCH   2   3
ENDBRANCH   1   2
BRANCH   1  27
ATOM     27  C   UNL A   1      36.290  22.103  25.657  1.00  0.00     0.023 C 
BRANCH  27  28
ATOM     28  C   UNL A   1      37.677  22.104  25.025  1.00  0.00     0.116 C 
BRANCH  28  29
ATOM     29  N   UNL A   1      38.557  21.088  25.587  1.00  0.00    -0.352 N 
ATOM     30  C   UNL A   1      39.683  21.260  26.357  1.00  0.00     0.251 C 
ATOM     31  H   UNL A   1      38.311  20.155  25.390  1.00  0.00     0.163 HD
ATOM     32  O   UNL A   1      40.395  20.299  26.630  1.00  0.00    -0.269 OA
BRANCH  30  33
ATOM     33  C   UNL A   1      40.042  22.615  26.823  1.00  0.00     0.039 A 
ATOM     34  C   UNL A   1      40.929  22.750  27.892  1.00  0.00     0.014 A 
ATOM     35  C   UNL A   1      39.537  23.746  26.177  1.00  0.00     0.014 A 
ATOM     36  C   UNL A   1      41.363  24.022  28.271  1.00  0.00     0.010 A 
ATOM     37  C   UNL A   1      40.035  25.004  26.499  1.00  0.00     0.010 A 
ATOM     38  C   UNL A   1      40.950  25.157  27.552  1.00  0.00    -0.014 A 
BRANCH  38  39
ATOM     39  C   UNL A   1      41.476  26.509  27.875  1.00  0.00     0.031 A 
ATOM     40  C   UNL A   1      42.901  26.867  27.549  1.00  0.00     0.074 A 
ATOM     41  C   UNL A   1      40.696  27.385  28.541  1.00  0.00     0.049 A 
ATOM     42  N   UNL A   1      43.549  27.974  27.799  1.00  0.00    -0.248 NA
ATOM     43  C   UNL A   1      43.712  25.837  26.878  1.00  0.00     0.031 C 
ATOM     44  C   UNL A   1      39.322  27.131  28.983  1.00  0.00     0.029 A 
ATOM     45  N   UNL A   1      40.954  28.659  28.983  1.00  0.00    -0.354 N 
ATOM     46  C   UNL A   1      44.849  27.763  27.354  1.00  0.00     0.074 A 
ATOM     47  C   UNL A   1      44.907  26.409  26.848  1.00  0.00     0.031 C 
ATOM     48  C   UNL A   1      38.858  28.215  29.623  1.00  0.00     0.029 A 
ATOM     49  C   UNL A   1      39.907  29.228  29.670  1.00  0.00     0.049 A 
ATOM     50  H   UNL A   1      41.809  29.120  28.824  1.00  0.00     0.167 HD
ATOM     51  C   UNL A   1      45.893  28.624  27.343  1.00  0.00     0.034 A 
ATOM     52  C   UNL A   1      39.806  30.426  30.279  1.00  0.00     0.034 A 
ATOM     53  C   UNL A   1      45.821  29.982  27.810  1.00  0.00     0.049 A 
ATOM     54  C   UNL A   1      40.973  31.375  30.224  1.00  0.00     0.074 A 
ATOM     55  C   UNL A   1      46.795  30.963  27.753  1.00  0.00     0.029 A 
ATOM     56  N   UNL A   1      44.720  30.549  28.433  1.00  0.00    -0.354 N 
ATOM     57  N   UNL A   1      42.142  31.214  29.653  1.00  0.00    -0.248 NA
ATOM     58  C   UNL A   1      40.796  32.684  30.869  1.00  0.00     0.031 C 
ATOM     59  C   UNL A   1      46.296  32.111  28.376  1.00  0.00     0.029 A 
ATOM     60  C   UNL A   1      44.996  31.859  28.782  1.00  0.00     0.049 A 
ATOM     61  H   UNL A   1      43.868  30.087  28.602  1.00  0.00     0.167 HD
ATOM     62  C   UNL A   1      42.822  32.412  29.833  1.00  0.00     0.074 A 
ATOM     63  C   UNL A   1      41.927  33.297  30.550  1.00  0.00     0.031 C 
ATOM     64  C   UNL A   1      44.079  32.747  29.449  1.00  0.00     0.034 A 
BRANCH  51  65
ATOM     65  C   UNL A   1      47.199  28.139  26.770  1.00  0.00     0.023 A 
ATOM     66  C   UNL A   1      48.241  27.744  27.635  1.00  0.00     0.012 A 
ATOM     67  C   UNL A   1      47.374  28.011  25.378  1.00  0.00     0.148 A 
ATOM     68  C   UNL A   1      49.446  27.263  27.125  1.00  0.00     0.002 A 
ATOM     69  C   UNL A   1      48.558  27.485  24.878  1.00  0.00     0.091 A 
ATOM     70  F   UNL A   1      46.380  28.409  24.571  1.00  0.00    -0.205 F 
ATOM     71  C   UNL A   1      49.600  27.124  25.749  1.00  0.00     0.022 A 
BRANCH  69  72
ATOM     72  S   UNL A   1      48.825  27.186  23.128  1.00  0.00     0.127 S 
ATOM     73  O   UNL A   1      48.158  25.897  22.944  1.00  0.00    -0.237 OA
ATOM     74  O   UNL A   1      48.136  28.322  22.515  1.00  0.00    -0.237 OA
ATOM     75  O   UNL A   1      50.268  27.172  22.936  1.00  0.00    -0.744 OA
ENDBRANCH  69  72
ENDBRANCH  51  65
BRANCH  52  76
ATOM     76  C   UNL A   1      38.532  30.825  30.944  1.00  0.00     0.023 A 
ATOM     77  C   UNL A   1      38.341  30.531  32.308  1.00  0.00     0.012 A 
ATOM     78  C   UNL A   1      37.517  31.500  30.239  1.00  0.00     0.148 A 
ATOM     79  C   UNL A   1      37.148  30.867  32.949  1.00  0.00     0.002 A 
ATOM     80  C   UNL A   1      36.355  31.883  30.897  1.00  0.00     0.091 A 
ATOM     81  F   UNL A   1      37.713  31.762  28.939  1.00  0.00    -0.205 F 
ATOM     82  C   UNL A   1      36.159  31.550  32.246  1.00  0.00     0.022 A 
BRANCH  80  83
ATOM     83  S   UNL A   1      35.084  32.878  30.110  1.00  0.00     0.127 S 
ATOM     84  O   UNL A   1      35.856  34.018  29.624  1.00  0.00    -0.237 OA
ATOM     85  O   UNL A   1      34.596  31.974  29.069  1.00  0.00    -0.237 OA
ATOM     86  O   UNL A   1      34.110  33.172  31.154  1.00  0.00    -0.744 OA
ENDBRANCH  80  83
ENDBRANCH  52  76
BRANCH  64  87
ATOM     87  C   UNL A   1      44.554  34.145  29.748  1.00  0.00     0.023 A 
ATOM     88  C   UNL A   1      45.372  34.389  30.869  1.00  0.00     0.012 A 
ATOM     89  C   UNL A   1      44.250  35.205  28.871  1.00  0.00     0.148 A 
ATOM     90  C   UNL A   1      45.847  35.674  31.133  1.00  0.00     0.002 A 
ATOM     91  C   UNL A   1      44.772  36.470  29.110  1.00  0.00     0.091 A 
ATOM     92  F   UNL A   1      43.457  34.956  27.818  1.00  0.00    -0.205 F 
ATOM     93  C   UNL A   1      45.558  36.710  30.248  1.00  0.00     0.022 A 
BRANCH  91  94
ATOM     94  S   UNL A   1      44.537  37.840  27.972  1.00  0.00     0.127 S 
ATOM     95  O   UNL A   1      43.871  38.825  28.825  1.00  0.00    -0.237 OA
ATOM     96  O   UNL A   1      45.913  38.179  27.609  1.00  0.00    -0.237 OA
ATOM     97  O   UNL A   1      43.731  37.321  26.876  1.00  0.00    -0.744 OA
ENDBRANCH  91  94
ENDBRANCH  64  87
ENDBRANCH  38  39
ENDBRANCH  30  33
ENDBRANCH  28  29
ENDBRANCH  27  28
ENDBRANCH   1  27
TORSDOF 19
ENDMDL
