MODEL 1
REMARK VINA RESULT:     -10.3      0.000      0.000
REMARK SMILES CCCCCC(=O)N1CSC[C@H]1C(=O)NCCCCNC(=O)c1ccc(-c2c3nc(c(-c4cccc(S(=O)(=O)[O-])c4F)c4ccc([nH]4)c(-c4cccc(S(=O)(=O)[O-])c4F)c4nc(c(-c5cccc(S(=O)(=O)[O-])c5F)c5ccc2[nH]5)C=C4)C=C3)cc1
REMARK SMILES IDX 16 1 15 2 13 3 14 4 12 6 8 7 9 8 10 9 11 10 6 11 7 12 5 13
REMARK SMILES IDX 4 14 3 15 2 16 1 17 17 18 18 19 19 20 20 21 21 22 22 24
REMARK SMILES IDX 23 25 24 26 85 27 25 28 84 29 26 30 27 31 28 32 78 33 29 34
REMARK SMILES IDX 83 35 77 36 79 37 30 38 82 39 76 40 75 41 31 43 63 44 43 45
REMARK SMILES IDX 62 46 44 47 47 48 61 49 80 50 45 51 46 52 60 54 81 55 48 56
REMARK SMILES IDX 32 57 33 58 41 59 34 60 36 61 42 62 35 63 37 64 38 65 39 66
REMARK SMILES IDX 40 67 64 68 65 69 73 70 66 71 68 72 74 73 67 74 69 75 70 76
REMARK SMILES IDX 71 77 72 78 49 79 50 80 58 81 51 82 53 83 59 84 52 85 54 86
REMARK SMILES IDX 55 87 56 88 57 89
REMARK H PARENT 15 5 20 23 79 42 47 53
REMARK Flexibility Score: inf
ROOT
ATOM      1  C   UNL A   1      32.459  29.796  25.691  1.00  0.00     0.116 C 
ENDROOT
BRANCH   1   2
ATOM      2  N   UNL A   1      33.224  29.685  24.472  1.00  0.00    -0.354 N 
ATOM      3  C   UNL A   1      33.430  28.606  23.666  1.00  0.00     0.243 C 
ATOM      4  O   UNL A   1      33.914  28.826  22.549  1.00  0.00    -0.273 OA
ATOM      5  H   UNL A   1      33.662  30.515  24.177  1.00  0.00     0.163 HD
BRANCH   3   6
ATOM      6  C   UNL A   1      32.871  27.208  23.994  1.00  0.00     0.185 C 
ATOM      7  N   UNL A   1      31.612  26.776  23.367  1.00  0.00    -0.321 N 
ATOM      8  C   UNL A   1      31.685  25.568  22.596  1.00  0.00     0.190 C 
ATOM      9  S   UNL A   1      33.290  24.806  22.809  1.00  0.00    -0.138 SA
ATOM     10  C   UNL A   1      33.978  26.176  23.765  1.00  0.00     0.106 C 
BRANCH   7  11
ATOM     11  C   UNL A   1      30.446  27.410  23.752  1.00  0.00     0.223 C 
ATOM     12  O   UNL A   1      29.926  27.164  24.843  1.00  0.00    -0.275 OA
BRANCH  11  13
ATOM     13  C   UNL A   1      29.695  28.292  22.754  1.00  0.00     0.100 C 
BRANCH  13  14
ATOM     14  C   UNL A   1      28.209  28.568  22.973  1.00  0.00     0.010 C 
BRANCH  14  15
ATOM     15  C   UNL A   1      27.706  30.006  22.781  1.00  0.00     0.000 C 
BRANCH  15  16
ATOM     16  C   UNL A   1      28.739  31.058  22.356  1.00  0.00    -0.003 C 
ATOM     17  C   UNL A   1      28.661  32.361  23.130  1.00  0.00     0.004 C 
ENDBRANCH  15  16
ENDBRANCH  14  15
ENDBRANCH  13  14
ENDBRANCH  11  13
ENDBRANCH   7  11
ENDBRANCH   3   6
ENDBRANCH   1   2
BRANCH   1  18
ATOM     18  C   UNL A   1      31.139  30.527  25.483  1.00  0.00     0.023 C 
BRANCH  18  19
ATOM     19  C   UNL A   1      31.049  31.876  26.202  1.00  0.00     0.023 C 
BRANCH  19  20
ATOM     20  C   UNL A   1      32.355  32.374  26.815  1.00  0.00     0.116 C 
BRANCH  20  21
ATOM     21  N   UNL A   1      32.293  33.756  27.265  1.00  0.00    -0.352 N 
ATOM     22  C   UNL A   1      33.094  34.386  28.192  1.00  0.00     0.251 C 
ATOM     23  H   UNL A   1      31.590  34.311  26.856  1.00  0.00     0.163 HD
ATOM     24  O   UNL A   1      32.844  35.528  28.548  1.00  0.00    -0.269 OA
BRANCH  22  25
ATOM     25  C   UNL A   1      34.236  33.647  28.774  1.00  0.00     0.039 A 
ATOM     26  C   UNL A   1      35.533  34.096  28.513  1.00  0.00     0.014 A 
ATOM     27  C   UNL A   1      34.025  32.537  29.596  1.00  0.00     0.014 A 
ATOM     28  C   UNL A   1      36.618  33.460  29.120  1.00  0.00     0.010 A 
ATOM     29  C   UNL A   1      35.101  31.954  30.259  1.00  0.00     0.010 A 
ATOM     30  C   UNL A   1      36.409  32.401  30.019  1.00  0.00    -0.014 A 
BRANCH  30  31
ATOM     31  C   UNL A   1      37.550  31.743  30.707  1.00  0.00     0.031 A 
ATOM     32  C   UNL A   1      38.341  30.671  30.005  1.00  0.00     0.074 A 
ATOM     33  C   UNL A   1      37.831  32.060  31.988  1.00  0.00     0.049 A 
ATOM     34  N   UNL A   1      39.349  29.967  30.449  1.00  0.00    -0.248 NA
ATOM     35  C   UNL A   1      37.928  30.325  28.634  1.00  0.00     0.031 C 
ATOM     36  C   UNL A   1      37.082  33.014  32.808  1.00  0.00     0.029 A 
ATOM     37  N   UNL A   1      38.807  31.593  32.832  1.00  0.00    -0.354 N 
ATOM     38  C   UNL A   1      39.671  29.079  29.430  1.00  0.00     0.074 A 
ATOM     39  C   UNL A   1      38.723  29.302  28.361  1.00  0.00     0.031 C 
ATOM     40  C   UNL A   1      37.629  33.066  34.034  1.00  0.00     0.029 A 
ATOM     41  C   UNL A   1      38.752  32.136  34.095  1.00  0.00     0.049 A 
ATOM     42  H   UNL A   1      39.484  30.932  32.559  1.00  0.00     0.167 HD
ATOM     43  C   UNL A   1      40.686  28.184  29.371  1.00  0.00     0.034 A 
ATOM     44  C   UNL A   1      39.520  31.908  35.179  1.00  0.00     0.034 A 
ATOM     45  C   UNL A   1      41.656  27.999  30.415  1.00  0.00     0.049 A 
ATOM     46  C   UNL A   1      40.675  30.949  35.067  1.00  0.00     0.074 A 
ATOM     47  C   UNL A   1      42.772  27.180  30.417  1.00  0.00     0.029 A 
ATOM     48  N   UNL A   1      41.627  28.640  31.643  1.00  0.00    -0.354 N 
ATOM     49  N   UNL A   1      41.064  30.243  34.034  1.00  0.00    -0.248 NA
ATOM     50  C   UNL A   1      41.523  30.787  36.258  1.00  0.00     0.031 C 
ATOM     51  C   UNL A   1      43.409  27.314  31.655  1.00  0.00     0.029 A 
ATOM     52  C   UNL A   1      42.702  28.234  32.414  1.00  0.00     0.049 A 
ATOM     53  H   UNL A   1      40.942  29.288  31.926  1.00  0.00     0.167 HD
ATOM     54  C   UNL A   1      42.218  29.580  34.438  1.00  0.00     0.074 A 
ATOM     55  C   UNL A   1      42.480  29.992  35.800  1.00  0.00     0.031 C 
ATOM     56  C   UNL A   1      42.982  28.695  33.750  1.00  0.00     0.034 A 
BRANCH  43  57
ATOM     57  C   UNL A   1      40.841  27.385  28.104  1.00  0.00     0.023 A 
ATOM     58  C   UNL A   1      41.462  27.978  26.984  1.00  0.00     0.012 A 
ATOM     59  C   UNL A   1      40.434  26.038  28.034  1.00  0.00     0.148 A 
ATOM     60  C   UNL A   1      41.646  27.256  25.807  1.00  0.00     0.002 A 
ATOM     61  C   UNL A   1      40.662  25.311  26.871  1.00  0.00     0.091 A 
ATOM     62  F   UNL A   1      39.829  25.497  29.101  1.00  0.00    -0.205 F 
ATOM     63  C   UNL A   1      41.256  25.921  25.753  1.00  0.00     0.022 A 
BRANCH  61  64
ATOM     64  S   UNL A   1      40.270  23.564  26.724  1.00  0.00     0.127 S 
ATOM     65  O   UNL A   1      40.460  23.103  28.099  1.00  0.00    -0.237 OA
ATOM     66  O   UNL A   1      38.875  23.599  26.282  1.00  0.00    -0.237 OA
ATOM     67  O   UNL A   1      41.205  23.022  25.749  1.00  0.00    -0.744 OA
ENDBRANCH  61  64
ENDBRANCH  43  57
BRANCH  44  68
ATOM     68  C   UNL A   1      39.267  32.654  36.445  1.00  0.00     0.023 A 
ATOM     69  C   UNL A   1      39.898  33.896  36.656  1.00  0.00     0.012 A 
ATOM     70  C   UNL A   1      38.400  32.149  37.432  1.00  0.00     0.148 A 
ATOM     71  C   UNL A   1      39.700  34.602  37.843  1.00  0.00     0.002 A 
ATOM     72  C   UNL A   1      38.164  32.884  38.589  1.00  0.00     0.091 A 
ATOM     73  F   UNL A   1      37.819  30.960  37.221  1.00  0.00    -0.205 F 
ATOM     74  C   UNL A   1      38.828  34.102  38.805  1.00  0.00     0.022 A 
BRANCH  72  75
ATOM     75  S   UNL A   1      36.957  32.378  39.818  1.00  0.00     0.127 S 
ATOM     76  O   UNL A   1      37.045  33.463  40.789  1.00  0.00    -0.237 OA
ATOM     77  O   UNL A   1      35.720  32.349  39.036  1.00  0.00    -0.237 OA
ATOM     78  O   UNL A   1      37.400  31.070  40.282  1.00  0.00    -0.744 OA
ENDBRANCH  72  75
ENDBRANCH  44  68
BRANCH  56  79
ATOM     79  C   UNL A   1      44.195  28.133  34.442  1.00  0.00     0.023 A 
ATOM     80  C   UNL A   1      45.402  28.860  34.437  1.00  0.00     0.012 A 
ATOM     81  C   UNL A   1      44.120  26.922  35.157  1.00  0.00     0.148 A 
ATOM     82  C   UNL A   1      46.525  28.373  35.105  1.00  0.00     0.002 A 
ATOM     83  C   UNL A   1      45.229  26.468  35.862  1.00  0.00     0.091 A 
ATOM     84  F   UNL A   1      42.968  26.235  35.134  1.00  0.00    -0.205 F 
ATOM     85  C   UNL A   1      46.435  27.185  35.826  1.00  0.00     0.022 A 
BRANCH  83  86
ATOM     86  S   UNL A   1      45.176  24.999  36.895  1.00  0.00     0.127 S 
ATOM     87  O   UNL A   1      44.952  23.946  35.906  1.00  0.00    -0.237 OA
ATOM     88  O   UNL A   1      46.508  24.996  37.499  1.00  0.00    -0.237 OA
ATOM     89  O   UNL A   1      44.087  25.213  37.839  1.00  0.00    -0.744 OA
ENDBRANCH  83  86
ENDBRANCH  56  79
ENDBRANCH  30  31
ENDBRANCH  22  25
ENDBRANCH  20  21
ENDBRANCH  19  20
ENDBRANCH  18  19
ENDBRANCH   1  18
TORSDOF 19
ENDMDL
MODEL 2
REMARK VINA RESULT:     -10.0      0.783      7.713
REMARK SMILES CCCCCC(=O)N1CSC[C@H]1C(=O)NCCCCNC(=O)c1ccc(-c2c3nc(c(-c4cccc(S(=O)(=O)[O-])c4F)c4ccc([nH]4)c(-c4cccc(S(=O)(=O)[O-])c4F)c4nc(c(-c5cccc(S(=O)(=O)[O-])c5F)c5ccc2[nH]5)C=C4)C=C3)cc1
REMARK SMILES IDX 16 1 15 2 13 3 14 4 12 6 8 7 9 8 10 9 11 10 6 11 7 12 5 13
REMARK SMILES IDX 4 14 3 15 2 16 1 17 17 18 18 19 19 20 20 21 21 22 22 24
REMARK SMILES IDX 23 25 24 26 85 27 25 28 84 29 26 30 27 31 28 32 78 33 29 34
REMARK SMILES IDX 83 35 77 36 79 37 30 38 82 39 76 40 75 41 31 43 63 44 43 45
REMARK SMILES IDX 62 46 44 47 47 48 61 49 80 50 45 51 46 52 60 54 81 55 48 56
REMARK SMILES IDX 32 57 33 58 41 59 34 60 36 61 42 62 35 63 37 64 38 65 39 66
REMARK SMILES IDX 40 67 64 68 65 69 73 70 66 71 68 72 74 73 67 74 69 75 70 76
REMARK SMILES IDX 71 77 72 78 49 79 50 80 58 81 51 82 53 83 59 84 52 85 54 86
REMARK SMILES IDX 55 87 56 88 57 89
REMARK H PARENT 15 5 20 23 79 42 47 53
REMARK Flexibility Score: inf
ROOT
ATOM      1  C   UNL A   1      32.494  29.746  25.952  1.00  0.00     0.116 C 
ENDROOT
BRANCH   1   2
ATOM      2  N   UNL A   1      33.292  29.565  24.763  1.00  0.00    -0.354 N 
ATOM      3  C   UNL A   1      33.493  28.449  24.008  1.00  0.00     0.243 C 
ATOM      4  O   UNL A   1      34.016  28.609  22.899  1.00  0.00    -0.273 OA
ATOM      5  H   UNL A   1      33.761  30.370  24.449  1.00  0.00     0.163 HD
BRANCH   3   6
ATOM      6  C   UNL A   1      32.886  27.080  24.375  1.00  0.00     0.185 C 
ATOM      7  N   UNL A   1      31.830  26.514  23.522  1.00  0.00    -0.321 N 
ATOM      8  C   UNL A   1      32.109  25.221  22.965  1.00  0.00     0.190 C 
ATOM      9  S   UNL A   1      33.618  24.567  23.669  1.00  0.00    -0.138 SA
ATOM     10  C   UNL A   1      34.028  26.079  24.569  1.00  0.00     0.106 C 
BRANCH   7  11
ATOM     11  C   UNL A   1      30.597  27.138  23.518  1.00  0.00     0.223 C 
ATOM     12  O   UNL A   1      29.734  26.834  24.344  1.00  0.00    -0.275 OA
BRANCH  11  13
ATOM     13  C   UNL A   1      30.230  28.088  22.377  1.00  0.00     0.100 C 
BRANCH  13  14
ATOM     14  C   UNL A   1      30.094  29.582  22.664  1.00  0.00     0.010 C 
BRANCH  14  15
ATOM     15  C   UNL A   1      29.366  30.452  21.630  1.00  0.00     0.000 C 
BRANCH  15  16
ATOM     16  C   UNL A   1      28.008  31.038  22.038  1.00  0.00    -0.003 C 
ATOM     17  C   UNL A   1      27.664  30.859  23.504  1.00  0.00     0.004 C 
ENDBRANCH  15  16
ENDBRANCH  14  15
ENDBRANCH  13  14
ENDBRANCH  11  13
ENDBRANCH   7  11
ENDBRANCH   3   6
ENDBRANCH   1   2
BRANCH   1  18
ATOM     18  C   UNL A   1      31.388  30.774  25.757  1.00  0.00     0.023 C 
BRANCH  18  19
ATOM     19  C   UNL A   1      31.393  31.905  26.790  1.00  0.00     0.023 C 
BRANCH  19  20
ATOM     20  C   UNL A   1      32.740  32.592  26.995  1.00  0.00     0.116 C 
BRANCH  20  21
ATOM     21  N   UNL A   1      32.632  33.899  27.625  1.00  0.00    -0.352 N 
ATOM     22  C   UNL A   1      33.413  34.425  28.631  1.00  0.00     0.251 C 
ATOM     23  H   UNL A   1      31.912  34.481  27.291  1.00  0.00     0.163 HD
ATOM     24  O   UNL A   1      33.125  35.500  29.136  1.00  0.00    -0.269 OA
BRANCH  22  25
ATOM     25  C   UNL A   1      34.578  33.652  29.115  1.00  0.00     0.039 A 
ATOM     26  C   UNL A   1      35.863  34.095  28.789  1.00  0.00     0.014 A 
ATOM     27  C   UNL A   1      34.403  32.515  29.909  1.00  0.00     0.014 A 
ATOM     28  C   UNL A   1      36.974  33.424  29.305  1.00  0.00     0.010 A 
ATOM     29  C   UNL A   1      35.510  31.896  30.482  1.00  0.00     0.010 A 
ATOM     30  C   UNL A   1      36.807  32.336  30.177  1.00  0.00    -0.014 A 
BRANCH  30  31
ATOM     31  C   UNL A   1      37.978  31.640  30.769  1.00  0.00     0.031 A 
ATOM     32  C   UNL A   1      38.480  32.033  32.134  1.00  0.00     0.074 A 
ATOM     33  C   UNL A   1      38.634  30.705  30.052  1.00  0.00     0.049 A 
ATOM     34  N   UNL A   1      39.500  31.562  32.803  1.00  0.00    -0.248 NA
ATOM     35  C   UNL A   1      37.759  33.115  32.826  1.00  0.00     0.031 C 
ATOM     36  C   UNL A   1      38.303  30.302  28.684  1.00  0.00     0.029 A 
ATOM     37  N   UNL A   1      39.731  29.942  30.366  1.00  0.00    -0.354 N 
ATOM     38  C   UNL A   1      39.562  32.305  33.976  1.00  0.00     0.074 A 
ATOM     39  C   UNL A   1      38.504  33.289  33.908  1.00  0.00     0.031 C 
ATOM     40  C   UNL A   1      39.174  29.362  28.279  1.00  0.00     0.029 A 
ATOM     41  C   UNL A   1      40.137  29.112  29.347  1.00  0.00     0.049 A 
ATOM     42  H   UNL A   1      40.185  29.985  31.239  1.00  0.00     0.167 HD
ATOM     43  C   UNL A   1      40.397  32.160  35.031  1.00  0.00     0.034 A 
ATOM     44  C   UNL A   1      41.169  28.247  29.282  1.00  0.00     0.034 A 
ATOM     45  C   UNL A   1      41.416  31.150  35.117  1.00  0.00     0.049 A 
ATOM     46  C   UNL A   1      42.048  28.067  30.491  1.00  0.00     0.074 A 
ATOM     47  C   UNL A   1      42.257  30.865  36.179  1.00  0.00     0.029 A 
ATOM     48  N   UNL A   1      41.733  30.260  34.104  1.00  0.00    -0.354 N 
ATOM     49  N   UNL A   1      41.982  28.665  31.656  1.00  0.00    -0.248 NA
ATOM     50  C   UNL A   1      43.118  27.063  30.392  1.00  0.00     0.031 C 
ATOM     51  C   UNL A   1      43.095  29.811  35.801  1.00  0.00     0.029 A 
ATOM     52  C   UNL A   1      42.760  29.426  34.512  1.00  0.00     0.049 A 
ATOM     53  H   UNL A   1      41.294  30.225  33.224  1.00  0.00     0.167 HD
ATOM     54  C   UNL A   1      42.977  28.087  32.438  1.00  0.00     0.074 A 
ATOM     55  C   UNL A   1      43.611  27.073  31.623  1.00  0.00     0.031 C 
ATOM     56  C   UNL A   1      43.345  28.383  33.709  1.00  0.00     0.034 A 
BRANCH  43  57
ATOM     57  C   UNL A   1      40.198  33.074  36.212  1.00  0.00     0.023 A 
ATOM     58  C   UNL A   1      40.796  34.352  36.205  1.00  0.00     0.012 A 
ATOM     59  C   UNL A   1      39.375  32.703  37.294  1.00  0.00     0.148 A 
ATOM     60  C   UNL A   1      40.608  35.232  37.269  1.00  0.00     0.002 A 
ATOM     61  C   UNL A   1      39.156  33.604  38.330  1.00  0.00     0.091 A 
ATOM     62  F   UNL A   1      38.830  31.479  37.292  1.00  0.00    -0.205 F 
ATOM     63  C   UNL A   1      39.780  34.863  38.325  1.00  0.00     0.022 A 
BRANCH  61  64
ATOM     64  S   UNL A   1      38.045  33.258  39.699  1.00  0.00     0.127 S 
ATOM     65  O   UNL A   1      38.145  34.492  40.478  1.00  0.00    -0.237 OA
ATOM     66  O   UNL A   1      36.764  33.072  39.016  1.00  0.00    -0.237 OA
ATOM     67  O   UNL A   1      38.567  32.066  40.350  1.00  0.00    -0.744 OA
ENDBRANCH  61  64
ENDBRANCH  43  57
BRANCH  44  68
ATOM     68  C   UNL A   1      41.386  27.432  28.053  1.00  0.00     0.023 A 
ATOM     69  C   UNL A   1      41.956  28.033  26.914  1.00  0.00     0.012 A 
ATOM     70  C   UNL A   1      41.042  26.067  28.009  1.00  0.00     0.148 A 
ATOM     71  C   UNL A   1      42.145  27.300  25.742  1.00  0.00     0.002 A 
ATOM     72  C   UNL A   1      41.284  25.329  26.856  1.00  0.00     0.091 A 
ATOM     73  F   UNL A   1      40.488  25.515  29.097  1.00  0.00    -0.205 F 
ATOM     74  C   UNL A   1      41.818  25.947  25.715  1.00  0.00     0.022 A 
BRANCH  72  75
ATOM     75  S   UNL A   1      41.016  23.555  26.778  1.00  0.00     0.127 S 
ATOM     76  O   UNL A   1      39.585  23.479  26.505  1.00  0.00    -0.237 OA
ATOM     77  O   UNL A   1      41.879  23.165  25.662  1.00  0.00    -0.237 OA
ATOM     78  O   UNL A   1      41.446  23.040  28.072  1.00  0.00    -0.744 OA
ENDBRANCH  72  75
ENDBRANCH  44  68
BRANCH  56  79
ATOM     79  C   UNL A   1      44.465  27.580  34.316  1.00  0.00     0.023 A 
ATOM     80  C   UNL A   1      45.794  28.035  34.200  1.00  0.00     0.012 A 
ATOM     81  C   UNL A   1      44.194  26.417  35.063  1.00  0.00     0.148 A 
ATOM     82  C   UNL A   1      46.839  27.324  34.788  1.00  0.00     0.002 A 
ATOM     83  C   UNL A   1      45.236  25.742  35.689  1.00  0.00     0.091 A 
ATOM     84  F   UNL A   1      42.926  25.990  35.148  1.00  0.00    -0.205 F 
ATOM     85  C   UNL A   1      46.560  26.188  35.541  1.00  0.00     0.022 A 
BRANCH  83  86
ATOM     86  S   UNL A   1      44.960  24.325  36.757  1.00  0.00     0.127 S 
ATOM     87  O   UNL A   1      44.346  23.371  35.835  1.00  0.00    -0.237 OA
ATOM     88  O   UNL A   1      46.319  23.981  37.176  1.00  0.00    -0.237 OA
ATOM     89  O   UNL A   1      44.099  24.797  37.834  1.00  0.00    -0.744 OA
ENDBRANCH  83  86
ENDBRANCH  56  79
ENDBRANCH  30  31
ENDBRANCH  22  25
ENDBRANCH  20  21
ENDBRANCH  19  20
ENDBRANCH  18  19
ENDBRANCH   1  18
TORSDOF 19
ENDMDL
MODEL 3
REMARK VINA RESULT:     -10.0      3.872      9.159
REMARK SMILES CCCCCC(=O)N1CSC[C@H]1C(=O)NCCCCNC(=O)c1ccc(-c2c3nc(c(-c4cccc(S(=O)(=O)[O-])c4F)c4ccc([nH]4)c(-c4cccc(S(=O)(=O)[O-])c4F)c4nc(c(-c5cccc(S(=O)(=O)[O-])c5F)c5ccc2[nH]5)C=C4)C=C3)cc1
REMARK SMILES IDX 16 1 15 2 13 3 14 4 12 6 8 7 9 8 10 9 11 10 6 11 7 12 5 13
REMARK SMILES IDX 4 14 3 15 2 16 1 17 17 18 18 19 19 20 20 21 21 22 22 24
REMARK SMILES IDX 23 25 24 26 85 27 25 28 84 29 26 30 27 31 28 32 78 33 29 34
REMARK SMILES IDX 83 35 77 36 79 37 30 38 82 39 76 40 75 41 31 43 63 44 43 45
REMARK SMILES IDX 62 46 44 47 47 48 61 49 80 50 45 51 46 52 60 54 81 55 48 56
REMARK SMILES IDX 32 57 33 58 41 59 34 60 36 61 42 62 35 63 37 64 38 65 39 66
REMARK SMILES IDX 40 67 64 68 65 69 73 70 66 71 68 72 74 73 67 74 69 75 70 76
REMARK SMILES IDX 71 77 72 78 49 79 50 80 58 81 51 82 53 83 59 84 52 85 54 86
REMARK SMILES IDX 55 87 56 88 57 89
REMARK H PARENT 15 5 20 23 79 42 47 53
REMARK Flexibility Score: inf
ROOT
ATOM      1  C   UNL A   1      33.634  25.668  25.400  1.00  0.00     0.116 C 
ENDROOT
BRANCH   1   2
ATOM      2  N   UNL A   1      33.951  25.088  24.117  1.00  0.00    -0.354 N 
ATOM      3  C   UNL A   1      34.681  23.978  23.817  1.00  0.00     0.243 C 
ATOM      4  O   UNL A   1      34.598  23.548  22.660  1.00  0.00    -0.273 OA
ATOM      5  H   UNL A   1      33.583  25.567  23.340  1.00  0.00     0.163 HD
BRANCH   3   6
ATOM      6  C   UNL A   1      35.382  23.130  24.897  1.00  0.00     0.185 C 
ATOM      7  N   UNL A   1      34.841  21.804  25.228  1.00  0.00    -0.321 N 
ATOM      8  C   UNL A   1      35.751  20.704  25.068  1.00  0.00     0.190 C 
ATOM      9  S   UNL A   1      37.392  21.321  24.706  1.00  0.00    -0.138 SA
ATOM     10  C   UNL A   1      36.872  23.044  24.555  1.00  0.00     0.106 C 
BRANCH   7  11
ATOM     11  C   UNL A   1      33.621  21.744  25.873  1.00  0.00     0.223 C 
ATOM     12  O   UNL A   1      33.513  22.098  27.049  1.00  0.00    -0.275 OA
BRANCH  11  13
ATOM     13  C   UNL A   1      32.430  21.073  25.188  1.00  0.00     0.100 C 
BRANCH  13  14
ATOM     14  C   UNL A   1      32.671  20.205  23.954  1.00  0.00     0.010 C 
BRANCH  14  15
ATOM     15  C   UNL A   1      32.448  18.692  24.082  1.00  0.00     0.000 C 
BRANCH  15  16
ATOM     16  C   UNL A   1      32.825  17.823  22.873  1.00  0.00    -0.003 C 
ATOM     17  C   UNL A   1      33.995  16.889  23.114  1.00  0.00     0.004 C 
ENDBRANCH  15  16
ENDBRANCH  14  15
ENDBRANCH  13  14
ENDBRANCH  11  13
ENDBRANCH   7  11
ENDBRANCH   3   6
ENDBRANCH   1   2
BRANCH   1  18
ATOM     18  C   UNL A   1      32.879  26.984  25.271  1.00  0.00     0.023 C 
BRANCH  18  19
ATOM     19  C   UNL A   1      33.714  28.222  25.611  1.00  0.00     0.023 C 
BRANCH  19  20
ATOM     20  C   UNL A   1      33.509  28.777  27.018  1.00  0.00     0.116 C 
BRANCH  20  21
ATOM     21  N   UNL A   1      33.613  30.227  27.088  1.00  0.00    -0.352 N 
ATOM     22  C   UNL A   1      34.635  30.982  27.621  1.00  0.00     0.251 C 
ATOM     23  H   UNL A   1      32.858  30.732  26.707  1.00  0.00     0.163 HD
ATOM     24  O   UNL A   1      34.523  32.196  27.708  1.00  0.00    -0.269 OA
BRANCH  22  25
ATOM     25  C   UNL A   1      35.848  30.298  28.120  1.00  0.00     0.039 A 
ATOM     26  C   UNL A   1      36.985  30.267  27.310  1.00  0.00     0.014 A 
ATOM     27  C   UNL A   1      35.871  29.718  29.391  1.00  0.00     0.014 A 
ATOM     28  C   UNL A   1      38.164  29.698  27.798  1.00  0.00     0.010 A 
ATOM     29  C   UNL A   1      37.066  29.220  29.903  1.00  0.00     0.010 A 
ATOM     30  C   UNL A   1      38.221  29.194  29.108  1.00  0.00    -0.014 A 
BRANCH  30  31
ATOM     31  C   UNL A   1      39.480  28.626  29.657  1.00  0.00     0.031 A 
ATOM     32  C   UNL A   1      40.119  29.241  30.873  1.00  0.00     0.074 A 
ATOM     33  C   UNL A   1      40.084  27.602  29.021  1.00  0.00     0.049 A 
ATOM     34  N   UNL A   1      41.227  28.904  31.481  1.00  0.00    -0.248 NA
ATOM     35  C   UNL A   1      39.441  30.405  31.469  1.00  0.00     0.031 C 
ATOM     36  C   UNL A   1      39.614  26.978  27.782  1.00  0.00     0.029 A 
ATOM     37  N   UNL A   1      41.240  26.921  29.316  1.00  0.00    -0.354 N 
ATOM     38  C   UNL A   1      41.394  29.826  32.507  1.00  0.00     0.074 A 
ATOM     39  C   UNL A   1      40.298  30.764  32.413  1.00  0.00     0.031 C 
ATOM     40  C   UNL A   1      40.469  26.004  27.427  1.00  0.00     0.029 A 
ATOM     41  C   UNL A   1      41.558  25.947  28.398  1.00  0.00     0.049 A 
ATOM     42  H   UNL A   1      41.788  27.112  30.111  1.00  0.00     0.167 HD
ATOM     43  C   UNL A   1      42.351  29.868  33.464  1.00  0.00     0.034 A 
ATOM     44  C   UNL A   1      42.608  25.105  28.345  1.00  0.00     0.034 A 
ATOM     45  C   UNL A   1      43.411  28.905  33.584  1.00  0.00     0.049 A 
ATOM     46  C   UNL A   1      43.626  25.138  29.454  1.00  0.00     0.074 A 
ATOM     47  C   UNL A   1      44.379  28.811  34.569  1.00  0.00     0.029 A 
ATOM     48  N   UNL A   1      43.644  27.872  32.692  1.00  0.00    -0.354 N 
ATOM     49  N   UNL A   1      43.672  25.912  30.510  1.00  0.00    -0.248 NA
ATOM     50  C   UNL A   1      44.716  24.153  29.385  1.00  0.00     0.031 C 
ATOM     51  C   UNL A   1      45.209  27.728  34.262  1.00  0.00     0.029 A 
ATOM     52  C   UNL A   1      44.743  27.135  33.099  1.00  0.00     0.049 A 
ATOM     53  H   UNL A   1      43.109  27.689  31.887  1.00  0.00     0.167 HD
ATOM     54  C   UNL A   1      44.772  25.487  31.248  1.00  0.00     0.074 A 
ATOM     55  C   UNL A   1      45.347  24.369  30.531  1.00  0.00     0.031 C 
ATOM     56  C   UNL A   1      45.272  25.989  32.404  1.00  0.00     0.034 A 
BRANCH  43  57
ATOM     57  C   UNL A   1      42.253  30.955  34.503  1.00  0.00     0.023 A 
ATOM     58  C   UNL A   1      41.572  30.696  35.711  1.00  0.00     0.012 A 
ATOM     59  C   UNL A   1      42.881  32.202  34.318  1.00  0.00     0.148 A 
ATOM     60  C   UNL A   1      41.488  31.670  36.704  1.00  0.00     0.002 A 
ATOM     61  C   UNL A   1      42.831  33.153  35.331  1.00  0.00     0.091 A 
ATOM     62  F   UNL A   1      43.507  32.437  33.156  1.00  0.00    -0.205 F 
ATOM     63  C   UNL A   1      42.126  32.893  36.519  1.00  0.00     0.022 A 
BRANCH  61  64
ATOM     64  S   UNL A   1      43.684  34.730  35.227  1.00  0.00     0.127 S 
ATOM     65  O   UNL A   1      42.932  35.402  34.167  1.00  0.00    -0.237 OA
ATOM     66  O   UNL A   1      43.474  35.282  36.565  1.00  0.00    -0.237 OA
ATOM     67  O   UNL A   1      45.069  34.418  34.907  1.00  0.00    -0.744 OA
ENDBRANCH  61  64
ENDBRANCH  43  57
BRANCH  44  68
ATOM     68  C   UNL A   1      42.713  24.108  27.241  1.00  0.00     0.023 A 
ATOM     69  C   UNL A   1      43.389  24.456  26.055  1.00  0.00     0.012 A 
ATOM     70  C   UNL A   1      42.161  22.819  27.363  1.00  0.00     0.148 A 
ATOM     71  C   UNL A   1      43.479  23.552  24.997  1.00  0.00     0.002 A 
ATOM     72  C   UNL A   1      42.302  21.904  26.326  1.00  0.00     0.091 A 
ATOM     73  F   UNL A   1      41.509  22.509  28.493  1.00  0.00    -0.205 F 
ATOM     74  C   UNL A   1      42.945  22.274  25.134  1.00  0.00     0.022 A 
BRANCH  72  75
ATOM     75  S   UNL A   1      41.760  20.198  26.470  1.00  0.00     0.127 S 
ATOM     76  O   UNL A   1      42.302  19.820  27.771  1.00  0.00    -0.237 OA
ATOM     77  O   UNL A   1      40.304  20.337  26.425  1.00  0.00    -0.237 OA
ATOM     78  O   UNL A   1      42.329  19.511  25.318  1.00  0.00    -0.744 OA
ENDBRANCH  72  75
ENDBRANCH  44  68
BRANCH  56  79
ATOM     79  C   UNL A   1      46.484  25.316  32.991  1.00  0.00     0.023 A 
ATOM     80  C   UNL A   1      47.772  25.797  32.675  1.00  0.00     0.012 A 
ATOM     81  C   UNL A   1      46.347  24.258  33.910  1.00  0.00     0.148 A 
ATOM     82  C   UNL A   1      48.904  25.210  33.239  1.00  0.00     0.002 A 
ATOM     83  C   UNL A   1      47.478  23.712  34.505  1.00  0.00     0.091 A 
ATOM     84  F   UNL A   1      45.116  23.803  34.184  1.00  0.00    -0.205 F 
ATOM     85  C   UNL A   1      48.757  24.178  34.161  1.00  0.00     0.022 A 
BRANCH  83  86
ATOM     86  S   UNL A   1      47.379  22.445  35.776  1.00  0.00     0.127 S 
ATOM     87  O   UNL A   1      46.273  22.932  36.597  1.00  0.00    -0.237 OA
ATOM     88  O   UNL A   1      47.078  21.245  34.995  1.00  0.00    -0.237 OA
ATOM     89  O   UNL A   1      48.683  22.429  36.426  1.00  0.00    -0.744 OA
ENDBRANCH  83  86
ENDBRANCH  56  79
ENDBRANCH  30  31
ENDBRANCH  22  25
ENDBRANCH  20  21
ENDBRANCH  19  20
ENDBRANCH  18  19
ENDBRANCH   1  18
TORSDOF 19
ENDMDL
