MODEL 1
REMARK VINA RESULT:     -11.6      0.000      0.000
REMARK SMILES O=C(CSCc1ccc(Cl)s1)Nc1ccsc1C(=O)NCCCCNC(=O)c1ccc(-c2c3nc(c(-c4cccc(S(=O)(=O)[O-])c4F)c4ccc([nH]4)c(-c4cccc(S(=O)(=O)[O-])c4F)c4nc(c(-c5cccc(S(=O)(=O)[O-])c5F)c5ccc2[nH]5)C=C4)C=C3)cc1
REMARK SMILES IDX 21 1 20 2 18 3 19 4 17 6 13 7 14 8 15 9 16 10 12 11 1 12
REMARK SMILES IDX 2 13 3 15 4 16 5 17 6 18 7 19 11 20 8 21 9 22 10 23 22 24
REMARK SMILES IDX 23 25 24 26 25 27 26 28 27 30 28 31 29 32 90 33 30 34 89 35
REMARK SMILES IDX 31 36 32 37 33 38 83 39 34 40 88 41 82 42 84 43 35 44 87 45
REMARK SMILES IDX 81 46 80 47 36 49 68 50 48 51 67 52 49 53 52 54 66 55 85 56
REMARK SMILES IDX 50 57 51 58 65 60 86 61 53 62 37 63 38 64 46 65 39 66 41 67
REMARK SMILES IDX 47 68 40 69 42 70 43 71 44 72 45 73 69 74 70 75 78 76 71 77
REMARK SMILES IDX 73 78 79 79 72 80 74 81 75 82 76 83 77 84 54 85 55 86 63 87
REMARK SMILES IDX 56 88 58 89 64 90 57 91 59 92 60 93 61 94 62 95
REMARK H PARENT 20 5 12 14 25 29 84 48 52 59
REMARK Flexibility Score: inf
ROOT
ATOM      1  C   UNL A   1      33.790  27.171  25.108  1.00  0.00     0.116 C 
ENDROOT
BRANCH   1   2
ATOM      2  N   UNL A   1      33.540  26.706  23.772  1.00  0.00    -0.351 N 
ATOM      3  C   UNL A   1      32.430  26.520  22.997  1.00  0.00     0.263 C 
ATOM      4  O   UNL A   1      32.742  26.150  21.855  1.00  0.00    -0.268 OA
ATOM      5  H   UNL A   1      34.369  26.462  23.302  1.00  0.00     0.163 HD
BRANCH   3   6
ATOM      6  C   UNL A   1      31.024  26.714  23.390  1.00  0.00     0.115 A 
ATOM      7  C   UNL A   1      29.977  26.006  23.996  1.00  0.00     0.065 A 
ATOM      8  C   UNL A   1      28.721  26.703  23.849  1.00  0.00     0.038 A 
ATOM      9  C   UNL A   1      28.820  27.920  23.232  1.00  0.00     0.068 A 
ATOM     10  S   UNL A   1      30.416  28.266  22.818  1.00  0.00    -0.137 S 
BRANCH   7  11
ATOM     11  N   UNL A   1      30.022  24.799  24.702  1.00  0.00    -0.324 N 
ATOM     12  O   UNL A   1      30.998  25.571  26.662  1.00  0.00    -0.274 OA
ATOM     13  C   UNL A   1      30.689  24.645  25.913  1.00  0.00     0.234 C 
ATOM     14  H   UNL A   1      29.558  24.019  24.323  1.00  0.00     0.170 HD
BRANCH  13  15
ATOM     15  C   UNL A   1      31.077  23.223  26.275  1.00  0.00     0.170 C 
BRANCH  15  16
ATOM     16  S   UNL A   1      32.137  22.362  25.091  1.00  0.00    -0.146 SA
BRANCH  16  17
ATOM     17  C   UNL A   1      33.573  23.475  24.947  1.00  0.00     0.116 C 
BRANCH  17  18
ATOM     18  C   UNL A   1      34.886  22.799  24.690  1.00  0.00     0.016 A 
ATOM     19  C   UNL A   1      35.991  23.182  23.951  1.00  0.00     0.018 A 
ATOM     20  S   UNL A   1      35.137  21.247  25.406  1.00  0.00    -0.128 S 
ATOM     21  C   UNL A   1      37.028  22.198  23.963  1.00  0.00     0.033 A 
ATOM     22  C   UNL A   1      36.670  21.111  24.713  1.00  0.00     0.093 A 
ATOM     23  Cl  UNL A   1      37.610  19.701  24.988  1.00  0.00    -0.072 Cl
ENDBRANCH  17  18
ENDBRANCH  16  17
ENDBRANCH  15  16
ENDBRANCH  13  15
ENDBRANCH   7  11
ENDBRANCH   3   6
ENDBRANCH   1   2
BRANCH   1  24
ATOM     24  C   UNL A   1      34.002  28.681  25.115  1.00  0.00     0.023 C 
BRANCH  24  25
ATOM     25  C   UNL A   1      32.777  29.537  25.410  1.00  0.00     0.023 C 
BRANCH  25  26
ATOM     26  C   UNL A   1      32.616  29.930  26.874  1.00  0.00     0.116 C 
BRANCH  26  27
ATOM     27  N   UNL A   1      32.615  31.367  27.130  1.00  0.00    -0.352 N 
ATOM     28  C   UNL A   1      33.653  32.145  27.594  1.00  0.00     0.251 C 
ATOM     29  H   UNL A   1      31.769  31.838  26.949  1.00  0.00     0.163 HD
ATOM     30  O   UNL A   1      33.508  33.351  27.772  1.00  0.00    -0.269 OA
BRANCH  28  31
ATOM     31  C   UNL A   1      34.925  31.488  27.947  1.00  0.00     0.039 A 
ATOM     32  C   UNL A   1      36.081  32.267  28.041  1.00  0.00     0.014 A 
ATOM     33  C   UNL A   1      34.943  30.141  28.311  1.00  0.00     0.014 A 
ATOM     34  C   UNL A   1      37.235  31.717  28.600  1.00  0.00     0.010 A 
ATOM     35  C   UNL A   1      36.060  29.626  28.952  1.00  0.00     0.010 A 
ATOM     36  C   UNL A   1      37.215  30.409  29.110  1.00  0.00    -0.014 A 
BRANCH  36  37
ATOM     37  C   UNL A   1      38.376  29.828  29.830  1.00  0.00     0.031 A 
ATOM     38  C   UNL A   1      38.705  30.307  31.217  1.00  0.00     0.074 A 
ATOM     39  C   UNL A   1      39.201  28.973  29.193  1.00  0.00     0.049 A 
ATOM     40  N   UNL A   1      39.749  30.041  31.955  1.00  0.00    -0.248 NA
ATOM     41  C   UNL A   1      37.754  31.246  31.836  1.00  0.00     0.031 C 
ATOM     42  C   UNL A   1      39.038  28.499  27.816  1.00  0.00     0.029 A 
ATOM     43  N   UNL A   1      40.361  28.372  29.612  1.00  0.00    -0.354 N 
ATOM     44  C   UNL A   1      39.610  30.820  33.097  1.00  0.00     0.074 A 
ATOM     45  C   UNL A   1      38.401  31.596  32.938  1.00  0.00     0.031 C 
ATOM     46  C   UNL A   1      40.050  27.671  27.512  1.00  0.00     0.029 A 
ATOM     47  C   UNL A   1      40.950  27.579  28.655  1.00  0.00     0.049 A 
ATOM     48  H   UNL A   1      40.738  28.498  30.514  1.00  0.00     0.167 HD
ATOM     49  C   UNL A   1      40.396  30.858  34.199  1.00  0.00     0.034 A 
ATOM     50  C   UNL A   1      42.087  26.856  28.700  1.00  0.00     0.034 A 
ATOM     51  C   UNL A   1      41.550  30.024  34.388  1.00  0.00     0.049 A 
ATOM     52  C   UNL A   1      42.899  26.850  29.967  1.00  0.00     0.074 A 
ATOM     53  C   UNL A   1      42.360  29.915  35.503  1.00  0.00     0.029 A 
ATOM     54  N   UNL A   1      42.047  29.141  33.442  1.00  0.00    -0.354 N 
ATOM     55  N   UNL A   1      42.674  27.487  31.091  1.00  0.00    -0.248 NA
ATOM     56  C   UNL A   1      44.100  26.003  29.985  1.00  0.00     0.031 C 
ATOM     57  C   UNL A   1      43.346  28.959  35.232  1.00  0.00     0.029 A 
ATOM     58  C   UNL A   1      43.147  28.474  33.950  1.00  0.00     0.049 A 
ATOM     59  H   UNL A   1      41.672  29.008  32.541  1.00  0.00     0.167 HD
ATOM     60  C   UNL A   1      43.682  27.090  31.962  1.00  0.00     0.074 A 
ATOM     61  C   UNL A   1      44.509  26.145  31.239  1.00  0.00     0.031 C 
ATOM     62  C   UNL A   1      43.915  27.486  33.236  1.00  0.00     0.034 A 
BRANCH  49  63
ATOM     63  C   UNL A   1      39.978  31.778  35.314  1.00  0.00     0.023 A 
ATOM     64  C   UNL A   1      40.530  33.075  35.381  1.00  0.00     0.012 A 
ATOM     65  C   UNL A   1      39.033  31.379  36.278  1.00  0.00     0.148 A 
ATOM     66  C   UNL A   1      40.180  33.944  36.412  1.00  0.00     0.002 A 
ATOM     67  C   UNL A   1      38.659  32.269  37.280  1.00  0.00     0.091 A 
ATOM     68  F   UNL A   1      38.541  30.134  36.218  1.00  0.00    -0.205 F 
ATOM     69  C   UNL A   1      39.239  33.544  37.355  1.00  0.00     0.022 A 
BRANCH  67  70
ATOM     70  S   UNL A   1      37.399  31.865  38.497  1.00  0.00     0.127 S 
ATOM     71  O   UNL A   1      36.374  32.865  38.205  1.00  0.00    -0.237 OA
ATOM     72  O   UNL A   1      37.038  30.495  38.131  1.00  0.00    -0.237 OA
ATOM     73  O   UNL A   1      38.052  31.988  39.794  1.00  0.00    -0.744 OA
ENDBRANCH  67  70
ENDBRANCH  49  63
BRANCH  50  74
ATOM     74  C   UNL A   1      42.467  25.995  27.543  1.00  0.00     0.023 A 
ATOM     75  C   UNL A   1      43.306  26.531  26.546  1.00  0.00     0.012 A 
ATOM     76  C   UNL A   1      42.045  24.657  27.438  1.00  0.00     0.148 A 
ATOM     77  C   UNL A   1      43.698  25.758  25.453  1.00  0.00     0.002 A 
ATOM     78  C   UNL A   1      42.477  23.877  26.371  1.00  0.00     0.091 A 
ATOM     79  F   UNL A   1      41.236  24.169  28.390  1.00  0.00    -0.205 F 
ATOM     80  C   UNL A   1      43.291  24.430  25.369  1.00  0.00     0.022 A 
BRANCH  78  81
ATOM     81  S   UNL A   1      42.104  22.124  26.250  1.00  0.00     0.127 S 
ATOM     82  O   UNL A   1      40.654  22.136  26.087  1.00  0.00    -0.237 OA
ATOM     83  O   UNL A   1      42.855  21.732  25.056  1.00  0.00    -0.237 OA
ATOM     84  O   UNL A   1      42.602  21.536  27.486  1.00  0.00    -0.744 OA
ENDBRANCH  78  81
ENDBRANCH  50  74
BRANCH  62  85
ATOM     85  C   UNL A   1      45.089  26.877  33.953  1.00  0.00     0.023 A 
ATOM     86  C   UNL A   1      46.339  27.523  33.911  1.00  0.00     0.012 A 
ATOM     87  C   UNL A   1      44.932  25.717  34.737  1.00  0.00     0.148 A 
ATOM     88  C   UNL A   1      47.423  27.012  34.623  1.00  0.00     0.002 A 
ATOM     89  C   UNL A   1      46.007  25.238  35.478  1.00  0.00     0.091 A 
ATOM     90  F   UNL A   1      43.739  25.104  34.745  1.00  0.00    -0.205 F 
ATOM     91  C   UNL A   1      47.255  25.879  35.416  1.00  0.00     0.022 A 
BRANCH  89  92
ATOM     92  S   UNL A   1      45.848  23.838  36.593  1.00  0.00     0.127 S 
ATOM     93  O   UNL A   1      47.217  23.686  37.080  1.00  0.00    -0.237 OA
ATOM     94  O   UNL A   1      44.898  24.335  37.589  1.00  0.00    -0.237 OA
ATOM     95  O   UNL A   1      45.342  22.740  35.779  1.00  0.00    -0.744 OA
ENDBRANCH  89  92
ENDBRANCH  62  85
ENDBRANCH  36  37
ENDBRANCH  28  31
ENDBRANCH  26  27
ENDBRANCH  25  26
ENDBRANCH  24  25
ENDBRANCH   1  24
TORSDOF 19
ENDMDL
MODEL 2
REMARK VINA RESULT:     -11.5      1.445      7.667
REMARK SMILES O=C(CSCc1ccc(Cl)s1)Nc1ccsc1C(=O)NCCCCNC(=O)c1ccc(-c2c3nc(c(-c4cccc(S(=O)(=O)[O-])c4F)c4ccc([nH]4)c(-c4cccc(S(=O)(=O)[O-])c4F)c4nc(c(-c5cccc(S(=O)(=O)[O-])c5F)c5ccc2[nH]5)C=C4)C=C3)cc1
REMARK SMILES IDX 21 1 20 2 18 3 19 4 17 6 13 7 14 8 15 9 16 10 12 11 1 12
REMARK SMILES IDX 2 13 3 15 4 16 5 17 6 18 7 19 11 20 8 21 9 22 10 23 22 24
REMARK SMILES IDX 23 25 24 26 25 27 26 28 27 30 28 31 29 32 90 33 30 34 89 35
REMARK SMILES IDX 31 36 32 37 33 38 83 39 34 40 88 41 82 42 84 43 35 44 87 45
REMARK SMILES IDX 81 46 80 47 36 49 68 50 48 51 67 52 49 53 52 54 66 55 85 56
REMARK SMILES IDX 50 57 51 58 65 60 86 61 53 62 37 63 38 64 46 65 39 66 41 67
REMARK SMILES IDX 47 68 40 69 42 70 43 71 44 72 45 73 69 74 70 75 78 76 71 77
REMARK SMILES IDX 73 78 79 79 72 80 74 81 75 82 76 83 77 84 54 85 55 86 63 87
REMARK SMILES IDX 56 88 58 89 64 90 57 91 59 92 60 93 61 94 62 95
REMARK H PARENT 20 5 12 14 25 29 84 48 52 59
REMARK Flexibility Score: inf
ROOT
ATOM      1  C   UNL A   1      33.672  26.828  24.471  1.00  0.00     0.116 C 
ENDROOT
BRANCH   1   2
ATOM      2  N   UNL A   1      33.138  26.195  23.298  1.00  0.00    -0.351 N 
ATOM      3  C   UNL A   1      31.910  26.128  22.700  1.00  0.00     0.263 C 
ATOM      4  O   UNL A   1      31.968  25.494  21.636  1.00  0.00    -0.268 OA
ATOM      5  H   UNL A   1      33.820  25.686  22.806  1.00  0.00     0.163 HD
BRANCH   3   6
ATOM      6  C   UNL A   1      30.647  26.707  23.189  1.00  0.00     0.115 A 
ATOM      7  C   UNL A   1      29.577  26.379  24.031  1.00  0.00     0.065 A 
ATOM      8  C   UNL A   1      28.483  27.309  23.876  1.00  0.00     0.038 A 
ATOM      9  C   UNL A   1      28.740  28.341  23.017  1.00  0.00     0.068 A 
ATOM     10  S   UNL A   1      30.295  28.232  22.378  1.00  0.00    -0.137 S 
BRANCH   7  11
ATOM     11  N   UNL A   1      29.475  25.337  24.961  1.00  0.00    -0.324 N 
ATOM     12  O   UNL A   1      31.000  26.113  26.531  1.00  0.00    -0.274 OA
ATOM     13  C   UNL A   1      30.324  25.201  26.054  1.00  0.00     0.234 C 
ATOM     14  H   UNL A   1      28.766  24.667  24.835  1.00  0.00     0.170 HD
BRANCH  13  15
ATOM     15  C   UNL A   1      30.422  23.806  26.643  1.00  0.00     0.170 C 
BRANCH  15  16
ATOM     16  S   UNL A   1      31.232  22.563  25.610  1.00  0.00    -0.146 SA
BRANCH  16  17
ATOM     17  C   UNL A   1      32.983  23.062  25.670  1.00  0.00     0.116 C 
BRANCH  17  18
ATOM     18  C   UNL A   1      33.972  21.975  25.377  1.00  0.00     0.016 A 
ATOM     19  C   UNL A   1      33.806  20.644  25.039  1.00  0.00     0.018 A 
ATOM     20  S   UNL A   1      35.649  22.378  25.468  1.00  0.00    -0.128 S 
ATOM     21  C   UNL A   1      35.049  19.960  24.872  1.00  0.00     0.033 A 
ATOM     22  C   UNL A   1      36.109  20.800  25.085  1.00  0.00     0.093 A 
ATOM     23  Cl  UNL A   1      37.774  20.392  24.996  1.00  0.00    -0.072 Cl
ENDBRANCH  17  18
ENDBRANCH  16  17
ENDBRANCH  15  16
ENDBRANCH  13  15
ENDBRANCH   7  11
ENDBRANCH   3   6
ENDBRANCH   1   2
BRANCH   1  24
ATOM     24  C   UNL A   1      34.027  28.281  24.178  1.00  0.00     0.023 C 
BRANCH  24  25
ATOM     25  C   UNL A   1      32.985  29.324  24.559  1.00  0.00     0.023 C 
BRANCH  25  26
ATOM     26  C   UNL A   1      32.742  29.459  26.058  1.00  0.00     0.116 C 
BRANCH  26  27
ATOM     27  N   UNL A   1      32.365  30.798  26.503  1.00  0.00    -0.352 N 
ATOM     28  C   UNL A   1      33.129  31.700  27.211  1.00  0.00     0.251 C 
ATOM     29  H   UNL A   1      31.455  31.091  26.269  1.00  0.00     0.163 HD
ATOM     30  O   UNL A   1      32.678  32.797  27.528  1.00  0.00    -0.269 OA
BRANCH  28  31
ATOM     31  C   UNL A   1      34.478  31.293  27.649  1.00  0.00     0.039 A 
ATOM     32  C   UNL A   1      35.458  32.276  27.807  1.00  0.00     0.014 A 
ATOM     33  C   UNL A   1      34.725  29.974  28.028  1.00  0.00     0.014 A 
ATOM     34  C   UNL A   1      36.658  31.953  28.441  1.00  0.00     0.010 A 
ATOM     35  C   UNL A   1      35.877  29.678  28.743  1.00  0.00     0.010 A 
ATOM     36  C   UNL A   1      36.852  30.664  28.964  1.00  0.00    -0.014 A 
BRANCH  36  37
ATOM     37  C   UNL A   1      38.053  30.311  29.760  1.00  0.00     0.031 A 
ATOM     38  C   UNL A   1      39.053  29.334  29.203  1.00  0.00     0.074 A 
ATOM     39  C   UNL A   1      38.179  30.765  31.023  1.00  0.00     0.049 A 
ATOM     40  N   UNL A   1      40.082  28.784  29.789  1.00  0.00    -0.248 NA
ATOM     41  C   UNL A   1      38.836  28.883  27.817  1.00  0.00     0.031 C 
ATOM     42  C   UNL A   1      37.232  31.650  31.708  1.00  0.00     0.029 A 
ATOM     43  N   UNL A   1      39.143  30.520  31.968  1.00  0.00    -0.354 N 
ATOM     44  C   UNL A   1      40.601  27.883  28.867  1.00  0.00     0.074 A 
ATOM     45  C   UNL A   1      39.752  27.934  27.698  1.00  0.00     0.031 C 
ATOM     46  C   UNL A   1      37.670  31.884  32.955  1.00  0.00     0.029 A 
ATOM     47  C   UNL A   1      38.909  31.144  33.172  1.00  0.00     0.049 A 
ATOM     48  H   UNL A   1      39.928  29.950  31.802  1.00  0.00     0.167 HD
ATOM     49  C   UNL A   1      41.709  27.111  28.967  1.00  0.00     0.034 A 
ATOM     50  C   UNL A   1      39.617  31.124  34.318  1.00  0.00     0.034 A 
ATOM     51  C   UNL A   1      42.596  27.126  30.096  1.00  0.00     0.049 A 
ATOM     52  C   UNL A   1      40.890  30.323  34.375  1.00  0.00     0.074 A 
ATOM     53  C   UNL A   1      43.794  26.456  30.258  1.00  0.00     0.029 A 
ATOM     54  N   UNL A   1      42.389  27.866  31.250  1.00  0.00    -0.354 N 
ATOM     55  N   UNL A   1      41.441  29.586  33.440  1.00  0.00    -0.248 NA
ATOM     56  C   UNL A   1      41.655  30.376  35.629  1.00  0.00     0.031 C 
ATOM     57  C   UNL A   1      44.316  26.796  31.512  1.00  0.00     0.029 A 
ATOM     58  C   UNL A   1      43.442  27.679  32.127  1.00  0.00     0.049 A 
ATOM     59  H   UNL A   1      41.608  28.441  31.419  1.00  0.00     0.167 HD
ATOM     60  C   UNL A   1      42.634  29.118  33.978  1.00  0.00     0.074 A 
ATOM     61  C   UNL A   1      42.733  29.670  35.315  1.00  0.00     0.031 C 
ATOM     62  C   UNL A   1      43.555  28.292  33.426  1.00  0.00     0.034 A 
BRANCH  49  63
ATOM     63  C   UNL A   1      42.058  26.250  27.783  1.00  0.00     0.023 A 
ATOM     64  C   UNL A   1      42.784  26.812  26.712  1.00  0.00     0.012 A 
ATOM     65  C   UNL A   1      41.695  24.891  27.733  1.00  0.00     0.148 A 
ATOM     66  C   UNL A   1      43.106  26.049  25.592  1.00  0.00     0.002 A 
ATOM     67  C   UNL A   1      42.056  24.125  26.629  1.00  0.00     0.091 A 
ATOM     68  F   UNL A   1      40.979  24.379  28.744  1.00  0.00    -0.205 F 
ATOM     69  C   UNL A   1      42.751  24.704  25.555  1.00  0.00     0.022 A 
BRANCH  67  70
ATOM     70  S   UNL A   1      41.702  22.366  26.526  1.00  0.00     0.127 S 
ATOM     71  O   UNL A   1      42.333  22.011  25.256  1.00  0.00    -0.237 OA
ATOM     72  O   UNL A   1      42.380  21.841  27.712  1.00  0.00    -0.237 OA
ATOM     73  O   UNL A   1      40.250  22.254  26.565  1.00  0.00    -0.744 OA
ENDBRANCH  67  70
ENDBRANCH  49  63
BRANCH  50  74
ATOM     74  C   UNL A   1      39.193  31.970  35.470  1.00  0.00     0.023 A 
ATOM     75  C   UNL A   1      38.322  31.420  36.432  1.00  0.00     0.012 A 
ATOM     76  C   UNL A   1      39.665  33.284  35.644  1.00  0.00     0.148 A 
ATOM     77  C   UNL A   1      37.910  32.172  37.532  1.00  0.00     0.002 A 
ATOM     78  C   UNL A   1      39.288  34.011  36.768  1.00  0.00     0.091 A 
ATOM     79  F   UNL A   1      40.483  33.795  34.712  1.00  0.00    -0.205 F 
ATOM     80  C   UNL A   1      38.399  33.463  37.706  1.00  0.00     0.022 A 
BRANCH  78  81
ATOM     81  S   UNL A   1      39.969  35.634  37.134  1.00  0.00     0.127 S 
ATOM     82  O   UNL A   1      39.275  35.977  38.372  1.00  0.00    -0.237 OA
ATOM     83  O   UNL A   1      41.394  35.340  37.288  1.00  0.00    -0.237 OA
ATOM     84  O   UNL A   1      39.651  36.457  35.975  1.00  0.00    -0.744 OA
ENDBRANCH  78  81
ENDBRANCH  50  74
BRANCH  62  85
ATOM     85  C   UNL A   1      44.771  27.956  34.243  1.00  0.00     0.023 A 
ATOM     86  C   UNL A   1      45.891  28.808  34.203  1.00  0.00     0.012 A 
ATOM     87  C   UNL A   1      44.771  26.849  35.114  1.00  0.00     0.148 A 
ATOM     88  C   UNL A   1      47.003  28.552  35.004  1.00  0.00     0.002 A 
ATOM     89  C   UNL A   1      45.866  26.623  35.940  1.00  0.00     0.091 A 
ATOM     90  F   UNL A   1      43.704  26.037  35.119  1.00  0.00    -0.205 F 
ATOM     91  C   UNL A   1      46.986  27.469  35.881  1.00  0.00     0.022 A 
BRANCH  89  92
ATOM     92  S   UNL A   1      45.886  25.305  37.161  1.00  0.00     0.127 S 
ATOM     93  O   UNL A   1      45.836  24.114  36.316  1.00  0.00    -0.237 OA
ATOM     94  O   UNL A   1      47.167  25.521  37.836  1.00  0.00    -0.237 OA
ATOM     95  O   UNL A   1      44.720  25.530  38.004  1.00  0.00    -0.744 OA
ENDBRANCH  89  92
ENDBRANCH  62  85
ENDBRANCH  36  37
ENDBRANCH  28  31
ENDBRANCH  26  27
ENDBRANCH  25  26
ENDBRANCH  24  25
ENDBRANCH   1  24
TORSDOF 19
ENDMDL
MODEL 3
REMARK VINA RESULT:     -11.4      5.232      7.524
REMARK SMILES O=C(CSCc1ccc(Cl)s1)Nc1ccsc1C(=O)NCCCCNC(=O)c1ccc(-c2c3nc(c(-c4cccc(S(=O)(=O)[O-])c4F)c4ccc([nH]4)c(-c4cccc(S(=O)(=O)[O-])c4F)c4nc(c(-c5cccc(S(=O)(=O)[O-])c5F)c5ccc2[nH]5)C=C4)C=C3)cc1
REMARK SMILES IDX 21 1 20 2 18 3 19 4 17 6 13 7 14 8 15 9 16 10 12 11 1 12
REMARK SMILES IDX 2 13 3 15 4 16 5 17 6 18 7 19 11 20 8 21 9 22 10 23 22 24
REMARK SMILES IDX 23 25 24 26 25 27 26 28 27 30 28 31 29 32 90 33 30 34 89 35
REMARK SMILES IDX 31 36 32 37 33 38 83 39 34 40 88 41 82 42 84 43 35 44 87 45
REMARK SMILES IDX 81 46 80 47 36 49 68 50 48 51 67 52 49 53 52 54 66 55 85 56
REMARK SMILES IDX 50 57 51 58 65 60 86 61 53 62 37 63 38 64 46 65 39 66 41 67
REMARK SMILES IDX 47 68 40 69 42 70 43 71 44 72 45 73 69 74 70 75 78 76 71 77
REMARK SMILES IDX 73 78 79 79 72 80 74 81 75 82 76 83 77 84 54 85 55 86 63 87
REMARK SMILES IDX 56 88 58 89 64 90 57 91 59 92 60 93 61 94 62 95
REMARK H PARENT 20 5 12 14 25 29 84 48 52 59
REMARK Flexibility Score: inf
ROOT
ATOM      1  C   UNL A   1      34.394  24.024  24.062  1.00  0.00     0.116 C 
ENDROOT
BRANCH   1   2
ATOM      2  N   UNL A   1      34.071  24.682  22.828  1.00  0.00    -0.351 N 
ATOM      3  C   UNL A   1      33.236  25.698  22.454  1.00  0.00     0.263 C 
ATOM      4  O   UNL A   1      33.363  25.956  21.247  1.00  0.00    -0.268 OA
ATOM      5  H   UNL A   1      34.573  24.312  22.067  1.00  0.00     0.163 HD
BRANCH   3   6
ATOM      6  C   UNL A   1      32.289  26.434  23.308  1.00  0.00     0.115 A 
ATOM      7  C   UNL A   1      31.153  26.199  24.093  1.00  0.00     0.065 A 
ATOM      8  C   UNL A   1      30.518  27.437  24.480  1.00  0.00     0.038 A 
ATOM      9  C   UNL A   1      31.183  28.562  24.077  1.00  0.00     0.068 A 
ATOM     10  S   UNL A   1      32.588  28.170  23.231  1.00  0.00    -0.137 S 
BRANCH   7  11
ATOM     11  N   UNL A   1      30.624  24.981  24.534  1.00  0.00    -0.324 N 
ATOM     12  O   UNL A   1      31.489  24.978  26.689  1.00  0.00    -0.274 OA
ATOM     13  C   UNL A   1      30.978  24.384  25.739  1.00  0.00     0.234 C 
ATOM     14  H   UNL A   1      29.967  24.523  23.962  1.00  0.00     0.170 HD
BRANCH  13  15
ATOM     15  C   UNL A   1      30.736  22.889  25.830  1.00  0.00     0.170 C 
BRANCH  15  16
ATOM     16  S   UNL A   1      32.203  21.838  25.724  1.00  0.00    -0.146 SA
BRANCH  16  17
ATOM     17  C   UNL A   1      32.151  21.239  24.003  1.00  0.00     0.116 C 
BRANCH  17  18
ATOM     18  C   UNL A   1      32.456  19.784  23.820  1.00  0.00     0.016 A 
ATOM     19  C   UNL A   1      32.427  18.969  22.702  1.00  0.00     0.018 A 
ATOM     20  S   UNL A   1      32.927  18.886  25.218  1.00  0.00    -0.128 S 
ATOM     21  C   UNL A   1      32.775  17.616  22.999  1.00  0.00     0.033 A 
ATOM     22  C   UNL A   1      33.059  17.458  24.329  1.00  0.00     0.093 A 
ATOM     23  Cl  UNL A   1      33.514  16.000  25.115  1.00  0.00    -0.072 Cl
ENDBRANCH  17  18
ENDBRANCH  16  17
ENDBRANCH  15  16
ENDBRANCH  13  15
ENDBRANCH   7  11
ENDBRANCH   3   6
ENDBRANCH   1   2
BRANCH   1  24
ATOM     24  C   UNL A   1      35.863  23.619  24.082  1.00  0.00     0.023 C 
BRANCH  24  25
ATOM     25  C   UNL A   1      36.156  22.138  24.281  1.00  0.00     0.023 C 
BRANCH  25  26
ATOM     26  C   UNL A   1      36.810  21.794  25.615  1.00  0.00     0.116 C 
BRANCH  26  27
ATOM     27  N   UNL A   1      37.867  20.790  25.543  1.00  0.00    -0.352 N 
ATOM     28  C   UNL A   1      39.159  20.886  26.013  1.00  0.00     0.251 C 
ATOM     29  H   UNL A   1      37.628  19.941  25.105  1.00  0.00     0.163 HD
ATOM     30  O   UNL A   1      39.951  19.958  25.876  1.00  0.00    -0.269 OA
BRANCH  28  31
ATOM     31  C   UNL A   1      39.598  22.157  26.619  1.00  0.00     0.039 A 
ATOM     32  C   UNL A   1      40.613  22.129  27.578  1.00  0.00     0.014 A 
ATOM     33  C   UNL A   1      39.102  23.371  26.142  1.00  0.00     0.014 A 
ATOM     34  C   UNL A   1      41.203  23.325  27.987  1.00  0.00     0.010 A 
ATOM     35  C   UNL A   1      39.754  24.548  26.477  1.00  0.00     0.010 A 
ATOM     36  C   UNL A   1      40.815  24.539  27.397  1.00  0.00    -0.014 A 
BRANCH  36  37
ATOM     37  C   UNL A   1      41.503  25.817  27.702  1.00  0.00     0.031 A 
ATOM     38  C   UNL A   1      40.787  26.875  28.496  1.00  0.00     0.074 A 
ATOM     39  C   UNL A   1      42.711  26.076  27.161  1.00  0.00     0.049 A 
ATOM     40  N   UNL A   1      41.147  28.106  28.743  1.00  0.00    -0.248 NA
ATOM     41  C   UNL A   1      39.468  26.513  29.043  1.00  0.00     0.031 C 
ATOM     42  C   UNL A   1      43.472  25.164  26.302  1.00  0.00     0.029 A 
ATOM     43  N   UNL A   1      43.500  27.196  27.232  1.00  0.00    -0.354 N 
ATOM     44  C   UNL A   1      40.081  28.680  29.425  1.00  0.00     0.074 A 
ATOM     45  C   UNL A   1      39.046  27.675  29.518  1.00  0.00     0.031 C 
ATOM     46  C   UNL A   1      44.621  25.756  25.939  1.00  0.00     0.029 A 
ATOM     47  C   UNL A   1      44.668  27.097  26.511  1.00  0.00     0.049 A 
ATOM     48  H   UNL A   1      43.253  27.997  27.749  1.00  0.00     0.167 HD
ATOM     49  C   UNL A   1      39.985  29.919  29.961  1.00  0.00     0.034 A 
ATOM     50  C   UNL A   1      45.663  27.987  26.335  1.00  0.00     0.034 A 
ATOM     51  C   UNL A   1      41.048  30.885  29.939  1.00  0.00     0.049 A 
ATOM     52  C   UNL A   1      45.570  29.329  27.011  1.00  0.00     0.074 A 
ATOM     53  C   UNL A   1      41.090  32.133  30.533  1.00  0.00     0.029 A 
ATOM     54  N   UNL A   1      42.266  30.702  29.301  1.00  0.00    -0.354 N 
ATOM     55  N   UNL A   1      44.612  29.803  27.771  1.00  0.00    -0.248 NA
ATOM     56  C   UNL A   1      46.706  30.245  26.834  1.00  0.00     0.031 C 
ATOM     57  C   UNL A   1      42.339  32.703  30.258  1.00  0.00     0.029 A 
ATOM     58  C   UNL A   1      43.073  31.809  29.496  1.00  0.00     0.049 A 
ATOM     59  H   UNL A   1      42.519  29.902  28.787  1.00  0.00     0.167 HD
ATOM     60  C   UNL A   1      45.045  31.054  28.194  1.00  0.00     0.074 A 
ATOM     61  C   UNL A   1      46.359  31.257  27.618  1.00  0.00     0.031 C 
ATOM     62  C   UNL A   1      44.405  31.962  28.970  1.00  0.00     0.034 A 
BRANCH  49  63
ATOM     63  C   UNL A   1      38.712  30.261  30.686  1.00  0.00     0.023 A 
ATOM     64  C   UNL A   1      38.519  29.784  32.000  1.00  0.00     0.012 A 
ATOM     65  C   UNL A   1      37.721  31.063  30.090  1.00  0.00     0.148 A 
ATOM     66  C   UNL A   1      37.343  30.064  32.692  1.00  0.00     0.002 A 
ATOM     67  C   UNL A   1      36.568  31.372  30.804  1.00  0.00     0.091 A 
ATOM     68  F   UNL A   1      37.907  31.483  28.831  1.00  0.00    -0.205 F 
ATOM     69  C   UNL A   1      36.373  30.865  32.099  1.00  0.00     0.022 A 
BRANCH  67  70
ATOM     70  S   UNL A   1      35.295  32.457  30.145  1.00  0.00     0.127 S 
ATOM     71  O   UNL A   1      36.069  33.650  29.807  1.00  0.00    -0.237 OA
ATOM     72  O   UNL A   1      34.805  31.700  28.993  1.00  0.00    -0.237 OA
ATOM     73  O   UNL A   1      34.322  32.617  31.217  1.00  0.00    -0.744 OA
ENDBRANCH  67  70
ENDBRANCH  49  63
BRANCH  50  74
ATOM     74  C   UNL A   1      46.883  27.600  25.569  1.00  0.00     0.023 A 
ATOM     75  C   UNL A   1      46.895  27.789  24.173  1.00  0.00     0.012 A 
ATOM     76  C   UNL A   1      48.030  27.087  26.202  1.00  0.00     0.148 A 
ATOM     77  C   UNL A   1      48.019  27.452  23.418  1.00  0.00     0.002 A 
ATOM     78  C   UNL A   1      49.164  26.798  25.451  1.00  0.00     0.091 A 
ATOM     79  F   UNL A   1      47.994  26.902  27.530  1.00  0.00    -0.205 F 
ATOM     80  C   UNL A   1      49.156  26.965  24.057  1.00  0.00     0.022 A 
BRANCH  78  81
ATOM     81  S   UNL A   1      50.712  26.286  26.206  1.00  0.00     0.127 S 
ATOM     82  O   UNL A   1      50.289  25.146  27.014  1.00  0.00    -0.237 OA
ATOM     83  O   UNL A   1      51.525  25.945  25.038  1.00  0.00    -0.237 OA
ATOM     84  O   UNL A   1      51.185  27.449  26.943  1.00  0.00    -0.744 OA
ENDBRANCH  78  81
ENDBRANCH  50  74
BRANCH  62  85
ATOM     85  C   UNL A   1      45.124  33.246  29.279  1.00  0.00     0.023 A 
ATOM     86  C   UNL A   1      45.953  33.322  30.414  1.00  0.00     0.012 A 
ATOM     87  C   UNL A   1      45.047  34.344  28.400  1.00  0.00     0.148 A 
ATOM     88  C   UNL A   1      46.681  34.480  30.682  1.00  0.00     0.002 A 
ATOM     89  C   UNL A   1      45.808  35.480  28.650  1.00  0.00     0.091 A 
ATOM     90  F   UNL A   1      44.233  34.259  27.337  1.00  0.00    -0.205 F 
ATOM     91  C   UNL A   1      46.619  35.553  29.795  1.00  0.00     0.022 A 
BRANCH  89  92
ATOM     92  S   UNL A   1      45.855  36.868  27.511  1.00  0.00     0.127 S 
ATOM     93  O   UNL A   1      44.449  37.262  27.462  1.00  0.00    -0.237 OA
ATOM     94  O   UNL A   1      46.730  37.815  28.205  1.00  0.00    -0.237 OA
ATOM     95  O   UNL A   1      46.407  36.342  26.270  1.00  0.00    -0.744 OA
ENDBRANCH  89  92
ENDBRANCH  62  85
ENDBRANCH  36  37
ENDBRANCH  28  31
ENDBRANCH  26  27
ENDBRANCH  25  26
ENDBRANCH  24  25
ENDBRANCH   1  24
TORSDOF 19
ENDMDL
