MODEL 1
REMARK VINA RESULT:     -12.3      0.000      0.000
REMARK SMILES O=C(NCCCCNC(=O)c1cccc(S(=O)(=O)Nc2cccc(I)c2)c1)c1ccc(-c2c3nc(c(-c4cccc(S(=O)(=O)[O-])c4F)c4ccc([nH]4)c(-c4cccc(S(=O)(=O)[O-])c4F)c4nc(c(-c5cccc(S(=O)(=O)[O-])c5F)c5ccc2[nH]5)C=C4)C=C3)cc1
REMARK SMILES IDX 5 1 4 2 3 3 1 4 2 5 28 7 29 8 90 9 30 10 89 11 31 12 32 13
REMARK SMILES IDX 33 14 83 15 34 16 88 17 82 18 84 19 35 20 87 21 81 22 80 23
REMARK SMILES IDX 36 25 68 26 48 27 67 28 49 29 52 30 66 31 85 32 50 33 51 34
REMARK SMILES IDX 65 36 86 37 53 38 37 39 38 40 46 41 39 42 41 43 47 44 40 45
REMARK SMILES IDX 42 46 43 47 44 48 45 49 69 50 70 51 78 52 71 53 73 54 79 55
REMARK SMILES IDX 72 56 74 57 75 58 76 59 77 60 54 61 55 62 63 63 56 64 58 65
REMARK SMILES IDX 64 66 57 67 59 68 60 69 61 70 62 71 6 72 7 73 8 74 9 75
REMARK SMILES IDX 10 77 11 78 12 79 27 80 13 81 15 82 14 83 16 84 17 85 18 86
REMARK SMILES IDX 19 87 20 89 21 90 26 91 22 92 24 93 23 94 25 95
REMARK H PARENT 3 6 84 24 52 35 8 76 19 88
REMARK Flexibility Score: inf
ROOT
ATOM      1  C   UNL A   1      34.997  21.430  24.883  1.00  0.00     0.023 C 
ENDROOT
BRANCH   1   2
ATOM      2  C   UNL A   1      36.269  21.713  25.672  1.00  0.00     0.116 C 
BRANCH   2   3
ATOM      3  N   UNL A   1      37.261  20.653  25.542  1.00  0.00    -0.352 N 
ATOM      4  O   UNL A   1      39.316  19.739  25.421  1.00  0.00    -0.269 OA
ATOM      5  C   UNL A   1      38.623  20.699  25.741  1.00  0.00     0.251 C 
ATOM      6  H   UNL A   1      36.906  19.776  25.272  1.00  0.00     0.163 HD
BRANCH   5   7
ATOM      7  C   UNL A   1      39.239  21.916  26.314  1.00  0.00     0.039 A 
ATOM      8  C   UNL A   1      38.807  23.178  25.908  1.00  0.00     0.014 A 
ATOM      9  C   UNL A   1      40.276  21.797  27.243  1.00  0.00     0.014 A 
ATOM     10  C   UNL A   1      39.527  24.304  26.280  1.00  0.00     0.010 A 
ATOM     11  C   UNL A   1      40.934  22.946  27.702  1.00  0.00     0.010 A 
ATOM     12  C   UNL A   1      40.596  24.207  27.190  1.00  0.00    -0.014 A 
BRANCH  12  13
ATOM     13  C   UNL A   1      41.281  25.456  27.616  1.00  0.00     0.031 A 
ATOM     14  C   UNL A   1      42.702  25.759  27.223  1.00  0.00     0.074 A 
ATOM     15  C   UNL A   1      40.573  26.357  28.328  1.00  0.00     0.049 A 
ATOM     16  N   UNL A   1      43.392  26.851  27.429  1.00  0.00    -0.248 NA
ATOM     17  C   UNL A   1      43.450  24.706  26.518  1.00  0.00     0.031 C 
ATOM     18  C   UNL A   1      39.209  26.148  28.821  1.00  0.00     0.029 A 
ATOM     19  N   UNL A   1      40.884  27.626  28.740  1.00  0.00    -0.354 N 
ATOM     20  C   UNL A   1      44.659  26.612  26.910  1.00  0.00     0.074 A 
ATOM     21  C   UNL A   1      44.649  25.262  26.390  1.00  0.00     0.031 C 
ATOM     22  C   UNL A   1      38.782  27.266  29.423  1.00  0.00     0.029 A 
ATOM     23  C   UNL A   1      39.856  28.254  29.403  1.00  0.00     0.049 A 
ATOM     24  H   UNL A   1      41.759  28.048  28.578  1.00  0.00     0.167 HD
ATOM     25  C   UNL A   1      45.724  27.448  26.852  1.00  0.00     0.034 A 
ATOM     26  C   UNL A   1      39.778  29.487  29.939  1.00  0.00     0.034 A 
ATOM     27  C   UNL A   1      45.719  28.804  27.339  1.00  0.00     0.049 A 
ATOM     28  C   UNL A   1      40.951  30.412  29.799  1.00  0.00     0.074 A 
ATOM     29  C   UNL A   1      46.739  29.739  27.296  1.00  0.00     0.029 A 
ATOM     30  N   UNL A   1      44.639  29.423  27.952  1.00  0.00    -0.354 N 
ATOM     31  N   UNL A   1      42.097  30.202  29.199  1.00  0.00    -0.248 NA
ATOM     32  C   UNL A   1      40.811  31.752  30.383  1.00  0.00     0.031 C 
ATOM     33  C   UNL A   1      46.277  30.921  27.884  1.00  0.00     0.029 A 
ATOM     34  C   UNL A   1      44.967  30.726  28.286  1.00  0.00     0.049 A 
ATOM     35  H   UNL A   1      43.769  28.997  28.124  1.00  0.00     0.167 HD
ATOM     36  C   UNL A   1      42.815  31.383  29.328  1.00  0.00     0.074 A 
ATOM     37  C   UNL A   1      41.954  32.320  30.021  1.00  0.00     0.031 C 
ATOM     38  C   UNL A   1      44.083  31.658  28.938  1.00  0.00     0.034 A 
BRANCH  25  39
ATOM     39  C   UNL A   1      46.979  26.946  26.184  1.00  0.00     0.023 A 
ATOM     40  C   UNL A   1      47.146  27.146  24.799  1.00  0.00     0.012 A 
ATOM     41  C   UNL A   1      48.022  26.359  26.927  1.00  0.00     0.148 A 
ATOM     42  C   UNL A   1      48.321  26.754  24.158  1.00  0.00     0.002 A 
ATOM     43  C   UNL A   1      49.206  26.001  26.288  1.00  0.00     0.091 A 
ATOM     44  F   UNL A   1      47.839  26.157  28.239  1.00  0.00    -0.205 F 
ATOM     45  C   UNL A   1      49.354  26.192  24.904  1.00  0.00     0.022 A 
BRANCH  43  46
ATOM     46  S   UNL A   1      50.621  25.334  27.172  1.00  0.00     0.127 S 
ATOM     47  O   UNL A   1      50.954  26.439  28.071  1.00  0.00    -0.237 OA
ATOM     48  O   UNL A   1      50.048  24.162  27.835  1.00  0.00    -0.237 OA
ATOM     49  O   UNL A   1      51.619  25.028  26.157  1.00  0.00    -0.744 OA
ENDBRANCH  43  46
ENDBRANCH  25  39
BRANCH  26  50
ATOM     50  C   UNL A   1      38.517  29.920  30.602  1.00  0.00     0.023 A 
ATOM     51  C   UNL A   1      38.305  29.621  31.962  1.00  0.00     0.012 A 
ATOM     52  C   UNL A   1      37.559  30.685  29.911  1.00  0.00     0.148 A 
ATOM     53  C   UNL A   1      37.153  30.062  32.614  1.00  0.00     0.002 A 
ATOM     54  C   UNL A   1      36.447  31.177  30.584  1.00  0.00     0.091 A 
ATOM     55  F   UNL A   1      37.762  30.941  28.610  1.00  0.00    -0.205 F 
ATOM     56  C   UNL A   1      36.232  30.854  31.930  1.00  0.00     0.022 A 
BRANCH  54  57
ATOM     57  S   UNL A   1      35.324  32.341  29.802  1.00  0.00     0.127 S 
ATOM     58  O   UNL A   1      34.808  31.558  28.683  1.00  0.00    -0.237 OA
ATOM     59  O   UNL A   1      34.356  32.608  30.867  1.00  0.00    -0.237 OA
ATOM     60  O   UNL A   1      36.155  33.489  29.460  1.00  0.00    -0.744 OA
ENDBRANCH  54  57
ENDBRANCH  26  50
BRANCH  38  61
ATOM     61  C   UNL A   1      44.615  33.028  29.261  1.00  0.00     0.023 A 
ATOM     62  C   UNL A   1      45.237  33.251  30.506  1.00  0.00     0.012 A 
ATOM     63  C   UNL A   1      44.539  34.079  28.328  1.00  0.00     0.148 A 
ATOM     64  C   UNL A   1      45.742  34.508  30.832  1.00  0.00     0.002 A 
ATOM     65  C   UNL A   1      45.082  35.319  28.644  1.00  0.00     0.091 A 
ATOM     66  F   UNL A   1      43.923  33.855  27.157  1.00  0.00    -0.205 F 
ATOM     67  C   UNL A   1      45.674  35.538  29.898  1.00  0.00     0.022 A 
BRANCH  65  68
ATOM     68  S   UNL A   1      45.104  36.675  27.464  1.00  0.00     0.127 S 
ATOM     69  O   UNL A   1      43.687  36.803  27.131  1.00  0.00    -0.237 OA
ATOM     70  O   UNL A   1      45.646  37.778  28.260  1.00  0.00    -0.237 OA
ATOM     71  O   UNL A   1      45.973  36.236  26.380  1.00  0.00    -0.744 OA
ENDBRANCH  65  68
ENDBRANCH  38  61
ENDBRANCH  12  13
ENDBRANCH   5   7
ENDBRANCH   2   3
ENDBRANCH   1   2
BRANCH   1  72
ATOM     72  C   UNL A   1      33.839  20.868  25.704  1.00  0.00     0.023 C 
BRANCH  72  73
ATOM     73  C   UNL A   1      33.661  21.489  27.085  1.00  0.00     0.116 C 
BRANCH  73  74
ATOM     74  N   UNL A   1      32.370  22.137  27.244  1.00  0.00    -0.352 N 
ATOM     75  C   UNL A   1      31.952  23.362  26.791  1.00  0.00     0.251 C 
ATOM     76  H   UNL A   1      31.699  21.622  27.749  1.00  0.00     0.163 HD
ATOM     77  O   UNL A   1      30.882  23.829  27.168  1.00  0.00    -0.269 OA
BRANCH  75  78
ATOM     78  C   UNL A   1      32.774  24.124  25.823  1.00  0.00     0.041 A 
ATOM     79  C   UNL A   1      34.009  24.636  26.225  1.00  0.00     0.014 A 
ATOM     80  C   UNL A   1      32.271  24.426  24.557  1.00  0.00     0.036 A 
ATOM     81  C   UNL A   1      34.757  25.415  25.340  1.00  0.00     0.002 A 
ATOM     82  C   UNL A   1      32.992  25.242  23.687  1.00  0.00     0.088 A 
ATOM     83  C   UNL A   1      34.250  25.719  24.072  1.00  0.00     0.022 A 
BRANCH  82  84
ATOM     84  S   UNL A   1      32.347  25.767  22.112  1.00  0.00     0.261 S 
ATOM     85  O   UNL A   1      33.259  25.289  21.098  1.00  0.00    -0.201 OA
ATOM     86  O   UNL A   1      30.951  25.377  22.104  1.00  0.00    -0.201 OA
BRANCH  84  87
ATOM     87  N   UNL A   1      32.320  27.440  22.095  1.00  0.00    -0.280 N 
ATOM     88  H   UNL A   1      32.861  27.881  21.400  1.00  0.00     0.180 HD
BRANCH  87  89
ATOM     89  C   UNL A   1      31.598  28.293  22.978  1.00  0.00     0.050 A 
ATOM     90  C   UNL A   1      32.261  28.690  24.146  1.00  0.00     0.027 A 
ATOM     91  C   UNL A   1      30.346  28.837  22.685  1.00  0.00     0.041 A 
ATOM     92  C   UNL A   1      31.721  29.683  24.967  1.00  0.00     0.003 A 
ATOM     93  C   UNL A   1      29.827  29.855  23.491  1.00  0.00     0.015 A 
ATOM     94  C   UNL A   1      30.512  30.285  24.625  1.00  0.00     0.015 A 
ATOM     95  I   UNL A   1      28.057  30.796  22.938  1.00  0.00    -0.044 I 
ENDBRANCH  87  89
ENDBRANCH  84  87
ENDBRANCH  82  84
ENDBRANCH  75  78
ENDBRANCH  73  74
ENDBRANCH  72  73
ENDBRANCH   1  72
TORSDOF 17
ENDMDL
MODEL 2
REMARK VINA RESULT:     -12.2      2.058      2.565
REMARK SMILES O=C(NCCCCNC(=O)c1cccc(S(=O)(=O)Nc2cccc(I)c2)c1)c1ccc(-c2c3nc(c(-c4cccc(S(=O)(=O)[O-])c4F)c4ccc([nH]4)c(-c4cccc(S(=O)(=O)[O-])c4F)c4nc(c(-c5cccc(S(=O)(=O)[O-])c5F)c5ccc2[nH]5)C=C4)C=C3)cc1
REMARK SMILES IDX 5 1 4 2 3 3 1 4 2 5 28 7 29 8 90 9 30 10 89 11 31 12 32 13
REMARK SMILES IDX 33 14 83 15 34 16 88 17 82 18 84 19 35 20 87 21 81 22 80 23
REMARK SMILES IDX 36 25 68 26 48 27 67 28 49 29 52 30 66 31 85 32 50 33 51 34
REMARK SMILES IDX 65 36 86 37 53 38 37 39 38 40 46 41 39 42 41 43 47 44 40 45
REMARK SMILES IDX 42 46 43 47 44 48 45 49 69 50 70 51 78 52 71 53 73 54 79 55
REMARK SMILES IDX 72 56 74 57 75 58 76 59 77 60 54 61 55 62 63 63 56 64 58 65
REMARK SMILES IDX 64 66 57 67 59 68 60 69 61 70 62 71 6 72 7 73 8 74 9 75
REMARK SMILES IDX 10 77 11 78 12 79 27 80 13 81 15 82 14 83 16 84 17 85 18 86
REMARK SMILES IDX 19 87 20 89 21 90 26 91 22 92 24 93 23 94 25 95
REMARK H PARENT 3 6 84 24 52 35 8 76 19 88
REMARK Flexibility Score: inf
ROOT
ATOM      1  C   UNL A   1      35.514  22.653  25.517  1.00  0.00     0.023 C 
ENDROOT
BRANCH   1   2
ATOM      2  C   UNL A   1      36.916  22.709  24.923  1.00  0.00     0.116 C 
BRANCH   2   3
ATOM      3  N   UNL A   1      37.728  21.553  25.281  1.00  0.00    -0.352 N 
ATOM      4  O   UNL A   1      39.546  20.439  26.009  1.00  0.00    -0.269 OA
ATOM      5  C   UNL A   1      38.933  21.500  25.944  1.00  0.00     0.251 C 
ATOM      6  H   UNL A   1      37.360  20.681  25.009  1.00  0.00     0.163 HD
BRANCH   5   7
ATOM      7  C   UNL A   1      39.491  22.729  26.549  1.00  0.00     0.039 A 
ATOM      8  C   UNL A   1      39.070  23.982  26.104  1.00  0.00     0.014 A 
ATOM      9  C   UNL A   1      40.462  22.632  27.550  1.00  0.00     0.014 A 
ATOM     10  C   UNL A   1      39.747  25.121  26.518  1.00  0.00     0.010 A 
ATOM     11  C   UNL A   1      41.070  23.793  28.045  1.00  0.00     0.010 A 
ATOM     12  C   UNL A   1      40.751  25.046  27.500  1.00  0.00    -0.014 A 
BRANCH  12  13
ATOM     13  C   UNL A   1      41.387  26.307  27.964  1.00  0.00     0.031 A 
ATOM     14  C   UNL A   1      42.806  26.660  27.610  1.00  0.00     0.074 A 
ATOM     15  C   UNL A   1      40.635  27.174  28.674  1.00  0.00     0.049 A 
ATOM     16  N   UNL A   1      43.457  27.770  27.851  1.00  0.00    -0.248 NA
ATOM     17  C   UNL A   1      43.603  25.644  26.905  1.00  0.00     0.031 C 
ATOM     18  C   UNL A   1      39.267  26.915  29.131  1.00  0.00     0.029 A 
ATOM     19  N   UNL A   1      40.897  28.445  29.114  1.00  0.00    -0.354 N 
ATOM     20  C   UNL A   1      44.743  27.578  27.359  1.00  0.00     0.074 A 
ATOM     21  C   UNL A   1      44.786  26.238  26.816  1.00  0.00     0.031 C 
ATOM     22  C   UNL A   1      38.792  28.009  29.741  1.00  0.00     0.029 A 
ATOM     23  C   UNL A   1      39.834  29.029  29.763  1.00  0.00     0.049 A 
ATOM     24  H   UNL A   1      41.761  28.896  28.981  1.00  0.00     0.167 HD
ATOM     25  C   UNL A   1      45.783  28.447  27.340  1.00  0.00     0.034 A 
ATOM     26  C   UNL A   1      39.705  30.250  30.317  1.00  0.00     0.034 A 
ATOM     27  C   UNL A   1      45.724  29.794  27.850  1.00  0.00     0.049 A 
ATOM     28  C   UNL A   1      40.853  31.212  30.221  1.00  0.00     0.074 A 
ATOM     29  C   UNL A   1      46.716  30.760  27.847  1.00  0.00     0.029 A 
ATOM     30  N   UNL A   1      44.612  30.368  28.447  1.00  0.00    -0.354 N 
ATOM     31  N   UNL A   1      42.018  31.048  29.646  1.00  0.00    -0.248 NA
ATOM     32  C   UNL A   1      40.658  32.537  30.825  1.00  0.00     0.031 C 
ATOM     33  C   UNL A   1      46.204  31.917  28.444  1.00  0.00     0.029 A 
ATOM     34  C   UNL A   1      44.891  31.675  28.811  1.00  0.00     0.049 A 
ATOM     35  H   UNL A   1      43.751  29.914  28.591  1.00  0.00     0.167 HD
ATOM     36  C   UNL A   1      42.696  32.247  29.812  1.00  0.00     0.074 A 
ATOM     37  C   UNL A   1      41.790  33.146  30.500  1.00  0.00     0.031 C 
ATOM     38  C   UNL A   1      43.964  32.568  29.456  1.00  0.00     0.034 A 
BRANCH  25  39
ATOM     39  C   UNL A   1      47.068  27.996  26.694  1.00  0.00     0.023 A 
ATOM     40  C   UNL A   1      48.121  27.537  27.510  1.00  0.00     0.012 A 
ATOM     41  C   UNL A   1      47.206  27.942  25.293  1.00  0.00     0.148 A 
ATOM     42  C   UNL A   1      49.300  27.051  26.946  1.00  0.00     0.002 A 
ATOM     43  C   UNL A   1      48.372  27.423  24.736  1.00  0.00     0.091 A 
ATOM     44  F   UNL A   1      46.203  28.401  24.532  1.00  0.00    -0.205 F 
ATOM     45  C   UNL A   1      49.421  26.983  25.560  1.00  0.00     0.022 A 
BRANCH  43  46
ATOM     46  S   UNL A   1      48.596  27.231  22.963  1.00  0.00     0.127 S 
ATOM     47  O   UNL A   1      50.013  27.556  22.809  1.00  0.00    -0.237 OA
ATOM     48  O   UNL A   1      48.270  25.818  22.760  1.00  0.00    -0.237 OA
ATOM     49  O   UNL A   1      47.667  28.161  22.339  1.00  0.00    -0.744 OA
ENDBRANCH  43  46
ENDBRANCH  25  39
BRANCH  26  50
ATOM     50  C   UNL A   1      38.416  30.632  30.958  1.00  0.00     0.023 A 
ATOM     51  C   UNL A   1      38.223  30.396  32.332  1.00  0.00     0.012 A 
ATOM     52  C   UNL A   1      37.410  31.290  30.226  1.00  0.00     0.148 A 
ATOM     53  C   UNL A   1      37.042  30.794  32.960  1.00  0.00     0.002 A 
ATOM     54  C   UNL A   1      36.266  31.742  30.872  1.00  0.00     0.091 A 
ATOM     55  F   UNL A   1      37.598  31.486  28.913  1.00  0.00    -0.205 F 
ATOM     56  C   UNL A   1      36.071  31.481  32.235  1.00  0.00     0.022 A 
BRANCH  54  57
ATOM     57  S   UNL A   1      35.068  32.781  30.028  1.00  0.00     0.127 S 
ATOM     58  O   UNL A   1      34.154  33.131  31.111  1.00  0.00    -0.237 OA
ATOM     59  O   UNL A   1      35.897  33.883  29.539  1.00  0.00    -0.237 OA
ATOM     60  O   UNL A   1      34.524  31.939  28.969  1.00  0.00    -0.744 OA
ENDBRANCH  54  57
ENDBRANCH  26  50
BRANCH  38  61
ATOM     61  C   UNL A   1      44.446  33.948  29.815  1.00  0.00     0.023 A 
ATOM     62  C   UNL A   1      45.131  34.145  31.031  1.00  0.00     0.012 A 
ATOM     63  C   UNL A   1      44.260  35.035  28.942  1.00  0.00     0.148 A 
ATOM     64  C   UNL A   1      45.592  35.411  31.388  1.00  0.00     0.002 A 
ATOM     65  C   UNL A   1      44.758  36.287  29.286  1.00  0.00     0.091 A 
ATOM     66  F   UNL A   1      43.584  34.834  27.800  1.00  0.00    -0.205 F 
ATOM     67  C   UNL A   1      45.414  36.478  30.512  1.00  0.00     0.022 A 
BRANCH  65  68
ATOM     68  S   UNL A   1      44.640  37.695  28.176  1.00  0.00     0.127 S 
ATOM     69  O   UNL A   1      45.409  38.707  28.896  1.00  0.00    -0.237 OA
ATOM     70  O   UNL A   1      45.281  37.193  26.959  1.00  0.00    -0.237 OA
ATOM     71  O   UNL A   1      43.215  37.964  28.034  1.00  0.00    -0.744 OA
ENDBRANCH  65  68
ENDBRANCH  38  61
ENDBRANCH  12  13
ENDBRANCH   5   7
ENDBRANCH   2   3
ENDBRANCH   1   2
BRANCH   1  72
ATOM     72  C   UNL A   1      35.382  21.810  26.784  1.00  0.00     0.023 C 
BRANCH  72  73
ATOM     73  C   UNL A   1      33.955  21.432  27.165  1.00  0.00     0.116 C 
BRANCH  73  74
ATOM     74  N   UNL A   1      33.452  20.305  26.397  1.00  0.00    -0.352 N 
ATOM     75  C   UNL A   1      32.519  20.288  25.392  1.00  0.00     0.251 C 
ATOM     76  H   UNL A   1      33.836  19.430  26.633  1.00  0.00     0.163 HD
ATOM     77  O   UNL A   1      32.083  19.221  24.972  1.00  0.00    -0.269 OA
BRANCH  75  78
ATOM     78  C   UNL A   1      32.049  21.553  24.784  1.00  0.00     0.041 A 
ATOM     79  C   UNL A   1      32.415  21.863  23.472  1.00  0.00     0.014 A 
ATOM     80  C   UNL A   1      31.342  22.482  25.550  1.00  0.00     0.036 A 
ATOM     81  C   UNL A   1      32.033  23.086  22.917  1.00  0.00     0.002 A 
ATOM     82  C   UNL A   1      31.001  23.723  25.017  1.00  0.00     0.088 A 
ATOM     83  C   UNL A   1      31.327  24.016  23.688  1.00  0.00     0.022 A 
BRANCH  82  84
ATOM     84  S   UNL A   1      30.214  24.996  25.983  1.00  0.00     0.261 S 
ATOM     85  O   UNL A   1      29.583  25.907  25.054  1.00  0.00    -0.201 OA
ATOM     86  O   UNL A   1      29.439  24.305  26.994  1.00  0.00    -0.201 OA
BRANCH  84  87
ATOM     87  N   UNL A   1      31.402  25.806  26.837  1.00  0.00    -0.280 N 
ATOM     88  H   UNL A   1      31.641  25.434  27.718  1.00  0.00     0.180 HD
BRANCH  87  89
ATOM     89  C   UNL A   1      32.107  26.974  26.427  1.00  0.00     0.050 A 
ATOM     90  C   UNL A   1      33.155  26.785  25.518  1.00  0.00     0.027 A 
ATOM     91  C   UNL A   1      31.734  28.272  26.779  1.00  0.00     0.041 A 
ATOM     92  C   UNL A   1      33.766  27.879  24.901  1.00  0.00     0.003 A 
ATOM     93  C   UNL A   1      32.326  29.362  26.133  1.00  0.00     0.015 A 
ATOM     94  C   UNL A   1      33.334  29.171  25.191  1.00  0.00     0.015 A 
ATOM     95  I   UNL A   1      31.628  31.283  26.520  1.00  0.00    -0.044 I 
ENDBRANCH  87  89
ENDBRANCH  84  87
ENDBRANCH  82  84
ENDBRANCH  75  78
ENDBRANCH  73  74
ENDBRANCH  72  73
ENDBRANCH   1  72
TORSDOF 17
ENDMDL
MODEL 3
REMARK VINA RESULT:     -11.9      5.397     10.587
REMARK SMILES O=C(NCCCCNC(=O)c1cccc(S(=O)(=O)Nc2cccc(I)c2)c1)c1ccc(-c2c3nc(c(-c4cccc(S(=O)(=O)[O-])c4F)c4ccc([nH]4)c(-c4cccc(S(=O)(=O)[O-])c4F)c4nc(c(-c5cccc(S(=O)(=O)[O-])c5F)c5ccc2[nH]5)C=C4)C=C3)cc1
REMARK SMILES IDX 5 1 4 2 3 3 1 4 2 5 28 7 29 8 90 9 30 10 89 11 31 12 32 13
REMARK SMILES IDX 33 14 83 15 34 16 88 17 82 18 84 19 35 20 87 21 81 22 80 23
REMARK SMILES IDX 36 25 68 26 48 27 67 28 49 29 52 30 66 31 85 32 50 33 51 34
REMARK SMILES IDX 65 36 86 37 53 38 37 39 38 40 46 41 39 42 41 43 47 44 40 45
REMARK SMILES IDX 42 46 43 47 44 48 45 49 69 50 70 51 78 52 71 53 73 54 79 55
REMARK SMILES IDX 72 56 74 57 75 58 76 59 77 60 54 61 55 62 63 63 56 64 58 65
REMARK SMILES IDX 64 66 57 67 59 68 60 69 61 70 62 71 6 72 7 73 8 74 9 75
REMARK SMILES IDX 10 77 11 78 12 79 27 80 13 81 15 82 14 83 16 84 17 85 18 86
REMARK SMILES IDX 19 87 20 89 21 90 26 91 22 92 24 93 23 94 25 95
REMARK H PARENT 3 6 84 24 52 35 8 76 19 88
REMARK Flexibility Score: inf
ROOT
ATOM      1  C   UNL A   1      31.596  31.546  26.724  1.00  0.00     0.023 C 
ENDROOT
BRANCH   1   2
ATOM      2  C   UNL A   1      32.861  32.326  27.060  1.00  0.00     0.116 C 
BRANCH   2   3
ATOM      3  N   UNL A   1      32.586  33.692  27.487  1.00  0.00    -0.352 N 
ATOM      4  O   UNL A   1      32.685  35.511  28.811  1.00  0.00    -0.269 OA
ATOM      5  C   UNL A   1      33.167  34.429  28.494  1.00  0.00     0.251 C 
ATOM      6  H   UNL A   1      31.880  34.155  26.982  1.00  0.00     0.163 HD
BRANCH   5   7
ATOM      7  C   UNL A   1      34.352  33.896  29.202  1.00  0.00     0.039 A 
ATOM      8  C   UNL A   1      35.630  34.330  28.853  1.00  0.00     0.014 A 
ATOM      9  C   UNL A   1      34.189  32.934  30.203  1.00  0.00     0.014 A 
ATOM     10  C   UNL A   1      36.742  33.675  29.364  1.00  0.00     0.010 A 
ATOM     11  C   UNL A   1      35.315  32.348  30.795  1.00  0.00     0.010 A 
ATOM     12  C   UNL A   1      36.602  32.680  30.349  1.00  0.00    -0.014 A 
BRANCH  12  13
ATOM     13  C   UNL A   1      37.832  32.068  30.919  1.00  0.00     0.031 A 
ATOM     14  C   UNL A   1      38.300  32.377  32.315  1.00  0.00     0.074 A 
ATOM     15  C   UNL A   1      38.500  31.169  30.168  1.00  0.00     0.049 A 
ATOM     16  N   UNL A   1      39.289  31.839  32.984  1.00  0.00    -0.248 NA
ATOM     17  C   UNL A   1      37.580  33.424  33.057  1.00  0.00     0.031 C 
ATOM     18  C   UNL A   1      38.178  30.834  28.778  1.00  0.00     0.029 A 
ATOM     19  N   UNL A   1      39.566  30.359  30.466  1.00  0.00    -0.354 N 
ATOM     20  C   UNL A   1      39.332  32.498  34.207  1.00  0.00     0.074 A 
ATOM     21  C   UNL A   1      38.277  33.487  34.185  1.00  0.00     0.031 C 
ATOM     22  C   UNL A   1      38.992  29.855  28.360  1.00  0.00     0.029 A 
ATOM     23  C   UNL A   1      39.925  29.526  29.432  1.00  0.00     0.049 A 
ATOM     24  H   UNL A   1      40.030  30.374  31.333  1.00  0.00     0.167 HD
ATOM     25  C   UNL A   1      40.159  32.282  35.258  1.00  0.00     0.034 A 
ATOM     26  C   UNL A   1      40.897  28.597  29.348  1.00  0.00     0.034 A 
ATOM     27  C   UNL A   1      41.186  31.271  35.289  1.00  0.00     0.049 A 
ATOM     28  C   UNL A   1      41.752  28.336  30.553  1.00  0.00     0.074 A 
ATOM     29  C   UNL A   1      42.053  30.955  36.321  1.00  0.00     0.029 A 
ATOM     30  N   UNL A   1      41.480  30.408  34.244  1.00  0.00    -0.354 N 
ATOM     31  N   UNL A   1      41.696  28.891  31.738  1.00  0.00    -0.248 NA
ATOM     32  C   UNL A   1      42.786  27.301  30.419  1.00  0.00     0.031 C 
ATOM     33  C   UNL A   1      42.873  29.902  35.899  1.00  0.00     0.029 A 
ATOM     34  C   UNL A   1      42.510  29.557  34.608  1.00  0.00     0.049 A 
ATOM     35  H   UNL A   1      41.024  30.401  33.372  1.00  0.00     0.167 HD
ATOM     36  C   UNL A   1      42.681  28.271  32.495  1.00  0.00     0.074 A 
ATOM     37  C   UNL A   1      43.287  27.264  31.647  1.00  0.00     0.031 C 
ATOM     38  C   UNL A   1      43.072  28.533  33.766  1.00  0.00     0.034 A 
BRANCH  25  39
ATOM     39  C   UNL A   1      39.956  33.115  36.498  1.00  0.00     0.023 A 
ATOM     40  C   UNL A   1      40.550  34.391  36.571  1.00  0.00     0.012 A 
ATOM     41  C   UNL A   1      39.119  32.682  37.545  1.00  0.00     0.148 A 
ATOM     42  C   UNL A   1      40.331  35.217  37.674  1.00  0.00     0.002 A 
ATOM     43  C   UNL A   1      38.877  33.525  38.626  1.00  0.00     0.091 A 
ATOM     44  F   UNL A   1      38.579  31.458  37.468  1.00  0.00    -0.205 F 
ATOM     45  C   UNL A   1      39.487  34.788  38.695  1.00  0.00     0.022 A 
BRANCH  43  46
ATOM     46  S   UNL A   1      37.750  33.093  39.958  1.00  0.00     0.127 S 
ATOM     47  O   UNL A   1      36.505  32.861  39.227  1.00  0.00    -0.237 OA
ATOM     48  O   UNL A   1      38.368  31.886  40.508  1.00  0.00    -0.237 OA
ATOM     49  O   UNL A   1      37.743  34.234  40.862  1.00  0.00    -0.744 OA
ENDBRANCH  43  46
ENDBRANCH  25  39
BRANCH  26  50
ATOM     50  C   UNL A   1      41.060  27.818  28.090  1.00  0.00     0.023 A 
ATOM     51  C   UNL A   1      41.686  28.412  26.978  1.00  0.00     0.012 A 
ATOM     52  C   UNL A   1      40.661  26.471  28.014  1.00  0.00     0.148 A 
ATOM     53  C   UNL A   1      41.893  27.682  25.807  1.00  0.00     0.002 A 
ATOM     54  C   UNL A   1      40.931  25.731  26.869  1.00  0.00     0.091 A 
ATOM     55  F   UNL A   1      40.044  25.926  29.073  1.00  0.00    -0.205 F 
ATOM     56  C   UNL A   1      41.531  26.337  25.758  1.00  0.00     0.022 A 
BRANCH  54  57
ATOM     57  S   UNL A   1      40.645  23.958  26.817  1.00  0.00     0.127 S 
ATOM     58  O   UNL A   1      39.259  23.888  26.365  1.00  0.00    -0.237 OA
ATOM     59  O   UNL A   1      41.637  23.509  25.839  1.00  0.00    -0.237 OA
ATOM     60  O   UNL A   1      40.907  23.497  28.175  1.00  0.00    -0.744 OA
ENDBRANCH  54  57
ENDBRANCH  26  50
BRANCH  38  61
ATOM     61  C   UNL A   1      44.216  27.719  34.310  1.00  0.00     0.023 A 
ATOM     62  C   UNL A   1      45.534  28.191  34.152  1.00  0.00     0.012 A 
ATOM     63  C   UNL A   1      43.990  26.518  35.006  1.00  0.00     0.148 A 
ATOM     64  C   UNL A   1      46.613  27.461  34.648  1.00  0.00     0.002 A 
ATOM     65  C   UNL A   1      45.068  25.815  35.534  1.00  0.00     0.091 A 
ATOM     66  F   UNL A   1      42.730  26.071  35.125  1.00  0.00    -0.205 F 
ATOM     67  C   UNL A   1      46.379  26.280  35.347  1.00  0.00     0.022 A 
BRANCH  65  68
ATOM     68  S   UNL A   1      44.843  24.327  36.514  1.00  0.00     0.127 S 
ATOM     69  O   UNL A   1      46.217  23.846  36.645  1.00  0.00    -0.237 OA
ATOM     70  O   UNL A   1      44.259  24.848  37.752  1.00  0.00    -0.237 OA
ATOM     71  O   UNL A   1      43.945  23.479  35.740  1.00  0.00    -0.744 OA
ENDBRANCH  65  68
ENDBRANCH  38  61
ENDBRANCH  12  13
ENDBRANCH   5   7
ENDBRANCH   2   3
ENDBRANCH   1   2
BRANCH   1  72
ATOM     72  C   UNL A   1      31.796  30.046  26.522  1.00  0.00     0.023 C 
BRANCH  72  73
ATOM     73  C   UNL A   1      32.010  29.609  25.076  1.00  0.00     0.116 C 
BRANCH  73  74
ATOM     74  N   UNL A   1      30.946  30.058  24.194  1.00  0.00    -0.352 N 
ATOM     75  C   UNL A   1      30.213  29.340  23.284  1.00  0.00     0.251 C 
ATOM     76  H   UNL A   1      30.717  31.013  24.261  1.00  0.00     0.163 HD
ATOM     77  O   UNL A   1      29.471  29.916  22.495  1.00  0.00    -0.269 OA
BRANCH  75  78
ATOM     78  C   UNL A   1      30.290  27.861  23.259  1.00  0.00     0.041 A 
ATOM     79  C   UNL A   1      29.319  27.112  23.927  1.00  0.00     0.014 A 
ATOM     80  C   UNL A   1      31.384  27.223  22.671  1.00  0.00     0.036 A 
ATOM     81  C   UNL A   1      29.425  25.720  23.967  1.00  0.00     0.002 A 
ATOM     82  C   UNL A   1      31.519  25.839  22.750  1.00  0.00     0.088 A 
ATOM     83  C   UNL A   1      30.523  25.083  23.379  1.00  0.00     0.022 A 
BRANCH  82  84
ATOM     84  S   UNL A   1      32.953  24.980  22.133  1.00  0.00     0.261 S 
ATOM     85  O   UNL A   1      32.641  23.569  22.141  1.00  0.00    -0.201 OA
ATOM     86  O   UNL A   1      33.323  25.656  20.905  1.00  0.00    -0.201 OA
BRANCH  84  87
ATOM     87  N   UNL A   1      34.223  25.277  23.181  1.00  0.00    -0.280 N 
ATOM     88  H   UNL A   1      34.730  26.108  23.033  1.00  0.00     0.180 HD
BRANCH  87  89
ATOM     89  C   UNL A   1      34.647  24.456  24.266  1.00  0.00     0.050 A 
ATOM     90  C   UNL A   1      33.894  24.538  25.443  1.00  0.00     0.027 A 
ATOM     91  C   UNL A   1      35.670  23.511  24.174  1.00  0.00     0.041 A 
ATOM     92  C   UNL A   1      34.101  23.629  26.484  1.00  0.00     0.003 A 
ATOM     93  C   UNL A   1      35.851  22.583  25.203  1.00  0.00     0.015 A 
ATOM     94  C   UNL A   1      35.066  22.632  26.353  1.00  0.00     0.015 A 
ATOM     95  I   UNL A   1      37.245  21.056  24.973  1.00  0.00    -0.044 I 
ENDBRANCH  87  89
ENDBRANCH  84  87
ENDBRANCH  82  84
ENDBRANCH  75  78
ENDBRANCH  73  74
ENDBRANCH  72  73
ENDBRANCH   1  72
TORSDOF 17
ENDMDL
