MODEL 1
REMARK VINA RESULT:     -10.5      0.000      0.000
REMARK SMILES COCc1cc(OCC(=O)NCCCCNC(=O)c2ccc(-c3c4nc(c(-c5cccc(S(=O)(=O)[O-])c5F)c5ccc([nH]5)c(-c5cccc(S(=O)(=O)[O-])c5F)c5nc(c(-c6cccc(S(=O)(=O)[O-])c6F)c6ccc3[nH]6)C=C5)C=C4)cc2)nc(Nc2cccc(C)c2C)n1
REMARK SMILES IDX 13 1 12 2 11 3 9 4 10 5 8 7 7 8 6 9 4 10 5 11 93 12 83 13
REMARK SMILES IDX 82 14 3 15 2 16 1 17 84 18 85 20 86 21 91 22 87 23 89 24
REMARK SMILES IDX 92 25 88 26 90 27 14 28 15 29 16 30 17 31 18 33 19 34 20 35
REMARK SMILES IDX 81 36 21 37 80 38 22 39 23 40 24 41 74 42 25 43 79 44 73 45
REMARK SMILES IDX 75 46 26 47 78 48 72 49 71 50 27 52 59 53 39 54 58 55 40 56
REMARK SMILES IDX 43 57 57 58 76 59 41 60 42 61 56 63 77 64 44 65 28 66 29 67
REMARK SMILES IDX 37 68 30 69 32 70 38 71 31 72 33 73 34 74 35 75 36 76 60 77
REMARK SMILES IDX 61 78 69 79 62 80 64 81 70 82 63 83 65 84 66 85 67 86 68 87
REMARK SMILES IDX 45 88 46 89 54 90 47 91 49 92 55 93 48 94 50 95 51 96 52 97
REMARK SMILES IDX 53 98
REMARK H PARENT 11 6 84 19 16 32 75 51 43 62
REMARK Flexibility Score: inf
ROOT
ATOM      1  C   UNL A   1      42.657  19.679  26.674  1.00  0.00     0.023 C 
ENDROOT
BRANCH   1   2
ATOM      2  C   UNL A   1      43.214  18.712  25.631  1.00  0.00     0.116 C 
BRANCH   2   3
ATOM      3  N   UNL A   1      44.579  18.319  25.917  1.00  0.00    -0.353 N 
ATOM      4  C   UNL A   1      45.736  18.871  25.453  1.00  0.00     0.258 C 
ATOM      5  O   UNL A   1      46.815  18.407  25.830  1.00  0.00    -0.271 OA
ATOM      6  H   UNL A   1      44.685  17.554  26.528  1.00  0.00     0.163 HD
BRANCH   4   7
ATOM      7  C   UNL A   1      45.685  20.066  24.493  1.00  0.00     0.331 C 
BRANCH   7   8
ATOM      8  O   UNL A   1      46.519  21.176  24.771  1.00  0.00    -0.467 OA
BRANCH   8   9
ATOM      9  C   UNL A   1      45.963  22.269  25.374  1.00  0.00     0.218 A 
ATOM     10  C   UNL A   1      44.391  23.464  26.624  1.00  0.00     0.076 A 
ATOM     11  C   UNL A   1      44.729  22.294  25.987  1.00  0.00     0.095 A 
ATOM     12  N   UNL A   1      45.218  24.521  26.623  1.00  0.00    -0.215 NA
ATOM     13  C   UNL A   1      46.378  24.442  25.966  1.00  0.00     0.230 A 
ATOM     14  N   UNL A   1      46.777  23.341  25.323  1.00  0.00    -0.177 NA
BRANCH  10  15
ATOM     15  C   UNL A   1      43.114  23.603  27.420  1.00  0.00     0.216 C 
BRANCH  15  16
ATOM     16  O   UNL A   1      43.323  23.999  28.781  1.00  0.00    -0.378 OA
ATOM     17  C   UNL A   1      43.742  22.920  29.616  1.00  0.00     0.195 C 
ENDBRANCH  15  16
ENDBRANCH  10  15
BRANCH  13  18
ATOM     18  N   UNL A   1      47.205  25.562  25.928  1.00  0.00    -0.324 N 
ATOM     19  H   UNL A   1      46.788  26.398  25.619  1.00  0.00     0.170 HD
BRANCH  18  20
ATOM     20  C   UNL A   1      48.565  25.642  26.278  1.00  0.00     0.044 A 
ATOM     21  C   UNL A   1      48.942  25.164  27.542  1.00  0.00     0.026 A 
ATOM     22  C   UNL A   1      49.573  26.072  25.376  1.00  0.00    -0.025 A 
ATOM     23  C   UNL A   1      50.283  25.074  27.908  1.00  0.00     0.002 A 
ATOM     24  C   UNL A   1      50.937  25.946  25.738  1.00  0.00    -0.046 A 
ATOM     25  C   UNL A   1      49.216  26.679  24.038  1.00  0.00     0.047 C 
ATOM     26  C   UNL A   1      51.272  25.453  27.008  1.00  0.00     0.004 A 
ATOM     27  C   UNL A   1      52.070  26.338  24.824  1.00  0.00     0.044 C 
ENDBRANCH  18  20
ENDBRANCH  13  18
ENDBRANCH   8   9
ENDBRANCH   7   8
ENDBRANCH   4   7
ENDBRANCH   2   3
ENDBRANCH   1   2
BRANCH   1  28
ATOM     28  C   UNL A   1      41.145  19.920  26.601  1.00  0.00     0.023 C 
BRANCH  28  29
ATOM     29  C   UNL A   1      40.686  21.356  26.838  1.00  0.00     0.116 C 
BRANCH  29  30
ATOM     30  N   UNL A   1      39.381  21.643  26.264  1.00  0.00    -0.352 N 
ATOM     31  C   UNL A   1      38.685  22.829  26.230  1.00  0.00     0.251 C 
ATOM     32  H   UNL A   1      38.930  20.879  25.837  1.00  0.00     0.163 HD
ATOM     33  O   UNL A   1      37.534  22.847  25.800  1.00  0.00    -0.269 OA
BRANCH  31  34
ATOM     34  C   UNL A   1      39.304  24.074  26.739  1.00  0.00     0.039 A 
ATOM     35  C   UNL A   1      39.977  24.907  25.841  1.00  0.00     0.014 A 
ATOM     36  C   UNL A   1      39.221  24.427  28.089  1.00  0.00     0.014 A 
ATOM     37  C   UNL A   1      40.505  26.124  26.281  1.00  0.00     0.010 A 
ATOM     38  C   UNL A   1      39.684  25.673  28.511  1.00  0.00     0.010 A 
ATOM     39  C   UNL A   1      40.330  26.537  27.613  1.00  0.00    -0.014 A 
BRANCH  39  40
ATOM     40  C   UNL A   1      40.790  27.876  28.073  1.00  0.00     0.031 A 
ATOM     41  C   UNL A   1      42.260  28.209  28.108  1.00  0.00     0.074 A 
ATOM     42  C   UNL A   1      39.890  28.763  28.546  1.00  0.00     0.049 A 
ATOM     43  N   UNL A   1      42.846  29.297  28.534  1.00  0.00    -0.248 NA
ATOM     44  C   UNL A   1      43.194  27.177  27.626  1.00  0.00     0.031 C 
ATOM     45  C   UNL A   1      38.445  28.535  28.643  1.00  0.00     0.029 A 
ATOM     46  N   UNL A   1      40.059  30.024  29.066  1.00  0.00    -0.354 N 
ATOM     47  C   UNL A   1      44.212  29.069  28.415  1.00  0.00     0.074 A 
ATOM     48  C   UNL A   1      44.371  27.729  27.892  1.00  0.00     0.031 C 
ATOM     49  C   UNL A   1      37.864  29.615  29.190  1.00  0.00     0.029 A 
ATOM     50  C   UNL A   1      38.891  30.598  29.517  1.00  0.00     0.049 A 
ATOM     51  H   UNL A   1      40.933  30.474  29.112  1.00  0.00     0.167 HD
ATOM     52  C   UNL A   1      45.240  29.903  28.695  1.00  0.00     0.034 A 
ATOM     53  C   UNL A   1      38.672  31.775  30.137  1.00  0.00     0.034 A 
ATOM     54  C   UNL A   1      45.080  31.254  29.163  1.00  0.00     0.049 A 
ATOM     55  C   UNL A   1      39.835  32.697  30.390  1.00  0.00     0.074 A 
ATOM     56  C   UNL A   1      46.059  32.211  29.365  1.00  0.00     0.029 A 
ATOM     57  N   UNL A   1      43.874  31.835  29.516  1.00  0.00    -0.354 N 
ATOM     58  N   UNL A   1      41.101  32.530  30.097  1.00  0.00    -0.248 NA
ATOM     59  C   UNL A   1      39.534  33.989  31.027  1.00  0.00     0.031 C 
ATOM     60  C   UNL A   1      45.449  33.360  29.876  1.00  0.00     0.029 A 
ATOM     61  C   UNL A   1      44.086  33.132  29.952  1.00  0.00     0.049 A 
ATOM     62  H   UNL A   1      42.996  31.391  29.464  1.00  0.00     0.167 HD
ATOM     63  C   UNL A   1      41.738  33.709  30.473  1.00  0.00     0.074 A 
ATOM     64  C   UNL A   1      40.715  34.591  30.992  1.00  0.00     0.031 C 
ATOM     65  C   UNL A   1      43.053  34.026  30.407  1.00  0.00     0.034 A 
BRANCH  52  66
ATOM     66  C   UNL A   1      46.644  29.412  28.465  1.00  0.00     0.023 A 
ATOM     67  C   UNL A   1      47.268  29.635  27.221  1.00  0.00     0.012 A 
ATOM     68  C   UNL A   1      47.384  28.841  29.519  1.00  0.00     0.148 A 
ATOM     69  C   UNL A   1      48.602  29.279  27.024  1.00  0.00     0.002 A 
ATOM     70  C   UNL A   1      48.726  28.532  29.329  1.00  0.00     0.091 A 
ATOM     71  F   UNL A   1      46.766  28.624  30.688  1.00  0.00    -0.205 F 
ATOM     72  C   UNL A   1      49.334  28.742  28.080  1.00  0.00     0.022 A 
BRANCH  70  73
ATOM     73  S   UNL A   1      49.779  27.917  30.648  1.00  0.00     0.127 S 
ATOM     74  O   UNL A   1      51.103  28.008  30.034  1.00  0.00    -0.237 OA
ATOM     75  O   UNL A   1      49.531  28.888  31.714  1.00  0.00    -0.237 OA
ATOM     76  O   UNL A   1      49.321  26.564  30.934  1.00  0.00    -0.744 OA
ENDBRANCH  70  73
ENDBRANCH  52  66
BRANCH  53  77
ATOM     77  C   UNL A   1      37.291  32.176  30.536  1.00  0.00     0.023 A 
ATOM     78  C   UNL A   1      36.839  31.908  31.843  1.00  0.00     0.012 A 
ATOM     79  C   UNL A   1      36.419  32.799  29.624  1.00  0.00     0.148 A 
ATOM     80  C   UNL A   1      35.528  32.204  32.217  1.00  0.00     0.002 A 
ATOM     81  C   UNL A   1      35.133  33.148  30.022  1.00  0.00     0.091 A 
ATOM     82  F   UNL A   1      36.859  33.035  28.380  1.00  0.00    -0.205 F 
ATOM     83  C   UNL A   1      34.677  32.830  31.311  1.00  0.00     0.022 A 
BRANCH  81  84
ATOM     84  S   UNL A   1      34.022  34.074  28.958  1.00  0.00     0.127 S 
ATOM     85  O   UNL A   1      33.022  34.550  29.910  1.00  0.00    -0.237 OA
ATOM     86  O   UNL A   1      34.906  35.110  28.421  1.00  0.00    -0.237 OA
ATOM     87  O   UNL A   1      33.551  33.119  27.963  1.00  0.00    -0.744 OA
ENDBRANCH  81  84
ENDBRANCH  53  77
BRANCH  65  88
ATOM     88  C   UNL A   1      43.469  35.402  30.854  1.00  0.00     0.023 A 
ATOM     89  C   UNL A   1      43.899  35.615  32.179  1.00  0.00     0.012 A 
ATOM     90  C   UNL A   1      43.505  36.470  29.935  1.00  0.00     0.148 A 
ATOM     91  C   UNL A   1      44.322  36.879  32.591  1.00  0.00     0.002 A 
ATOM     92  C   UNL A   1      43.980  37.712  30.338  1.00  0.00     0.091 A 
ATOM     93  F   UNL A   1      43.076  36.252  28.683  1.00  0.00    -0.205 F 
ATOM     94  C   UNL A   1      44.374  37.922  31.669  1.00  0.00     0.022 A 
BRANCH  92  95
ATOM     95  S   UNL A   1      44.177  39.084  29.196  1.00  0.00     0.127 S 
ATOM     96  O   UNL A   1      44.808  40.092  30.046  1.00  0.00    -0.237 OA
ATOM     97  O   UNL A   1      45.056  38.512  28.175  1.00  0.00    -0.237 OA
ATOM     98  O   UNL A   1      42.839  39.414  28.726  1.00  0.00    -0.744 OA
ENDBRANCH  92  95
ENDBRANCH  65  88
ENDBRANCH  39  40
ENDBRANCH  31  34
ENDBRANCH  29  30
ENDBRANCH  28  29
ENDBRANCH   1  28
TORSDOF 20
ENDMDL
MODEL 2
REMARK VINA RESULT:     -10.3      5.761     12.240
REMARK SMILES COCc1cc(OCC(=O)NCCCCNC(=O)c2ccc(-c3c4nc(c(-c5cccc(S(=O)(=O)[O-])c5F)c5ccc([nH]5)c(-c5cccc(S(=O)(=O)[O-])c5F)c5nc(c(-c6cccc(S(=O)(=O)[O-])c6F)c6ccc3[nH]6)C=C5)C=C4)cc2)nc(Nc2cccc(C)c2C)n1
REMARK SMILES IDX 13 1 12 2 11 3 9 4 10 5 8 7 7 8 6 9 4 10 5 11 93 12 83 13
REMARK SMILES IDX 82 14 3 15 2 16 1 17 84 18 85 20 86 21 91 22 87 23 89 24
REMARK SMILES IDX 92 25 88 26 90 27 14 28 15 29 16 30 17 31 18 33 19 34 20 35
REMARK SMILES IDX 81 36 21 37 80 38 22 39 23 40 24 41 74 42 25 43 79 44 73 45
REMARK SMILES IDX 75 46 26 47 78 48 72 49 71 50 27 52 59 53 39 54 58 55 40 56
REMARK SMILES IDX 43 57 57 58 76 59 41 60 42 61 56 63 77 64 44 65 28 66 29 67
REMARK SMILES IDX 37 68 30 69 32 70 38 71 31 72 33 73 34 74 35 75 36 76 60 77
REMARK SMILES IDX 61 78 69 79 62 80 64 81 70 82 63 83 65 84 66 85 67 86 68 87
REMARK SMILES IDX 45 88 46 89 54 90 47 91 49 92 55 93 48 94 50 95 51 96 52 97
REMARK SMILES IDX 53 98
REMARK H PARENT 11 6 84 19 16 32 75 51 43 62
REMARK Flexibility Score: inf
ROOT
ATOM      1  C   UNL A   1      31.454  29.118  26.195  1.00  0.00     0.023 C 
ENDROOT
BRANCH   1   2
ATOM      2  C   UNL A   1      31.579  29.874  24.873  1.00  0.00     0.116 C 
BRANCH   2   3
ATOM      3  N   UNL A   1      30.289  30.265  24.338  1.00  0.00    -0.353 N 
ATOM      4  C   UNL A   1      29.739  29.949  23.131  1.00  0.00     0.258 C 
ATOM      5  O   UNL A   1      28.610  30.362  22.861  1.00  0.00    -0.271 OA
ATOM      6  H   UNL A   1      29.738  30.833  24.924  1.00  0.00     0.163 HD
BRANCH   4   7
ATOM      7  C   UNL A   1      30.515  29.071  22.141  1.00  0.00     0.331 C 
BRANCH   7   8
ATOM      8  O   UNL A   1      30.249  27.680  22.139  1.00  0.00    -0.467 OA
BRANCH   8   9
ATOM      9  C   UNL A   1      30.675  26.939  23.205  1.00  0.00     0.218 A 
ATOM     10  C   UNL A   1      30.481  25.739  25.202  1.00  0.00     0.076 A 
ATOM     11  C   UNL A   1      29.894  26.571  24.279  1.00  0.00     0.095 A 
ATOM     12  N   UNL A   1      31.751  25.331  25.061  1.00  0.00    -0.215 NA
ATOM     13  C   UNL A   1      32.466  25.766  24.020  1.00  0.00     0.230 A 
ATOM     14  N   UNL A   1      31.968  26.577  23.082  1.00  0.00    -0.177 NA
BRANCH  10  15
ATOM     15  C   UNL A   1      29.714  25.178  26.376  1.00  0.00     0.216 C 
BRANCH  15  16
ATOM     16  O   UNL A   1      30.427  24.167  27.100  1.00  0.00    -0.378 OA
ATOM     17  C   UNL A   1      29.854  22.869  26.953  1.00  0.00     0.195 C 
ENDBRANCH  15  16
ENDBRANCH  10  15
BRANCH  13  18
ATOM     18  N   UNL A   1      33.799  25.378  23.912  1.00  0.00    -0.324 N 
ATOM     19  H   UNL A   1      34.385  25.981  23.400  1.00  0.00     0.170 HD
BRANCH  18  20
ATOM     20  C   UNL A   1      34.409  24.229  24.445  1.00  0.00     0.044 A 
ATOM     21  C   UNL A   1      35.372  24.410  25.450  1.00  0.00     0.026 A 
ATOM     22  C   UNL A   1      34.014  22.910  24.098  1.00  0.00    -0.025 A 
ATOM     23  C   UNL A   1      35.917  23.323  26.130  1.00  0.00     0.002 A 
ATOM     24  C   UNL A   1      34.544  21.809  24.817  1.00  0.00    -0.046 A 
ATOM     25  C   UNL A   1      33.049  22.657  22.963  1.00  0.00     0.047 C 
ATOM     26  C   UNL A   1      35.497  22.033  25.821  1.00  0.00     0.004 A 
ATOM     27  C   UNL A   1      34.147  20.381  24.542  1.00  0.00     0.044 C 
ENDBRANCH  18  20
ENDBRANCH  13  18
ENDBRANCH   8   9
ENDBRANCH   7   8
ENDBRANCH   4   7
ENDBRANCH   2   3
ENDBRANCH   1   2
BRANCH   1  28
ATOM     28  C   UNL A   1      32.768  28.567  26.759  1.00  0.00     0.023 C 
BRANCH  28  29
ATOM     29  C   UNL A   1      34.015  29.402  26.484  1.00  0.00     0.116 C 
BRANCH  29  30
ATOM     30  N   UNL A   1      33.977  30.715  27.110  1.00  0.00    -0.352 N 
ATOM     31  C   UNL A   1      34.837  31.267  28.030  1.00  0.00     0.251 C 
ATOM     32  H   UNL A   1      33.228  31.291  26.835  1.00  0.00     0.163 HD
ATOM     33  O   UNL A   1      34.569  32.355  28.535  1.00  0.00    -0.269 OA
BRANCH  31  34
ATOM     34  C   UNL A   1      36.062  30.542  28.438  1.00  0.00     0.039 A 
ATOM     35  C   UNL A   1      37.224  30.709  27.680  1.00  0.00     0.014 A 
ATOM     36  C   UNL A   1      36.074  29.709  29.559  1.00  0.00     0.014 A 
ATOM     37  C   UNL A   1      38.414  30.096  28.087  1.00  0.00     0.010 A 
ATOM     38  C   UNL A   1      37.276  29.158  30.003  1.00  0.00     0.010 A 
ATOM     39  C   UNL A   1      38.460  29.346  29.273  1.00  0.00    -0.014 A 
BRANCH  39  40
ATOM     40  C   UNL A   1      39.739  28.776  29.778  1.00  0.00     0.031 A 
ATOM     41  C   UNL A   1      40.489  29.453  30.896  1.00  0.00     0.074 A 
ATOM     42  C   UNL A   1      40.274  27.696  29.170  1.00  0.00     0.049 A 
ATOM     43  N   UNL A   1      41.644  29.136  31.422  1.00  0.00    -0.248 NA
ATOM     44  C   UNL A   1      39.876  30.657  31.484  1.00  0.00     0.031 C 
ATOM     45  C   UNL A   1      39.690  26.994  28.023  1.00  0.00     0.029 A 
ATOM     46  N   UNL A   1      41.446  27.020  29.407  1.00  0.00    -0.354 N 
ATOM     47  C   UNL A   1      41.918  30.118  32.367  1.00  0.00     0.074 A 
ATOM     48  C   UNL A   1      40.816  31.055  32.332  1.00  0.00     0.031 C 
ATOM     49  C   UNL A   1      40.506  25.992  27.657  1.00  0.00     0.029 A 
ATOM     50  C   UNL A   1      41.686  25.998  28.515  1.00  0.00     0.049 A 
ATOM     51  H   UNL A   1      42.057  27.244  30.145  1.00  0.00     0.167 HD
ATOM     52  C   UNL A   1      42.978  30.220  33.202  1.00  0.00     0.034 A 
ATOM     53  C   UNL A   1      42.742  25.170  28.390  1.00  0.00     0.034 A 
ATOM     54  C   UNL A   1      44.046  29.259  33.275  1.00  0.00     0.049 A 
ATOM     55  C   UNL A   1      43.883  25.285  29.367  1.00  0.00     0.074 A 
ATOM     56  C   UNL A   1      45.102  29.220  34.168  1.00  0.00     0.029 A 
ATOM     57  N   UNL A   1      44.205  28.182  32.420  1.00  0.00    -0.354 N 
ATOM     58  N   UNL A   1      44.030  26.111  30.372  1.00  0.00    -0.248 NA
ATOM     59  C   UNL A   1      44.988  24.325  29.215  1.00  0.00     0.031 C 
ATOM     60  C   UNL A   1      45.922  28.139  33.829  1.00  0.00     0.029 A 
ATOM     61  C   UNL A   1      45.351  27.482  32.752  1.00  0.00     0.049 A 
ATOM     62  H   UNL A   1      43.591  27.948  31.685  1.00  0.00     0.167 HD
ATOM     63  C   UNL A   1      45.218  25.746  30.997  1.00  0.00     0.074 A 
ATOM     64  C   UNL A   1      45.739  24.607  30.271  1.00  0.00     0.031 C 
ATOM     65  C   UNL A   1      45.829  26.311  32.065  1.00  0.00     0.034 A 
BRANCH  52  66
ATOM     66  C   UNL A   1      43.033  31.389  34.149  1.00  0.00     0.023 A 
ATOM     67  C   UNL A   1      43.628  32.597  33.735  1.00  0.00     0.012 A 
ATOM     68  C   UNL A   1      42.390  31.327  35.401  1.00  0.00     0.148 A 
ATOM     69  C   UNL A   1      43.598  33.721  34.560  1.00  0.00     0.002 A 
ATOM     70  C   UNL A   1      42.324  32.464  36.198  1.00  0.00     0.091 A 
ATOM     71  F   UNL A   1      41.845  30.163  35.781  1.00  0.00    -0.205 F 
ATOM     72  C   UNL A   1      42.935  33.659  35.783  1.00  0.00     0.022 A 
BRANCH  70  73
ATOM     73  S   UNL A   1      41.420  32.513  37.749  1.00  0.00     0.127 S 
ATOM     74  O   UNL A   1      40.108  32.013  37.342  1.00  0.00    -0.237 OA
ATOM     75  O   UNL A   1      42.193  31.591  38.582  1.00  0.00    -0.237 OA
ATOM     76  O   UNL A   1      41.445  33.902  38.188  1.00  0.00    -0.744 OA
ENDBRANCH  70  73
ENDBRANCH  52  66
BRANCH  53  77
ATOM     77  C   UNL A   1      42.767  24.128  27.321  1.00  0.00     0.023 A 
ATOM     78  C   UNL A   1      43.414  24.400  26.100  1.00  0.00     0.012 A 
ATOM     79  C   UNL A   1      42.136  22.883  27.499  1.00  0.00     0.148 A 
ATOM     80  C   UNL A   1      43.386  23.473  25.057  1.00  0.00     0.002 A 
ATOM     81  C   UNL A   1      42.164  21.939  26.479  1.00  0.00     0.091 A 
ATOM     82  F   UNL A   1      41.513  22.645  28.662  1.00  0.00    -0.205 F 
ATOM     83  C   UNL A   1      42.768  22.241  25.248  1.00  0.00     0.022 A 
BRANCH  81  84
ATOM     84  S   UNL A   1      41.509  20.281  26.692  1.00  0.00     0.127 S 
ATOM     85  O   UNL A   1      40.086  20.543  26.889  1.00  0.00    -0.237 OA
ATOM     86  O   UNL A   1      41.850  19.652  25.416  1.00  0.00    -0.237 OA
ATOM     87  O   UNL A   1      42.220  19.728  27.838  1.00  0.00    -0.744 OA
ENDBRANCH  81  84
ENDBRANCH  53  77
BRANCH  65  88
ATOM     88  C   UNL A   1      47.105  25.682  32.561  1.00  0.00     0.023 A 
ATOM     89  C   UNL A   1      48.344  26.076  32.019  1.00  0.00     0.012 A 
ATOM     90  C   UNL A   1      47.077  24.754  33.621  1.00  0.00     0.148 A 
ATOM     91  C   UNL A   1      49.533  25.526  32.499  1.00  0.00     0.002 A 
ATOM     92  C   UNL A   1      48.268  24.252  34.130  1.00  0.00     0.091 A 
ATOM     93  F   UNL A   1      45.886  24.379  34.112  1.00  0.00    -0.205 F 
ATOM     94  C   UNL A   1      49.496  24.626  33.561  1.00  0.00     0.022 A 
BRANCH  92  95
ATOM     95  S   UNL A   1      48.322  23.167  35.561  1.00  0.00     0.127 S 
ATOM     96  O   UNL A   1      49.761  23.005  35.758  1.00  0.00    -0.237 OA
ATOM     97  O   UNL A   1      47.654  23.972  36.585  1.00  0.00    -0.237 OA
ATOM     98  O   UNL A   1      47.605  21.959  35.178  1.00  0.00    -0.744 OA
ENDBRANCH  92  95
ENDBRANCH  65  88
ENDBRANCH  39  40
ENDBRANCH  31  34
ENDBRANCH  29  30
ENDBRANCH  28  29
ENDBRANCH   1  28
TORSDOF 20
ENDMDL
MODEL 3
REMARK VINA RESULT:     -10.2      4.589     11.203
REMARK SMILES COCc1cc(OCC(=O)NCCCCNC(=O)c2ccc(-c3c4nc(c(-c5cccc(S(=O)(=O)[O-])c5F)c5ccc([nH]5)c(-c5cccc(S(=O)(=O)[O-])c5F)c5nc(c(-c6cccc(S(=O)(=O)[O-])c6F)c6ccc3[nH]6)C=C5)C=C4)cc2)nc(Nc2cccc(C)c2C)n1
REMARK SMILES IDX 13 1 12 2 11 3 9 4 10 5 8 7 7 8 6 9 4 10 5 11 93 12 83 13
REMARK SMILES IDX 82 14 3 15 2 16 1 17 84 18 85 20 86 21 91 22 87 23 89 24
REMARK SMILES IDX 92 25 88 26 90 27 14 28 15 29 16 30 17 31 18 33 19 34 20 35
REMARK SMILES IDX 81 36 21 37 80 38 22 39 23 40 24 41 74 42 25 43 79 44 73 45
REMARK SMILES IDX 75 46 26 47 78 48 72 49 71 50 27 52 59 53 39 54 58 55 40 56
REMARK SMILES IDX 43 57 57 58 76 59 41 60 42 61 56 63 77 64 44 65 28 66 29 67
REMARK SMILES IDX 37 68 30 69 32 70 38 71 31 72 33 73 34 74 35 75 36 76 60 77
REMARK SMILES IDX 61 78 69 79 62 80 64 81 70 82 63 83 65 84 66 85 67 86 68 87
REMARK SMILES IDX 45 88 46 89 54 90 47 91 49 92 55 93 48 94 50 95 51 96 52 97
REMARK SMILES IDX 53 98
REMARK H PARENT 11 6 84 19 16 32 75 51 43 62
REMARK Flexibility Score: inf
ROOT
ATOM      1  C   UNL A   1      37.219  20.433  24.451  1.00  0.00     0.023 C 
ENDROOT
BRANCH   1   2
ATOM      2  C   UNL A   1      35.823  20.425  25.071  1.00  0.00     0.116 C 
BRANCH   2   3
ATOM      3  N   UNL A   1      35.088  19.215  24.761  1.00  0.00    -0.353 N 
ATOM      4  C   UNL A   1      33.784  18.922  25.027  1.00  0.00     0.258 C 
ATOM      5  O   UNL A   1      33.327  17.836  24.663  1.00  0.00    -0.271 OA
ATOM      6  H   UNL A   1      35.598  18.512  24.296  1.00  0.00     0.163 HD
BRANCH   4   7
ATOM      7  C   UNL A   1      32.899  19.946  25.750  1.00  0.00     0.331 C 
BRANCH   7   8
ATOM      8  O   UNL A   1      31.769  20.448  25.061  1.00  0.00    -0.467 OA
BRANCH   8   9
ATOM      9  C   UNL A   1      31.878  21.658  24.434  1.00  0.00     0.218 A 
ATOM     10  C   UNL A   1      32.525  23.162  22.766  1.00  0.00     0.076 A 
ATOM     11  C   UNL A   1      32.624  21.900  23.301  1.00  0.00     0.095 A 
ATOM     12  N   UNL A   1      31.755  24.101  23.337  1.00  0.00    -0.215 NA
ATOM     13  C   UNL A   1      31.098  23.811  24.463  1.00  0.00     0.230 A 
ATOM     14  N   UNL A   1      31.144  22.609  25.045  1.00  0.00    -0.177 NA
BRANCH  10  15
ATOM     15  C   UNL A   1      33.208  23.539  21.472  1.00  0.00     0.216 C 
BRANCH  15  16
ATOM     16  O   UNL A   1      33.205  24.947  21.208  1.00  0.00    -0.378 OA
ATOM     17  C   UNL A   1      32.605  25.278  19.957  1.00  0.00     0.195 C 
ENDBRANCH  15  16
ENDBRANCH  10  15
BRANCH  13  18
ATOM     18  N   UNL A   1      30.343  24.808  25.075  1.00  0.00    -0.324 N 
ATOM     19  H   UNL A   1      29.416  24.570  25.305  1.00  0.00     0.170 HD
BRANCH  18  20
ATOM     20  C   UNL A   1      30.745  26.114  25.406  1.00  0.00     0.044 A 
ATOM     21  C   UNL A   1      31.591  26.274  26.515  1.00  0.00     0.026 A 
ATOM     22  C   UNL A   1      30.433  27.247  24.610  1.00  0.00    -0.025 A 
ATOM     23  C   UNL A   1      32.150  27.513  26.822  1.00  0.00     0.002 A 
ATOM     24  C   UNL A   1      31.031  28.497  24.904  1.00  0.00    -0.046 A 
ATOM     25  C   UNL A   1      29.457  27.146  23.459  1.00  0.00     0.047 C 
ATOM     26  C   UNL A   1      31.879  28.613  26.016  1.00  0.00     0.004 A 
ATOM     27  C   UNL A   1      30.787  29.739  24.085  1.00  0.00     0.044 C 
ENDBRANCH  18  20
ENDBRANCH  13  18
ENDBRANCH   8   9
ENDBRANCH   7   8
ENDBRANCH   4   7
ENDBRANCH   2   3
ENDBRANCH   1   2
BRANCH   1  28
ATOM     28  C   UNL A   1      38.194  19.399  25.024  1.00  0.00     0.023 C 
BRANCH  28  29
ATOM     29  C   UNL A   1      39.129  19.899  26.121  1.00  0.00     0.116 C 
BRANCH  29  30
ATOM     30  N   UNL A   1      40.383  19.165  26.185  1.00  0.00    -0.352 N 
ATOM     31  C   UNL A   1      41.658  19.634  26.397  1.00  0.00     0.251 C 
ATOM     32  H   UNL A   1      40.309  18.191  26.060  1.00  0.00     0.163 HD
ATOM     33  O   UNL A   1      42.613  18.866  26.299  1.00  0.00    -0.269 OA
BRANCH  31  34
ATOM     34  C   UNL A   1      41.887  21.063  26.710  1.00  0.00     0.039 A 
ATOM     35  C   UNL A   1      42.300  21.412  27.999  1.00  0.00     0.014 A 
ATOM     36  C   UNL A   1      41.703  22.056  25.744  1.00  0.00     0.014 A 
ATOM     37  C   UNL A   1      42.596  22.746  28.299  1.00  0.00     0.010 A 
ATOM     38  C   UNL A   1      42.067  23.374  26.024  1.00  0.00     0.010 A 
ATOM     39  C   UNL A   1      42.518  23.734  27.303  1.00  0.00    -0.014 A 
BRANCH  39  40
ATOM     40  C   UNL A   1      42.931  25.138  27.575  1.00  0.00     0.031 A 
ATOM     41  C   UNL A   1      41.967  26.111  28.203  1.00  0.00     0.074 A 
ATOM     42  C   UNL A   1      44.148  25.564  27.175  1.00  0.00     0.049 A 
ATOM     43  N   UNL A   1      42.130  27.383  28.457  1.00  0.00    -0.248 NA
ATOM     44  C   UNL A   1      40.636  25.595  28.570  1.00  0.00     0.031 C 
ATOM     45  C   UNL A   1      45.147  24.745  26.482  1.00  0.00     0.029 A 
ATOM     46  N   UNL A   1      44.740  26.801  27.260  1.00  0.00    -0.354 N 
ATOM     47  C   UNL A   1      40.919  27.831  28.970  1.00  0.00     0.074 A 
ATOM     48  C   UNL A   1      40.019  26.698  28.976  1.00  0.00     0.031 C 
ATOM     49  C   UNL A   1      46.222  25.500  26.205  1.00  0.00     0.029 A 
ATOM     50  C   UNL A   1      45.980  26.863  26.665  1.00  0.00     0.049 A 
ATOM     51  H   UNL A   1      44.317  27.570  27.706  1.00  0.00     0.167 HD
ATOM     52  C   UNL A   1      40.590  29.066  29.414  1.00  0.00     0.034 A 
ATOM     53  C   UNL A   1      46.821  27.903  26.494  1.00  0.00     0.034 A 
ATOM     54  C   UNL A   1      41.501  30.179  29.459  1.00  0.00     0.049 A 
ATOM     55  C   UNL A   1      46.441  29.253  27.043  1.00  0.00     0.074 A 
ATOM     56  C   UNL A   1      41.290  31.436  29.998  1.00  0.00     0.029 A 
ATOM     57  N   UNL A   1      42.782  30.177  28.935  1.00  0.00    -0.354 N 
ATOM     58  N   UNL A   1      45.358  29.605  27.691  1.00  0.00    -0.248 NA
ATOM     59  C   UNL A   1      47.415  30.341  26.870  1.00  0.00     0.031 C 
ATOM     60  C   UNL A   1      42.433  32.208  29.767  1.00  0.00     0.029 A 
ATOM     61  C   UNL A   1      43.369  31.417  29.122  1.00  0.00     0.049 A 
ATOM     62  H   UNL A   1      43.213  29.408  28.496  1.00  0.00     0.167 HD
ATOM     63  C   UNL A   1      45.540  30.939  28.040  1.00  0.00     0.074 A 
ATOM     64  C   UNL A   1      46.847  31.325  27.552  1.00  0.00     0.031 C 
ATOM     65  C   UNL A   1      44.695  31.773  28.691  1.00  0.00     0.034 A 
BRANCH  52  66
ATOM     66  C   UNL A   1      39.197  29.292  29.938  1.00  0.00     0.023 A 
ATOM     67  C   UNL A   1      38.874  28.909  31.255  1.00  0.00     0.012 A 
ATOM     68  C   UNL A   1      38.247  29.990  29.167  1.00  0.00     0.148 A 
ATOM     69  C   UNL A   1      37.621  29.202  31.791  1.00  0.00     0.002 A 
ATOM     70  C   UNL A   1      37.017  30.319  29.724  1.00  0.00     0.091 A 
ATOM     71  F   UNL A   1      38.569  30.330  27.912  1.00  0.00    -0.205 F 
ATOM     72  C   UNL A   1      36.699  29.918  31.033  1.00  0.00     0.022 A 
BRANCH  70  73
ATOM     73  S   UNL A   1      35.793  31.313  28.863  1.00  0.00     0.127 S 
ATOM     74  O   UNL A   1      35.066  30.294  28.107  1.00  0.00    -0.237 OA
ATOM     75  O   UNL A   1      35.042  31.901  29.973  1.00  0.00    -0.237 OA
ATOM     76  O   UNL A   1      36.541  32.267  28.056  1.00  0.00    -0.744 OA
ENDBRANCH  70  73
ENDBRANCH  52  66
BRANCH  53  77
ATOM     77  C   UNL A   1      48.130  27.713  25.801  1.00  0.00     0.023 A 
ATOM     78  C   UNL A   1      49.307  27.577  26.562  1.00  0.00     0.012 A 
ATOM     79  C   UNL A   1      48.216  27.691  24.396  1.00  0.00     0.148 A 
ATOM     80  C   UNL A   1      50.551  27.475  25.938  1.00  0.00     0.002 A 
ATOM     81  C   UNL A   1      49.452  27.527  23.780  1.00  0.00     0.091 A 
ATOM     82  F   UNL A   1      47.089  27.835  23.685  1.00  0.00    -0.205 F 
ATOM     83  C   UNL A   1      50.624  27.443  24.549  1.00  0.00     0.022 A 
BRANCH  81  84
ATOM     84  S   UNL A   1      49.616  27.341  22.002  1.00  0.00     0.127 S 
ATOM     85  O   UNL A   1      49.170  28.645  21.521  1.00  0.00    -0.237 OA
ATOM     86  O   UNL A   1      51.050  27.086  21.853  1.00  0.00    -0.237 OA
ATOM     87  O   UNL A   1      48.770  26.207  21.651  1.00  0.00    -0.744 OA
ENDBRANCH  81  84
ENDBRANCH  53  77
BRANCH  65  88
ATOM     88  C   UNL A   1      45.167  33.176  28.973  1.00  0.00     0.023 A 
ATOM     89  C   UNL A   1      45.854  33.464  30.169  1.00  0.00     0.012 A 
ATOM     90  C   UNL A   1      44.994  34.193  28.012  1.00  0.00     0.148 A 
ATOM     91  C   UNL A   1      46.328  34.751  30.421  1.00  0.00     0.002 A 
ATOM     92  C   UNL A   1      45.517  35.459  28.246  1.00  0.00     0.091 A 
ATOM     93  F   UNL A   1      44.324  33.903  26.888  1.00  0.00    -0.205 F 
ATOM     94  C   UNL A   1      46.171  35.744  29.456  1.00  0.00     0.022 A 
BRANCH  92  95
ATOM     95  S   UNL A   1      45.451  36.769  27.019  1.00  0.00     0.127 S 
ATOM     96  O   UNL A   1      44.010  36.938  26.841  1.00  0.00    -0.237 OA
ATOM     97  O   UNL A   1      46.113  37.875  27.713  1.00  0.00    -0.237 OA
ATOM     98  O   UNL A   1      46.170  36.268  25.856  1.00  0.00    -0.744 OA
ENDBRANCH  92  95
ENDBRANCH  65  88
ENDBRANCH  39  40
ENDBRANCH  31  34
ENDBRANCH  29  30
ENDBRANCH  28  29
ENDBRANCH   1  28
TORSDOF 20
ENDMDL
