MODEL 1
REMARK VINA RESULT:     -12.2      0.000      0.000
REMARK SMILES C[C@H](O)[C@H](C)[N@H+]1Cc2ccccc2C[C@@H]1C(=O)NCCCCNC(=O)c1ccc(-c2c3nc(c(-c4cccc(S(=O)(=O)[O-])c4F)c4ccc([nH]4)c(-c4cccc(S(=O)(=O)[O-])c4F)c4nc(c(-c5cccc(S(=O)(=O)[O-])c5F)c5ccc2[nH]5)C=C4)C=C3)cc1
REMARK SMILES IDX 20 1 19 2 18 3 16 4 17 5 15 7 6 8 7 9 8 11 14 12 9 13 13 14
REMARK SMILES IDX 10 15 12 16 11 17 4 18 5 19 2 20 1 21 3 22 21 24 22 25 23 26
REMARK SMILES IDX 24 27 25 29 26 30 27 31 88 32 28 33 87 34 29 35 30 36 31 37
REMARK SMILES IDX 81 38 32 39 86 40 80 41 82 42 33 43 85 44 79 45 78 46 34 48
REMARK SMILES IDX 66 49 46 50 65 51 47 52 50 53 64 54 83 55 48 56 49 57 63 59
REMARK SMILES IDX 84 60 51 61 35 62 36 63 44 64 37 65 39 66 45 67 38 68 40 69
REMARK SMILES IDX 41 70 42 71 43 72 67 73 68 74 76 75 69 76 71 77 77 78 70 79
REMARK SMILES IDX 72 80 73 81 74 82 75 83 52 84 53 85 61 86 54 87 56 88 62 89
REMARK SMILES IDX 55 90 57 91 58 92 59 93 60 94
REMARK H PARENT 18 6 6 10 3 23 23 28 82 47 50 58
REMARK Flexibility Score: inf
ROOT
ATOM      1  C   UNL A   1      32.896  28.896  23.476  1.00  0.00     0.023 C 
ENDROOT
BRANCH   1   2
ATOM      2  C   UNL A   1      33.716  27.614  23.545  1.00  0.00     0.116 C 
BRANCH   2   3
ATOM      3  N   UNL A   1      33.639  26.834  22.327  1.00  0.00    -0.351 N 
ATOM      4  C   UNL A   1      33.211  25.569  22.077  1.00  0.00     0.278 C 
ATOM      5  O   UNL A   1      33.257  25.215  20.887  1.00  0.00    -0.268 OA
ATOM      6  H   UNL A   1      33.957  27.312  21.527  1.00  0.00     0.163 HD
BRANCH   4   7
ATOM      7  C   UNL A   1      32.706  24.545  23.130  1.00  0.00     0.279 C 
ATOM      8  N   UNL A   1      32.575  25.088  24.513  1.00  0.00    -0.316 N 
ATOM      9  C   UNL A   1      33.377  24.373  25.521  1.00  0.00     0.300 C 
ATOM     10  H   UNL A   1      33.019  26.006  24.507  1.00  0.00     0.349 HD
ATOM     11  C   UNL A   1      34.739  23.932  25.024  1.00  0.00     0.010 A 
ATOM     12  C   UNL A   1      33.536  23.248  22.978  1.00  0.00     0.111 C 
ATOM     13  C   UNL A   1      35.902  24.072  25.787  1.00  0.00     0.010 A 
ATOM     14  C   UNL A   1      34.816  23.349  23.752  1.00  0.00    -0.033 A 
ATOM     15  C   UNL A   1      37.133  23.660  25.268  1.00  0.00     0.001 A 
ATOM     16  C   UNL A   1      36.043  22.912  23.245  1.00  0.00     0.004 A 
ATOM     17  C   UNL A   1      37.202  23.080  24.001  1.00  0.00     0.000 A 
BRANCH   8  18
ATOM     18  C   UNL A   1      31.163  25.378  24.880  1.00  0.00     0.210 C 
ATOM     19  C   UNL A   1      30.197  25.199  23.694  1.00  0.00     0.078 C 
BRANCH  18  20
ATOM     20  C   UNL A   1      30.560  24.653  26.144  1.00  0.00     0.169 C 
ATOM     21  C   UNL A   1      30.510  23.136  25.989  1.00  0.00     0.045 C 
BRANCH  20  22
ATOM     22  O   UNL A   1      29.254  25.094  26.502  1.00  0.00    -0.387 OA
ATOM     23  H   UNL A   1      28.979  24.658  27.323  1.00  0.00     0.211 HD
ENDBRANCH  20  22
ENDBRANCH  18  20
ENDBRANCH   8  18
ENDBRANCH   4   7
ENDBRANCH   2   3
ENDBRANCH   1   2
BRANCH   1  24
ATOM     24  C   UNL A   1      32.045  29.199  24.705  1.00  0.00     0.023 C 
BRANCH  24  25
ATOM     25  C   UNL A   1      32.808  29.696  25.923  1.00  0.00     0.116 C 
BRANCH  25  26
ATOM     26  N   UNL A   1      32.478  31.056  26.324  1.00  0.00    -0.352 N 
ATOM     27  C   UNL A   1      33.182  31.875  27.177  1.00  0.00     0.251 C 
ATOM     28  H   UNL A   1      31.654  31.435  25.939  1.00  0.00     0.163 HD
ATOM     29  O   UNL A   1      32.742  32.975  27.498  1.00  0.00    -0.269 OA
BRANCH  27  30
ATOM     30  C   UNL A   1      34.460  31.387  27.739  1.00  0.00     0.039 A 
ATOM     31  C   UNL A   1      35.491  32.299  27.975  1.00  0.00     0.014 A 
ATOM     32  C   UNL A   1      34.613  30.042  28.084  1.00  0.00     0.014 A 
ATOM     33  C   UNL A   1      36.655  31.871  28.618  1.00  0.00     0.010 A 
ATOM     34  C   UNL A   1      35.731  29.638  28.802  1.00  0.00     0.010 A 
ATOM     35  C   UNL A   1      36.771  30.543  29.064  1.00  0.00    -0.014 A 
BRANCH  35  36
ATOM     36  C   UNL A   1      37.979  30.067  29.780  1.00  0.00     0.031 A 
ATOM     37  C   UNL A   1      38.258  30.553  31.179  1.00  0.00     0.074 A 
ATOM     38  C   UNL A   1      38.870  29.279  29.146  1.00  0.00     0.049 A 
ATOM     39  N   UNL A   1      39.286  30.308  31.948  1.00  0.00    -0.248 NA
ATOM     40  C   UNL A   1      37.269  31.467  31.777  1.00  0.00     0.031 C 
ATOM     41  C   UNL A   1      38.762  28.820  27.760  1.00  0.00     0.029 A 
ATOM     42  N   UNL A   1      40.057  28.743  29.580  1.00  0.00    -0.354 N 
ATOM     43  C   UNL A   1      39.091  31.069  33.094  1.00  0.00     0.074 A 
ATOM     44  C   UNL A   1      37.869  31.818  32.903  1.00  0.00     0.031 C 
ATOM     45  C   UNL A   1      39.831  28.063  27.462  1.00  0.00     0.029 A 
ATOM     46  C   UNL A   1      40.708  27.995  28.627  1.00  0.00     0.049 A 
ATOM     47  H   UNL A   1      40.410  28.881  30.489  1.00  0.00     0.167 HD
ATOM     48  C   UNL A   1      39.837  31.111  34.223  1.00  0.00     0.034 A 
ATOM     49  C   UNL A   1      41.873  27.322  28.692  1.00  0.00     0.034 A 
ATOM     50  C   UNL A   1      41.008  30.307  34.438  1.00  0.00     0.049 A 
ATOM     51  C   UNL A   1      42.633  27.307  29.991  1.00  0.00     0.074 A 
ATOM     52  C   UNL A   1      41.783  30.201  35.578  1.00  0.00     0.029 A 
ATOM     53  N   UNL A   1      41.565  29.460  33.493  1.00  0.00    -0.354 N 
ATOM     54  N   UNL A   1      42.345  27.904  31.123  1.00  0.00    -0.248 NA
ATOM     55  C   UNL A   1      43.854  26.489  30.040  1.00  0.00     0.031 C 
ATOM     56  C   UNL A   1      42.811  29.287  35.322  1.00  0.00     0.029 A 
ATOM     57  C   UNL A   1      42.668  28.818  34.025  1.00  0.00     0.049 A 
ATOM     58  H   UNL A   1      41.225  29.333  32.577  1.00  0.00     0.167 HD
ATOM     59  C   UNL A   1      43.321  27.502  32.027  1.00  0.00     0.074 A 
ATOM     60  C   UNL A   1      44.199  26.596  31.316  1.00  0.00     0.031 C 
ATOM     61  C   UNL A   1      43.487  27.863  33.324  1.00  0.00     0.034 A 
BRANCH  48  62
ATOM     62  C   UNL A   1      39.356  31.999  35.341  1.00  0.00     0.023 A 
ATOM     63  C   UNL A   1      38.420  31.495  36.268  1.00  0.00     0.012 A 
ATOM     64  C   UNL A   1      39.850  33.308  35.500  1.00  0.00     0.148 A 
ATOM     65  C   UNL A   1      37.952  32.292  37.311  1.00  0.00     0.002 A 
ATOM     66  C   UNL A   1      39.411  34.081  36.569  1.00  0.00     0.091 A 
ATOM     67  F   UNL A   1      40.720  33.780  34.597  1.00  0.00    -0.205 F 
ATOM     68  C   UNL A   1      38.454  33.580  37.468  1.00  0.00     0.022 A 
BRANCH  66  69
ATOM     69  S   UNL A   1      40.055  35.725  36.900  1.00  0.00     0.127 S 
ATOM     70  O   UNL A   1      39.356  36.075  38.135  1.00  0.00    -0.237 OA
ATOM     71  O   UNL A   1      41.488  35.471  37.063  1.00  0.00    -0.237 OA
ATOM     72  O   UNL A   1      39.714  36.528  35.734  1.00  0.00    -0.744 OA
ENDBRANCH  66  69
ENDBRANCH  48  62
BRANCH  49  73
ATOM     73  C   UNL A   1      42.333  26.515  27.526  1.00  0.00     0.023 A 
ATOM     74  C   UNL A   1      43.149  27.124  26.553  1.00  0.00     0.012 A 
ATOM     75  C   UNL A   1      41.999  25.155  27.387  1.00  0.00     0.148 A 
ATOM     76  C   UNL A   1      43.599  26.403  25.446  1.00  0.00     0.002 A 
ATOM     77  C   UNL A   1      42.492  24.427  26.308  1.00  0.00     0.091 A 
ATOM     78  F   UNL A   1      41.212  24.594  28.316  1.00  0.00    -0.205 F 
ATOM     79  C   UNL A   1      43.278  25.054  25.328  1.00  0.00     0.022 A 
BRANCH  77  80
ATOM     80  S   UNL A   1      42.232  22.657  26.142  1.00  0.00     0.127 S 
ATOM     81  O   UNL A   1      40.776  22.571  26.096  1.00  0.00    -0.237 OA
ATOM     82  O   UNL A   1      42.907  22.366  24.877  1.00  0.00    -0.237 OA
ATOM     83  O   UNL A   1      42.869  22.061  27.309  1.00  0.00    -0.744 OA
ENDBRANCH  77  80
ENDBRANCH  49  73
BRANCH  61  84
ATOM     84  C   UNL A   1      44.633  27.247  34.079  1.00  0.00     0.023 A 
ATOM     85  C   UNL A   1      45.895  27.871  34.062  1.00  0.00     0.012 A 
ATOM     86  C   UNL A   1      44.436  26.100  34.873  1.00  0.00     0.148 A 
ATOM     87  C   UNL A   1      46.954  27.346  34.803  1.00  0.00     0.002 A 
ATOM     88  C   UNL A   1      45.484  25.607  35.642  1.00  0.00     0.091 A 
ATOM     89  F   UNL A   1      43.233  25.507  34.857  1.00  0.00    -0.205 F 
ATOM     90  C   UNL A   1      46.745  26.224  35.602  1.00  0.00     0.022 A 
BRANCH  88  91
ATOM     91  S   UNL A   1      45.270  24.225  36.770  1.00  0.00     0.127 S 
ATOM     92  O   UNL A   1      44.207  24.715  37.645  1.00  0.00    -0.237 OA
ATOM     93  O   UNL A   1      44.868  23.144  35.870  1.00  0.00    -0.237 OA
ATOM     94  O   UNL A   1      46.567  24.027  37.402  1.00  0.00    -0.744 OA
ENDBRANCH  88  91
ENDBRANCH  61  84
ENDBRANCH  35  36
ENDBRANCH  27  30
ENDBRANCH  25  26
ENDBRANCH  24  25
ENDBRANCH   1  24
TORSDOF 17
ENDMDL
MODEL 2
REMARK VINA RESULT:     -12.2      1.205      2.539
REMARK SMILES C[C@H](O)[C@H](C)[N@H+]1Cc2ccccc2C[C@@H]1C(=O)NCCCCNC(=O)c1ccc(-c2c3nc(c(-c4cccc(S(=O)(=O)[O-])c4F)c4ccc([nH]4)c(-c4cccc(S(=O)(=O)[O-])c4F)c4nc(c(-c5cccc(S(=O)(=O)[O-])c5F)c5ccc2[nH]5)C=C4)C=C3)cc1
REMARK SMILES IDX 20 1 19 2 18 3 16 4 17 5 15 7 6 8 7 9 8 11 14 12 9 13 13 14
REMARK SMILES IDX 10 15 12 16 11 17 4 18 5 19 2 20 1 21 3 22 21 24 22 25 23 26
REMARK SMILES IDX 24 27 25 29 26 30 27 31 88 32 28 33 87 34 29 35 30 36 31 37
REMARK SMILES IDX 81 38 32 39 86 40 80 41 82 42 33 43 85 44 79 45 78 46 34 48
REMARK SMILES IDX 66 49 46 50 65 51 47 52 50 53 64 54 83 55 48 56 49 57 63 59
REMARK SMILES IDX 84 60 51 61 35 62 36 63 44 64 37 65 39 66 45 67 38 68 40 69
REMARK SMILES IDX 41 70 42 71 43 72 67 73 68 74 76 75 69 76 71 77 77 78 70 79
REMARK SMILES IDX 72 80 73 81 74 82 75 83 52 84 53 85 61 86 54 87 56 88 62 89
REMARK SMILES IDX 55 90 57 91 58 92 59 93 60 94
REMARK H PARENT 18 6 6 10 3 23 23 28 82 47 50 58
REMARK Flexibility Score: inf
ROOT
ATOM      1  C   UNL A   1      31.970  27.824  27.138  1.00  0.00     0.023 C 
ENDROOT
BRANCH   1   2
ATOM      2  C   UNL A   1      32.280  26.500  26.453  1.00  0.00     0.116 C 
BRANCH   2   3
ATOM      3  N   UNL A   1      31.484  25.404  26.964  1.00  0.00    -0.351 N 
ATOM      4  C   UNL A   1      31.486  24.072  26.702  1.00  0.00     0.278 C 
ATOM      5  O   UNL A   1      30.671  23.397  27.352  1.00  0.00    -0.268 OA
ATOM      6  H   UNL A   1      30.811  25.677  27.630  1.00  0.00     0.163 HD
BRANCH   4   7
ATOM      7  C   UNL A   1      32.383  23.342  25.665  1.00  0.00     0.279 C 
ATOM      8  N   UNL A   1      33.812  23.767  25.670  1.00  0.00    -0.316 N 
ATOM      9  C   UNL A   1      34.292  24.288  24.378  1.00  0.00     0.300 C 
ATOM     10  H   UNL A   1      33.866  24.596  26.262  1.00  0.00     0.349 HD
ATOM     11  C   UNL A   1      33.272  25.128  23.637  1.00  0.00     0.010 A 
ATOM     12  C   UNL A   1      31.661  23.374  24.296  1.00  0.00     0.111 C 
ATOM     13  C   UNL A   1      33.601  26.331  23.004  1.00  0.00     0.010 A 
ATOM     14  C   UNL A   1      31.952  24.659  23.579  1.00  0.00    -0.033 A 
ATOM     15  C   UNL A   1      32.612  27.069  22.349  1.00  0.00     0.001 A 
ATOM     16  C   UNL A   1      30.970  25.385  22.900  1.00  0.00     0.004 A 
ATOM     17  C   UNL A   1      31.301  26.596  22.295  1.00  0.00     0.000 A 
BRANCH   8  18
ATOM     18  C   UNL A   1      34.697  22.784  26.352  1.00  0.00     0.210 C 
ATOM     19  C   UNL A   1      33.958  21.485  26.723  1.00  0.00     0.078 C 
BRANCH  18  20
ATOM     20  C   UNL A   1      36.066  22.415  25.664  1.00  0.00     0.169 C 
ATOM     21  C   UNL A   1      36.114  20.969  25.178  1.00  0.00     0.045 C 
BRANCH  20  22
ATOM     22  O   UNL A   1      37.210  22.632  26.486  1.00  0.00    -0.387 OA
ATOM     23  H   UNL A   1      37.413  21.822  26.978  1.00  0.00     0.211 HD
ENDBRANCH  20  22
ENDBRANCH  18  20
ENDBRANCH   8  18
ENDBRANCH   4   7
ENDBRANCH   2   3
ENDBRANCH   1   2
BRANCH   1  24
ATOM     24  C   UNL A   1      31.653  28.989  26.206  1.00  0.00     0.023 C 
BRANCH  24  25
ATOM     25  C   UNL A   1      32.785  29.980  25.988  1.00  0.00     0.116 C 
BRANCH  25  26
ATOM     26  N   UNL A   1      32.483  31.339  26.414  1.00  0.00    -0.352 N 
ATOM     27  C   UNL A   1      33.204  32.130  27.280  1.00  0.00     0.251 C 
ATOM     28  H   UNL A   1      31.666  31.741  26.037  1.00  0.00     0.163 HD
ATOM     29  O   UNL A   1      32.787  33.232  27.620  1.00  0.00    -0.269 OA
BRANCH  27  30
ATOM     30  C   UNL A   1      34.473  31.606  27.831  1.00  0.00     0.039 A 
ATOM     31  C   UNL A   1      35.556  32.474  27.985  1.00  0.00     0.014 A 
ATOM     32  C   UNL A   1      34.567  30.276  28.247  1.00  0.00     0.014 A 
ATOM     33  C   UNL A   1      36.717  32.021  28.617  1.00  0.00     0.010 A 
ATOM     34  C   UNL A   1      35.686  29.854  28.954  1.00  0.00     0.010 A 
ATOM     35  C   UNL A   1      36.779  30.716  29.134  1.00  0.00    -0.014 A 
BRANCH  35  36
ATOM     36  C   UNL A   1      37.983  30.217  29.841  1.00  0.00     0.031 A 
ATOM     37  C   UNL A   1      38.276  30.688  31.241  1.00  0.00     0.074 A 
ATOM     38  C   UNL A   1      38.860  29.421  29.196  1.00  0.00     0.049 A 
ATOM     39  N   UNL A   1      39.304  30.422  32.003  1.00  0.00    -0.248 NA
ATOM     40  C   UNL A   1      37.303  31.611  31.851  1.00  0.00     0.031 C 
ATOM     41  C   UNL A   1      38.738  28.975  27.806  1.00  0.00     0.029 A 
ATOM     42  N   UNL A   1      40.041  28.865  29.620  1.00  0.00    -0.354 N 
ATOM     43  C   UNL A   1      39.126  31.177  33.157  1.00  0.00     0.074 A 
ATOM     44  C   UNL A   1      37.914  31.945  32.977  1.00  0.00     0.031 C 
ATOM     45  C   UNL A   1      39.794  28.204  27.498  1.00  0.00     0.029 A 
ATOM     46  C   UNL A   1      40.676  28.115  28.658  1.00  0.00     0.049 A 
ATOM     47  H   UNL A   1      40.400  28.990  30.528  1.00  0.00     0.167 HD
ATOM     48  C   UNL A   1      39.878  31.200  34.282  1.00  0.00     0.034 A 
ATOM     49  C   UNL A   1      41.832  27.425  28.712  1.00  0.00     0.034 A 
ATOM     50  C   UNL A   1      41.037  30.377  34.485  1.00  0.00     0.049 A 
ATOM     51  C   UNL A   1      42.598  27.389  30.007  1.00  0.00     0.074 A 
ATOM     52  C   UNL A   1      41.817  30.251  35.620  1.00  0.00     0.029 A 
ATOM     53  N   UNL A   1      41.578  29.529  33.530  1.00  0.00    -0.354 N 
ATOM     54  N   UNL A   1      42.324  27.981  31.145  1.00  0.00    -0.248 NA
ATOM     55  C   UNL A   1      43.807  26.553  30.043  1.00  0.00     0.031 C 
ATOM     56  C   UNL A   1      42.830  29.324  35.352  1.00  0.00     0.029 A 
ATOM     57  C   UNL A   1      42.675  28.868  34.053  1.00  0.00     0.049 A 
ATOM     58  H   UNL A   1      41.232  29.415  32.616  1.00  0.00     0.167 HD
ATOM     59  C   UNL A   1      43.298  27.558  32.041  1.00  0.00     0.074 A 
ATOM     60  C   UNL A   1      44.160  26.645  31.319  1.00  0.00     0.031 C 
ATOM     61  C   UNL A   1      43.476  27.906  33.340  1.00  0.00     0.034 A 
BRANCH  48  62
ATOM     62  C   UNL A   1      39.415  32.085  35.409  1.00  0.00     0.023 A 
ATOM     63  C   UNL A   1      38.506  31.575  36.359  1.00  0.00     0.012 A 
ATOM     64  C   UNL A   1      39.900  33.399  35.554  1.00  0.00     0.148 A 
ATOM     65  C   UNL A   1      38.055  32.370  37.411  1.00  0.00     0.002 A 
ATOM     66  C   UNL A   1      39.480  34.171  36.631  1.00  0.00     0.091 A 
ATOM     67  F   UNL A   1      40.745  33.878  34.629  1.00  0.00    -0.205 F 
ATOM     68  C   UNL A   1      38.549  33.664  37.553  1.00  0.00     0.022 A 
BRANCH  66  69
ATOM     69  S   UNL A   1      40.116  35.822  36.943  1.00  0.00     0.127 S 
ATOM     70  O   UNL A   1      39.661  36.545  35.758  1.00  0.00    -0.237 OA
ATOM     71  O   UNL A   1      39.429  36.191  38.183  1.00  0.00    -0.237 OA
ATOM     72  O   UNL A   1      41.559  35.674  37.075  1.00  0.00    -0.744 OA
ENDBRANCH  66  69
ENDBRANCH  48  62
BRANCH  49  73
ATOM     73  C   UNL A   1      42.275  26.620  27.538  1.00  0.00     0.023 A 
ATOM     74  C   UNL A   1      43.033  27.244  26.528  1.00  0.00     0.012 A 
ATOM     75  C   UNL A   1      41.982  25.248  27.426  1.00  0.00     0.148 A 
ATOM     76  C   UNL A   1      43.465  26.526  25.412  1.00  0.00     0.002 A 
ATOM     77  C   UNL A   1      42.457  24.525  26.335  1.00  0.00     0.091 A 
ATOM     78  F   UNL A   1      41.249  24.672  28.389  1.00  0.00    -0.205 F 
ATOM     79  C   UNL A   1      43.185  25.166  25.320  1.00  0.00     0.022 A 
BRANCH  77  80
ATOM     80  S   UNL A   1      42.251  22.745  26.198  1.00  0.00     0.127 S 
ATOM     81  O   UNL A   1      42.964  22.270  27.379  1.00  0.00    -0.237 OA
ATOM     82  O   UNL A   1      40.797  22.601  26.256  1.00  0.00    -0.237 OA
ATOM     83  O   UNL A   1      42.836  22.385  24.913  1.00  0.00    -0.744 OA
ENDBRANCH  77  80
ENDBRANCH  49  73
BRANCH  61  84
ATOM     84  C   UNL A   1      44.617  27.268  34.085  1.00  0.00     0.023 A 
ATOM     85  C   UNL A   1      45.891  27.867  34.055  1.00  0.00     0.012 A 
ATOM     86  C   UNL A   1      44.404  26.126  34.881  1.00  0.00     0.148 A 
ATOM     87  C   UNL A   1      46.945  27.321  34.786  1.00  0.00     0.002 A 
ATOM     88  C   UNL A   1      45.449  25.613  35.642  1.00  0.00     0.091 A 
ATOM     89  F   UNL A   1      43.189  25.557  34.878  1.00  0.00    -0.205 F 
ATOM     90  C   UNL A   1      46.722  26.204  35.588  1.00  0.00     0.022 A 
BRANCH  88  91
ATOM     91  S   UNL A   1      45.218  24.237  36.772  1.00  0.00     0.127 S 
ATOM     92  O   UNL A   1      44.686  23.206  35.884  1.00  0.00    -0.237 OA
ATOM     93  O   UNL A   1      46.579  23.988  37.249  1.00  0.00    -0.237 OA
ATOM     94  O   UNL A   1      44.303  24.719  37.799  1.00  0.00    -0.744 OA
ENDBRANCH  88  91
ENDBRANCH  61  84
ENDBRANCH  35  36
ENDBRANCH  27  30
ENDBRANCH  25  26
ENDBRANCH  24  25
ENDBRANCH   1  24
TORSDOF 17
ENDMDL
MODEL 3
REMARK VINA RESULT:     -12.1      1.646      2.289
REMARK SMILES C[C@H](O)[C@H](C)[N@H+]1Cc2ccccc2C[C@@H]1C(=O)NCCCCNC(=O)c1ccc(-c2c3nc(c(-c4cccc(S(=O)(=O)[O-])c4F)c4ccc([nH]4)c(-c4cccc(S(=O)(=O)[O-])c4F)c4nc(c(-c5cccc(S(=O)(=O)[O-])c5F)c5ccc2[nH]5)C=C4)C=C3)cc1
REMARK SMILES IDX 20 1 19 2 18 3 16 4 17 5 15 7 6 8 7 9 8 11 14 12 9 13 13 14
REMARK SMILES IDX 10 15 12 16 11 17 4 18 5 19 2 20 1 21 3 22 21 24 22 25 23 26
REMARK SMILES IDX 24 27 25 29 26 30 27 31 88 32 28 33 87 34 29 35 30 36 31 37
REMARK SMILES IDX 81 38 32 39 86 40 80 41 82 42 33 43 85 44 79 45 78 46 34 48
REMARK SMILES IDX 66 49 46 50 65 51 47 52 50 53 64 54 83 55 48 56 49 57 63 59
REMARK SMILES IDX 84 60 51 61 35 62 36 63 44 64 37 65 39 66 45 67 38 68 40 69
REMARK SMILES IDX 41 70 42 71 43 72 67 73 68 74 76 75 69 76 71 77 77 78 70 79
REMARK SMILES IDX 72 80 73 81 74 82 75 83 52 84 53 85 61 86 54 87 56 88 62 89
REMARK SMILES IDX 55 90 57 91 58 92 59 93 60 94
REMARK H PARENT 18 6 6 10 3 23 23 28 82 47 50 58
REMARK Flexibility Score: inf
ROOT
ATOM      1  C   UNL A   1      31.714  28.218  25.674  1.00  0.00     0.023 C 
ENDROOT
BRANCH   1   2
ATOM      2  C   UNL A   1      33.062  27.632  25.275  1.00  0.00     0.116 C 
BRANCH   2   3
ATOM      3  N   UNL A   1      33.334  26.363  25.918  1.00  0.00    -0.351 N 
ATOM      4  C   UNL A   1      33.439  25.098  25.436  1.00  0.00     0.278 C 
ATOM      5  O   UNL A   1      33.714  24.226  26.276  1.00  0.00    -0.268 OA
ATOM      6  H   UNL A   1      33.468  26.430  26.891  1.00  0.00     0.163 HD
BRANCH   4   7
ATOM      7  C   UNL A   1      33.224  24.656  23.962  1.00  0.00     0.279 C 
ATOM      8  N   UNL A   1      31.882  24.072  23.677  1.00  0.00    -0.316 N 
ATOM      9  C   UNL A   1      31.922  22.700  23.140  1.00  0.00     0.300 C 
ATOM     10  H   UNL A   1      31.430  23.928  24.580  1.00  0.00     0.349 HD
ATOM     11  C   UNL A   1      32.993  21.827  23.762  1.00  0.00     0.010 A 
ATOM     12  C   UNL A   1      34.447  23.811  23.530  1.00  0.00     0.111 C 
ATOM     13  C   UNL A   1      32.759  20.502  24.144  1.00  0.00     0.010 A 
ATOM     14  C   UNL A   1      34.269  22.380  23.940  1.00  0.00    -0.033 A 
ATOM     15  C   UNL A   1      33.784  19.751  24.727  1.00  0.00     0.001 A 
ATOM     16  C   UNL A   1      35.299  21.619  24.498  1.00  0.00     0.004 A 
ATOM     17  C   UNL A   1      35.051  20.308  24.901  1.00  0.00     0.000 A 
BRANCH   8  18
ATOM     18  C   UNL A   1      30.982  25.026  22.976  1.00  0.00     0.210 C 
ATOM     19  C   UNL A   1      29.904  25.611  23.907  1.00  0.00     0.078 C 
BRANCH  18  20
ATOM     20  C   UNL A   1      31.638  26.200  22.154  1.00  0.00     0.169 C 
ATOM     21  C   UNL A   1      30.836  27.496  22.226  1.00  0.00     0.045 C 
BRANCH  20  22
ATOM     22  O   UNL A   1      31.851  25.900  20.777  1.00  0.00    -0.387 OA
ATOM     23  H   UNL A   1      32.724  26.225  20.507  1.00  0.00     0.211 HD
ENDBRANCH  20  22
ENDBRANCH  18  20
ENDBRANCH   8  18
ENDBRANCH   4   7
ENDBRANCH   2   3
ENDBRANCH   1   2
BRANCH   1  24
ATOM     24  C   UNL A   1      31.690  29.730  25.880  1.00  0.00     0.023 C 
BRANCH  24  25
ATOM     25  C   UNL A   1      32.810  30.291  26.741  1.00  0.00     0.116 C 
BRANCH  25  26
ATOM     26  N   UNL A   1      32.728  31.727  26.970  1.00  0.00    -0.352 N 
ATOM     27  C   UNL A   1      33.637  32.527  27.626  1.00  0.00     0.251 C 
ATOM     28  H   UNL A   1      31.928  32.179  26.614  1.00  0.00     0.163 HD
ATOM     29  O   UNL A   1      33.401  33.714  27.823  1.00  0.00    -0.269 OA
BRANCH  27  30
ATOM     30  C   UNL A   1      34.887  31.918  28.129  1.00  0.00     0.039 A 
ATOM     31  C   UNL A   1      36.041  32.701  28.209  1.00  0.00     0.014 A 
ATOM     32  C   UNL A   1      34.899  30.594  28.575  1.00  0.00     0.014 A 
ATOM     33  C   UNL A   1      37.192  32.172  28.797  1.00  0.00     0.010 A 
ATOM     34  C   UNL A   1      36.015  30.100  29.238  1.00  0.00     0.010 A 
ATOM     35  C   UNL A   1      37.178  30.878  29.344  1.00  0.00    -0.014 A 
BRANCH  35  36
ATOM     36  C   UNL A   1      38.374  30.302  30.005  1.00  0.00     0.031 A 
ATOM     37  C   UNL A   1      38.735  30.733  31.403  1.00  0.00     0.074 A 
ATOM     38  C   UNL A   1      39.185  29.469  29.322  1.00  0.00     0.049 A 
ATOM     39  N   UNL A   1      39.769  30.398  32.129  1.00  0.00    -0.248 NA
ATOM     40  C   UNL A   1      37.834  31.698  32.056  1.00  0.00     0.031 C 
ATOM     41  C   UNL A   1      38.997  29.053  27.930  1.00  0.00     0.029 A 
ATOM     42  N   UNL A   1      40.346  28.842  29.701  1.00  0.00    -0.354 N 
ATOM     43  C   UNL A   1      39.668  31.142  33.298  1.00  0.00     0.074 A 
ATOM     44  C   UNL A   1      38.496  31.979  33.168  1.00  0.00     0.031 C 
ATOM     45  C   UNL A   1      39.999  28.231  27.578  1.00  0.00     0.029 A 
ATOM     46  C   UNL A   1      40.909  28.074  28.708  1.00  0.00     0.049 A 
ATOM     47  H   UNL A   1      40.739  28.932  30.599  1.00  0.00     0.167 HD
ATOM     48  C   UNL A   1      40.454  31.105  34.400  1.00  0.00     0.034 A 
ATOM     49  C   UNL A   1      42.026  27.321  28.716  1.00  0.00     0.034 A 
ATOM     50  C   UNL A   1      41.572  30.216  34.554  1.00  0.00     0.049 A 
ATOM     51  C   UNL A   1      42.827  27.221  29.986  1.00  0.00     0.074 A 
ATOM     52  C   UNL A   1      42.377  30.029  35.663  1.00  0.00     0.029 A 
ATOM     53  N   UNL A   1      42.036  29.356  33.571  1.00  0.00    -0.354 N 
ATOM     54  N   UNL A   1      42.621  27.809  31.141  1.00  0.00    -0.248 NA
ATOM     55  C   UNL A   1      43.989  26.319  29.972  1.00  0.00     0.031 C 
ATOM     56  C   UNL A   1      43.328  29.051  35.349  1.00  0.00     0.029 A 
ATOM     57  C   UNL A   1      43.108  28.626  34.049  1.00  0.00     0.049 A 
ATOM     58  H   UNL A   1      41.656  29.276  32.666  1.00  0.00     0.167 HD
ATOM     59  C   UNL A   1      43.597  27.318  32.000  1.00  0.00     0.074 A 
ATOM     60  C   UNL A   1      44.384  26.370  31.237  1.00  0.00     0.031 C 
ATOM     61  C   UNL A   1      43.833  27.634  33.297  1.00  0.00     0.034 A 
BRANCH  48  62
ATOM     62  C   UNL A   1      40.076  31.996  35.554  1.00  0.00     0.023 A 
ATOM     63  C   UNL A   1      40.736  33.231  35.718  1.00  0.00     0.012 A 
ATOM     64  C   UNL A   1      39.052  31.636  36.451  1.00  0.00     0.148 A 
ATOM     65  C   UNL A   1      40.412  34.076  36.777  1.00  0.00     0.002 A 
ATOM     66  C   UNL A   1      38.704  32.504  37.480  1.00  0.00     0.091 A 
ATOM     67  F   UNL A   1      38.451  30.447  36.297  1.00  0.00    -0.205 F 
ATOM     68  C   UNL A   1      39.391  33.717  37.653  1.00  0.00     0.022 A 
BRANCH  66  69
ATOM     69  S   UNL A   1      37.352  32.167  38.613  1.00  0.00     0.127 S 
ATOM     70  O   UNL A   1      37.920  32.596  39.890  1.00  0.00    -0.237 OA
ATOM     71  O   UNL A   1      36.291  33.034  38.097  1.00  0.00    -0.237 OA
ATOM     72  O   UNL A   1      37.077  30.742  38.493  1.00  0.00    -0.744 OA
ENDBRANCH  66  69
ENDBRANCH  48  62
BRANCH  49  73
ATOM     73  C   UNL A   1      42.387  26.512  27.517  1.00  0.00     0.023 A 
ATOM     74  C   UNL A   1      43.149  27.110  26.493  1.00  0.00     0.012 A 
ATOM     75  C   UNL A   1      42.015  25.160  27.393  1.00  0.00     0.148 A 
ATOM     76  C   UNL A   1      43.506  26.388  25.355  1.00  0.00     0.002 A 
ATOM     77  C   UNL A   1      42.416  24.431  26.278  1.00  0.00     0.091 A 
ATOM     78  F   UNL A   1      41.280  24.611  28.370  1.00  0.00    -0.205 F 
ATOM     79  C   UNL A   1      43.148  25.047  25.251  1.00  0.00     0.022 A 
BRANCH  77  80
ATOM     80  S   UNL A   1      42.106  22.668  26.120  1.00  0.00     0.127 S 
ATOM     81  O   UNL A   1      42.778  22.357  24.862  1.00  0.00    -0.237 OA
ATOM     82  O   UNL A   1      42.760  22.134  27.315  1.00  0.00    -0.237 OA
ATOM     83  O   UNL A   1      40.656  22.527  26.119  1.00  0.00    -0.744 OA
ENDBRANCH  77  80
ENDBRANCH  49  73
BRANCH  61  84
ATOM     84  C   UNL A   1      44.959  26.922  33.997  1.00  0.00     0.023 A 
ATOM     85  C   UNL A   1      46.262  27.452  33.940  1.00  0.00     0.012 A 
ATOM     86  C   UNL A   1      44.708  25.777  34.779  1.00  0.00     0.148 A 
ATOM     87  C   UNL A   1      47.306  26.837  34.629  1.00  0.00     0.002 A 
ATOM     88  C   UNL A   1      45.745  25.195  35.499  1.00  0.00     0.091 A 
ATOM     89  F   UNL A   1      43.464  25.274  34.802  1.00  0.00    -0.205 F 
ATOM     90  C   UNL A   1      47.046  25.718  35.418  1.00  0.00     0.022 A 
BRANCH  88  91
ATOM     91  S   UNL A   1      45.472  23.811  36.612  1.00  0.00     0.127 S 
ATOM     92  O   UNL A   1      44.635  24.418  37.644  1.00  0.00    -0.237 OA
ATOM     93  O   UNL A   1      44.780  22.848  35.754  1.00  0.00    -0.237 OA
ATOM     94  O   UNL A   1      46.797  23.385  37.043  1.00  0.00    -0.744 OA
ENDBRANCH  88  91
ENDBRANCH  61  84
ENDBRANCH  35  36
ENDBRANCH  27  30
ENDBRANCH  25  26
ENDBRANCH  24  25
ENDBRANCH   1  24
TORSDOF 17
ENDMDL
