MODEL 1
REMARK VINA RESULT:     -12.7      0.000      0.000
REMARK SMILES CC(=O)C1=C(NCCCCNC(=O)c2ccc(-c3c4nc(c(-c5cccc(S(=O)(=O)[O-])c5F)c5ccc([nH]5)c(-c5cccc(S(=O)(=O)[O-])c5F)c5nc(c(-c6cccc(S(=O)(=O)[O-])c6F)c6ccc3[nH]6)C=C5)C=C4)cc2)C(=O)N(c2cccc(C(=O)[O-])c2)[C@@H]1c1ccc([N+](=O)[O-])cc1
REMARK SMILES IDX 9 1 8 2 7 3 6 4 5 6 4 7 89 8 77 9 79 10 78 11 2 12 1 13 3 14
REMARK SMILES IDX 90 15 91 16 98 17 92 18 97 19 93 20 94 21 95 22 96 23 80 24
REMARK SMILES IDX 81 25 88 26 82 27 84 28 83 29 85 30 86 31 87 32 10 33 11 34
REMARK SMILES IDX 12 35 13 37 14 38 15 39 76 40 16 41 75 42 17 43 18 44 19 45
REMARK SMILES IDX 69 46 20 47 74 48 68 49 70 50 21 51 73 52 67 53 66 54 22 56
REMARK SMILES IDX 54 57 34 58 53 59 35 60 38 61 52 62 71 63 36 64 37 65 51 67
REMARK SMILES IDX 72 68 39 69 23 70 24 71 32 72 25 73 27 74 33 75 26 76 28 77
REMARK SMILES IDX 29 78 30 79 31 80 55 81 56 82 64 83 57 84 59 85 65 86 58 87
REMARK SMILES IDX 60 88 61 89 62 90 63 91 40 92 41 93 49 94 42 95 44 96 50 97
REMARK SMILES IDX 43 98 45 99 46 100 47 101 48 102
REMARK H PARENT 6 5 11 36 70 55 38 66
REMARK Flexibility Score: inf
ROOT
ATOM      1  C   UNL A   1      35.829  22.569  23.848  1.00  0.00     0.023 C 
ENDROOT
BRANCH   1   2
ATOM      2  C   UNL A   1      34.444  23.195  23.695  1.00  0.00     0.023 C 
BRANCH   2   3
ATOM      3  C   UNL A   1      33.333  22.203  23.374  1.00  0.00     0.113 C 
BRANCH   3   4
ATOM      4  N   UNL A   1      32.066  22.697  23.863  1.00  0.00    -0.380 N 
ATOM      5  H   UNL A   1      31.333  22.039  23.884  1.00  0.00     0.160 HD
BRANCH   4   6
ATOM      6  C   UNL A   1      31.743  23.952  24.303  1.00  0.00     0.110 C 
ATOM      7  C   UNL A   1      31.740  24.587  25.479  1.00  0.00     0.051 C 
ATOM      8  C   UNL A   1      31.310  26.017  25.414  1.00  0.00     0.157 C 
ATOM      9  C   UNL A   1      31.235  24.971  23.321  1.00  0.00     0.275 C 
ATOM     10  N   UNL A   1      31.132  26.184  23.983  1.00  0.00    -0.295 N 
ATOM     11  O   UNL A   1      31.011  24.717  22.148  1.00  0.00    -0.267 OA
BRANCH   7  12
ATOM     12  C   UNL A   1      32.107  23.974  26.766  1.00  0.00     0.160 C 
ATOM     13  C   UNL A   1      33.553  23.641  26.992  1.00  0.00     0.093 C 
ATOM     14  O   UNL A   1      31.243  23.688  27.592  1.00  0.00    -0.295 OA
ENDBRANCH   7  12
BRANCH   8  15
ATOM     15  C   UNL A   1      32.227  27.028  26.088  1.00  0.00    -0.020 A 
ATOM     16  C   UNL A   1      33.597  27.128  25.785  1.00  0.00     0.013 A 
ATOM     17  C   UNL A   1      31.679  27.936  27.017  1.00  0.00     0.013 A 
ATOM     18  C   UNL A   1      34.403  28.089  26.401  1.00  0.00     0.086 A 
ATOM     19  C   UNL A   1      32.464  28.936  27.595  1.00  0.00     0.086 A 
ATOM     20  C   UNL A   1      33.826  29.002  27.287  1.00  0.00     0.269 A 
BRANCH  20  21
ATOM     21  N   UNL A   1      34.654  30.050  27.885  1.00  0.00     0.062 N 
ATOM     22  O   UNL A   1      34.380  31.228  27.613  1.00  0.00    -0.258 OA
ATOM     23  O   UNL A   1      35.581  29.697  28.628  1.00  0.00    -0.258 OA
ENDBRANCH  20  21
ENDBRANCH   8  15
BRANCH  10  24
ATOM     24  C   UNL A   1      30.644  27.359  23.378  1.00  0.00     0.046 A 
ATOM     25  C   UNL A   1      31.483  28.184  22.622  1.00  0.00     0.026 A 
ATOM     26  C   UNL A   1      29.309  27.727  23.559  1.00  0.00     0.036 A 
ATOM     27  C   UNL A   1      30.966  29.321  21.991  1.00  0.00     0.003 A 
ATOM     28  C   UNL A   1      28.785  28.859  22.928  1.00  0.00    -0.001 A 
ATOM     29  C   UNL A   1      29.617  29.653  22.133  1.00  0.00     0.010 A 
BRANCH  28  30
ATOM     30  C   UNL A   1      27.358  29.231  23.077  1.00  0.00     0.072 C 
ATOM     31  O   UNL A   1      26.458  28.490  23.427  1.00  0.00    -0.545 OA
ATOM     32  O   UNL A   1      27.131  30.532  22.816  1.00  0.00    -0.545 OA
ENDBRANCH  28  30
ENDBRANCH  10  24
ENDBRANCH   4   6
ENDBRANCH   3   4
ENDBRANCH   2   3
ENDBRANCH   1   2
BRANCH   1  33
ATOM     33  C   UNL A   1      36.313  22.411  25.287  1.00  0.00     0.116 C 
BRANCH  33  34
ATOM     34  N   UNL A   1      37.266  21.321  25.448  1.00  0.00    -0.352 N 
ATOM     35  C   UNL A   1      38.570  21.357  25.878  1.00  0.00     0.251 C 
ATOM     36  H   UNL A   1      36.925  20.428  25.215  1.00  0.00     0.163 HD
ATOM     37  O   UNL A   1      39.264  20.347  25.803  1.00  0.00    -0.269 OA
BRANCH  35  38
ATOM     38  C   UNL A   1      39.141  22.615  26.404  1.00  0.00     0.039 A 
ATOM     39  C   UNL A   1      40.246  22.547  27.254  1.00  0.00     0.014 A 
ATOM     40  C   UNL A   1      38.601  23.855  26.050  1.00  0.00     0.014 A 
ATOM     41  C   UNL A   1      40.851  23.726  27.694  1.00  0.00     0.010 A 
ATOM     42  C   UNL A   1      39.257  25.027  26.421  1.00  0.00     0.010 A 
ATOM     43  C   UNL A   1      40.386  24.976  27.250  1.00  0.00    -0.014 A 
BRANCH  43  44
ATOM     44  C   UNL A   1      41.101  26.225  27.618  1.00  0.00     0.031 A 
ATOM     45  C   UNL A   1      42.526  26.454  27.191  1.00  0.00     0.074 A 
ATOM     46  C   UNL A   1      40.479  27.135  28.395  1.00  0.00     0.049 A 
ATOM     47  N   UNL A   1      43.292  27.492  27.405  1.00  0.00    -0.248 NA
ATOM     48  C   UNL A   1      43.187  25.367  26.448  1.00  0.00     0.031 C 
ATOM     49  C   UNL A   1      39.131  26.991  28.951  1.00  0.00     0.029 A 
ATOM     50  N   UNL A   1      40.901  28.354  28.866  1.00  0.00    -0.354 N 
ATOM     51  C   UNL A   1      44.528  27.176  26.854  1.00  0.00     0.074 A 
ATOM     52  C   UNL A   1      44.422  25.834  26.326  1.00  0.00     0.031 C 
ATOM     53  C   UNL A   1      38.828  28.087  29.664  1.00  0.00     0.029 A 
ATOM     54  C   UNL A   1      39.968  28.997  29.647  1.00  0.00     0.049 A 
ATOM     55  H   UNL A   1      41.786  28.732  28.662  1.00  0.00     0.167 HD
ATOM     56  C   UNL A   1      45.642  27.943  26.770  1.00  0.00     0.034 A 
ATOM     57  C   UNL A   1      40.024  30.185  30.279  1.00  0.00     0.034 A 
ATOM     58  C   UNL A   1      45.733  29.288  27.269  1.00  0.00     0.049 A 
ATOM     59  C   UNL A   1      41.262  31.030  30.137  1.00  0.00     0.074 A 
ATOM     60  C   UNL A   1      46.784  30.180  27.147  1.00  0.00     0.029 A 
ATOM     61  N   UNL A   1      44.747  29.932  28.000  1.00  0.00    -0.354 N 
ATOM     62  N   UNL A   1      42.355  30.784  29.458  1.00  0.00    -0.248 NA
ATOM     63  C   UNL A   1      41.256  32.332  30.817  1.00  0.00     0.031 C 
ATOM     64  C   UNL A   1      46.450  31.349  27.840  1.00  0.00     0.029 A 
ATOM     65  C   UNL A   1      45.172  31.202  28.355  1.00  0.00     0.049 A 
ATOM     66  H   UNL A   1      43.873  29.544  28.234  1.00  0.00     0.167 HD
ATOM     67  C   UNL A   1      43.154  31.913  29.603  1.00  0.00     0.074 A 
ATOM     68  C   UNL A   1      42.402  32.855  30.408  1.00  0.00     0.031 C 
ATOM     69  C   UNL A   1      44.402  32.145  29.124  1.00  0.00     0.034 A 
BRANCH  56  70
ATOM     70  C   UNL A   1      46.847  27.359  26.075  1.00  0.00     0.023 A 
ATOM     71  C   UNL A   1      46.996  27.515  24.682  1.00  0.00     0.012 A 
ATOM     72  C   UNL A   1      47.862  26.714  26.809  1.00  0.00     0.148 A 
ATOM     73  C   UNL A   1      48.117  27.011  24.024  1.00  0.00     0.002 A 
ATOM     74  C   UNL A   1      49.000  26.257  26.154  1.00  0.00     0.091 A 
ATOM     75  F   UNL A   1      47.695  26.557  28.130  1.00  0.00    -0.205 F 
ATOM     76  C   UNL A   1      49.123  26.393  24.762  1.00  0.00     0.022 A 
BRANCH  74  77
ATOM     77  S   UNL A   1      50.391  25.523  27.022  1.00  0.00     0.127 S 
ATOM     78  O   UNL A   1      49.785  24.316  27.582  1.00  0.00    -0.237 OA
ATOM     79  O   UNL A   1      51.338  25.283  25.935  1.00  0.00    -0.237 OA
ATOM     80  O   UNL A   1      50.823  26.512  28.000  1.00  0.00    -0.744 OA
ENDBRANCH  74  77
ENDBRANCH  56  70
BRANCH  57  81
ATOM     81  C   UNL A   1      38.848  30.678  31.053  1.00  0.00     0.023 A 
ATOM     82  C   UNL A   1      38.688  30.285  32.396  1.00  0.00     0.012 A 
ATOM     83  C   UNL A   1      37.898  31.538  30.472  1.00  0.00     0.148 A 
ATOM     84  C   UNL A   1      37.583  30.709  33.135  1.00  0.00     0.002 A 
ATOM     85  C   UNL A   1      36.831  32.004  31.230  1.00  0.00     0.091 A 
ATOM     86  F   UNL A   1      38.062  31.892  29.189  1.00  0.00    -0.205 F 
ATOM     87  C   UNL A   1      36.660  31.576  32.556  1.00  0.00     0.022 A 
BRANCH  85  88
ATOM     88  S   UNL A   1      35.668  33.225  30.610  1.00  0.00     0.127 S 
ATOM     89  O   UNL A   1      34.407  32.490  30.663  1.00  0.00    -0.237 OA
ATOM     90  O   UNL A   1      35.802  34.296  31.598  1.00  0.00    -0.237 OA
ATOM     91  O   UNL A   1      36.140  33.576  29.278  1.00  0.00    -0.744 OA
ENDBRANCH  85  88
ENDBRANCH  57  81
BRANCH  69  92
ATOM     92  C   UNL A   1      45.025  33.483  29.431  1.00  0.00     0.023 A 
ATOM     93  C   UNL A   1      45.733  33.671  30.635  1.00  0.00     0.012 A 
ATOM     94  C   UNL A   1      44.950  34.540  28.503  1.00  0.00     0.148 A 
ATOM     95  C   UNL A   1      46.314  34.905  30.932  1.00  0.00     0.002 A 
ATOM     96  C   UNL A   1      45.579  35.748  28.780  1.00  0.00     0.091 A 
ATOM     97  F   UNL A   1      44.259  34.350  27.370  1.00  0.00    -0.205 F 
ATOM     98  C   UNL A   1      46.246  35.938  30.000  1.00  0.00     0.022 A 
BRANCH  96  99
ATOM     99  S   UNL A   1      45.629  37.101  27.599  1.00  0.00     0.127 S 
ATOM    100  O   UNL A   1      46.242  36.459  26.438  1.00  0.00    -0.237 OA
ATOM    101  O   UNL A   1      44.211  37.424  27.439  1.00  0.00    -0.237 OA
ATOM    102  O   UNL A   1      46.421  38.150  28.224  1.00  0.00    -0.744 OA
ENDBRANCH  96  99
ENDBRANCH  69  92
ENDBRANCH  43  44
ENDBRANCH  35  38
ENDBRANCH  33  34
ENDBRANCH   1  33
TORSDOF 19
ENDMDL
MODEL 2
REMARK VINA RESULT:     -11.9      1.554      3.636
REMARK SMILES CC(=O)C1=C(NCCCCNC(=O)c2ccc(-c3c4nc(c(-c5cccc(S(=O)(=O)[O-])c5F)c5ccc([nH]5)c(-c5cccc(S(=O)(=O)[O-])c5F)c5nc(c(-c6cccc(S(=O)(=O)[O-])c6F)c6ccc3[nH]6)C=C5)C=C4)cc2)C(=O)N(c2cccc(C(=O)[O-])c2)[C@@H]1c1ccc([N+](=O)[O-])cc1
REMARK SMILES IDX 9 1 8 2 7 3 6 4 5 6 4 7 89 8 77 9 79 10 78 11 2 12 1 13 3 14
REMARK SMILES IDX 90 15 91 16 98 17 92 18 97 19 93 20 94 21 95 22 96 23 80 24
REMARK SMILES IDX 81 25 88 26 82 27 84 28 83 29 85 30 86 31 87 32 10 33 11 34
REMARK SMILES IDX 12 35 13 37 14 38 15 39 76 40 16 41 75 42 17 43 18 44 19 45
REMARK SMILES IDX 69 46 20 47 74 48 68 49 70 50 21 51 73 52 67 53 66 54 22 56
REMARK SMILES IDX 54 57 34 58 53 59 35 60 38 61 52 62 71 63 36 64 37 65 51 67
REMARK SMILES IDX 72 68 39 69 23 70 24 71 32 72 25 73 27 74 33 75 26 76 28 77
REMARK SMILES IDX 29 78 30 79 31 80 55 81 56 82 64 83 57 84 59 85 65 86 58 87
REMARK SMILES IDX 60 88 61 89 62 90 63 91 40 92 41 93 49 94 42 95 44 96 50 97
REMARK SMILES IDX 43 98 45 99 46 100 47 101 48 102
REMARK H PARENT 6 5 11 36 70 55 38 66
REMARK Flexibility Score: inf
ROOT
ATOM      1  C   UNL A   1      36.607  22.439  23.942  1.00  0.00     0.023 C 
ENDROOT
BRANCH   1   2
ATOM      2  C   UNL A   1      35.165  22.843  23.634  1.00  0.00     0.023 C 
BRANCH   2   3
ATOM      3  C   UNL A   1      34.129  22.270  24.594  1.00  0.00     0.113 C 
BRANCH   3   4
ATOM      4  N   UNL A   1      32.956  23.115  24.623  1.00  0.00    -0.380 N 
ATOM      5  H   UNL A   1      32.107  22.654  24.810  1.00  0.00     0.160 HD
BRANCH   4   6
ATOM      6  C   UNL A   1      32.863  24.466  24.427  1.00  0.00     0.110 C 
ATOM      7  C   UNL A   1      32.601  25.270  23.392  1.00  0.00     0.051 C 
ATOM      8  C   UNL A   1      32.592  26.728  23.724  1.00  0.00     0.157 C 
ATOM      9  C   UNL A   1      33.111  25.399  25.580  1.00  0.00     0.275 C 
ATOM     10  N   UNL A   1      32.807  26.684  25.158  1.00  0.00    -0.295 N 
ATOM     11  O   UNL A   1      33.477  25.020  26.681  1.00  0.00    -0.267 OA
BRANCH   7  12
ATOM     12  C   UNL A   1      32.347  24.815  22.016  1.00  0.00     0.160 C 
ATOM     13  C   UNL A   1      32.410  25.838  20.920  1.00  0.00     0.093 C 
ATOM     14  O   UNL A   1      32.030  23.648  21.792  1.00  0.00    -0.295 OA
ENDBRANCH   7  12
BRANCH   8  15
ATOM     15  C   UNL A   1      31.375  27.516  23.262  1.00  0.00    -0.020 A 
ATOM     16  C   UNL A   1      30.057  27.085  23.500  1.00  0.00     0.013 A 
ATOM     17  C   UNL A   1      31.567  28.754  22.614  1.00  0.00     0.013 A 
ATOM     18  C   UNL A   1      28.963  27.850  23.090  1.00  0.00     0.086 A 
ATOM     19  C   UNL A   1      30.480  29.552  22.250  1.00  0.00     0.086 A 
ATOM     20  C   UNL A   1      29.181  29.090  22.485  1.00  0.00     0.269 A 
BRANCH  20  21
ATOM     21  N   UNL A   1      28.038  29.923  22.111  1.00  0.00     0.062 N 
ATOM     22  O   UNL A   1      27.930  30.256  20.922  1.00  0.00    -0.258 OA
ATOM     23  O   UNL A   1      27.246  30.248  23.007  1.00  0.00    -0.258 OA
ENDBRANCH  20  21
ENDBRANCH   8  15
BRANCH  10  24
ATOM     24  C   UNL A   1      32.964  27.823  25.971  1.00  0.00     0.046 A 
ATOM     25  C   UNL A   1      31.870  28.626  26.309  1.00  0.00     0.026 A 
ATOM     26  C   UNL A   1      34.236  28.179  26.424  1.00  0.00     0.036 A 
ATOM     27  C   UNL A   1      32.042  29.727  27.156  1.00  0.00     0.003 A 
ATOM     28  C   UNL A   1      34.415  29.274  27.275  1.00  0.00    -0.001 A 
ATOM     29  C   UNL A   1      33.310  30.045  27.648  1.00  0.00     0.010 A 
BRANCH  28  30
ATOM     30  C   UNL A   1      35.755  29.632  27.797  1.00  0.00     0.072 C 
ATOM     31  O   UNL A   1      36.665  30.124  27.156  1.00  0.00    -0.545 OA
ATOM     32  O   UNL A   1      35.879  29.391  29.116  1.00  0.00    -0.545 OA
ENDBRANCH  28  30
ENDBRANCH  10  24
ENDBRANCH   4   6
ENDBRANCH   3   4
ENDBRANCH   2   3
ENDBRANCH   1   2
BRANCH   1  33
ATOM     33  C   UNL A   1      36.931  22.273  25.423  1.00  0.00     0.116 C 
BRANCH  33  34
ATOM     34  N   UNL A   1      37.927  21.239  25.674  1.00  0.00    -0.352 N 
ATOM     35  C   UNL A   1      39.209  21.359  26.151  1.00  0.00     0.251 C 
ATOM     36  H   UNL A   1      37.638  20.321  25.471  1.00  0.00     0.163 HD
ATOM     37  O   UNL A   1      39.953  20.382  26.152  1.00  0.00    -0.269 OA
BRANCH  35  38
ATOM     38  C   UNL A   1      39.698  22.667  26.638  1.00  0.00     0.039 A 
ATOM     39  C   UNL A   1      40.681  22.690  27.629  1.00  0.00     0.014 A 
ATOM     40  C   UNL A   1      39.203  23.864  26.111  1.00  0.00     0.014 A 
ATOM     41  C   UNL A   1      41.215  23.912  28.042  1.00  0.00     0.010 A 
ATOM     42  C   UNL A   1      39.797  25.073  26.463  1.00  0.00     0.010 A 
ATOM     43  C   UNL A   1      40.807  25.112  27.434  1.00  0.00    -0.014 A 
BRANCH  43  44
ATOM     44  C   UNL A   1      41.459  26.400  27.785  1.00  0.00     0.031 A 
ATOM     45  C   UNL A   1      42.873  26.690  27.358  1.00  0.00     0.074 A 
ATOM     46  C   UNL A   1      40.792  27.291  28.546  1.00  0.00     0.049 A 
ATOM     47  N   UNL A   1      43.587  27.767  27.557  1.00  0.00    -0.248 NA
ATOM     48  C   UNL A   1      43.588  25.625  26.633  1.00  0.00     0.031 C 
ATOM     49  C   UNL A   1      39.451  27.090  29.100  1.00  0.00     0.029 A 
ATOM     50  N   UNL A   1      41.153  28.536  28.998  1.00  0.00    -0.354 N 
ATOM     51  C   UNL A   1      44.839  27.503  27.014  1.00  0.00     0.074 A 
ATOM     52  C   UNL A   1      44.800  26.149  26.507  1.00  0.00     0.031 C 
ATOM     53  C   UNL A   1      39.093  28.181  29.796  1.00  0.00     0.029 A 
ATOM     54  C   UNL A   1      40.187  29.145  29.767  1.00  0.00     0.049 A 
ATOM     55  H   UNL A   1      42.019  28.952  28.791  1.00  0.00     0.167 HD
ATOM     56  C   UNL A   1      45.914  28.321  26.920  1.00  0.00     0.034 A 
ATOM     57  C   UNL A   1      40.184  30.344  30.381  1.00  0.00     0.034 A 
ATOM     58  C   UNL A   1      45.939  29.677  27.398  1.00  0.00     0.049 A 
ATOM     59  C   UNL A   1      41.380  31.245  30.228  1.00  0.00     0.074 A 
ATOM     60  C   UNL A   1      46.947  30.617  27.265  1.00  0.00     0.029 A 
ATOM     61  N   UNL A   1      44.921  30.284  28.117  1.00  0.00    -0.354 N 
ATOM     62  N   UNL A   1      42.486  31.041  29.556  1.00  0.00    -0.248 NA
ATOM     63  C   UNL A   1      41.309  32.556  30.888  1.00  0.00     0.031 C 
ATOM     64  C   UNL A   1      46.554  31.779  27.938  1.00  0.00     0.029 A 
ATOM     65  C   UNL A   1      45.283  31.578  28.453  1.00  0.00     0.049 A 
ATOM     66  H   UNL A   1      44.066  29.857  28.355  1.00  0.00     0.167 HD
ATOM     67  C   UNL A   1      43.229  32.210  29.685  1.00  0.00     0.074 A 
ATOM     68  C   UNL A   1      42.430  33.127  30.473  1.00  0.00     0.031 C 
ATOM     69  C   UNL A   1      44.466  32.495  29.205  1.00  0.00     0.034 A 
BRANCH  56  70
ATOM     70  C   UNL A   1      47.148  27.785  26.238  1.00  0.00     0.023 A 
ATOM     71  C   UNL A   1      48.080  27.024  26.973  1.00  0.00     0.012 A 
ATOM     72  C   UNL A   1      47.352  27.978  24.857  1.00  0.00     0.148 A 
ATOM     73  C   UNL A   1      49.211  26.492  26.355  1.00  0.00     0.002 A 
ATOM     74  C   UNL A   1      48.456  27.404  24.237  1.00  0.00     0.091 A 
ATOM     75  F   UNL A   1      46.466  28.720  24.177  1.00  0.00    -0.205 F 
ATOM     76  C   UNL A   1      49.392  26.672  24.986  1.00  0.00     0.022 A 
BRANCH  74  77
ATOM     77  S   UNL A   1      48.737  27.504  22.466  1.00  0.00     0.127 S 
ATOM     78  O   UNL A   1      48.717  26.093  22.084  1.00  0.00    -0.237 OA
ATOM     79  O   UNL A   1      47.578  28.274  22.015  1.00  0.00    -0.237 OA
ATOM     80  O   UNL A   1      50.018  28.177  22.298  1.00  0.00    -0.744 OA
ENDBRANCH  74  77
ENDBRANCH  56  70
BRANCH  57  81
ATOM     81  C   UNL A   1      38.984  30.791  31.144  1.00  0.00     0.023 A 
ATOM     82  C   UNL A   1      38.840  30.415  32.493  1.00  0.00     0.012 A 
ATOM     83  C   UNL A   1      37.993  31.593  30.546  1.00  0.00     0.148 A 
ATOM     84  C   UNL A   1      37.714  30.797  33.223  1.00  0.00     0.002 A 
ATOM     85  C   UNL A   1      36.902  32.019  31.295  1.00  0.00     0.091 A 
ATOM     86  F   UNL A   1      38.142  31.931  29.258  1.00  0.00    -0.205 F 
ATOM     87  C   UNL A   1      36.750  31.606  32.628  1.00  0.00     0.022 A 
BRANCH  85  88
ATOM     88  S   UNL A   1      35.682  33.168  30.651  1.00  0.00     0.127 S 
ATOM     89  O   UNL A   1      34.613  32.266  30.232  1.00  0.00    -0.237 OA
ATOM     90  O   UNL A   1      35.380  33.978  31.833  1.00  0.00    -0.237 OA
ATOM     91  O   UNL A   1      36.352  33.896  29.581  1.00  0.00    -0.744 OA
ENDBRANCH  85  88
ENDBRANCH  57  81
BRANCH  69  92
ATOM     92  C   UNL A   1      45.023  33.866  29.492  1.00  0.00     0.023 A 
ATOM     93  C   UNL A   1      45.733  34.102  30.687  1.00  0.00     0.012 A 
ATOM     94  C   UNL A   1      44.884  34.908  28.556  1.00  0.00     0.148 A 
ATOM     95  C   UNL A   1      46.253  35.366  30.966  1.00  0.00     0.002 A 
ATOM     96  C   UNL A   1      45.452  36.149  28.815  1.00  0.00     0.091 A 
ATOM     97  F   UNL A   1      44.191  34.672  27.432  1.00  0.00    -0.205 F 
ATOM     98  C   UNL A   1      46.122  36.385  30.025  1.00  0.00     0.022 A 
BRANCH  96  99
ATOM     99  S   UNL A   1      45.421  37.491  27.621  1.00  0.00     0.127 S 
ATOM    100  O   UNL A   1      46.083  36.881  26.469  1.00  0.00    -0.237 OA
ATOM    101  O   UNL A   1      43.986  37.718  27.448  1.00  0.00    -0.237 OA
ATOM    102  O   UNL A   1      46.136  38.597  28.239  1.00  0.00    -0.744 OA
ENDBRANCH  96  99
ENDBRANCH  69  92
ENDBRANCH  43  44
ENDBRANCH  35  38
ENDBRANCH  33  34
ENDBRANCH   1  33
TORSDOF 19
ENDMDL
MODEL 3
REMARK VINA RESULT:     -11.4      1.729      3.340
REMARK SMILES CC(=O)C1=C(NCCCCNC(=O)c2ccc(-c3c4nc(c(-c5cccc(S(=O)(=O)[O-])c5F)c5ccc([nH]5)c(-c5cccc(S(=O)(=O)[O-])c5F)c5nc(c(-c6cccc(S(=O)(=O)[O-])c6F)c6ccc3[nH]6)C=C5)C=C4)cc2)C(=O)N(c2cccc(C(=O)[O-])c2)[C@@H]1c1ccc([N+](=O)[O-])cc1
REMARK SMILES IDX 9 1 8 2 7 3 6 4 5 6 4 7 89 8 77 9 79 10 78 11 2 12 1 13 3 14
REMARK SMILES IDX 90 15 91 16 98 17 92 18 97 19 93 20 94 21 95 22 96 23 80 24
REMARK SMILES IDX 81 25 88 26 82 27 84 28 83 29 85 30 86 31 87 32 10 33 11 34
REMARK SMILES IDX 12 35 13 37 14 38 15 39 76 40 16 41 75 42 17 43 18 44 19 45
REMARK SMILES IDX 69 46 20 47 74 48 68 49 70 50 21 51 73 52 67 53 66 54 22 56
REMARK SMILES IDX 54 57 34 58 53 59 35 60 38 61 52 62 71 63 36 64 37 65 51 67
REMARK SMILES IDX 72 68 39 69 23 70 24 71 32 72 25 73 27 74 33 75 26 76 28 77
REMARK SMILES IDX 29 78 30 79 31 80 55 81 56 82 64 83 57 84 59 85 65 86 58 87
REMARK SMILES IDX 60 88 61 89 62 90 63 91 40 92 41 93 49 94 42 95 44 96 50 97
REMARK SMILES IDX 43 98 45 99 46 100 47 101 48 102
REMARK H PARENT 6 5 11 36 70 55 38 66
REMARK Flexibility Score: inf
ROOT
ATOM      1  C   UNL A   1      34.928  21.657  25.586  1.00  0.00     0.023 C 
ENDROOT
BRANCH   1   2
ATOM      2  C   UNL A   1      33.816  22.692  25.422  1.00  0.00     0.023 C 
BRANCH   2   3
ATOM      3  C   UNL A   1      32.458  22.251  25.955  1.00  0.00     0.113 C 
BRANCH   3   4
ATOM      4  N   UNL A   1      31.519  23.349  25.900  1.00  0.00    -0.380 N 
ATOM      5  H   UNL A   1      30.629  23.166  26.278  1.00  0.00     0.160 HD
BRANCH   4   6
ATOM      6  C   UNL A   1      31.697  24.609  25.395  1.00  0.00     0.110 C 
ATOM      7  C   UNL A   1      31.575  25.189  24.196  1.00  0.00     0.051 C 
ATOM      8  C   UNL A   1      31.872  26.654  24.182  1.00  0.00     0.157 C 
ATOM      9  C   UNL A   1      32.161  25.712  26.305  1.00  0.00     0.275 C 
ATOM     10  N   UNL A   1      32.113  26.899  25.592  1.00  0.00    -0.295 N 
ATOM     11  O   UNL A   1      32.473  25.530  27.471  1.00  0.00    -0.267 OA
BRANCH   7  12
ATOM     12  C   UNL A   1      31.197  24.489  22.958  1.00  0.00     0.160 C 
ATOM     13  C   UNL A   1      31.979  24.799  21.716  1.00  0.00     0.093 C 
ATOM     14  O   UNL A   1      30.229  23.731  22.939  1.00  0.00    -0.295 OA
ENDBRANCH   7  12
BRANCH   8  15
ATOM     15  C   UNL A   1      30.828  27.546  23.525  1.00  0.00    -0.020 A 
ATOM     16  C   UNL A   1      29.448  27.399  23.762  1.00  0.00     0.013 A 
ATOM     17  C   UNL A   1      31.255  28.594  22.684  1.00  0.00     0.013 A 
ATOM     18  C   UNL A   1      28.520  28.256  23.166  1.00  0.00     0.086 A 
ATOM     19  C   UNL A   1      30.338  29.490  22.130  1.00  0.00     0.086 A 
ATOM     20  C   UNL A   1      28.972  29.311  22.369  1.00  0.00     0.269 A 
BRANCH  20  21
ATOM     21  N   UNL A   1      28.007  30.249  21.796  1.00  0.00     0.062 N 
ATOM     22  O   UNL A   1      27.243  30.838  22.573  1.00  0.00    -0.258 OA
ATOM     23  O   UNL A   1      28.011  30.396  20.565  1.00  0.00    -0.258 OA
ENDBRANCH  20  21
ENDBRANCH   8  15
BRANCH  10  24
ATOM     24  C   UNL A   1      32.520  28.139  26.122  1.00  0.00     0.046 A 
ATOM     25  C   UNL A   1      33.720  28.265  26.827  1.00  0.00     0.026 A 
ATOM     26  C   UNL A   1      31.699  29.258  25.969  1.00  0.00     0.036 A 
ATOM     27  C   UNL A   1      34.127  29.516  27.304  1.00  0.00     0.003 A 
ATOM     28  C   UNL A   1      32.100  30.513  26.439  1.00  0.00    -0.001 A 
ATOM     29  C   UNL A   1      33.325  30.641  27.100  1.00  0.00     0.010 A 
BRANCH  28  30
ATOM     30  C   UNL A   1      31.257  31.715  26.241  1.00  0.00     0.072 C 
ATOM     31  O   UNL A   1      30.424  31.869  25.365  1.00  0.00    -0.545 OA
ATOM     32  O   UNL A   1      31.469  32.657  27.178  1.00  0.00    -0.545 OA
ENDBRANCH  28  30
ENDBRANCH  10  24
ENDBRANCH   4   6
ENDBRANCH   3   4
ENDBRANCH   2   3
ENDBRANCH   1   2
BRANCH   1  33
ATOM     33  C   UNL A   1      36.320  22.233  25.826  1.00  0.00     0.116 C 
BRANCH  33  34
ATOM     34  N   UNL A   1      37.370  21.225  25.762  1.00  0.00    -0.352 N 
ATOM     35  C   UNL A   1      38.716  21.351  26.002  1.00  0.00     0.251 C 
ATOM     36  H   UNL A   1      37.071  20.322  25.511  1.00  0.00     0.163 HD
ATOM     37  O   UNL A   1      39.470  20.415  25.749  1.00  0.00    -0.269 OA
BRANCH  35  38
ATOM     38  C   UNL A   1      39.257  22.618  26.539  1.00  0.00     0.039 A 
ATOM     39  C   UNL A   1      40.309  22.565  27.455  1.00  0.00     0.014 A 
ATOM     40  C   UNL A   1      38.742  23.852  26.131  1.00  0.00     0.014 A 
ATOM     41  C   UNL A   1      40.888  23.750  27.910  1.00  0.00     0.010 A 
ATOM     42  C   UNL A   1      39.376  25.029  26.520  1.00  0.00     0.010 A 
ATOM     43  C   UNL A   1      40.454  24.993  27.415  1.00  0.00    -0.014 A 
BRANCH  43  44
ATOM     44  C   UNL A   1      41.147  26.248  27.803  1.00  0.00     0.031 A 
ATOM     45  C   UNL A   1      42.564  26.513  27.369  1.00  0.00     0.074 A 
ATOM     46  C   UNL A   1      40.515  27.129  28.605  1.00  0.00     0.049 A 
ATOM     47  N   UNL A   1      43.312  27.561  27.598  1.00  0.00    -0.248 NA
ATOM     48  C   UNL A   1      43.239  25.455  26.597  1.00  0.00     0.031 C 
ATOM     49  C   UNL A   1      39.176  26.947  29.169  1.00  0.00     0.029 A 
ATOM     50  N   UNL A   1      40.918  28.347  29.097  1.00  0.00    -0.354 N 
ATOM     51  C   UNL A   1      44.548  27.282  27.029  1.00  0.00     0.074 A 
ATOM     52  C   UNL A   1      44.464  25.948  26.474  1.00  0.00     0.031 C 
ATOM     53  C   UNL A   1      38.858  28.022  29.908  1.00  0.00     0.029 A 
ATOM     54  C   UNL A   1      39.980  28.954  29.899  1.00  0.00     0.049 A 
ATOM     55  H   UNL A   1      41.794  28.745  28.893  1.00  0.00     0.167 HD
ATOM     56  C   UNL A   1      45.646  28.072  26.950  1.00  0.00     0.034 A 
ATOM     57  C   UNL A   1      40.019  30.130  30.556  1.00  0.00     0.034 A 
ATOM     58  C   UNL A   1      45.716  29.408  27.476  1.00  0.00     0.049 A 
ATOM     59  C   UNL A   1      41.238  31.002  30.420  1.00  0.00     0.074 A 
ATOM     60  C   UNL A   1      46.748  30.323  27.364  1.00  0.00     0.029 A 
ATOM     61  N   UNL A   1      44.724  30.017  28.230  1.00  0.00    -0.354 N 
ATOM     62  N   UNL A   1      42.330  30.791  29.727  1.00  0.00    -0.248 NA
ATOM     63  C   UNL A   1      41.214  32.289  31.128  1.00  0.00     0.031 C 
ATOM     64  C   UNL A   1      46.397  31.470  28.084  1.00  0.00     0.029 A 
ATOM     65  C   UNL A   1      45.128  31.287  28.608  1.00  0.00     0.049 A 
ATOM     66  H   UNL A   1      43.860  29.607  28.463  1.00  0.00     0.167 HD
ATOM     67  C   UNL A   1      43.108  31.933  29.888  1.00  0.00     0.074 A 
ATOM     68  C   UNL A   1      42.346  32.843  30.719  1.00  0.00     0.031 C 
ATOM     69  C   UNL A   1      44.347  32.199  29.403  1.00  0.00     0.034 A 
BRANCH  56  70
ATOM     70  C   UNL A   1      46.855  27.526  26.233  1.00  0.00     0.023 A 
ATOM     71  C   UNL A   1      47.035  27.793  24.860  1.00  0.00     0.012 A 
ATOM     72  C   UNL A   1      47.846  26.806  26.930  1.00  0.00     0.148 A 
ATOM     73  C   UNL A   1      48.161  27.325  24.185  1.00  0.00     0.002 A 
ATOM     74  C   UNL A   1      48.990  26.384  26.262  1.00  0.00     0.091 A 
ATOM     75  F   UNL A   1      47.650  26.544  28.231  1.00  0.00    -0.205 F 
ATOM     76  C   UNL A   1      49.143  26.632  24.888  1.00  0.00     0.022 A 
BRANCH  74  77
ATOM     77  S   UNL A   1      50.351  25.559  27.093  1.00  0.00     0.127 S 
ATOM     78  O   UNL A   1      51.298  25.374  25.994  1.00  0.00    -0.237 OA
ATOM     79  O   UNL A   1      50.754  26.555  28.084  1.00  0.00    -0.237 OA
ATOM     80  O   UNL A   1      49.799  24.332  27.651  1.00  0.00    -0.744 OA
ENDBRANCH  74  77
ENDBRANCH  56  70
BRANCH  57  81
ATOM     81  C   UNL A   1      38.841  30.583  31.350  1.00  0.00     0.023 A 
ATOM     82  C   UNL A   1      38.794  30.319  32.733  1.00  0.00     0.012 A 
ATOM     83  C   UNL A   1      37.777  31.282  30.749  1.00  0.00     0.148 A 
ATOM     84  C   UNL A   1      37.692  30.708  33.495  1.00  0.00     0.002 A 
ATOM     85  C   UNL A   1      36.710  31.718  31.524  1.00  0.00     0.091 A 
ATOM     86  F   UNL A   1      37.836  31.514  29.430  1.00  0.00    -0.205 F 
ATOM     87  C   UNL A   1      36.655  31.415  32.893  1.00  0.00     0.022 A 
BRANCH  85  88
ATOM     88  S   UNL A   1      35.396  32.748  30.862  1.00  0.00     0.127 S 
ATOM     89  O   UNL A   1      34.922  31.943  29.739  1.00  0.00    -0.237 OA
ATOM     90  O   UNL A   1      34.475  32.828  31.997  1.00  0.00    -0.237 OA
ATOM     91  O   UNL A   1      36.026  34.013  30.511  1.00  0.00    -0.744 OA
ENDBRANCH  85  88
ENDBRANCH  57  81
BRANCH  69  92
ATOM     92  C   UNL A   1      44.947  33.542  29.732  1.00  0.00     0.023 A 
ATOM     93  C   UNL A   1      44.724  34.642  28.878  1.00  0.00     0.012 A 
ATOM     94  C   UNL A   1      45.692  33.726  30.913  1.00  0.00     0.148 A 
ATOM     95  C   UNL A   1      45.275  35.890  29.170  1.00  0.00     0.002 A 
ATOM     96  C   UNL A   1      46.190  34.985  31.225  1.00  0.00     0.091 A 
ATOM     97  F   UNL A   1      45.909  32.667  31.705  1.00  0.00    -0.205 F 
ATOM     98  C   UNL A   1      45.997  36.064  30.348  1.00  0.00     0.022 A 
BRANCH  96  99
ATOM     99  S   UNL A   1      47.047  35.326  32.767  1.00  0.00     0.127 S 
ATOM    100  O   UNL A   1      47.329  36.755  32.641  1.00  0.00    -0.237 OA
ATOM    101  O   UNL A   1      46.033  34.991  33.766  1.00  0.00    -0.237 OA
ATOM    102  O   UNL A   1      48.216  34.458  32.778  1.00  0.00    -0.744 OA
ENDBRANCH  96  99
ENDBRANCH  69  92
ENDBRANCH  43  44
ENDBRANCH  35  38
ENDBRANCH  33  34
ENDBRANCH   1  33
TORSDOF 19
ENDMDL
