MODEL 1
REMARK VINA RESULT:     -13.8      0.000      0.000
REMARK SMILES Cc1ccc(-c2cc(Cl)cc3c2O[C@@H](C(F)(F)F)C(C(=O)NCCCCNC(=O)c2ccc(-c4c5nc(c(-c6cccc(S(=O)(=O)[O-])c6F)c6ccc([nH]6)c(-c6cccc(S(=O)(=O)[O-])c6F)c6nc(c(-c7cccc(S(=O)(=O)[O-])c7F)c7ccc4[nH]7)C=C6)C=C5)cc2)=C3)cc1
REMARK SMILES IDX 25 1 24 2 23 3 22 4 20 5 21 6 19 8 6 9 7 10 12 11 8 12 11 13
REMARK SMILES IDX 13 14 9 15 10 16 93 17 14 18 5 19 1 20 2 21 3 22 95 23 4 24
REMARK SMILES IDX 94 25 15 26 16 27 17 28 18 29 26 30 27 31 28 32 29 34 30 35
REMARK SMILES IDX 31 36 92 37 32 38 91 39 33 40 34 41 35 42 85 43 36 44 90 45
REMARK SMILES IDX 84 46 86 47 37 48 89 49 83 50 82 51 38 53 70 54 50 55 69 56
REMARK SMILES IDX 51 57 54 58 68 59 87 60 52 61 53 62 67 64 88 65 55 66 39 67
REMARK SMILES IDX 40 68 48 69 41 70 43 71 49 72 42 73 44 74 45 75 46 76 47 77
REMARK SMILES IDX 71 78 72 79 80 80 73 81 75 82 81 83 74 84 76 85 77 86 78 87
REMARK SMILES IDX 79 88 56 89 57 90 65 91 58 92 60 93 66 94 59 95 61 96 62 97
REMARK SMILES IDX 63 98 64 99
REMARK H PARENT 22 7 27 33 86 52 54 63
REMARK Flexibility Score: inf
ROOT
ATOM      1  C   UNL A   1      36.800  23.790  25.896  1.00  0.00     0.023 C 
ENDROOT
BRANCH   1   2
ATOM      2  C   UNL A   1      35.475  23.850  25.122  1.00  0.00     0.023 C 
BRANCH   2   3
ATOM      3  C   UNL A   1      34.106  23.777  25.834  1.00  0.00     0.116 C 
BRANCH   3   4
ATOM      4  N   UNL A   1      33.340  24.994  26.143  1.00  0.00    -0.352 N 
ATOM      5  C   UNL A   1      31.994  25.338  26.151  1.00  0.00     0.251 C 
ATOM      6  O   UNL A   1      31.661  26.259  26.901  1.00  0.00    -0.270 OA
ATOM      7  H   UNL A   1      33.920  25.743  26.409  1.00  0.00     0.163 HD
BRANCH   5   8
ATOM      8  C   UNL A   1      30.919  24.777  25.185  1.00  0.00     0.067 C 
ATOM      9  C   UNL A   1      31.528  28.310  23.663  1.00  0.00     0.026 A 
ATOM     10  C   UNL A   1      30.480  29.082  23.095  1.00  0.00     0.033 A 
ATOM     11  C   UNL A   1      31.251  26.947  23.798  1.00  0.00     0.135 A 
ATOM     12  C   UNL A   1      29.190  28.559  22.955  1.00  0.00     0.042 A 
ATOM     13  C   UNL A   1      29.916  26.601  24.113  1.00  0.00     0.019 A 
ATOM     14  O   UNL A   1      32.183  25.874  23.563  1.00  0.00    -0.475 OA
ATOM     15  Cl  UNL A   1      27.942  29.526  22.269  1.00  0.00    -0.084 Cl
ATOM     16  C   UNL A   1      28.882  27.336  23.543  1.00  0.00     0.032 A 
ATOM     17  C   UNL A   1      29.733  25.426  25.038  1.00  0.00     0.025 C 
ATOM     18  C   UNL A   1      31.460  24.600  23.799  1.00  0.00     0.314 C 
BRANCH   9  19
ATOM     19  C   UNL A   1      32.280  29.071  24.720  1.00  0.00    -0.015 A 
ATOM     20  C   UNL A   1      34.334  30.536  28.279  1.00  0.00     0.044 C 
ATOM     21  C   UNL A   1      33.654  30.063  27.024  1.00  0.00    -0.051 A 
ATOM     22  C   UNL A   1      32.404  30.574  26.637  1.00  0.00     0.004 A 
ATOM     23  C   UNL A   1      34.251  29.098  26.218  1.00  0.00     0.004 A 
ATOM     24  C   UNL A   1      31.723  30.082  25.501  1.00  0.00     0.009 A 
ATOM     25  C   UNL A   1      33.580  28.625  25.083  1.00  0.00     0.009 A 
ENDBRANCH   9  19
BRANCH  18  26
ATOM     26  C   UNL A   1      31.796  23.099  23.656  1.00  0.00     0.429 C 
ATOM     27  F   UNL A   1      30.894  22.536  22.790  1.00  0.00    -0.167 F 
ATOM     28  F   UNL A   1      33.017  22.848  23.155  1.00  0.00    -0.167 F 
ATOM     29  F   UNL A   1      31.627  22.373  24.791  1.00  0.00    -0.167 F 
ENDBRANCH  18  26
ENDBRANCH   5   8
ENDBRANCH   3   4
ENDBRANCH   2   3
ENDBRANCH   1   2
BRANCH   1  30
ATOM     30  C   UNL A   1      37.854  22.827  25.386  1.00  0.00     0.116 C 
BRANCH  30  31
ATOM     31  N   UNL A   1      38.791  22.363  26.414  1.00  0.00    -0.352 N 
ATOM     32  C   UNL A   1      39.977  22.997  26.791  1.00  0.00     0.251 C 
ATOM     33  H   UNL A   1      38.564  21.526  26.882  1.00  0.00     0.163 HD
ATOM     34  O   UNL A   1      40.985  22.321  26.947  1.00  0.00    -0.269 OA
BRANCH  32  35
ATOM     35  C   UNL A   1      39.956  24.462  27.022  1.00  0.00     0.039 A 
ATOM     36  C   UNL A   1      40.539  25.409  26.174  1.00  0.00     0.014 A 
ATOM     37  C   UNL A   1      39.471  24.879  28.247  1.00  0.00     0.014 A 
ATOM     38  C   UNL A   1      40.745  26.704  26.666  1.00  0.00     0.010 A 
ATOM     39  C   UNL A   1      39.317  26.181  28.551  1.00  0.00     0.010 A 
ATOM     40  C   UNL A   1      40.182  27.033  27.896  1.00  0.00    -0.014 A 
BRANCH  40  41
ATOM     41  C   UNL A   1      40.436  28.192  28.719  1.00  0.00     0.031 A 
ATOM     42  C   UNL A   1      39.481  29.293  28.662  1.00  0.00     0.074 A 
ATOM     43  C   UNL A   1      41.266  27.977  29.774  1.00  0.00     0.049 A 
ATOM     44  N   UNL A   1      39.698  30.462  29.143  1.00  0.00    -0.248 NA
ATOM     45  C   UNL A   1      38.177  29.146  28.025  1.00  0.00     0.031 C 
ATOM     46  C   UNL A   1      41.246  28.633  31.071  1.00  0.00     0.029 A 
ATOM     47  N   UNL A   1      42.312  27.048  29.903  1.00  0.00    -0.354 N 
ATOM     48  C   UNL A   1      38.474  31.092  29.192  1.00  0.00     0.074 A 
ATOM     49  C   UNL A   1      37.618  30.320  28.325  1.00  0.00     0.031 C 
ATOM     50  C   UNL A   1      42.375  28.315  31.730  1.00  0.00     0.029 A 
ATOM     51  C   UNL A   1      43.233  27.602  30.798  1.00  0.00     0.049 A 
ATOM     52  H   UNL A   1      42.384  26.177  29.451  1.00  0.00     0.167 HD
ATOM     53  C   UNL A   1      38.280  32.059  30.133  1.00  0.00     0.034 A 
ATOM     54  C   UNL A   1      44.477  28.016  30.405  1.00  0.00     0.034 A 
ATOM     55  C   UNL A   1      39.503  32.216  30.950  1.00  0.00     0.049 A 
ATOM     56  C   UNL A   1      44.618  29.530  30.468  1.00  0.00     0.074 A 
ATOM     57  C   UNL A   1      39.860  31.744  32.205  1.00  0.00     0.029 A 
ATOM     58  N   UNL A   1      40.688  32.629  30.346  1.00  0.00    -0.354 N 
ATOM     59  N   UNL A   1      43.643  30.345  30.768  1.00  0.00    -0.248 NA
ATOM     60  C   UNL A   1      45.860  30.251  30.206  1.00  0.00     0.031 C 
ATOM     61  C   UNL A   1      41.278  31.807  32.316  1.00  0.00     0.029 A 
ATOM     62  C   UNL A   1      41.789  32.346  31.145  1.00  0.00     0.049 A 
ATOM     63  H   UNL A   1      40.739  33.067  29.465  1.00  0.00     0.167 HD
ATOM     64  C   UNL A   1      44.036  31.646  30.624  1.00  0.00     0.074 A 
ATOM     65  C   UNL A   1      45.463  31.528  30.356  1.00  0.00     0.031 C 
ATOM     66  C   UNL A   1      43.141  32.686  30.692  1.00  0.00     0.034 A 
BRANCH  53  67
ATOM     67  C   UNL A   1      36.928  32.629  30.551  1.00  0.00     0.023 A 
ATOM     68  C   UNL A   1      36.455  32.274  31.834  1.00  0.00     0.012 A 
ATOM     69  C   UNL A   1      36.071  33.469  29.797  1.00  0.00     0.148 A 
ATOM     70  C   UNL A   1      35.192  32.650  32.308  1.00  0.00     0.002 A 
ATOM     71  C   UNL A   1      34.789  33.807  30.246  1.00  0.00     0.091 A 
ATOM     72  F   UNL A   1      36.506  34.033  28.671  1.00  0.00    -0.205 F 
ATOM     73  C   UNL A   1      34.346  33.396  31.503  1.00  0.00     0.022 A 
BRANCH  71  74
ATOM     74  S   UNL A   1      33.623  34.753  29.244  1.00  0.00     0.127 S 
ATOM     75  O   UNL A   1      33.340  33.828  28.144  1.00  0.00    -0.237 OA
ATOM     76  O   UNL A   1      32.508  34.955  30.166  1.00  0.00    -0.237 OA
ATOM     77  O   UNL A   1      34.321  35.965  28.834  1.00  0.00    -0.744 OA
ENDBRANCH  71  74
ENDBRANCH  53  67
BRANCH  54  78
ATOM     78  C   UNL A   1      45.106  27.110  29.395  1.00  0.00     0.023 A 
ATOM     79  C   UNL A   1      45.287  25.762  29.795  1.00  0.00     0.012 A 
ATOM     80  C   UNL A   1      45.041  27.409  28.023  1.00  0.00     0.148 A 
ATOM     81  C   UNL A   1      45.218  24.724  28.865  1.00  0.00     0.002 A 
ATOM     82  C   UNL A   1      44.934  26.367  27.107  1.00  0.00     0.091 A 
ATOM     83  F   UNL A   1      44.971  28.694  27.653  1.00  0.00    -0.205 F 
ATOM     84  C   UNL A   1      44.986  25.025  27.529  1.00  0.00     0.022 A 
BRANCH  82  85
ATOM     85  S   UNL A   1      44.486  26.643  25.388  1.00  0.00     0.127 S 
ATOM     86  O   UNL A   1      43.790  27.921  25.462  1.00  0.00    -0.237 OA
ATOM     87  O   UNL A   1      45.793  26.689  24.748  1.00  0.00    -0.237 OA
ATOM     88  O   UNL A   1      43.666  25.491  25.013  1.00  0.00    -0.744 OA
ENDBRANCH  82  85
ENDBRANCH  54  78
BRANCH  66  89
ATOM     89  C   UNL A   1      43.440  34.139  30.341  1.00  0.00     0.023 A 
ATOM     90  C   UNL A   1      43.796  35.098  31.306  1.00  0.00     0.012 A 
ATOM     91  C   UNL A   1      43.491  34.567  28.985  1.00  0.00     0.148 A 
ATOM     92  C   UNL A   1      44.106  36.420  30.964  1.00  0.00     0.002 A 
ATOM     93  C   UNL A   1      43.937  35.840  28.642  1.00  0.00     0.091 A 
ATOM     94  F   UNL A   1      43.072  33.755  28.003  1.00  0.00    -0.205 F 
ATOM     95  C   UNL A   1      44.203  36.785  29.632  1.00  0.00     0.022 A 
BRANCH  93  96
ATOM     96  S   UNL A   1      44.338  36.265  26.942  1.00  0.00     0.127 S 
ATOM     97  O   UNL A   1      43.021  36.255  26.310  1.00  0.00    -0.237 OA
ATOM     98  O   UNL A   1      44.934  37.595  27.090  1.00  0.00    -0.237 OA
ATOM     99  O   UNL A   1      45.272  35.241  26.498  1.00  0.00    -0.744 OA
ENDBRANCH  93  96
ENDBRANCH  66  89
ENDBRANCH  40  41
ENDBRANCH  32  35
ENDBRANCH  30  31
ENDBRANCH   1  30
TORSDOF 16
ENDMDL
MODEL 2
REMARK VINA RESULT:     -13.3      3.940      9.186
REMARK SMILES Cc1ccc(-c2cc(Cl)cc3c2O[C@@H](C(F)(F)F)C(C(=O)NCCCCNC(=O)c2ccc(-c4c5nc(c(-c6cccc(S(=O)(=O)[O-])c6F)c6ccc([nH]6)c(-c6cccc(S(=O)(=O)[O-])c6F)c6nc(c(-c7cccc(S(=O)(=O)[O-])c7F)c7ccc4[nH]7)C=C6)C=C5)cc2)=C3)cc1
REMARK SMILES IDX 25 1 24 2 23 3 22 4 20 5 21 6 19 8 6 9 7 10 12 11 8 12 11 13
REMARK SMILES IDX 13 14 9 15 10 16 93 17 14 18 5 19 1 20 2 21 3 22 95 23 4 24
REMARK SMILES IDX 94 25 15 26 16 27 17 28 18 29 26 30 27 31 28 32 29 34 30 35
REMARK SMILES IDX 31 36 92 37 32 38 91 39 33 40 34 41 35 42 85 43 36 44 90 45
REMARK SMILES IDX 84 46 86 47 37 48 89 49 83 50 82 51 38 53 70 54 50 55 69 56
REMARK SMILES IDX 51 57 54 58 68 59 87 60 52 61 53 62 67 64 88 65 55 66 39 67
REMARK SMILES IDX 40 68 48 69 41 70 43 71 49 72 42 73 44 74 45 75 46 76 47 77
REMARK SMILES IDX 71 78 72 79 80 80 73 81 75 82 81 83 74 84 76 85 77 86 78 87
REMARK SMILES IDX 79 88 56 89 57 90 65 91 58 92 60 93 66 94 59 95 61 96 62 97
REMARK SMILES IDX 63 98 64 99
REMARK H PARENT 22 7 27 33 86 52 54 63
REMARK Flexibility Score: inf
ROOT
ATOM      1  C   UNL A   1      34.110  28.832  26.367  1.00  0.00     0.023 C 
ENDROOT
BRANCH   1   2
ATOM      2  C   UNL A   1      33.055  27.944  25.692  1.00  0.00     0.023 C 
BRANCH   2   3
ATOM      3  C   UNL A   1      33.019  26.414  25.897  1.00  0.00     0.116 C 
BRANCH   3   4
ATOM      4  N   UNL A   1      33.843  25.514  25.076  1.00  0.00    -0.352 N 
ATOM      5  C   UNL A   1      33.729  24.950  23.811  1.00  0.00     0.251 C 
ATOM      6  O   UNL A   1      34.781  24.644  23.243  1.00  0.00    -0.270 OA
ATOM      7  H   UNL A   1      34.673  25.248  25.531  1.00  0.00     0.163 HD
BRANCH   5   8
ATOM      8  C   UNL A   1      32.401  24.528  23.133  1.00  0.00     0.067 C 
ATOM      9  C   UNL A   1      33.394  21.233  24.955  1.00  0.00     0.026 A 
ATOM     10  C   UNL A   1      33.154  19.951  24.391  1.00  0.00     0.033 A 
ATOM     11  C   UNL A   1      32.648  22.273  24.397  1.00  0.00     0.135 A 
ATOM     12  C   UNL A   1      32.444  19.810  23.194  1.00  0.00     0.042 A 
ATOM     13  C   UNL A   1      32.386  22.189  23.010  1.00  0.00     0.019 A 
ATOM     14  O   UNL A   1      32.058  23.368  25.125  1.00  0.00    -0.475 OA
ATOM     15  Cl  UNL A   1      32.179  18.242  22.535  1.00  0.00    -0.084 Cl
ATOM     16  C   UNL A   1      32.126  20.942  22.452  1.00  0.00     0.032 A 
ATOM     17  C   UNL A   1      32.387  23.492  22.251  1.00  0.00     0.025 C 
ATOM     18  C   UNL A   1      31.340  24.216  24.142  1.00  0.00     0.314 C 
BRANCH   9  19
ATOM     19  C   UNL A   1      34.835  21.416  25.346  1.00  0.00    -0.015 A 
ATOM     20  C   UNL A   1      39.001  22.606  25.861  1.00  0.00     0.044 C 
ATOM     21  C   UNL A   1      37.566  22.178  25.731  1.00  0.00    -0.051 A 
ATOM     22  C   UNL A   1      37.221  20.965  25.112  1.00  0.00     0.004 A 
ATOM     23  C   UNL A   1      36.541  22.983  26.220  1.00  0.00     0.004 A 
ATOM     24  C   UNL A   1      35.873  20.589  24.918  1.00  0.00     0.009 A 
ATOM     25  C   UNL A   1      35.206  22.600  26.041  1.00  0.00     0.009 A 
ENDBRANCH   9  19
BRANCH  18  26
ATOM     26  C   UNL A   1      30.436  25.468  24.219  1.00  0.00     0.429 C 
ATOM     27  F   UNL A   1      29.312  25.235  23.469  1.00  0.00    -0.167 F 
ATOM     28  F   UNL A   1      30.014  25.774  25.457  1.00  0.00    -0.167 F 
ATOM     29  F   UNL A   1      30.965  26.579  23.646  1.00  0.00    -0.167 F 
ENDBRANCH  18  26
ENDBRANCH   5   8
ENDBRANCH   3   4
ENDBRANCH   2   3
ENDBRANCH   1   2
BRANCH   1  30
ATOM     30  C   UNL A   1      33.606  29.930  27.282  1.00  0.00     0.116 C 
BRANCH  30  31
ATOM     31  N   UNL A   1      34.426  31.146  27.268  1.00  0.00    -0.352 N 
ATOM     32  C   UNL A   1      35.441  31.464  28.173  1.00  0.00     0.251 C 
ATOM     33  H   UNL A   1      34.244  31.801  26.554  1.00  0.00     0.163 HD
ATOM     34  O   UNL A   1      35.495  32.599  28.627  1.00  0.00    -0.269 OA
BRANCH  32  35
ATOM     35  C   UNL A   1      36.434  30.419  28.522  1.00  0.00     0.039 A 
ATOM     36  C   UNL A   1      36.468  29.728  29.738  1.00  0.00     0.014 A 
ATOM     37  C   UNL A   1      37.483  30.258  27.638  1.00  0.00     0.014 A 
ATOM     38  C   UNL A   1      37.634  29.028  30.071  1.00  0.00     0.010 A 
ATOM     39  C   UNL A   1      38.404  29.288  27.789  1.00  0.00     0.010 A 
ATOM     40  C   UNL A   1      38.616  28.891  29.093  1.00  0.00    -0.014 A 
BRANCH  40  41
ATOM     41  C   UNL A   1      39.978  28.435  29.245  1.00  0.00     0.031 A 
ATOM     42  C   UNL A   1      40.266  27.036  28.947  1.00  0.00     0.074 A 
ATOM     43  C   UNL A   1      40.920  29.414  29.215  1.00  0.00     0.049 A 
ATOM     44  N   UNL A   1      41.358  26.442  29.263  1.00  0.00    -0.248 NA
ATOM     45  C   UNL A   1      39.304  26.183  28.260  1.00  0.00     0.031 C 
ATOM     46  C   UNL A   1      42.284  29.324  28.721  1.00  0.00     0.029 A 
ATOM     47  N   UNL A   1      40.810  30.760  29.604  1.00  0.00    -0.354 N 
ATOM     48  C   UNL A   1      41.385  25.272  28.536  1.00  0.00     0.074 A 
ATOM     49  C   UNL A   1      40.027  25.075  28.091  1.00  0.00     0.031 C 
ATOM     50  C   UNL A   1      42.951  30.430  29.097  1.00  0.00     0.029 A 
ATOM     51  C   UNL A   1      42.086  31.168  30.004  1.00  0.00     0.049 A 
ATOM     52  H   UNL A   1      39.994  31.310  29.596  1.00  0.00     0.167 HD
ATOM     53  C   UNL A   1      42.596  24.735  28.216  1.00  0.00     0.034 A 
ATOM     54  C   UNL A   1      42.386  31.459  31.308  1.00  0.00     0.034 A 
ATOM     55  C   UNL A   1      43.680  25.591  28.747  1.00  0.00     0.049 A 
ATOM     56  C   UNL A   1      43.326  30.430  31.919  1.00  0.00     0.074 A 
ATOM     57  C   UNL A   1      44.491  26.550  28.158  1.00  0.00     0.029 A 
ATOM     58  N   UNL A   1      43.798  25.781  30.121  1.00  0.00    -0.354 N 
ATOM     59  N   UNL A   1      43.724  29.348  31.308  1.00  0.00    -0.248 NA
ATOM     60  C   UNL A   1      43.897  30.533  33.258  1.00  0.00     0.031 C 
ATOM     61  C   UNL A   1      45.035  27.365  29.191  1.00  0.00     0.029 A 
ATOM     62  C   UNL A   1      44.585  26.889  30.412  1.00  0.00     0.049 A 
ATOM     63  H   UNL A   1      43.378  25.205  30.801  1.00  0.00     0.167 HD
ATOM     64  C   UNL A   1      44.459  28.558  32.147  1.00  0.00     0.074 A 
ATOM     65  C   UNL A   1      44.611  29.394  33.331  1.00  0.00     0.031 C 
ATOM     66  C   UNL A   1      44.828  27.280  31.804  1.00  0.00     0.034 A 
BRANCH  53  67
ATOM     67  C   UNL A   1      42.836  23.653  27.168  1.00  0.00     0.023 A 
ATOM     68  C   UNL A   1      43.470  24.053  25.971  1.00  0.00     0.012 A 
ATOM     69  C   UNL A   1      42.484  22.282  27.242  1.00  0.00     0.148 A 
ATOM     70  C   UNL A   1      43.669  23.185  24.891  1.00  0.00     0.002 A 
ATOM     71  C   UNL A   1      42.635  21.423  26.147  1.00  0.00     0.091 A 
ATOM     72  F   UNL A   1      42.077  21.755  28.395  1.00  0.00    -0.205 F 
ATOM     73  C   UNL A   1      43.227  21.874  24.967  1.00  0.00     0.022 A 
BRANCH  71  74
ATOM     74  S   UNL A   1      42.061  19.711  26.164  1.00  0.00     0.127 S 
ATOM     75  O   UNL A   1      42.702  19.159  24.969  1.00  0.00    -0.237 OA
ATOM     76  O   UNL A   1      42.600  19.211  27.426  1.00  0.00    -0.237 OA
ATOM     77  O   UNL A   1      40.606  19.764  26.085  1.00  0.00    -0.744 OA
ENDBRANCH  71  74
ENDBRANCH  53  67
BRANCH  54  78
ATOM     78  C   UNL A   1      41.285  32.184  32.015  1.00  0.00     0.023 A 
ATOM     79  C   UNL A   1      40.860  33.400  31.425  1.00  0.00     0.012 A 
ATOM     80  C   UNL A   1      40.402  31.494  32.864  1.00  0.00     0.148 A 
ATOM     81  C   UNL A   1      39.533  33.819  31.527  1.00  0.00     0.002 A 
ATOM     82  C   UNL A   1      39.071  31.897  32.928  1.00  0.00     0.091 A 
ATOM     83  F   UNL A   1      40.847  30.400  33.495  1.00  0.00    -0.205 F 
ATOM     84  C   UNL A   1      38.627  33.037  32.233  1.00  0.00     0.022 A 
BRANCH  82  85
ATOM     85  S   UNL A   1      37.796  30.880  33.686  1.00  0.00     0.127 S 
ATOM     86  O   UNL A   1      37.819  31.350  35.064  1.00  0.00    -0.237 OA
ATOM     87  O   UNL A   1      36.619  31.270  32.922  1.00  0.00    -0.237 OA
ATOM     88  O   UNL A   1      38.228  29.499  33.474  1.00  0.00    -0.744 OA
ENDBRANCH  82  85
ENDBRANCH  54  78
BRANCH  66  89
ATOM     89  C   UNL A   1      45.461  26.257  32.740  1.00  0.00     0.023 A 
ATOM     90  C   UNL A   1      46.850  26.058  32.824  1.00  0.00     0.012 A 
ATOM     91  C   UNL A   1      44.668  25.533  33.674  1.00  0.00     0.148 A 
ATOM     92  C   UNL A   1      47.420  25.143  33.717  1.00  0.00     0.002 A 
ATOM     93  C   UNL A   1      45.249  24.732  34.653  1.00  0.00     0.091 A 
ATOM     94  F   UNL A   1      43.330  25.580  33.604  1.00  0.00    -0.205 F 
ATOM     95  C   UNL A   1      46.623  24.499  34.650  1.00  0.00     0.022 A 
BRANCH  93  96
ATOM     96  S   UNL A   1      44.291  24.104  36.038  1.00  0.00     0.127 S 
ATOM     97  O   UNL A   1      45.303  23.377  36.800  1.00  0.00    -0.237 OA
ATOM     98  O   UNL A   1      43.819  25.338  36.671  1.00  0.00    -0.237 OA
ATOM     99  O   UNL A   1      43.233  23.300  35.443  1.00  0.00    -0.744 OA
ENDBRANCH  93  96
ENDBRANCH  66  89
ENDBRANCH  40  41
ENDBRANCH  32  35
ENDBRANCH  30  31
ENDBRANCH   1  30
TORSDOF 16
ENDMDL
MODEL 3
REMARK VINA RESULT:     -12.6      3.852      9.201
REMARK SMILES Cc1ccc(-c2cc(Cl)cc3c2O[C@@H](C(F)(F)F)C(C(=O)NCCCCNC(=O)c2ccc(-c4c5nc(c(-c6cccc(S(=O)(=O)[O-])c6F)c6ccc([nH]6)c(-c6cccc(S(=O)(=O)[O-])c6F)c6nc(c(-c7cccc(S(=O)(=O)[O-])c7F)c7ccc4[nH]7)C=C6)C=C5)cc2)=C3)cc1
REMARK SMILES IDX 25 1 24 2 23 3 22 4 20 5 21 6 19 8 6 9 7 10 12 11 8 12 11 13
REMARK SMILES IDX 13 14 9 15 10 16 93 17 14 18 5 19 1 20 2 21 3 22 95 23 4 24
REMARK SMILES IDX 94 25 15 26 16 27 17 28 18 29 26 30 27 31 28 32 29 34 30 35
REMARK SMILES IDX 31 36 92 37 32 38 91 39 33 40 34 41 35 42 85 43 36 44 90 45
REMARK SMILES IDX 84 46 86 47 37 48 89 49 83 50 82 51 38 53 70 54 50 55 69 56
REMARK SMILES IDX 51 57 54 58 68 59 87 60 52 61 53 62 67 64 88 65 55 66 39 67
REMARK SMILES IDX 40 68 48 69 41 70 43 71 49 72 42 73 44 74 45 75 46 76 47 77
REMARK SMILES IDX 71 78 72 79 80 80 73 81 75 82 81 83 74 84 76 85 77 86 78 87
REMARK SMILES IDX 79 88 56 89 57 90 65 91 58 92 60 93 66 94 59 95 61 96 62 97
REMARK SMILES IDX 63 98 64 99
REMARK H PARENT 22 7 27 33 86 52 54 63
REMARK Flexibility Score: inf
ROOT
ATOM      1  C   UNL A   1      33.438  29.105  26.005  1.00  0.00     0.023 C 
ENDROOT
BRANCH   1   2
ATOM      2  C   UNL A   1      33.913  27.659  25.808  1.00  0.00     0.023 C 
BRANCH   2   3
ATOM      3  C   UNL A   1      33.556  26.843  24.546  1.00  0.00     0.116 C 
BRANCH   3   4
ATOM      4  N   UNL A   1      34.216  25.562  24.252  1.00  0.00    -0.352 N 
ATOM      5  C   UNL A   1      34.049  24.559  23.306  1.00  0.00     0.251 C 
ATOM      6  O   UNL A   1      35.041  23.875  23.039  1.00  0.00    -0.270 OA
ATOM      7  H   UNL A   1      34.953  25.370  24.875  1.00  0.00     0.163 HD
BRANCH   5   8
ATOM      8  C   UNL A   1      32.694  24.125  22.688  1.00  0.00     0.067 C 
ATOM      9  C   UNL A   1      33.498  21.064  24.957  1.00  0.00     0.026 A 
ATOM     10  C   UNL A   1      33.180  19.733  24.576  1.00  0.00     0.033 A 
ATOM     11  C   UNL A   1      32.813  22.059  24.255  1.00  0.00     0.135 A 
ATOM     12  C   UNL A   1      32.458  19.468  23.408  1.00  0.00     0.042 A 
ATOM     13  C   UNL A   1      32.540  21.798  22.893  1.00  0.00     0.019 A 
ATOM     14  O   UNL A   1      32.292  23.277  24.821  1.00  0.00    -0.475 OA
ATOM     15  Cl  UNL A   1      32.097  17.842  22.974  1.00  0.00    -0.084 Cl
ATOM     16  C   UNL A   1      32.205  20.502  22.513  1.00  0.00     0.032 A 
ATOM     17  C   UNL A   1      32.616  22.979  21.959  1.00  0.00     0.025 C 
ATOM     18  C   UNL A   1      31.621  24.021  23.727  1.00  0.00     0.314 C 
BRANCH   9  19
ATOM     19  C   UNL A   1      34.949  21.214  25.324  1.00  0.00    -0.015 A 
ATOM     20  C   UNL A   1      39.149  22.308  25.772  1.00  0.00     0.044 C 
ATOM     21  C   UNL A   1      37.702  21.913  25.665  1.00  0.00    -0.051 A 
ATOM     22  C   UNL A   1      37.320  20.709  25.051  1.00  0.00     0.004 A 
ATOM     23  C   UNL A   1      36.704  22.741  26.171  1.00  0.00     0.004 A 
ATOM     24  C   UNL A   1      35.960  20.364  24.879  1.00  0.00     0.009 A 
ATOM     25  C   UNL A   1      35.358  22.389  26.013  1.00  0.00     0.009 A 
ENDBRANCH   9  19
BRANCH  18  26
ATOM     26  C   UNL A   1      30.794  25.323  23.624  1.00  0.00     0.429 C 
ATOM     27  F   UNL A   1      29.507  24.990  23.286  1.00  0.00    -0.167 F 
ATOM     28  F   UNL A   1      30.721  26.027  24.766  1.00  0.00    -0.167 F 
ATOM     29  F   UNL A   1      31.173  26.152  22.618  1.00  0.00    -0.167 F 
ENDBRANCH  18  26
ENDBRANCH   5   8
ENDBRANCH   3   4
ENDBRANCH   2   3
ENDBRANCH   1   2
BRANCH   1  30
ATOM     30  C   UNL A   1      33.832  29.791  27.298  1.00  0.00     0.116 C 
BRANCH  30  31
ATOM     31  N   UNL A   1      34.721  30.944  27.119  1.00  0.00    -0.352 N 
ATOM     32  C   UNL A   1      35.824  31.262  27.914  1.00  0.00     0.251 C 
ATOM     33  H   UNL A   1      34.522  31.550  26.368  1.00  0.00     0.163 HD
ATOM     34  O   UNL A   1      35.985  32.424  28.265  1.00  0.00    -0.269 OA
BRANCH  32  35
ATOM     35  C   UNL A   1      36.776  30.183  28.273  1.00  0.00     0.039 A 
ATOM     36  C   UNL A   1      36.776  29.495  29.490  1.00  0.00     0.014 A 
ATOM     37  C   UNL A   1      37.826  29.982  27.397  1.00  0.00     0.014 A 
ATOM     38  C   UNL A   1      37.913  28.754  29.834  1.00  0.00     0.010 A 
ATOM     39  C   UNL A   1      38.710  28.980  27.558  1.00  0.00     0.010 A 
ATOM     40  C   UNL A   1      38.898  28.579  28.864  1.00  0.00    -0.014 A 
BRANCH  40  41
ATOM     41  C   UNL A   1      40.241  28.074  29.028  1.00  0.00     0.031 A 
ATOM     42  C   UNL A   1      40.455  26.640  28.868  1.00  0.00     0.074 A 
ATOM     43  C   UNL A   1      41.226  28.998  28.874  1.00  0.00     0.049 A 
ATOM     44  N   UNL A   1      41.528  26.029  29.216  1.00  0.00    -0.248 NA
ATOM     45  C   UNL A   1      39.434  25.771  28.296  1.00  0.00     0.031 C 
ATOM     46  C   UNL A   1      42.568  28.792  28.358  1.00  0.00     0.029 A 
ATOM     47  N   UNL A   1      41.190  30.381  29.126  1.00  0.00    -0.354 N 
ATOM     48  C   UNL A   1      41.478  24.791  28.612  1.00  0.00     0.074 A 
ATOM     49  C   UNL A   1      40.101  24.617  28.223  1.00  0.00     0.031 C 
ATOM     50  C   UNL A   1      43.297  29.897  28.602  1.00  0.00     0.029 A 
ATOM     51  C   UNL A   1      42.495  30.764  29.450  1.00  0.00     0.049 A 
ATOM     52  H   UNL A   1      40.400  30.966  29.082  1.00  0.00     0.167 HD
ATOM     53  C   UNL A   1      42.653  24.166  28.318  1.00  0.00     0.034 A 
ATOM     54  C   UNL A   1      42.846  31.170  30.709  1.00  0.00     0.034 A 
ATOM     55  C   UNL A   1      43.791  25.017  28.731  1.00  0.00     0.049 A 
ATOM     56  C   UNL A   1      43.756  30.164  31.398  1.00  0.00     0.074 A 
ATOM     57  C   UNL A   1      44.627  25.871  28.027  1.00  0.00     0.029 A 
ATOM     58  N   UNL A   1      43.959  25.340  30.075  1.00  0.00    -0.354 N 
ATOM     59  N   UNL A   1      44.085  29.007  30.891  1.00  0.00    -0.248 NA
ATOM     60  C   UNL A   1      44.371  30.373  32.705  1.00  0.00     0.031 C 
ATOM     61  C   UNL A   1      45.239  26.759  28.957  1.00  0.00     0.029 A 
ATOM     62  C   UNL A   1      44.804  26.431  30.231  1.00  0.00     0.049 A 
ATOM     63  H   UNL A   1      43.533  24.856  30.820  1.00  0.00     0.167 HD
ATOM     64  C   UNL A   1      44.808  28.272  31.788  1.00  0.00     0.074 A 
ATOM     65  C   UNL A   1      45.034  29.214  32.876  1.00  0.00     0.031 C 
ATOM     66  C   UNL A   1      45.108  26.949  31.569  1.00  0.00     0.034 A 
BRANCH  53  67
ATOM     67  C   UNL A   1      42.812  22.973  27.381  1.00  0.00     0.023 A 
ATOM     68  C   UNL A   1      42.106  21.797  27.718  1.00  0.00     0.012 A 
ATOM     69  C   UNL A   1      43.602  22.893  26.206  1.00  0.00     0.148 A 
ATOM     70  C   UNL A   1      42.233  20.602  26.999  1.00  0.00     0.002 A 
ATOM     71  C   UNL A   1      43.771  21.688  25.514  1.00  0.00     0.091 A 
ATOM     72  F   UNL A   1      44.138  23.994  25.682  1.00  0.00    -0.205 F 
ATOM     73  C   UNL A   1      43.088  20.539  25.910  1.00  0.00     0.022 A 
BRANCH  71  74
ATOM     74  S   UNL A   1      44.886  21.523  24.103  1.00  0.00     0.127 S 
ATOM     75  O   UNL A   1      46.166  21.952  24.669  1.00  0.00    -0.237 OA
ATOM     76  O   UNL A   1      44.805  20.096  23.803  1.00  0.00    -0.237 OA
ATOM     77  O   UNL A   1      44.370  22.409  23.065  1.00  0.00    -0.744 OA
ENDBRANCH  71  74
ENDBRANCH  53  67
BRANCH  54  78
ATOM     78  C   UNL A   1      41.802  32.016  31.366  1.00  0.00     0.023 A 
ATOM     79  C   UNL A   1      41.449  33.209  30.688  1.00  0.00     0.012 A 
ATOM     80  C   UNL A   1      40.885  31.450  32.269  1.00  0.00     0.148 A 
ATOM     81  C   UNL A   1      40.153  33.720  30.765  1.00  0.00     0.002 A 
ATOM     82  C   UNL A   1      39.583  31.942  32.310  1.00  0.00     0.091 A 
ATOM     83  F   UNL A   1      41.266  30.381  32.979  1.00  0.00    -0.205 F 
ATOM     84  C   UNL A   1      39.206  33.053  31.534  1.00  0.00     0.022 A 
BRANCH  82  85
ATOM     85  S   UNL A   1      38.254  31.070  33.149  1.00  0.00     0.127 S 
ATOM     86  O   UNL A   1      37.087  31.507  32.396  1.00  0.00    -0.237 OA
ATOM     87  O   UNL A   1      38.637  29.681  32.940  1.00  0.00    -0.237 OA
ATOM     88  O   UNL A   1      38.320  31.515  34.541  1.00  0.00    -0.744 OA
ENDBRANCH  82  85
ENDBRANCH  54  78
BRANCH  66  89
ATOM     89  C   UNL A   1      45.720  25.996  32.589  1.00  0.00     0.023 A 
ATOM     90  C   UNL A   1      44.962  25.042  33.291  1.00  0.00     0.012 A 
ATOM     91  C   UNL A   1      47.127  25.947  32.790  1.00  0.00     0.148 A 
ATOM     92  C   UNL A   1      45.544  24.146  34.195  1.00  0.00     0.002 A 
ATOM     93  C   UNL A   1      47.714  24.964  33.581  1.00  0.00     0.091 A 
ATOM     94  F   UNL A   1      47.921  26.880  32.244  1.00  0.00    -0.205 F 
ATOM     95  C   UNL A   1      46.922  24.088  34.321  1.00  0.00     0.022 A 
BRANCH  93  96
ATOM     96  S   UNL A   1      49.490  24.679  33.557  1.00  0.00     0.127 S 
ATOM     97  O   UNL A   1      49.598  23.393  34.239  1.00  0.00    -0.237 OA
ATOM     98  O   UNL A   1      49.775  24.635  32.121  1.00  0.00    -0.237 OA
ATOM     99  O   UNL A   1      50.073  25.823  34.244  1.00  0.00    -0.744 OA
ENDBRANCH  93  96
ENDBRANCH  66  89
ENDBRANCH  40  41
ENDBRANCH  32  35
ENDBRANCH  30  31
ENDBRANCH   1  30
TORSDOF 16
ENDMDL
