MODEL 1
REMARK VINA RESULT:     -11.9      0.000      0.000
REMARK SMILES O=C(NCCCCNC(=O)c1ccc(C[NH+]2CC[NH2+]CC2)c(Br)c1)c1ccc(-c2c3nc(c(-c4cccc(S(=O)(=O)[O-])c4F)c4ccc([nH]4)c(-c4cccc(S(=O)(=O)[O-])c4F)c4nc(c(-c5cccc(S(=O)(=O)[O-])c5F)c5ccc2[nH]5)C=C4)C=C3)cc1
REMARK SMILES IDX 5 1 4 2 3 3 1 4 2 5 25 7 26 8 87 9 27 10 86 11 28 12 29 13
REMARK SMILES IDX 30 14 80 15 31 16 85 17 79 18 81 19 32 20 84 21 78 22 77 23
REMARK SMILES IDX 33 25 65 26 45 27 64 28 46 29 49 30 63 31 82 32 47 33 48 34
REMARK SMILES IDX 62 36 83 37 50 38 34 39 35 40 43 41 36 42 38 43 44 44 37 45
REMARK SMILES IDX 39 46 40 47 41 48 42 49 66 50 67 51 75 52 68 53 70 54 76 55
REMARK SMILES IDX 69 56 71 57 72 58 73 59 74 60 51 61 52 62 60 63 53 64 55 65
REMARK SMILES IDX 61 66 54 67 56 68 57 69 58 70 59 71 6 72 7 73 8 74 9 75
REMARK SMILES IDX 10 77 11 78 12 79 24 80 13 81 22 82 14 83 23 84 15 85 16 86
REMARK SMILES IDX 17 87 21 88 18 90 20 91 19 92
REMARK H PARENT 3 6 81 24 49 35 8 76 16 89 19 93 19 94
REMARK Flexibility Score: inf
ROOT
ATOM      1  C   UNL A   1      35.643  23.066  24.095  1.00  0.00     0.023 C 
ENDROOT
BRANCH   1   2
ATOM      2  C   UNL A   1      35.924  22.514  25.488  1.00  0.00     0.116 C 
BRANCH   2   3
ATOM      3  N   UNL A   1      36.865  21.406  25.484  1.00  0.00    -0.352 N 
ATOM      4  O   UNL A   1      38.872  20.389  25.558  1.00  0.00    -0.269 OA
ATOM      5  C   UNL A   1      38.216  21.409  25.747  1.00  0.00     0.251 C 
ATOM      6  H   UNL A   1      36.481  20.527  25.260  1.00  0.00     0.163 HD
BRANCH   5   7
ATOM      7  C   UNL A   1      38.880  22.647  26.222  1.00  0.00     0.039 A 
ATOM      8  C   UNL A   1      38.473  23.902  25.765  1.00  0.00     0.014 A 
ATOM      9  C   UNL A   1      39.925  22.547  27.145  1.00  0.00     0.014 A 
ATOM     10  C   UNL A   1      39.203  25.036  26.110  1.00  0.00     0.010 A 
ATOM     11  C   UNL A   1      40.606  23.698  27.556  1.00  0.00     0.010 A 
ATOM     12  C   UNL A   1      40.276  24.949  27.015  1.00  0.00    -0.014 A 
BRANCH  12  13
ATOM     13  C   UNL A   1      40.990  26.188  27.425  1.00  0.00     0.031 A 
ATOM     14  C   UNL A   1      42.415  26.445  27.017  1.00  0.00     0.074 A 
ATOM     15  C   UNL A   1      40.334  27.093  28.179  1.00  0.00     0.049 A 
ATOM     16  N   UNL A   1      43.165  27.488  27.265  1.00  0.00    -0.248 NA
ATOM     17  C   UNL A   1      43.092  25.397  26.235  1.00  0.00     0.031 C 
ATOM     18  C   UNL A   1      38.967  26.934  28.680  1.00  0.00     0.029 A 
ATOM     19  N   UNL A   1      40.723  28.318  28.658  1.00  0.00    -0.354 N 
ATOM     20  C   UNL A   1      44.408  27.212  26.708  1.00  0.00     0.074 A 
ATOM     21  C   UNL A   1      44.315  25.896  26.112  1.00  0.00     0.031 C 
ATOM     22  C   UNL A   1      38.624  28.028  29.376  1.00  0.00     0.029 A 
ATOM     23  C   UNL A   1      39.758  28.945  29.410  1.00  0.00     0.049 A 
ATOM     24  H   UNL A   1      41.609  28.709  28.480  1.00  0.00     0.167 HD
ATOM     25  C   UNL A   1      45.516  27.991  26.677  1.00  0.00     0.034 A 
ATOM     26  C   UNL A   1      39.782  30.120  30.067  1.00  0.00     0.034 A 
ATOM     27  C   UNL A   1      45.592  29.316  27.234  1.00  0.00     0.049 A 
ATOM     28  C   UNL A   1      41.015  30.973  29.990  1.00  0.00     0.074 A 
ATOM     29  C   UNL A   1      46.649  30.209  27.189  1.00  0.00     0.029 A 
ATOM     30  N   UNL A   1      44.577  29.938  27.946  1.00  0.00    -0.354 N 
ATOM     31  N   UNL A   1      42.130  30.752  29.338  1.00  0.00    -0.248 NA
ATOM     32  C   UNL A   1      40.985  32.250  30.718  1.00  0.00     0.031 C 
ATOM     33  C   UNL A   1      46.280  31.363  27.888  1.00  0.00     0.029 A 
ATOM     34  C   UNL A   1      44.986  31.197  28.354  1.00  0.00     0.049 A 
ATOM     35  H   UNL A   1      43.695  29.542  28.133  1.00  0.00     0.167 HD
ATOM     36  C   UNL A   1      42.925  31.870  29.555  1.00  0.00     0.074 A 
ATOM     37  C   UNL A   1      42.152  32.780  30.377  1.00  0.00     0.031 C 
ATOM     38  C   UNL A   1      44.190  32.112  29.130  1.00  0.00     0.034 A 
BRANCH  25  39
ATOM     39  C   UNL A   1      46.737  27.453  25.972  1.00  0.00     0.023 A 
ATOM     40  C   UNL A   1      46.892  27.675  24.590  1.00  0.00     0.012 A 
ATOM     41  C   UNL A   1      47.763  26.804  26.687  1.00  0.00     0.148 A 
ATOM     42  C   UNL A   1      48.036  27.237  23.924  1.00  0.00     0.002 A 
ATOM     43  C   UNL A   1      48.917  26.403  26.024  1.00  0.00     0.091 A 
ATOM     44  F   UNL A   1      47.589  26.583  27.998  1.00  0.00    -0.205 F 
ATOM     45  C   UNL A   1      49.052  26.611  24.641  1.00  0.00     0.022 A 
BRANCH  43  46
ATOM     46  S   UNL A   1      50.313  25.656  26.875  1.00  0.00     0.127 S 
ATOM     47  O   UNL A   1      51.246  25.433  25.770  1.00  0.00    -0.237 OA
ATOM     48  O   UNL A   1      50.713  26.713  27.805  1.00  0.00    -0.237 OA
ATOM     49  O   UNL A   1      49.795  24.454  27.512  1.00  0.00    -0.744 OA
ENDBRANCH  43  46
ENDBRANCH  25  39
BRANCH  26  50
ATOM     50  C   UNL A   1      38.571  30.574  30.807  1.00  0.00     0.023 A 
ATOM     51  C   UNL A   1      38.491  30.367  32.196  1.00  0.00     0.012 A 
ATOM     52  C   UNL A   1      37.530  31.259  30.152  1.00  0.00     0.148 A 
ATOM     53  C   UNL A   1      37.384  30.816  32.918  1.00  0.00     0.002 A 
ATOM     54  C   UNL A   1      36.459  31.755  30.885  1.00  0.00     0.091 A 
ATOM     55  F   UNL A   1      37.615  31.429  28.825  1.00  0.00    -0.205 F 
ATOM     56  C   UNL A   1      36.377  31.521  32.266  1.00  0.00     0.022 A 
BRANCH  54  57
ATOM     57  S   UNL A   1      35.197  32.799  30.146  1.00  0.00     0.127 S 
ATOM     58  O   UNL A   1      34.330  33.073  31.288  1.00  0.00    -0.237 OA
ATOM     59  O   UNL A   1      35.982  33.942  29.679  1.00  0.00    -0.237 OA
ATOM     60  O   UNL A   1      34.612  32.001  29.077  1.00  0.00    -0.744 OA
ENDBRANCH  54  57
ENDBRANCH  26  50
BRANCH  38  61
ATOM     61  C   UNL A   1      44.816  33.421  29.532  1.00  0.00     0.023 A 
ATOM     62  C   UNL A   1      45.591  33.490  30.707  1.00  0.00     0.012 A 
ATOM     63  C   UNL A   1      44.692  34.564  28.718  1.00  0.00     0.148 A 
ATOM     64  C   UNL A   1      46.206  34.683  31.082  1.00  0.00     0.002 A 
ATOM     65  C   UNL A   1      45.344  35.739  29.074  1.00  0.00     0.091 A 
ATOM     66  F   UNL A   1      43.931  34.486  27.615  1.00  0.00    -0.205 F 
ATOM     67  C   UNL A   1      46.093  35.803  30.260  1.00  0.00     0.022 A 
BRANCH  65  68
ATOM     68  S   UNL A   1      45.324  37.201  28.032  1.00  0.00     0.127 S 
ATOM     69  O   UNL A   1      46.148  38.129  28.803  1.00  0.00    -0.237 OA
ATOM     70  O   UNL A   1      45.944  36.716  26.798  1.00  0.00    -0.237 OA
ATOM     71  O   UNL A   1      43.922  37.572  27.894  1.00  0.00    -0.744 OA
ENDBRANCH  65  68
ENDBRANCH  38  61
ENDBRANCH  12  13
ENDBRANCH   5   7
ENDBRANCH   2   3
ENDBRANCH   1   2
BRANCH   1  72
ATOM     72  C   UNL A   1      34.166  23.210  23.732  1.00  0.00     0.023 C 
BRANCH  72  73
ATOM     73  C   UNL A   1      33.429  24.354  24.425  1.00  0.00     0.116 C 
BRANCH  73  74
ATOM     74  N   UNL A   1      32.673  23.923  25.593  1.00  0.00    -0.352 N 
ATOM     75  C   UNL A   1      31.617  24.547  26.218  1.00  0.00     0.251 C 
ATOM     76  H   UNL A   1      32.955  23.068  25.990  1.00  0.00     0.163 HD
ATOM     77  O   UNL A   1      31.133  24.113  27.251  1.00  0.00    -0.269 OA
BRANCH  75  78
ATOM     78  C   UNL A   1      31.094  25.791  25.630  1.00  0.00     0.040 A 
ATOM     79  C   UNL A   1      30.043  25.747  24.717  1.00  0.00     0.014 A 
ATOM     80  C   UNL A   1      31.718  26.995  25.948  1.00  0.00     0.030 A 
ATOM     81  C   UNL A   1      29.719  26.899  24.003  1.00  0.00     0.011 A 
ATOM     82  C   UNL A   1      31.386  28.147  25.233  1.00  0.00     0.027 A 
ATOM     83  C   UNL A   1      30.448  28.092  24.183  1.00  0.00     0.020 A 
ATOM     84  Br  UNL A   1      32.284  29.743  25.742  1.00  0.00    -0.050 Br
BRANCH  83  85
ATOM     85  C   UNL A   1      30.227  29.214  23.191  1.00  0.00     0.300 C 
BRANCH  85  86
ATOM     86  N   UNL A   1      28.907  29.866  23.195  1.00  0.00    -0.322 N 
ATOM     87  C   UNL A   1      28.871  31.249  23.688  1.00  0.00     0.324 C 
ATOM     88  C   UNL A   1      28.086  29.701  21.987  1.00  0.00     0.324 C 
ATOM     89  H   UNL A   1      28.448  29.302  23.910  1.00  0.00     0.348 HD
ATOM     90  C   UNL A   1      29.008  32.345  22.607  1.00  0.00     0.322 C 
ATOM     91  C   UNL A   1      28.153  30.843  20.942  1.00  0.00     0.322 C 
ATOM     92  N   UNL A   1      28.035  32.193  21.513  1.00  0.00    -0.337 N 
ATOM     93  H   UNL A   1      28.224  32.887  20.790  1.00  0.00     0.346 HD
ATOM     94  H   UNL A   1      27.091  32.331  21.874  1.00  0.00     0.346 HD
ENDBRANCH  85  86
ENDBRANCH  83  85
ENDBRANCH  75  78
ENDBRANCH  73  74
ENDBRANCH  72  73
ENDBRANCH   1  72
TORSDOF 16
ENDMDL
MODEL 2
REMARK VINA RESULT:     -11.9      4.737      9.604
REMARK SMILES O=C(NCCCCNC(=O)c1ccc(C[NH+]2CC[NH2+]CC2)c(Br)c1)c1ccc(-c2c3nc(c(-c4cccc(S(=O)(=O)[O-])c4F)c4ccc([nH]4)c(-c4cccc(S(=O)(=O)[O-])c4F)c4nc(c(-c5cccc(S(=O)(=O)[O-])c5F)c5ccc2[nH]5)C=C4)C=C3)cc1
REMARK SMILES IDX 5 1 4 2 3 3 1 4 2 5 25 7 26 8 87 9 27 10 86 11 28 12 29 13
REMARK SMILES IDX 30 14 80 15 31 16 85 17 79 18 81 19 32 20 84 21 78 22 77 23
REMARK SMILES IDX 33 25 65 26 45 27 64 28 46 29 49 30 63 31 82 32 47 33 48 34
REMARK SMILES IDX 62 36 83 37 50 38 34 39 35 40 43 41 36 42 38 43 44 44 37 45
REMARK SMILES IDX 39 46 40 47 41 48 42 49 66 50 67 51 75 52 68 53 70 54 76 55
REMARK SMILES IDX 69 56 71 57 72 58 73 59 74 60 51 61 52 62 60 63 53 64 55 65
REMARK SMILES IDX 61 66 54 67 56 68 57 69 58 70 59 71 6 72 7 73 8 74 9 75
REMARK SMILES IDX 10 77 11 78 12 79 24 80 13 81 22 82 14 83 23 84 15 85 16 86
REMARK SMILES IDX 17 87 21 88 18 90 20 91 19 92
REMARK H PARENT 3 6 81 24 49 35 8 76 16 89 19 93 19 94
REMARK Flexibility Score: inf
ROOT
ATOM      1  C   UNL A   1      33.622  28.175  25.306  1.00  0.00     0.023 C 
ENDROOT
BRANCH   1   2
ATOM      2  C   UNL A   1      34.060  28.465  26.737  1.00  0.00     0.116 C 
BRANCH   2   3
ATOM      3  N   UNL A   1      33.756  29.822  27.163  1.00  0.00    -0.352 N 
ATOM      4  O   UNL A   1      33.999  31.734  28.326  1.00  0.00    -0.269 OA
ATOM      5  C   UNL A   1      34.488  30.668  27.964  1.00  0.00     0.251 C 
ATOM      6  H   UNL A   1      32.905  30.187  26.830  1.00  0.00     0.163 HD
BRANCH   5   7
ATOM      7  C   UNL A   1      35.845  30.278  28.417  1.00  0.00     0.039 A 
ATOM      8  C   UNL A   1      36.976  30.603  27.665  1.00  0.00     0.014 A 
ATOM      9  C   UNL A   1      35.987  29.577  29.619  1.00  0.00     0.014 A 
ATOM     10  C   UNL A   1      38.222  30.102  28.032  1.00  0.00     0.010 A 
ATOM     11  C   UNL A   1      37.253  29.145  30.029  1.00  0.00     0.010 A 
ATOM     12  C   UNL A   1      38.377  29.370  29.222  1.00  0.00    -0.014 A 
BRANCH  12  13
ATOM     13  C   UNL A   1      39.732  28.912  29.629  1.00  0.00     0.031 A 
ATOM     14  C   UNL A   1      40.493  29.594  30.733  1.00  0.00     0.074 A 
ATOM     15  C   UNL A   1      40.278  27.860  28.987  1.00  0.00     0.049 A 
ATOM     16  N   UNL A   1      41.667  29.295  31.227  1.00  0.00    -0.248 NA
ATOM     17  C   UNL A   1      39.863  30.766  31.362  1.00  0.00     0.031 C 
ATOM     18  C   UNL A   1      39.661  27.147  27.867  1.00  0.00     0.029 A 
ATOM     19  N   UNL A   1      41.472  27.210  29.177  1.00  0.00    -0.354 N 
ATOM     20  C   UNL A   1      41.936  30.257  32.194  1.00  0.00     0.074 A 
ATOM     21  C   UNL A   1      40.803  31.158  32.213  1.00  0.00     0.031 C 
ATOM     22  C   UNL A   1      40.467  26.147  27.483  1.00  0.00     0.029 A 
ATOM     23  C   UNL A   1      41.677  26.173  28.297  1.00  0.00     0.049 A 
ATOM     24  H   UNL A   1      42.118  27.463  29.875  1.00  0.00     0.167 HD
ATOM     25  C   UNL A   1      43.016  30.368  33.004  1.00  0.00     0.034 A 
ATOM     26  C   UNL A   1      42.726  25.342  28.150  1.00  0.00     0.034 A 
ATOM     27  C   UNL A   1      44.123  29.446  33.010  1.00  0.00     0.049 A 
ATOM     28  C   UNL A   1      43.896  25.472  29.082  1.00  0.00     0.074 A 
ATOM     29  C   UNL A   1      45.228  29.436  33.844  1.00  0.00     0.029 A 
ATOM     30  N   UNL A   1      44.273  28.379  32.139  1.00  0.00    -0.354 N 
ATOM     31  N   UNL A   1      44.064  26.301  30.082  1.00  0.00    -0.248 NA
ATOM     32  C   UNL A   1      45.010  24.533  28.883  1.00  0.00     0.031 C 
ATOM     33  C   UNL A   1      46.055  28.372  33.466  1.00  0.00     0.029 A 
ATOM     34  C   UNL A   1      45.456  27.709  32.407  1.00  0.00     0.049 A 
ATOM     35  H   UNL A   1      43.632  28.132  31.433  1.00  0.00     0.167 HD
ATOM     36  C   UNL A   1      45.290  25.972  30.647  1.00  0.00     0.074 A 
ATOM     37  C   UNL A   1      45.808  24.847  29.895  1.00  0.00     0.031 C 
ATOM     38  C   UNL A   1      45.937  26.561  31.682  1.00  0.00     0.034 A 
BRANCH  25  39
ATOM     39  C   UNL A   1      43.041  31.503  33.997  1.00  0.00     0.023 A 
ATOM     40  C   UNL A   1      43.615  32.735  33.625  1.00  0.00     0.012 A 
ATOM     41  C   UNL A   1      42.429  31.379  35.260  1.00  0.00     0.148 A 
ATOM     42  C   UNL A   1      43.604  33.818  34.503  1.00  0.00     0.002 A 
ATOM     43  C   UNL A   1      42.389  32.474  36.116  1.00  0.00     0.091 A 
ATOM     44  F   UNL A   1      41.907  30.194  35.605  1.00  0.00    -0.205 F 
ATOM     45  C   UNL A   1      42.982  33.692  35.742  1.00  0.00     0.022 A 
BRANCH  43  46
ATOM     46  S   UNL A   1      41.546  32.432  37.702  1.00  0.00     0.127 S 
ATOM     47  O   UNL A   1      41.610  33.837  38.107  1.00  0.00    -0.237 OA
ATOM     48  O   UNL A   1      40.209  31.966  37.333  1.00  0.00    -0.237 OA
ATOM     49  O   UNL A   1      42.302  31.505  38.532  1.00  0.00    -0.744 OA
ENDBRANCH  43  46
ENDBRANCH  25  39
BRANCH  26  50
ATOM     50  C   UNL A   1      42.681  24.279  27.107  1.00  0.00     0.023 A 
ATOM     51  C   UNL A   1      43.334  24.488  25.878  1.00  0.00     0.012 A 
ATOM     52  C   UNL A   1      42.046  23.046  27.349  1.00  0.00     0.148 A 
ATOM     53  C   UNL A   1      43.338  23.493  24.899  1.00  0.00     0.002 A 
ATOM     54  C   UNL A   1      42.104  22.038  26.393  1.00  0.00     0.091 A 
ATOM     55  F   UNL A   1      41.413  22.873  28.518  1.00  0.00    -0.205 F 
ATOM     56  C   UNL A   1      42.737  22.266  25.161  1.00  0.00     0.022 A 
BRANCH  54  57
ATOM     57  S   UNL A   1      41.485  20.383  26.712  1.00  0.00     0.127 S 
ATOM     58  O   UNL A   1      40.056  20.626  26.881  1.00  0.00    -0.237 OA
ATOM     59  O   UNL A   1      41.850  19.677  25.483  1.00  0.00    -0.237 OA
ATOM     60  O   UNL A   1      42.199  19.923  27.896  1.00  0.00    -0.744 OA
ENDBRANCH  54  57
ENDBRANCH  26  50
BRANCH  38  61
ATOM     61  C   UNL A   1      47.274  25.992  32.076  1.00  0.00     0.023 A 
ATOM     62  C   UNL A   1      48.431  26.383  31.373  1.00  0.00     0.012 A 
ATOM     63  C   UNL A   1      47.395  25.124  33.179  1.00  0.00     0.148 A 
ATOM     64  C   UNL A   1      49.683  25.893  31.740  1.00  0.00     0.002 A 
ATOM     65  C   UNL A   1      48.652  24.675  33.568  1.00  0.00     0.091 A 
ATOM     66  F   UNL A   1      46.280  24.746  33.823  1.00  0.00    -0.205 F 
ATOM     67  C   UNL A   1      49.796  25.050  32.844  1.00  0.00     0.022 A 
BRANCH  65  68
ATOM     68  S   UNL A   1      48.898  23.657  35.027  1.00  0.00     0.127 S 
ATOM     69  O   UNL A   1      48.208  22.425  34.652  1.00  0.00    -0.237 OA
ATOM     70  O   UNL A   1      50.357  23.546  35.089  1.00  0.00    -0.237 OA
ATOM     71  O   UNL A   1      48.306  24.398  36.133  1.00  0.00    -0.744 OA
ENDBRANCH  65  68
ENDBRANCH  38  61
ENDBRANCH  12  13
ENDBRANCH   5   7
ENDBRANCH   2   3
ENDBRANCH   1   2
BRANCH   1  72
ATOM     72  C   UNL A   1      33.000  29.353  24.559  1.00  0.00     0.023 C 
BRANCH  72  73
ATOM     73  C   UNL A   1      31.495  29.533  24.756  1.00  0.00     0.116 C 
BRANCH  73  74
ATOM     74  N   UNL A   1      30.793  29.860  23.522  1.00  0.00    -0.352 N 
ATOM     75  C   UNL A   1      30.248  29.010  22.586  1.00  0.00     0.251 C 
ATOM     76  H   UNL A   1      30.693  30.820  23.331  1.00  0.00     0.163 HD
ATOM     77  O   UNL A   1      29.764  29.423  21.545  1.00  0.00    -0.269 OA
BRANCH  75  78
ATOM     78  C   UNL A   1      30.294  27.562  22.848  1.00  0.00     0.040 A 
ATOM     79  C   UNL A   1      29.334  26.966  23.663  1.00  0.00     0.014 A 
ATOM     80  C   UNL A   1      31.353  26.822  22.329  1.00  0.00     0.030 A 
ATOM     81  C   UNL A   1      29.525  25.652  24.083  1.00  0.00     0.011 A 
ATOM     82  C   UNL A   1      31.536  25.503  22.749  1.00  0.00     0.027 A 
ATOM     83  C   UNL A   1      30.677  24.932  23.708  1.00  0.00     0.020 A 
ATOM     84  Br  UNL A   1      33.003  24.570  21.980  1.00  0.00    -0.050 Br
BRANCH  83  85
ATOM     85  C   UNL A   1      30.955  23.621  24.414  1.00  0.00     0.300 C 
BRANCH  85  86
ATOM     86  N   UNL A   1      31.529  23.694  25.768  1.00  0.00    -0.322 N 
ATOM     87  C   UNL A   1      31.921  22.415  26.373  1.00  0.00     0.324 C 
ATOM     88  C   UNL A   1      32.539  24.735  26.001  1.00  0.00     0.324 C 
ATOM     89  H   UNL A   1      30.702  24.004  26.280  1.00  0.00     0.348 HD
ATOM     90  C   UNL A   1      33.396  22.003  26.161  1.00  0.00     0.322 C 
ATOM     91  C   UNL A   1      34.022  24.302  25.877  1.00  0.00     0.322 C 
ATOM     92  N   UNL A   1      34.346  23.049  26.575  1.00  0.00    -0.337 N 
ATOM     93  H   UNL A   1      35.294  22.761  26.336  1.00  0.00     0.346 HD
ATOM     94  H   UNL A   1      34.280  23.191  27.583  1.00  0.00     0.346 HD
ENDBRANCH  85  86
ENDBRANCH  83  85
ENDBRANCH  75  78
ENDBRANCH  73  74
ENDBRANCH  72  73
ENDBRANCH   1  72
TORSDOF 16
ENDMDL
MODEL 3
REMARK VINA RESULT:     -11.8      5.478     10.573
REMARK SMILES O=C(NCCCCNC(=O)c1ccc(C[NH+]2CC[NH2+]CC2)c(Br)c1)c1ccc(-c2c3nc(c(-c4cccc(S(=O)(=O)[O-])c4F)c4ccc([nH]4)c(-c4cccc(S(=O)(=O)[O-])c4F)c4nc(c(-c5cccc(S(=O)(=O)[O-])c5F)c5ccc2[nH]5)C=C4)C=C3)cc1
REMARK SMILES IDX 5 1 4 2 3 3 1 4 2 5 25 7 26 8 87 9 27 10 86 11 28 12 29 13
REMARK SMILES IDX 30 14 80 15 31 16 85 17 79 18 81 19 32 20 84 21 78 22 77 23
REMARK SMILES IDX 33 25 65 26 45 27 64 28 46 29 49 30 63 31 82 32 47 33 48 34
REMARK SMILES IDX 62 36 83 37 50 38 34 39 35 40 43 41 36 42 38 43 44 44 37 45
REMARK SMILES IDX 39 46 40 47 41 48 42 49 66 50 67 51 75 52 68 53 70 54 76 55
REMARK SMILES IDX 69 56 71 57 72 58 73 59 74 60 51 61 52 62 60 63 53 64 55 65
REMARK SMILES IDX 61 66 54 67 56 68 57 69 58 70 59 71 6 72 7 73 8 74 9 75
REMARK SMILES IDX 10 77 11 78 12 79 24 80 13 81 22 82 14 83 23 84 15 85 16 86
REMARK SMILES IDX 17 87 21 88 18 90 20 91 19 92
REMARK H PARENT 3 6 81 24 49 35 8 76 16 89 19 93 19 94
REMARK Flexibility Score: inf
ROOT
ATOM      1  C   UNL A   1      32.526  27.980  26.013  1.00  0.00     0.023 C 
ENDROOT
BRANCH   1   2
ATOM      2  C   UNL A   1      33.328  29.158  25.471  1.00  0.00     0.116 C 
BRANCH   2   3
ATOM      3  N   UNL A   1      32.791  30.448  25.875  1.00  0.00    -0.352 N 
ATOM      4  O   UNL A   1      32.534  32.276  27.163  1.00  0.00    -0.269 OA
ATOM      5  C   UNL A   1      33.203  31.285  26.886  1.00  0.00     0.251 C 
ATOM      6  H   UNL A   1      32.022  30.767  25.350  1.00  0.00     0.163 HD
BRANCH   5   7
ATOM      7  C   UNL A   1      34.430  30.973  27.659  1.00  0.00     0.039 A 
ATOM      8  C   UNL A   1      35.479  31.890  27.746  1.00  0.00     0.014 A 
ATOM      9  C   UNL A   1      34.528  29.740  28.311  1.00  0.00     0.014 A 
ATOM     10  C   UNL A   1      36.677  31.520  28.351  1.00  0.00     0.010 A 
ATOM     11  C   UNL A   1      35.703  29.401  28.991  1.00  0.00     0.010 A 
ATOM     12  C   UNL A   1      36.802  30.272  28.986  1.00  0.00    -0.014 A 
BRANCH  12  13
ATOM     13  C   UNL A   1      38.067  29.933  29.691  1.00  0.00     0.031 A 
ATOM     14  C   UNL A   1      38.372  30.475  31.061  1.00  0.00     0.074 A 
ATOM     15  C   UNL A   1      38.950  29.120  29.079  1.00  0.00     0.049 A 
ATOM     16  N   UNL A   1      39.413  30.247  31.821  1.00  0.00    -0.248 NA
ATOM     17  C   UNL A   1      37.390  31.396  31.656  1.00  0.00     0.031 C 
ATOM     18  C   UNL A   1      38.791  28.571  27.730  1.00  0.00     0.029 A 
ATOM     19  N   UNL A   1      40.154  28.616  29.502  1.00  0.00    -0.354 N 
ATOM     20  C   UNL A   1      39.235  31.020  32.963  1.00  0.00     0.074 A 
ATOM     21  C   UNL A   1      37.985  31.732  32.794  1.00  0.00     0.031 C 
ATOM     22  C   UNL A   1      39.844  27.791  27.445  1.00  0.00     0.029 A 
ATOM     23  C   UNL A   1      40.774  27.818  28.568  1.00  0.00     0.049 A 
ATOM     24  H   UNL A   1      40.538  28.808  30.388  1.00  0.00     0.167 HD
ATOM     25  C   UNL A   1      40.026  31.112  34.058  1.00  0.00     0.034 A 
ATOM     26  C   UNL A   1      41.962  27.187  28.603  1.00  0.00     0.034 A 
ATOM     27  C   UNL A   1      41.248  30.371  34.240  1.00  0.00     0.049 A 
ATOM     28  C   UNL A   1      42.805  27.286  29.842  1.00  0.00     0.074 A 
ATOM     29  C   UNL A   1      42.080  30.344  35.346  1.00  0.00     0.029 A 
ATOM     30  N   UNL A   1      41.818  29.534  33.293  1.00  0.00    -0.354 N 
ATOM     31  N   UNL A   1      42.548  27.910  30.965  1.00  0.00    -0.248 NA
ATOM     32  C   UNL A   1      44.089  26.571  29.830  1.00  0.00     0.031 C 
ATOM     33  C   UNL A   1      43.163  29.504  35.062  1.00  0.00     0.029 A 
ATOM     34  C   UNL A   1      42.996  28.994  33.785  1.00  0.00     0.049 A 
ATOM     35  H   UNL A   1      41.440  29.349  32.403  1.00  0.00     0.167 HD
ATOM     36  C   UNL A   1      43.624  27.645  31.802  1.00  0.00     0.074 A 
ATOM     37  C   UNL A   1      44.523  26.780  31.066  1.00  0.00     0.031 C 
ATOM     38  C   UNL A   1      43.857  28.095  33.060  1.00  0.00     0.034 A 
BRANCH  25  39
ATOM     39  C   UNL A   1      39.577  32.014  35.180  1.00  0.00     0.023 A 
ATOM     40  C   UNL A   1      39.834  33.397  35.102  1.00  0.00     0.012 A 
ATOM     41  C   UNL A   1      38.836  31.510  36.267  1.00  0.00     0.148 A 
ATOM     42  C   UNL A   1      39.383  34.261  36.099  1.00  0.00     0.002 A 
ATOM     43  C   UNL A   1      38.357  32.382  37.239  1.00  0.00     0.091 A 
ATOM     44  F   UNL A   1      38.619  30.188  36.336  1.00  0.00    -0.205 F 
ATOM     45  C   UNL A   1      38.636  33.757  37.160  1.00  0.00     0.022 A 
BRANCH  43  46
ATOM     46  S   UNL A   1      37.323  31.838  38.604  1.00  0.00     0.127 S 
ATOM     47  O   UNL A   1      38.205  32.064  39.749  1.00  0.00    -0.237 OA
ATOM     48  O   UNL A   1      36.187  32.757  38.521  1.00  0.00    -0.237 OA
ATOM     49  O   UNL A   1      36.997  30.446  38.328  1.00  0.00    -0.744 OA
ENDBRANCH  43  46
ENDBRANCH  25  39
BRANCH  26  50
ATOM     50  C   UNL A   1      42.392  26.363  27.439  1.00  0.00     0.023 A 
ATOM     51  C   UNL A   1      43.221  26.934  26.456  1.00  0.00     0.012 A 
ATOM     52  C   UNL A   1      42.031  25.006  27.332  1.00  0.00     0.148 A 
ATOM     53  C   UNL A   1      43.667  26.172  25.374  1.00  0.00     0.002 A 
ATOM     54  C   UNL A   1      42.526  24.239  26.285  1.00  0.00     0.091 A 
ATOM     55  F   UNL A   1      41.225  24.486  28.268  1.00  0.00    -0.205 F 
ATOM     56  C   UNL A   1      43.333  24.824  25.297  1.00  0.00     0.022 A 
BRANCH  54  57
ATOM     57  S   UNL A   1      42.264  22.464  26.195  1.00  0.00     0.127 S 
ATOM     58  O   UNL A   1      40.813  22.383  26.052  1.00  0.00    -0.237 OA
ATOM     59  O   UNL A   1      43.023  22.102  24.998  1.00  0.00    -0.237 OA
ATOM     60  O   UNL A   1      42.813  21.927  27.433  1.00  0.00    -0.744 OA
ENDBRANCH  54  57
ENDBRANCH  26  50
BRANCH  38  61
ATOM     61  C   UNL A   1      45.129  27.649  33.730  1.00  0.00     0.023 A 
ATOM     62  C   UNL A   1      46.293  28.435  33.608  1.00  0.00     0.012 A 
ATOM     63  C   UNL A   1      45.158  26.491  34.532  1.00  0.00     0.148 A 
ATOM     64  C   UNL A   1      47.473  28.057  34.246  1.00  0.00     0.002 A 
ATOM     65  C   UNL A   1      46.325  26.144  35.201  1.00  0.00     0.091 A 
ATOM     66  F   UNL A   1      44.046  25.744  34.618  1.00  0.00    -0.205 F 
ATOM     67  C   UNL A   1      47.487  26.919  35.051  1.00  0.00     0.022 A 
BRANCH  65  68
ATOM     68  S   UNL A   1      46.408  24.746  36.325  1.00  0.00     0.127 S 
ATOM     69  O   UNL A   1      45.383  25.091  37.308  1.00  0.00    -0.237 OA
ATOM     70  O   UNL A   1      46.064  23.621  35.453  1.00  0.00    -0.237 OA
ATOM     71  O   UNL A   1      47.776  24.720  36.827  1.00  0.00    -0.744 OA
ENDBRANCH  65  68
ENDBRANCH  38  61
ENDBRANCH  12  13
ENDBRANCH   5   7
ENDBRANCH   2   3
ENDBRANCH   1   2
BRANCH   1  72
ATOM     72  C   UNL A   1      33.220  26.622  25.932  1.00  0.00     0.023 C 
BRANCH  72  73
ATOM     73  C   UNL A   1      32.572  25.610  24.988  1.00  0.00     0.116 C 
BRANCH  73  74
ATOM     74  N   UNL A   1      32.913  25.834  23.589  1.00  0.00    -0.352 N 
ATOM     75  C   UNL A   1      33.406  24.940  22.666  1.00  0.00     0.251 C 
ATOM     76  H   UNL A   1      32.770  26.749  23.258  1.00  0.00     0.163 HD
ATOM     77  O   UNL A   1      33.735  25.289  21.544  1.00  0.00    -0.269 OA
BRANCH  75  78
ATOM     78  C   UNL A   1      33.571  23.535  23.074  1.00  0.00     0.040 A 
ATOM     79  C   UNL A   1      32.554  22.613  22.838  1.00  0.00     0.014 A 
ATOM     80  C   UNL A   1      34.725  23.169  23.761  1.00  0.00     0.030 A 
ATOM     81  C   UNL A   1      32.630  21.355  23.431  1.00  0.00     0.011 A 
ATOM     82  C   UNL A   1      34.799  21.905  24.349  1.00  0.00     0.027 A 
ATOM     83  C   UNL A   1      33.709  21.015  24.272  1.00  0.00     0.020 A 
ATOM     84  Br  UNL A   1      36.415  21.492  25.260  1.00  0.00    -0.050 Br
BRANCH  83  85
ATOM     85  C   UNL A   1      33.595  19.749  25.095  1.00  0.00     0.300 C 
BRANCH  85  86
ATOM     86  N   UNL A   1      33.304  18.500  24.372  1.00  0.00    -0.322 N 
ATOM     87  C   UNL A   1      34.468  17.716  23.943  1.00  0.00     0.324 C 
ATOM     88  C   UNL A   1      32.251  17.643  24.935  1.00  0.00     0.324 C 
ATOM     89  H   UNL A   1      32.901  18.894  23.521  1.00  0.00     0.348 HD
ATOM     90  C   UNL A   1      34.929  16.616  24.925  1.00  0.00     0.322 C 
ATOM     91  C   UNL A   1      32.718  16.482  25.849  1.00  0.00     0.322 C 
ATOM     92  N   UNL A   1      33.841  15.701  25.309  1.00  0.00    -0.337 N 
ATOM     93  H   UNL A   1      34.177  15.051  26.020  1.00  0.00     0.346 HD
ATOM     94  H   UNL A   1      33.531  15.176  24.491  1.00  0.00     0.346 HD
ENDBRANCH  85  86
ENDBRANCH  83  85
ENDBRANCH  75  78
ENDBRANCH  73  74
ENDBRANCH  72  73
ENDBRANCH   1  72
TORSDOF 16
ENDMDL
