MODEL 1
REMARK VINA RESULT:     -12.2      0.000      0.000
REMARK SMILES C[N@@H+]1CCC[C@@H](C(=O)N[C@H](C(=O)NCCCCNC(=O)c2ccc(-c3c4nc(c(-c5cccc(S(=O)(=O)[O-])c5F)c5ccc([nH]5)c(-c5cccc(S(=O)(=O)[O-])c5F)c5nc(c(-c6cccc(S(=O)(=O)[O-])c6F)c6ccc3[nH]6)C=C5)C=C4)cc2)c2ccccc2)C1
REMARK SMILES IDX 16 1 15 2 14 3 13 4 11 5 12 6 10 8 9 9 7 10 8 11 6 13 1 14
REMARK SMILES IDX 2 15 3 16 90 17 4 19 5 20 84 21 85 22 89 23 86 24 88 25
REMARK SMILES IDX 87 26 17 27 18 28 19 29 20 31 21 32 22 33 83 34 23 35 82 36
REMARK SMILES IDX 24 37 25 38 26 39 76 40 27 41 81 42 75 43 77 44 28 45 80 46
REMARK SMILES IDX 74 47 73 48 29 50 61 51 41 52 60 53 42 54 45 55 59 56 78 57
REMARK SMILES IDX 43 58 44 59 58 61 79 62 46 63 30 64 31 65 39 66 32 67 34 68
REMARK SMILES IDX 40 69 33 70 35 71 36 72 37 73 38 74 62 75 63 76 71 77 64 78
REMARK SMILES IDX 66 79 72 80 65 81 67 82 68 83 69 84 70 85 47 86 48 87 56 88
REMARK SMILES IDX 49 89 51 90 57 91 50 92 52 93 53 94 54 95 55 96
REMARK H PARENT 13 7 9 12 2 18 18 30 77 49 45 60
REMARK Flexibility Score: inf
ROOT
ATOM      1  C   UNL A   1      31.731  28.745  26.229  1.00  0.00     0.023 C 
ENDROOT
BRANCH   1   2
ATOM      2  C   UNL A   1      31.763  27.393  25.530  1.00  0.00     0.023 C 
BRANCH   2   3
ATOM      3  C   UNL A   1      33.155  26.920  25.101  1.00  0.00     0.116 C 
BRANCH   3   4
ATOM      4  N   UNL A   1      33.282  26.798  23.654  1.00  0.00    -0.354 N 
ATOM      5  C   UNL A   1      33.572  25.683  22.897  1.00  0.00     0.247 C 
ATOM      6  O   UNL A   1      33.703  25.824  21.678  1.00  0.00    -0.272 OA
ATOM      7  H   UNL A   1      33.140  27.629  23.145  1.00  0.00     0.163 HD
BRANCH   5   8
ATOM      8  C   UNL A   1      33.714  24.304  23.592  1.00  0.00     0.202 C 
BRANCH   8   9
ATOM      9  N   UNL A   1      33.137  23.230  22.791  1.00  0.00    -0.340 N 
ATOM     10  C   UNL A   1      32.342  22.179  23.099  1.00  0.00     0.229 C 
ATOM     11  O   UNL A   1      32.053  21.428  22.155  1.00  0.00    -0.275 OA
ATOM     12  H   UNL A   1      33.373  23.280  21.837  1.00  0.00     0.164 HD
BRANCH  10  13
ATOM     13  C   UNL A   1      31.742  21.857  24.484  1.00  0.00     0.133 C 
ATOM     14  C   UNL A   1      34.321  21.454  27.254  1.00  0.00     0.332 C 
ATOM     15  N   UNL A   1      33.398  22.115  26.339  1.00  0.00    -0.337 N 
ATOM     16  C   UNL A   1      32.552  23.097  27.022  1.00  0.00     0.262 C 
ATOM     17  C   UNL A   1      32.625  21.172  25.531  1.00  0.00     0.275 C 
ATOM     18  H   UNL A   1      33.976  22.635  25.680  1.00  0.00     0.347 HD
ATOM     19  C   UNL A   1      31.679  23.883  26.039  1.00  0.00     0.062 C 
ATOM     20  C   UNL A   1      30.903  22.987  25.084  1.00  0.00     0.025 C 
ENDBRANCH  10  13
ENDBRANCH   8   9
BRANCH   8  21
ATOM     21  C   UNL A   1      35.115  23.959  24.094  1.00  0.00    -0.016 A 
ATOM     22  C   UNL A   1      35.645  24.465  25.286  1.00  0.00     0.006 A 
ATOM     23  C   UNL A   1      35.838  22.946  23.445  1.00  0.00     0.006 A 
ATOM     24  C   UNL A   1      36.729  23.836  25.908  1.00  0.00     0.000 A 
ATOM     25  C   UNL A   1      36.935  22.332  24.048  1.00  0.00     0.000 A 
ATOM     26  C   UNL A   1      37.350  22.748  25.306  1.00  0.00     0.000 A 
ENDBRANCH   8  21
ENDBRANCH   5   8
ENDBRANCH   3   4
ENDBRANCH   2   3
ENDBRANCH   1   2
BRANCH   1  27
ATOM     27  C   UNL A   1      32.956  29.605  25.967  1.00  0.00     0.116 C 
BRANCH  27  28
ATOM     28  N   UNL A   1      32.755  30.992  26.370  1.00  0.00    -0.352 N 
ATOM     29  C   UNL A   1      33.468  31.753  27.267  1.00  0.00     0.251 C 
ATOM     30  H   UNL A   1      31.999  31.449  25.939  1.00  0.00     0.163 HD
ATOM     31  O   UNL A   1      33.036  32.840  27.627  1.00  0.00    -0.269 OA
BRANCH  29  32
ATOM     32  C   UNL A   1      34.745  31.238  27.806  1.00  0.00     0.039 A 
ATOM     33  C   UNL A   1      35.820  32.113  27.970  1.00  0.00     0.014 A 
ATOM     34  C   UNL A   1      34.868  29.896  28.174  1.00  0.00     0.014 A 
ATOM     35  C   UNL A   1      36.995  31.655  28.572  1.00  0.00     0.010 A 
ATOM     36  C   UNL A   1      35.993  29.472  28.869  1.00  0.00     0.010 A 
ATOM     37  C   UNL A   1      37.076  30.341  29.064  1.00  0.00    -0.014 A 
BRANCH  37  38
ATOM     38  C   UNL A   1      38.279  29.851  29.782  1.00  0.00     0.031 A 
ATOM     39  C   UNL A   1      38.606  30.381  31.154  1.00  0.00     0.074 A 
ATOM     40  C   UNL A   1      39.127  29.000  29.166  1.00  0.00     0.049 A 
ATOM     41  N   UNL A   1      39.646  30.134  31.906  1.00  0.00    -0.248 NA
ATOM     42  C   UNL A   1      37.657  31.341  31.744  1.00  0.00     0.031 C 
ATOM     43  C   UNL A   1      38.966  28.480  27.806  1.00  0.00     0.029 A 
ATOM     44  N   UNL A   1      40.307  28.445  29.593  1.00  0.00    -0.354 N 
ATOM     45  C   UNL A   1      39.495  30.931  33.035  1.00  0.00     0.074 A 
ATOM     46  C   UNL A   1      38.288  31.703  32.850  1.00  0.00     0.031 C 
ATOM     47  C   UNL A   1      40.001  27.675  27.516  1.00  0.00     0.029 A 
ATOM     48  C   UNL A   1      40.917  27.650  28.650  1.00  0.00     0.049 A 
ATOM     49  H   UNL A   1      40.681  28.601  30.491  1.00  0.00     0.167 HD
ATOM     50  C   UNL A   1      40.273  30.992  34.142  1.00  0.00     0.034 A 
ATOM     51  C   UNL A   1      42.089  26.987  28.691  1.00  0.00     0.034 A 
ATOM     52  C   UNL A   1      41.449  30.190  34.341  1.00  0.00     0.049 A 
ATOM     53  C   UNL A   1      42.917  27.046  29.947  1.00  0.00     0.074 A 
ATOM     54  C   UNL A   1      42.256  30.113  35.461  1.00  0.00     0.029 A 
ATOM     55  N   UNL A   1      41.989  29.332  33.397  1.00  0.00    -0.354 N 
ATOM     56  N   UNL A   1      42.675  27.687  31.066  1.00  0.00    -0.248 NA
ATOM     57  C   UNL A   1      44.161  26.263  29.962  1.00  0.00     0.031 C 
ATOM     58  C   UNL A   1      43.304  29.230  35.183  1.00  0.00     0.029 A 
ATOM     59  C   UNL A   1      43.126  28.727  33.903  1.00  0.00     0.049 A 
ATOM     60  H   UNL A   1      41.618  29.174  32.498  1.00  0.00     0.167 HD
ATOM     61  C   UNL A   1      43.712  27.352  31.928  1.00  0.00     0.074 A 
ATOM     62  C   UNL A   1      44.572  26.434  31.210  1.00  0.00     0.031 C 
ATOM     63  C   UNL A   1      43.941  27.774  33.196  1.00  0.00     0.034 A 
BRANCH  50  64
ATOM     64  C   UNL A   1      39.849  31.923  35.249  1.00  0.00     0.023 A 
ATOM     65  C   UNL A   1      40.256  33.272  35.220  1.00  0.00     0.012 A 
ATOM     66  C   UNL A   1      39.000  31.479  36.281  1.00  0.00     0.148 A 
ATOM     67  C   UNL A   1      39.852  34.159  36.217  1.00  0.00     0.002 A 
ATOM     68  C   UNL A   1      38.560  32.380  37.244  1.00  0.00     0.091 A 
ATOM     69  F   UNL A   1      38.640  30.189  36.304  1.00  0.00    -0.205 F 
ATOM     70  C   UNL A   1      38.996  33.717  37.221  1.00  0.00     0.022 A 
BRANCH  68  71
ATOM     71  S   UNL A   1      37.392  31.933  38.533  1.00  0.00     0.127 S 
ATOM     72  O   UNL A   1      38.154  32.245  39.742  1.00  0.00    -0.237 OA
ATOM     73  O   UNL A   1      36.277  32.840  38.263  1.00  0.00    -0.237 OA
ATOM     74  O   UNL A   1      37.093  30.522  38.334  1.00  0.00    -0.744 OA
ENDBRANCH  68  71
ENDBRANCH  50  64
BRANCH  51  75
ATOM     75  C   UNL A   1      42.529  26.164  27.528  1.00  0.00     0.023 A 
ATOM     76  C   UNL A   1      43.356  26.738  26.543  1.00  0.00     0.012 A 
ATOM     77  C   UNL A   1      42.137  24.818  27.393  1.00  0.00     0.148 A 
ATOM     78  C   UNL A   1      43.750  26.002  25.425  1.00  0.00     0.002 A 
ATOM     79  C   UNL A   1      42.579  24.073  26.306  1.00  0.00     0.091 A 
ATOM     80  F   UNL A   1      41.341  24.291  28.334  1.00  0.00    -0.205 F 
ATOM     81  C   UNL A   1      43.369  24.668  25.310  1.00  0.00     0.022 A 
BRANCH  79  82
ATOM     82  S   UNL A   1      42.247  22.316  26.144  1.00  0.00     0.127 S 
ATOM     83  O   UNL A   1      40.796  22.298  25.992  1.00  0.00    -0.237 OA
ATOM     84  O   UNL A   1      42.999  21.977  24.935  1.00  0.00    -0.237 OA
ATOM     85  O   UNL A   1      42.765  21.706  27.362  1.00  0.00    -0.744 OA
ENDBRANCH  79  82
ENDBRANCH  51  75
BRANCH  63  86
ATOM     86  C   UNL A   1      45.139  27.214  33.916  1.00  0.00     0.023 A 
ATOM     87  C   UNL A   1      46.376  27.883  33.855  1.00  0.00     0.012 A 
ATOM     88  C   UNL A   1      45.014  26.060  34.714  1.00  0.00     0.148 A 
ATOM     89  C   UNL A   1      47.482  27.391  34.549  1.00  0.00     0.002 A 
ATOM     90  C   UNL A   1      46.104  25.607  35.447  1.00  0.00     0.091 A 
ATOM     91  F   UNL A   1      43.831  25.428  34.745  1.00  0.00    -0.205 F 
ATOM     92  C   UNL A   1      47.342  26.263  35.353  1.00  0.00     0.022 A 
BRANCH  90  93
ATOM     93  S   UNL A   1      45.993  24.223  36.586  1.00  0.00     0.127 S 
ATOM     94  O   UNL A   1      45.432  23.178  35.731  1.00  0.00    -0.237 OA
ATOM     95  O   UNL A   1      47.392  24.020  36.962  1.00  0.00    -0.237 OA
ATOM     96  O   UNL A   1      45.132  24.667  37.675  1.00  0.00    -0.744 OA
ENDBRANCH  90  93
ENDBRANCH  63  86
ENDBRANCH  37  38
ENDBRANCH  29  32
ENDBRANCH  27  28
ENDBRANCH   1  27
TORSDOF 17
ENDMDL
MODEL 2
REMARK VINA RESULT:     -12.2      1.767      2.686
REMARK SMILES C[N@@H+]1CCC[C@@H](C(=O)N[C@H](C(=O)NCCCCNC(=O)c2ccc(-c3c4nc(c(-c5cccc(S(=O)(=O)[O-])c5F)c5ccc([nH]5)c(-c5cccc(S(=O)(=O)[O-])c5F)c5nc(c(-c6cccc(S(=O)(=O)[O-])c6F)c6ccc3[nH]6)C=C5)C=C4)cc2)c2ccccc2)C1
REMARK SMILES IDX 16 1 15 2 14 3 13 4 11 5 12 6 10 8 9 9 7 10 8 11 6 13 1 14
REMARK SMILES IDX 2 15 3 16 90 17 4 19 5 20 84 21 85 22 89 23 86 24 88 25
REMARK SMILES IDX 87 26 17 27 18 28 19 29 20 31 21 32 22 33 83 34 23 35 82 36
REMARK SMILES IDX 24 37 25 38 26 39 76 40 27 41 81 42 75 43 77 44 28 45 80 46
REMARK SMILES IDX 74 47 73 48 29 50 61 51 41 52 60 53 42 54 45 55 59 56 78 57
REMARK SMILES IDX 43 58 44 59 58 61 79 62 46 63 30 64 31 65 39 66 32 67 34 68
REMARK SMILES IDX 40 69 33 70 35 71 36 72 37 73 38 74 62 75 63 76 71 77 64 78
REMARK SMILES IDX 66 79 72 80 65 81 67 82 68 83 69 84 70 85 47 86 48 87 56 88
REMARK SMILES IDX 49 89 51 90 57 91 50 92 52 93 53 94 54 95 55 96
REMARK H PARENT 13 7 9 12 2 18 18 30 77 49 45 60
REMARK Flexibility Score: inf
ROOT
ATOM      1  C   UNL A   1      31.761  29.003  26.845  1.00  0.00     0.023 C 
ENDROOT
BRANCH   1   2
ATOM      2  C   UNL A   1      32.004  27.522  26.584  1.00  0.00     0.023 C 
BRANCH   2   3
ATOM      3  C   UNL A   1      30.894  26.813  25.802  1.00  0.00     0.116 C 
BRANCH   3   4
ATOM      4  N   UNL A   1      30.364  25.655  26.511  1.00  0.00    -0.354 N 
ATOM      5  C   UNL A   1      30.888  24.385  26.618  1.00  0.00     0.247 C 
ATOM      6  O   UNL A   1      30.228  23.530  27.214  1.00  0.00    -0.272 OA
ATOM      7  H   UNL A   1      29.511  25.801  26.980  1.00  0.00     0.163 HD
BRANCH   5   8
ATOM      8  C   UNL A   1      32.277  24.078  26.000  1.00  0.00     0.202 C 
BRANCH   8   9
ATOM      9  N   UNL A   1      33.007  23.079  26.773  1.00  0.00    -0.340 N 
ATOM     10  C   UNL A   1      34.203  22.471  26.594  1.00  0.00     0.229 C 
ATOM     11  O   UNL A   1      34.513  21.631  27.452  1.00  0.00    -0.275 OA
ATOM     12  H   UNL A   1      32.534  22.788  27.586  1.00  0.00     0.164 HD
BRANCH  10  13
ATOM     13  C   UNL A   1      35.214  22.751  25.463  1.00  0.00     0.133 C 
ATOM     14  C   UNL A   1      38.548  24.150  26.652  1.00  0.00     0.332 C 
ATOM     15  N   UNL A   1      37.528  23.165  26.315  1.00  0.00    -0.337 N 
ATOM     16  C   UNL A   1      38.069  22.059  25.521  1.00  0.00     0.262 C 
ATOM     17  C   UNL A   1      36.338  23.761  25.709  1.00  0.00     0.275 C 
ATOM     18  H   UNL A   1      37.217  22.765  27.199  1.00  0.00     0.347 HD
ATOM     19  C   UNL A   1      37.028  20.961  25.283  1.00  0.00     0.062 C 
ATOM     20  C   UNL A   1      35.711  21.498  24.739  1.00  0.00     0.025 C 
ENDBRANCH  10  13
ENDBRANCH   8   9
BRANCH   8  21
ATOM     21  C   UNL A   1      32.282  23.766  24.505  1.00  0.00    -0.016 A 
ATOM     22  C   UNL A   1      32.859  24.609  23.551  1.00  0.00     0.006 A 
ATOM     23  C   UNL A   1      31.862  22.498  24.076  1.00  0.00     0.006 A 
ATOM     24  C   UNL A   1      33.200  24.125  22.283  1.00  0.00     0.000 A 
ATOM     25  C   UNL A   1      32.176  22.017  22.805  1.00  0.00     0.000 A 
ATOM     26  C   UNL A   1      32.890  22.818  21.924  1.00  0.00     0.000 A 
ENDBRANCH   8  21
ENDBRANCH   5   8
ENDBRANCH   3   4
ENDBRANCH   2   3
ENDBRANCH   1   2
BRANCH   1  27
ATOM     27  C   UNL A   1      32.612  29.928  25.991  1.00  0.00     0.116 C 
BRANCH  27  28
ATOM     28  N   UNL A   1      32.450  31.328  26.363  1.00  0.00    -0.352 N 
ATOM     29  C   UNL A   1      33.184  32.090  27.243  1.00  0.00     0.251 C 
ATOM     30  H   UNL A   1      31.707  31.797  25.921  1.00  0.00     0.163 HD
ATOM     31  O   UNL A   1      32.783  33.196  27.578  1.00  0.00    -0.269 OA
BRANCH  29  32
ATOM     32  C   UNL A   1      34.448  31.551  27.794  1.00  0.00     0.039 A 
ATOM     33  C   UNL A   1      35.543  32.402  27.948  1.00  0.00     0.014 A 
ATOM     34  C   UNL A   1      34.536  30.212  28.181  1.00  0.00     0.014 A 
ATOM     35  C   UNL A   1      36.705  31.924  28.560  1.00  0.00     0.010 A 
ATOM     36  C   UNL A   1      35.649  29.771  28.885  1.00  0.00     0.010 A 
ATOM     37  C   UNL A   1      36.751  30.616  29.071  1.00  0.00    -0.014 A 
BRANCH  37  38
ATOM     38  C   UNL A   1      37.941  30.107  29.800  1.00  0.00     0.031 A 
ATOM     39  C   UNL A   1      38.215  30.567  31.209  1.00  0.00     0.074 A 
ATOM     40  C   UNL A   1      38.821  29.304  29.168  1.00  0.00     0.049 A 
ATOM     41  N   UNL A   1      39.235  30.296  31.979  1.00  0.00    -0.248 NA
ATOM     42  C   UNL A   1      37.232  31.479  31.818  1.00  0.00     0.031 C 
ATOM     43  C   UNL A   1      38.711  28.855  27.777  1.00  0.00     0.029 A 
ATOM     44  N   UNL A   1      39.997  28.745  29.602  1.00  0.00    -0.354 N 
ATOM     45  C   UNL A   1      39.036  31.029  33.144  1.00  0.00     0.074 A 
ATOM     46  C   UNL A   1      37.821  31.791  32.962  1.00  0.00     0.031 C 
ATOM     47  C   UNL A   1      39.769  28.083  27.478  1.00  0.00     0.029 A 
ATOM     48  C   UNL A   1      40.650  28.012  28.638  1.00  0.00     0.049 A 
ATOM     49  H   UNL A   1      40.340  28.858  30.518  1.00  0.00     0.167 HD
ATOM     50  C   UNL A   1      39.778  31.043  34.276  1.00  0.00     0.034 A 
ATOM     51  C   UNL A   1      41.832  27.365  28.681  1.00  0.00     0.034 A 
ATOM     52  C   UNL A   1      40.960  30.250  34.470  1.00  0.00     0.049 A 
ATOM     53  C   UNL A   1      42.618  27.370  29.964  1.00  0.00     0.074 A 
ATOM     54  C   UNL A   1      41.734  30.125  35.610  1.00  0.00     0.029 A 
ATOM     55  N   UNL A   1      41.544  29.452  33.500  1.00  0.00    -0.354 N 
ATOM     56  N   UNL A   1      42.331  27.946  31.107  1.00  0.00    -0.248 NA
ATOM     57  C   UNL A   1      43.875  26.607  29.977  1.00  0.00     0.031 C 
ATOM     58  C   UNL A   1      42.805  29.275  35.318  1.00  0.00     0.029 A 
ATOM     59  C   UNL A   1      42.675  28.839  34.009  1.00  0.00     0.049 A 
ATOM     60  H   UNL A   1      41.205  29.338  32.581  1.00  0.00     0.167 HD
ATOM     61  C   UNL A   1      43.347  27.582  31.983  1.00  0.00     0.074 A 
ATOM     62  C   UNL A   1      44.245  26.718  31.244  1.00  0.00     0.031 C 
ATOM     63  C   UNL A   1      43.528  27.938  33.278  1.00  0.00     0.034 A 
BRANCH  50  64
ATOM     64  C   UNL A   1      39.304  31.906  35.417  1.00  0.00     0.023 A 
ATOM     65  C   UNL A   1      38.438  31.364  36.389  1.00  0.00     0.012 A 
ATOM     66  C   UNL A   1      39.764  33.229  35.563  1.00  0.00     0.148 A 
ATOM     67  C   UNL A   1      38.011  32.133  37.470  1.00  0.00     0.002 A 
ATOM     68  C   UNL A   1      39.373  33.975  36.669  1.00  0.00     0.091 A 
ATOM     69  F   UNL A   1      40.570  33.734  34.619  1.00  0.00    -0.205 F 
ATOM     70  C   UNL A   1      38.486  33.433  37.616  1.00  0.00     0.022 A 
BRANCH  68  71
ATOM     71  S   UNL A   1      39.993  35.629  36.995  1.00  0.00     0.127 S 
ATOM     72  O   UNL A   1      41.436  35.396  37.053  1.00  0.00    -0.237 OA
ATOM     73  O   UNL A   1      39.541  36.362  35.813  1.00  0.00    -0.237 OA
ATOM     74  O   UNL A   1      39.380  36.049  38.247  1.00  0.00    -0.744 OA
ENDBRANCH  68  71
ENDBRANCH  50  64
BRANCH  51  75
ATOM     75  C   UNL A   1      42.321  26.613  27.490  1.00  0.00     0.023 A 
ATOM     76  C   UNL A   1      42.946  27.310  26.437  1.00  0.00     0.012 A 
ATOM     77  C   UNL A   1      42.176  25.215  27.396  1.00  0.00     0.148 A 
ATOM     78  C   UNL A   1      43.377  26.635  25.294  1.00  0.00     0.002 A 
ATOM     79  C   UNL A   1      42.660  24.542  26.281  1.00  0.00     0.091 A 
ATOM     80  F   UNL A   1      41.571  24.571  28.404  1.00  0.00    -0.205 F 
ATOM     81  C   UNL A   1      43.243  25.251  25.219  1.00  0.00     0.022 A 
BRANCH  79  82
ATOM     82  S   UNL A   1      42.649  22.751  26.158  1.00  0.00     0.127 S 
ATOM     83  O   UNL A   1      42.997  22.545  24.756  1.00  0.00    -0.237 OA
ATOM     84  O   UNL A   1      43.692  22.376  27.115  1.00  0.00    -0.237 OA
ATOM     85  O   UNL A   1      41.306  22.340  26.546  1.00  0.00    -0.744 OA
ENDBRANCH  79  82
ENDBRANCH  51  75
BRANCH  63  86
ATOM     86  C   UNL A   1      44.713  27.359  34.006  1.00  0.00     0.023 A 
ATOM     87  C   UNL A   1      45.940  28.050  34.021  1.00  0.00     0.012 A 
ATOM     88  C   UNL A   1      44.584  26.162  34.736  1.00  0.00     0.148 A 
ATOM     89  C   UNL A   1      47.032  27.539  34.722  1.00  0.00     0.002 A 
ATOM     90  C   UNL A   1      45.658  25.687  35.477  1.00  0.00     0.091 A 
ATOM     91  F   UNL A   1      43.412  25.510  34.695  1.00  0.00    -0.205 F 
ATOM     92  C   UNL A   1      46.887  26.367  35.459  1.00  0.00     0.022 A 
BRANCH  90  93
ATOM     93  S   UNL A   1      45.536  24.242  36.536  1.00  0.00     0.127 S 
ATOM     94  O   UNL A   1      44.838  23.295  35.668  1.00  0.00    -0.237 OA
ATOM     95  O   UNL A   1      46.942  23.922  36.785  1.00  0.00    -0.237 OA
ATOM     96  O   UNL A   1      44.796  24.669  37.716  1.00  0.00    -0.744 OA
ENDBRANCH  90  93
ENDBRANCH  63  86
ENDBRANCH  37  38
ENDBRANCH  29  32
ENDBRANCH  27  28
ENDBRANCH   1  27
TORSDOF 17
ENDMDL
MODEL 3
REMARK VINA RESULT:     -12.2      1.840      2.380
REMARK SMILES C[N@@H+]1CCC[C@@H](C(=O)N[C@H](C(=O)NCCCCNC(=O)c2ccc(-c3c4nc(c(-c5cccc(S(=O)(=O)[O-])c5F)c5ccc([nH]5)c(-c5cccc(S(=O)(=O)[O-])c5F)c5nc(c(-c6cccc(S(=O)(=O)[O-])c6F)c6ccc3[nH]6)C=C5)C=C4)cc2)c2ccccc2)C1
REMARK SMILES IDX 16 1 15 2 14 3 13 4 11 5 12 6 10 8 9 9 7 10 8 11 6 13 1 14
REMARK SMILES IDX 2 15 3 16 90 17 4 19 5 20 84 21 85 22 89 23 86 24 88 25
REMARK SMILES IDX 87 26 17 27 18 28 19 29 20 31 21 32 22 33 83 34 23 35 82 36
REMARK SMILES IDX 24 37 25 38 26 39 76 40 27 41 81 42 75 43 77 44 28 45 80 46
REMARK SMILES IDX 74 47 73 48 29 50 61 51 41 52 60 53 42 54 45 55 59 56 78 57
REMARK SMILES IDX 43 58 44 59 58 61 79 62 46 63 30 64 31 65 39 66 32 67 34 68
REMARK SMILES IDX 40 69 33 70 35 71 36 72 37 73 38 74 62 75 63 76 71 77 64 78
REMARK SMILES IDX 66 79 72 80 65 81 67 82 68 83 69 84 70 85 47 86 48 87 56 88
REMARK SMILES IDX 49 89 51 90 57 91 50 92 52 93 53 94 54 95 55 96
REMARK H PARENT 13 7 9 12 2 18 18 30 77 49 45 60
REMARK Flexibility Score: inf
ROOT
ATOM      1  C   UNL A   1      34.026  27.974  26.460  1.00  0.00     0.023 C 
ENDROOT
BRANCH   1   2
ATOM      2  C   UNL A   1      33.476  28.188  25.057  1.00  0.00     0.023 C 
BRANCH   2   3
ATOM      3  C   UNL A   1      32.659  27.019  24.498  1.00  0.00     0.116 C 
BRANCH   3   4
ATOM      4  N   UNL A   1      32.934  26.768  23.088  1.00  0.00    -0.354 N 
ATOM      5  C   UNL A   1      33.363  25.610  22.477  1.00  0.00     0.247 C 
ATOM      6  O   UNL A   1      33.603  25.643  21.268  1.00  0.00    -0.272 OA
ATOM      7  H   UNL A   1      32.793  27.535  22.487  1.00  0.00     0.163 HD
BRANCH   5   8
ATOM      8  C   UNL A   1      33.518  24.316  23.319  1.00  0.00     0.202 C 
BRANCH   8   9
ATOM      9  N   UNL A   1      32.981  23.150  22.627  1.00  0.00    -0.340 N 
ATOM     10  C   UNL A   1      32.221  22.108  23.036  1.00  0.00     0.229 C 
ATOM     11  O   UNL A   1      31.961  21.259  22.169  1.00  0.00    -0.275 OA
ATOM     12  H   UNL A   1      33.219  23.114  21.672  1.00  0.00     0.164 HD
BRANCH  10  13
ATOM     13  C   UNL A   1      31.626  21.902  24.445  1.00  0.00     0.133 C 
ATOM     14  C   UNL A   1      34.224  21.518  27.200  1.00  0.00     0.332 C 
ATOM     15  N   UNL A   1      33.325  22.175  26.260  1.00  0.00    -0.337 N 
ATOM     16  C   UNL A   1      32.546  23.242  26.893  1.00  0.00     0.262 C 
ATOM     17  C   UNL A   1      32.487  21.232  25.520  1.00  0.00     0.275 C 
ATOM     18  H   UNL A   1      33.920  22.622  25.563  1.00  0.00     0.347 HD
ATOM     19  C   UNL A   1      31.702  24.017  25.877  1.00  0.00     0.062 C 
ATOM     20  C   UNL A   1      30.861  23.111  24.988  1.00  0.00     0.025 C 
ENDBRANCH  10  13
ENDBRANCH   8   9
BRANCH   8  21
ATOM     21  C   UNL A   1      34.914  24.059  23.882  1.00  0.00    -0.016 A 
ATOM     22  C   UNL A   1      35.371  24.623  25.078  1.00  0.00     0.006 A 
ATOM     23  C   UNL A   1      35.714  23.069  23.289  1.00  0.00     0.006 A 
ATOM     24  C   UNL A   1      36.462  24.069  25.757  1.00  0.00     0.000 A 
ATOM     25  C   UNL A   1      36.817  22.530  23.950  1.00  0.00     0.000 A 
ATOM     26  C   UNL A   1      37.161  23.000  25.209  1.00  0.00     0.000 A 
ENDBRANCH   8  21
ENDBRANCH   5   8
ENDBRANCH   3   4
ENDBRANCH   2   3
ENDBRANCH   1   2
BRANCH   1  27
ATOM     27  C   UNL A   1      33.255  28.707  27.545  1.00  0.00     0.116 C 
BRANCH  27  28
ATOM     28  N   UNL A   1      33.441  30.152  27.473  1.00  0.00    -0.352 N 
ATOM     29  C   UNL A   1      34.515  30.916  27.870  1.00  0.00     0.251 C 
ATOM     30  H   UNL A   1      32.689  30.654  27.086  1.00  0.00     0.163 HD
ATOM     31  O   UNL A   1      34.416  32.135  27.914  1.00  0.00    -0.269 OA
BRANCH  29  32
ATOM     32  C   UNL A   1      35.777  30.250  28.261  1.00  0.00     0.039 A 
ATOM     33  C   UNL A   1      36.857  30.262  27.377  1.00  0.00     0.014 A 
ATOM     34  C   UNL A   1      35.897  29.641  29.512  1.00  0.00     0.014 A 
ATOM     35  C   UNL A   1      38.082  29.724  27.781  1.00  0.00     0.010 A 
ATOM     36  C   UNL A   1      37.142  29.206  29.950  1.00  0.00     0.010 A 
ATOM     37  C   UNL A   1      38.245  29.229  29.086  1.00  0.00    -0.014 A 
BRANCH  37  38
ATOM     38  C   UNL A   1      39.556  28.728  29.571  1.00  0.00     0.031 A 
ATOM     39  C   UNL A   1      40.281  29.458  30.672  1.00  0.00     0.074 A 
ATOM     40  C   UNL A   1      40.136  27.673  28.963  1.00  0.00     0.049 A 
ATOM     41  N   UNL A   1      41.463  29.221  31.178  1.00  0.00    -0.248 NA
ATOM     42  C   UNL A   1      39.605  30.628  31.258  1.00  0.00     0.031 C 
ATOM     43  C   UNL A   1      39.574  26.932  27.831  1.00  0.00     0.029 A 
ATOM     44  N   UNL A   1      41.341  27.057  29.193  1.00  0.00    -0.354 N 
ATOM     45  C   UNL A   1      41.685  30.229  32.109  1.00  0.00     0.074 A 
ATOM     46  C   UNL A   1      40.537  31.105  32.068  1.00  0.00     0.031 C 
ATOM     47  C   UNL A   1      40.426  25.958  27.473  1.00  0.00     0.029 A 
ATOM     48  C   UNL A   1      41.610  26.026  28.322  1.00  0.00     0.049 A 
ATOM     49  H   UNL A   1      41.954  27.327  29.915  1.00  0.00     0.167 HD
ATOM     50  C   UNL A   1      42.735  30.393  32.948  1.00  0.00     0.034 A 
ATOM     51  C   UNL A   1      42.694  25.233  28.213  1.00  0.00     0.034 A 
ATOM     52  C   UNL A   1      43.854  29.495  33.018  1.00  0.00     0.049 A 
ATOM     53  C   UNL A   1      43.832  25.417  29.182  1.00  0.00     0.074 A 
ATOM     54  C   UNL A   1      44.926  29.523  33.892  1.00  0.00     0.029 A 
ATOM     55  N   UNL A   1      44.051  28.411  32.178  1.00  0.00    -0.354 N 
ATOM     56  N   UNL A   1      43.952  26.283  30.160  1.00  0.00    -0.248 NA
ATOM     57  C   UNL A   1      44.969  24.493  29.056  1.00  0.00     0.031 C 
ATOM     58  C   UNL A   1      45.787  28.473  33.559  1.00  0.00     0.029 A 
ATOM     59  C   UNL A   1      45.232  27.768  32.504  1.00  0.00     0.049 A 
ATOM     60  H   UNL A   1      43.440  28.138  31.454  1.00  0.00     0.167 HD
ATOM     61  C   UNL A   1      45.154  25.981  30.789  1.00  0.00     0.074 A 
ATOM     62  C   UNL A   1      45.714  24.840  30.095  1.00  0.00     0.031 C 
ATOM     63  C   UNL A   1      45.749  26.600  31.839  1.00  0.00     0.034 A 
BRANCH  50  64
ATOM     64  C   UNL A   1      42.700  31.563  33.899  1.00  0.00     0.023 A 
ATOM     65  C   UNL A   1      43.167  32.822  33.471  1.00  0.00     0.012 A 
ATOM     66  C   UNL A   1      42.149  31.431  35.188  1.00  0.00     0.148 A 
ATOM     67  C   UNL A   1      43.117  33.926  34.322  1.00  0.00     0.002 A 
ATOM     68  C   UNL A   1      42.056  32.545  36.013  1.00  0.00     0.091 A 
ATOM     69  F   UNL A   1      41.728  30.221  35.583  1.00  0.00    -0.205 F 
ATOM     70  C   UNL A   1      42.552  33.790  35.588  1.00  0.00     0.022 A 
BRANCH  68  71
ATOM     71  S   UNL A   1      41.271  32.497  37.628  1.00  0.00     0.127 S 
ATOM     72  O   UNL A   1      41.295  33.909  38.009  1.00  0.00    -0.237 OA
ATOM     73  O   UNL A   1      39.943  31.974  37.306  1.00  0.00    -0.237 OA
ATOM     74  O   UNL A   1      42.092  31.618  38.448  1.00  0.00    -0.744 OA
ENDBRANCH  68  71
ENDBRANCH  50  64
BRANCH  51  75
ATOM     75  C   UNL A   1      42.738  24.155  27.183  1.00  0.00     0.023 A 
ATOM     76  C   UNL A   1      43.426  24.378  25.974  1.00  0.00     0.012 A 
ATOM     77  C   UNL A   1      42.107  22.914  27.394  1.00  0.00     0.148 A 
ATOM     78  C   UNL A   1      43.449  23.401  24.977  1.00  0.00     0.002 A 
ATOM     79  C   UNL A   1      42.182  21.924  26.421  1.00  0.00     0.091 A 
ATOM     80  F   UNL A   1      41.449  22.724  28.547  1.00  0.00    -0.205 F 
ATOM     81  C   UNL A   1      42.835  22.172  25.204  1.00  0.00     0.022 A 
BRANCH  79  82
ATOM     82  S   UNL A   1      41.536  20.270  26.680  1.00  0.00     0.127 S 
ATOM     83  O   UNL A   1      41.889  19.611  25.426  1.00  0.00    -0.237 OA
ATOM     84  O   UNL A   1      42.300  19.826  27.847  1.00  0.00    -0.237 OA
ATOM     85  O   UNL A   1      40.110  20.440  26.928  1.00  0.00    -0.744 OA
ENDBRANCH  79  82
ENDBRANCH  51  75
BRANCH  63  86
ATOM     86  C   UNL A   1      47.049  26.031  32.343  1.00  0.00     0.023 A 
ATOM     87  C   UNL A   1      48.273  26.540  31.868  1.00  0.00     0.012 A 
ATOM     88  C   UNL A   1      47.053  25.041  33.344  1.00  0.00     0.148 A 
ATOM     89  C   UNL A   1      49.482  26.045  32.356  1.00  0.00     0.002 A 
ATOM     90  C   UNL A   1      48.259  24.591  33.865  1.00  0.00     0.091 A 
ATOM     91  F   UNL A   1      45.876  24.558  33.770  1.00  0.00    -0.205 F 
ATOM     92  C   UNL A   1      49.475  25.082  33.362  1.00  0.00     0.022 A 
BRANCH  90  93
ATOM     93  S   UNL A   1      48.346  23.428  35.231  1.00  0.00     0.127 S 
ATOM     94  O   UNL A   1      47.734  24.195  36.314  1.00  0.00    -0.237 OA
ATOM     95  O   UNL A   1      47.538  22.313  34.738  1.00  0.00    -0.237 OA
ATOM     96  O   UNL A   1      49.759  23.119  35.407  1.00  0.00    -0.744 OA
ENDBRANCH  90  93
ENDBRANCH  63  86
ENDBRANCH  37  38
ENDBRANCH  29  32
ENDBRANCH  27  28
ENDBRANCH   1  27
TORSDOF 17
ENDMDL
