MODEL 1
REMARK VINA RESULT:      -7.9      0.000      0.000
REMARK SMILES CSCC[C@@H](C(=O)NCCCCNC(=O)c1ccc(-c2c3nc(c(-c4cccc(S(=O)(=O)[O-])c4F)c4ccc([nH]4)c(-c4cccc(S(=O)(=O)[O-])c4F)c4nc(c(-c5cccc(S(=O)(=O)[O-])c5F)c5ccc2[nH]5)C=C4)C=C3)cc1)N1C(=O)/C(=C/c2ccc(O)c(O)c2)SC1=S
REMARK SMILES IDX 10 1 9 2 8 3 6 4 7 5 5 7 4 8 3 9 2 10 1 11 79 12 80 13 93 14
REMARK SMILES IDX 81 15 82 16 92 17 94 18 83 19 84 20 85 21 91 22 86 23 89 24
REMARK SMILES IDX 87 25 90 26 88 28 11 30 12 31 13 32 14 33 15 35 16 36 17 37
REMARK SMILES IDX 78 38 18 39 77 40 19 41 20 42 21 43 71 44 22 45 76 46 70 47
REMARK SMILES IDX 72 48 23 49 75 50 69 51 68 52 24 54 56 55 36 56 55 57 37 58
REMARK SMILES IDX 40 59 54 60 73 61 38 62 39 63 53 65 74 66 41 67 25 68 26 69
REMARK SMILES IDX 34 70 27 71 29 72 35 73 28 74 30 75 31 76 32 77 33 78 57 79
REMARK SMILES IDX 58 80 66 81 59 82 61 83 67 84 60 85 62 86 63 87 64 88 65 89
REMARK SMILES IDX 42 90 43 91 51 92 44 93 46 94 52 95 45 96 47 97 48 98 49 99
REMARK SMILES IDX 50 100
REMARK H PARENT 8 6 90 27 88 29 13 34 72 53 40 64
REMARK Flexibility Score: inf
ROOT
ATOM      1  C   UNL A   1      47.836  25.202  27.947  1.00  0.00     0.023 C 
ENDROOT
BRANCH   1   2
ATOM      2  C   UNL A   1      46.535  24.451  27.674  1.00  0.00     0.116 C 
BRANCH   2   3
ATOM      3  N   UNL A   1      46.238  24.363  26.268  1.00  0.00    -0.354 N 
ATOM      4  C   UNL A   1      45.090  23.998  25.636  1.00  0.00     0.243 C 
ATOM      5  O   UNL A   1      45.009  24.325  24.446  1.00  0.00    -0.273 OA
ATOM      6  H   UNL A   1      46.983  24.604  25.671  1.00  0.00     0.163 HD
BRANCH   4   7
ATOM      7  C   UNL A   1      43.901  23.302  26.369  1.00  0.00     0.182 C 
BRANCH   7   8
ATOM      8  C   UNL A   1      42.873  22.506  25.538  1.00  0.00     0.046 C 
BRANCH   8   9
ATOM      9  C   UNL A   1      42.460  21.097  25.986  1.00  0.00     0.072 C 
BRANCH   9  10
ATOM     10  S   UNL A   1      40.697  20.851  26.384  1.00  0.00    -0.165 SA
ATOM     11  C   UNL A   1      40.287  22.419  27.201  1.00  0.00     0.085 C 
ENDBRANCH   9  10
ENDBRANCH   8   9
ENDBRANCH   7   8
BRANCH   7  12
ATOM     12  N   UNL A   1      43.216  24.389  27.132  1.00  0.00    -0.280 N 
ATOM     13  C   UNL A   1      42.635  25.433  26.431  1.00  0.00     0.266 C 
ATOM     14  C   UNL A   1      43.067  24.421  28.511  1.00  0.00     0.149 C 
ATOM     15  O   UNL A   1      42.662  25.596  25.217  1.00  0.00    -0.268 OA
ATOM     16  C   UNL A   1      41.998  26.401  27.369  1.00  0.00     0.081 C 
ATOM     17  S   UNL A   1      42.089  25.804  28.974  1.00  0.00    -0.054 SA
ATOM     18  S   UNL A   1      43.694  23.405  29.682  1.00  0.00    -0.052 S 
ATOM     19  C   UNL A   1      41.465  27.564  26.964  1.00  0.00     0.029 C 
BRANCH  19  20
ATOM     20  C   UNL A   1      40.837  28.569  27.838  1.00  0.00    -0.020 A 
ATOM     21  C   UNL A   1      39.503  28.938  27.606  1.00  0.00     0.012 A 
ATOM     22  C   UNL A   1      41.543  29.167  28.895  1.00  0.00     0.058 A 
ATOM     23  C   UNL A   1      38.866  29.862  28.441  1.00  0.00     0.051 A 
ATOM     24  C   UNL A   1      40.894  30.068  29.733  1.00  0.00     0.157 A 
ATOM     25  C   UNL A   1      39.565  30.410  29.504  1.00  0.00     0.157 A 
BRANCH  24  26
ATOM     26  O   UNL A   1      41.523  30.633  30.809  1.00  0.00    -0.504 OA
ATOM     27  H   UNL A   1      41.955  30.090  31.438  1.00  0.00     0.293 HD
ENDBRANCH  24  26
BRANCH  25  28
ATOM     28  O   UNL A   1      38.937  31.289  30.339  1.00  0.00    -0.504 OA
ATOM     29  H   UNL A   1      39.282  32.152  30.458  1.00  0.00     0.293 HD
ENDBRANCH  25  28
ENDBRANCH  19  20
ENDBRANCH   7  12
ENDBRANCH   4   7
ENDBRANCH   2   3
ENDBRANCH   1   2
BRANCH   1  30
ATOM     30  C   UNL A   1      48.920  24.977  26.892  1.00  0.00     0.023 C 
BRANCH  30  31
ATOM     31  C   UNL A   1      49.610  26.244  26.390  1.00  0.00     0.116 C 
BRANCH  31  32
ATOM     32  N   UNL A   1      49.267  26.598  25.018  1.00  0.00    -0.352 N 
ATOM     33  C   UNL A   1      48.283  27.462  24.593  1.00  0.00     0.251 C 
ATOM     34  H   UNL A   1      49.801  26.167  24.312  1.00  0.00     0.163 HD
ATOM     35  O   UNL A   1      48.050  27.607  23.398  1.00  0.00    -0.269 OA
BRANCH  33  36
ATOM     36  C   UNL A   1      47.486  28.177  25.610  1.00  0.00     0.039 A 
ATOM     37  C   UNL A   1      46.143  27.836  25.783  1.00  0.00     0.014 A 
ATOM     38  C   UNL A   1      48.102  29.104  26.454  1.00  0.00     0.014 A 
ATOM     39  C   UNL A   1      45.435  28.367  26.863  1.00  0.00     0.010 A 
ATOM     40  C   UNL A   1      47.417  29.571  27.569  1.00  0.00     0.010 A 
ATOM     41  C   UNL A   1      46.081  29.204  27.789  1.00  0.00    -0.014 A 
BRANCH  41  42
ATOM     42  C   UNL A   1      45.389  29.689  29.010  1.00  0.00     0.031 A 
ATOM     43  C   UNL A   1      44.753  31.052  29.022  1.00  0.00     0.074 A 
ATOM     44  C   UNL A   1      45.431  28.952  30.138  1.00  0.00     0.049 A 
ATOM     45  N   UNL A   1      44.175  31.683  30.010  1.00  0.00    -0.248 NA
ATOM     46  C   UNL A   1      44.806  31.824  27.769  1.00  0.00     0.031 C 
ATOM     47  C   UNL A   1      46.100  27.657  30.281  1.00  0.00     0.029 A 
ATOM     48  N   UNL A   1      44.924  29.202  31.389  1.00  0.00    -0.354 N 
ATOM     49  C   UNL A   1      43.840  32.937  29.515  1.00  0.00     0.074 A 
ATOM     50  C   UNL A   1      44.309  32.992  28.148  1.00  0.00     0.031 C 
ATOM     51  C   UNL A   1      45.955  27.222  31.543  1.00  0.00     0.029 A 
ATOM     52  C   UNL A   1      45.204  28.214  32.307  1.00  0.00     0.049 A 
ATOM     53  H   UNL A   1      44.409  30.011  31.611  1.00  0.00     0.167 HD
ATOM     54  C   UNL A   1      43.171  33.940  30.130  1.00  0.00     0.034 A 
ATOM     55  C   UNL A   1      44.888  28.119  33.613  1.00  0.00     0.034 A 
ATOM     56  C   UNL A   1      42.643  33.854  31.464  1.00  0.00     0.049 A 
ATOM     57  C   UNL A   1      44.077  29.215  34.249  1.00  0.00     0.074 A 
ATOM     58  C   UNL A   1      41.852  34.767  32.137  1.00  0.00     0.029 A 
ATOM     59  N   UNL A   1      42.849  32.790  32.327  1.00  0.00    -0.354 N 
ATOM     60  N   UNL A   1      43.615  30.317  33.710  1.00  0.00    -0.248 NA
ATOM     61  C   UNL A   1      43.709  29.038  35.662  1.00  0.00     0.031 C 
ATOM     62  C   UNL A   1      41.586  34.259  33.412  1.00  0.00     0.029 A 
ATOM     63  C   UNL A   1      42.204  33.023  33.528  1.00  0.00     0.049 A 
ATOM     64  H   UNL A   1      43.378  31.986  32.117  1.00  0.00     0.167 HD
ATOM     65  C   UNL A   1      42.874  30.946  34.704  1.00  0.00     0.074 A 
ATOM     66  C   UNL A   1      42.932  30.091  35.873  1.00  0.00     0.031 C 
ATOM     67  C   UNL A   1      42.218  32.133  34.660  1.00  0.00     0.034 A 
BRANCH  54  68
ATOM     68  C   UNL A   1      42.910  35.192  29.337  1.00  0.00     0.023 A 
ATOM     69  C   UNL A   1      41.786  35.250  28.486  1.00  0.00     0.012 A 
ATOM     70  C   UNL A   1      43.738  36.323  29.465  1.00  0.00     0.148 A 
ATOM     71  C   UNL A   1      41.512  36.399  27.748  1.00  0.00     0.002 A 
ATOM     72  C   UNL A   1      43.434  37.481  28.758  1.00  0.00     0.091 A 
ATOM     73  F   UNL A   1      44.816  36.242  30.259  1.00  0.00    -0.205 F 
ATOM     74  C   UNL A   1      42.329  37.518  27.892  1.00  0.00     0.022 A 
BRANCH  72  75
ATOM     75  S   UNL A   1      44.383  38.996  28.933  1.00  0.00     0.127 S 
ATOM     76  O   UNL A   1      43.692  39.650  30.042  1.00  0.00    -0.237 OA
ATOM     77  O   UNL A   1      45.718  38.490  29.261  1.00  0.00    -0.237 OA
ATOM     78  O   UNL A   1      44.293  39.674  27.648  1.00  0.00    -0.744 OA
ENDBRANCH  72  75
ENDBRANCH  54  68
BRANCH  55  79
ATOM     79  C   UNL A   1      45.258  26.897  34.383  1.00  0.00     0.023 A 
ATOM     80  C   UNL A   1      46.296  26.976  35.332  1.00  0.00     0.012 A 
ATOM     81  C   UNL A   1      44.580  25.677  34.208  1.00  0.00     0.148 A 
ATOM     82  C   UNL A   1      46.672  25.855  36.073  1.00  0.00     0.002 A 
ATOM     83  C   UNL A   1      44.923  24.576  34.986  1.00  0.00     0.091 A 
ATOM     84  F   UNL A   1      43.604  25.617  33.290  1.00  0.00    -0.205 F 
ATOM     85  C   UNL A   1      45.979  24.658  35.907  1.00  0.00     0.022 A 
BRANCH  83  86
ATOM     86  S   UNL A   1      44.000  23.036  34.932  1.00  0.00     0.127 S 
ATOM     87  O   UNL A   1      44.761  22.198  35.856  1.00  0.00    -0.237 OA
ATOM     88  O   UNL A   1      42.684  23.452  35.418  1.00  0.00    -0.237 OA
ATOM     89  O   UNL A   1      44.017  22.623  33.535  1.00  0.00    -0.744 OA
ENDBRANCH  83  86
ENDBRANCH  55  79
BRANCH  67  90
ATOM     90  C   UNL A   1      41.480  32.571  35.896  1.00  0.00     0.023 A 
ATOM     91  C   UNL A   1      42.118  33.417  36.824  1.00  0.00     0.012 A 
ATOM     92  C   UNL A   1      40.130  32.218  36.092  1.00  0.00     0.148 A 
ATOM     93  C   UNL A   1      41.431  33.885  37.943  1.00  0.00     0.002 A 
ATOM     94  C   UNL A   1      39.438  32.724  37.186  1.00  0.00     0.091 A 
ATOM     95  F   UNL A   1      39.549  31.395  35.208  1.00  0.00    -0.205 F 
ATOM     96  C   UNL A   1      40.090  33.550  38.117  1.00  0.00     0.022 A 
BRANCH  94  97
ATOM     97  S   UNL A   1      37.685  32.421  37.434  1.00  0.00     0.127 S 
ATOM     98  O   UNL A   1      37.648  30.965  37.556  1.00  0.00    -0.237 OA
ATOM     99  O   UNL A   1      37.414  33.144  38.676  1.00  0.00    -0.237 OA
ATOM    100  O   UNL A   1      37.018  32.972  36.261  1.00  0.00    -0.744 OA
ENDBRANCH  94  97
ENDBRANCH  67  90
ENDBRANCH  41  42
ENDBRANCH  33  36
ENDBRANCH  31  32
ENDBRANCH  30  31
ENDBRANCH   1  30
TORSDOF 21
ENDMDL
MODEL 2
REMARK VINA RESULT:      -7.6      2.345      7.869
REMARK SMILES CSCC[C@@H](C(=O)NCCCCNC(=O)c1ccc(-c2c3nc(c(-c4cccc(S(=O)(=O)[O-])c4F)c4ccc([nH]4)c(-c4cccc(S(=O)(=O)[O-])c4F)c4nc(c(-c5cccc(S(=O)(=O)[O-])c5F)c5ccc2[nH]5)C=C4)C=C3)cc1)N1C(=O)/C(=C/c2ccc(O)c(O)c2)SC1=S
REMARK SMILES IDX 10 1 9 2 8 3 6 4 7 5 5 7 4 8 3 9 2 10 1 11 79 12 80 13 93 14
REMARK SMILES IDX 81 15 82 16 92 17 94 18 83 19 84 20 85 21 91 22 86 23 89 24
REMARK SMILES IDX 87 25 90 26 88 28 11 30 12 31 13 32 14 33 15 35 16 36 17 37
REMARK SMILES IDX 78 38 18 39 77 40 19 41 20 42 21 43 71 44 22 45 76 46 70 47
REMARK SMILES IDX 72 48 23 49 75 50 69 51 68 52 24 54 56 55 36 56 55 57 37 58
REMARK SMILES IDX 40 59 54 60 73 61 38 62 39 63 53 65 74 66 41 67 25 68 26 69
REMARK SMILES IDX 34 70 27 71 29 72 35 73 28 74 30 75 31 76 32 77 33 78 57 79
REMARK SMILES IDX 58 80 66 81 59 82 61 83 67 84 60 85 62 86 63 87 64 88 65 89
REMARK SMILES IDX 42 90 43 91 51 92 44 93 46 94 52 95 45 96 47 97 48 98 49 99
REMARK SMILES IDX 50 100
REMARK H PARENT 8 6 90 27 88 29 13 34 72 53 40 64
REMARK Flexibility Score: inf
ROOT
ATOM      1  C   UNL A   1      47.217  27.990  24.501  1.00  0.00     0.023 C 
ENDROOT
BRANCH   1   2
ATOM      2  C   UNL A   1      46.119  27.490  25.434  1.00  0.00     0.116 C 
BRANCH   2   3
ATOM      3  N   UNL A   1      44.809  27.591  24.844  1.00  0.00    -0.354 N 
ATOM      4  C   UNL A   1      43.581  27.421  25.402  1.00  0.00     0.243 C 
ATOM      5  O   UNL A   1      42.633  27.887  24.757  1.00  0.00    -0.273 OA
ATOM      6  H   UNL A   1      44.803  27.818  23.886  1.00  0.00     0.163 HD
BRANCH   4   7
ATOM      7  C   UNL A   1      43.367  26.777  26.806  1.00  0.00     0.182 C 
BRANCH   7   8
ATOM      8  C   UNL A   1      43.370  25.239  26.933  1.00  0.00     0.046 C 
BRANCH   8   9
ATOM      9  C   UNL A   1      44.325  24.558  27.923  1.00  0.00     0.072 C 
BRANCH   9  10
ATOM     10  S   UNL A   1      44.000  24.836  29.696  1.00  0.00    -0.165 SA
ATOM     11  C   UNL A   1      43.707  23.142  30.281  1.00  0.00     0.085 C 
ENDBRANCH   9  10
ENDBRANCH   8   9
ENDBRANCH   7   8
BRANCH   7  12
ATOM     12  N   UNL A   1      42.071  27.332  27.303  1.00  0.00    -0.280 N 
ATOM     13  C   UNL A   1      42.089  28.482  28.076  1.00  0.00     0.266 C 
ATOM     14  C   UNL A   1      40.818  26.811  27.013  1.00  0.00     0.149 C 
ATOM     15  O   UNL A   1      43.085  29.087  28.452  1.00  0.00    -0.268 OA
ATOM     16  C   UNL A   1      40.704  28.875  28.459  1.00  0.00     0.081 C 
ATOM     17  S   UNL A   1      39.570  27.844  27.689  1.00  0.00    -0.054 SA
ATOM     18  S   UNL A   1      40.401  25.411  26.199  1.00  0.00    -0.052 S 
ATOM     19  C   UNL A   1      40.440  29.884  29.305  1.00  0.00     0.029 C 
BRANCH  19  20
ATOM     20  C   UNL A   1      39.099  30.313  29.736  1.00  0.00    -0.020 A 
ATOM     21  C   UNL A   1      38.271  29.396  30.403  1.00  0.00     0.012 A 
ATOM     22  C   UNL A   1      38.630  31.614  29.492  1.00  0.00     0.058 A 
ATOM     23  C   UNL A   1      37.007  29.784  30.859  1.00  0.00     0.051 A 
ATOM     24  C   UNL A   1      37.381  31.995  29.968  1.00  0.00     0.157 A 
ATOM     25  C   UNL A   1      36.578  31.084  30.645  1.00  0.00     0.157 A 
BRANCH  24  26
ATOM     26  O   UNL A   1      36.904  33.267  29.803  1.00  0.00    -0.504 OA
ATOM     27  H   UNL A   1      37.255  33.815  29.128  1.00  0.00     0.293 HD
ENDBRANCH  24  26
BRANCH  25  28
ATOM     28  O   UNL A   1      35.356  31.473  31.115  1.00  0.00    -0.504 OA
ATOM     29  H   UNL A   1      35.118  31.296  32.004  1.00  0.00     0.293 HD
ENDBRANCH  25  28
ENDBRANCH  19  20
ENDBRANCH   7  12
ENDBRANCH   4   7
ENDBRANCH   2   3
ENDBRANCH   1   2
BRANCH   1  30
ATOM     30  C   UNL A   1      48.627  27.553  24.903  1.00  0.00     0.023 C 
BRANCH  30  31
ATOM     31  C   UNL A   1      48.801  26.053  25.130  1.00  0.00     0.116 C 
BRANCH  31  32
ATOM     32  N   UNL A   1      50.083  25.692  25.724  1.00  0.00    -0.352 N 
ATOM     33  C   UNL A   1      50.502  25.909  27.017  1.00  0.00     0.251 C 
ATOM     34  H   UNL A   1      50.725  25.240  25.130  1.00  0.00     0.163 HD
ATOM     35  O   UNL A   1      51.644  25.623  27.362  1.00  0.00    -0.269 OA
BRANCH  33  36
ATOM     36  C   UNL A   1      49.561  26.536  27.967  1.00  0.00     0.039 A 
ATOM     37  C   UNL A   1      49.893  27.765  28.541  1.00  0.00     0.014 A 
ATOM     38  C   UNL A   1      48.314  25.952  28.200  1.00  0.00     0.014 A 
ATOM     39  C   UNL A   1      48.934  28.453  29.287  1.00  0.00     0.010 A 
ATOM     40  C   UNL A   1      47.339  26.674  28.878  1.00  0.00     0.010 A 
ATOM     41  C   UNL A   1      47.636  27.932  29.424  1.00  0.00    -0.014 A 
BRANCH  41  42
ATOM     42  C   UNL A   1      46.563  28.695  30.109  1.00  0.00     0.031 A 
ATOM     43  C   UNL A   1      45.891  28.119  31.325  1.00  0.00     0.074 A 
ATOM     44  C   UNL A   1      46.117  29.849  29.574  1.00  0.00     0.049 A 
ATOM     45  N   UNL A   1      44.885  28.593  32.013  1.00  0.00    -0.248 NA
ATOM     46  C   UNL A   1      46.391  26.822  31.812  1.00  0.00     0.031 C 
ATOM     47  C   UNL A   1      46.620  30.463  28.343  1.00  0.00     0.029 A 
ATOM     48  N   UNL A   1      45.117  30.697  29.980  1.00  0.00    -0.354 N 
ATOM     49  C   UNL A   1      44.602  27.635  32.978  1.00  0.00     0.074 A 
ATOM     50  C   UNL A   1      45.520  26.537  32.768  1.00  0.00     0.031 C 
ATOM     51  C   UNL A   1      45.935  31.593  28.100  1.00  0.00     0.029 A 
ATOM     52  C   UNL A   1      44.928  31.773  29.142  1.00  0.00     0.049 A 
ATOM     53  H   UNL A   1      44.584  30.551  30.795  1.00  0.00     0.167 HD
ATOM     54  C   UNL A   1      43.685  27.678  33.973  1.00  0.00     0.034 A 
ATOM     55  C   UNL A   1      44.046  32.790  29.208  1.00  0.00     0.034 A 
ATOM     56  C   UNL A   1      42.825  28.802  34.224  1.00  0.00     0.049 A 
ATOM     57  C   UNL A   1      43.091  32.852  30.369  1.00  0.00     0.074 A 
ATOM     58  C   UNL A   1      41.944  28.995  35.273  1.00  0.00     0.029 A 
ATOM     59  N   UNL A   1      42.740  29.927  33.418  1.00  0.00    -0.354 N 
ATOM     60  N   UNL A   1      42.960  32.021  31.374  1.00  0.00    -0.248 NA
ATOM     61  C   UNL A   1      42.187  34.010  30.426  1.00  0.00     0.031 C 
ATOM     62  C   UNL A   1      41.320  30.234  35.096  1.00  0.00     0.029 A 
ATOM     63  C   UNL A   1      41.821  30.816  33.942  1.00  0.00     0.049 A 
ATOM     64  H   UNL A   1      43.259  30.071  32.593  1.00  0.00     0.167 HD
ATOM     65  C   UNL A   1      41.988  32.572  32.201  1.00  0.00     0.074 A 
ATOM     66  C   UNL A   1      41.578  33.820  31.588  1.00  0.00     0.031 C 
ATOM     67  C   UNL A   1      41.470  32.083  33.355  1.00  0.00     0.034 A 
BRANCH  54  68
ATOM     68  C   UNL A   1      43.617  26.503  34.911  1.00  0.00     0.023 A 
ATOM     69  C   UNL A   1      42.828  25.386  34.564  1.00  0.00     0.012 A 
ATOM     70  C   UNL A   1      44.363  26.477  36.104  1.00  0.00     0.148 A 
ATOM     71  C   UNL A   1      42.754  24.279  35.406  1.00  0.00     0.002 A 
ATOM     72  C   UNL A   1      44.318  25.352  36.919  1.00  0.00     0.091 A 
ATOM     73  F   UNL A   1      45.087  27.558  36.431  1.00  0.00    -0.205 F 
ATOM     74  C   UNL A   1      43.507  24.257  36.577  1.00  0.00     0.022 A 
BRANCH  72  75
ATOM     75  S   UNL A   1      45.308  25.199  38.409  1.00  0.00     0.127 S 
ATOM     76  O   UNL A   1      44.642  26.143  39.304  1.00  0.00    -0.237 OA
ATOM     77  O   UNL A   1      45.123  23.790  38.762  1.00  0.00    -0.237 OA
ATOM     78  O   UNL A   1      46.667  25.551  38.023  1.00  0.00    -0.744 OA
ENDBRANCH  72  75
ENDBRANCH  54  68
BRANCH  55  79
ATOM     79  C   UNL A   1      44.091  33.882  28.194  1.00  0.00     0.023 A 
ATOM     80  C   UNL A   1      43.462  33.685  26.949  1.00  0.00     0.012 A 
ATOM     81  C   UNL A   1      44.716  35.114  28.459  1.00  0.00     0.148 A 
ATOM     82  C   UNL A   1      43.480  34.683  25.975  1.00  0.00     0.002 A 
ATOM     83  C   UNL A   1      44.686  36.125  27.503  1.00  0.00     0.091 A 
ATOM     84  F   UNL A   1      45.321  35.280  29.644  1.00  0.00    -0.205 F 
ATOM     85  C   UNL A   1      44.083  35.906  26.256  1.00  0.00     0.022 A 
BRANCH  83  86
ATOM     86  S   UNL A   1      45.322  37.773  27.829  1.00  0.00     0.127 S 
ATOM     87  O   UNL A   1      44.579  38.149  29.029  1.00  0.00    -0.237 OA
ATOM     88  O   UNL A   1      46.746  37.515  28.042  1.00  0.00    -0.237 OA
ATOM     89  O   UNL A   1      45.028  38.546  26.629  1.00  0.00    -0.744 OA
ENDBRANCH  83  86
ENDBRANCH  55  79
BRANCH  67  90
ATOM     90  C   UNL A   1      40.422  32.906  34.055  1.00  0.00     0.023 A 
ATOM     91  C   UNL A   1      40.816  33.912  34.959  1.00  0.00     0.012 A 
ATOM     92  C   UNL A   1      39.056  32.742  33.751  1.00  0.00     0.148 A 
ATOM     93  C   UNL A   1      39.864  34.726  35.570  1.00  0.00     0.002 A 
ATOM     94  C   UNL A   1      38.116  33.587  34.330  1.00  0.00     0.091 A 
ATOM     95  F   UNL A   1      38.701  31.764  32.905  1.00  0.00    -0.205 F 
ATOM     96  C   UNL A   1      38.518  34.573  35.246  1.00  0.00     0.022 A 
BRANCH  94  97
ATOM     97  S   UNL A   1      36.374  33.521  33.896  1.00  0.00     0.127 S 
ATOM     98  O   UNL A   1      35.766  34.282  34.985  1.00  0.00    -0.237 OA
ATOM     99  O   UNL A   1      36.350  34.190  32.595  1.00  0.00    -0.237 OA
ATOM    100  O   UNL A   1      36.031  32.106  33.849  1.00  0.00    -0.744 OA
ENDBRANCH  94  97
ENDBRANCH  67  90
ENDBRANCH  41  42
ENDBRANCH  33  36
ENDBRANCH  31  32
ENDBRANCH  30  31
ENDBRANCH   1  30
TORSDOF 21
ENDMDL
MODEL 3
REMARK VINA RESULT:      -7.5      6.298     10.968
REMARK SMILES CSCC[C@@H](C(=O)NCCCCNC(=O)c1ccc(-c2c3nc(c(-c4cccc(S(=O)(=O)[O-])c4F)c4ccc([nH]4)c(-c4cccc(S(=O)(=O)[O-])c4F)c4nc(c(-c5cccc(S(=O)(=O)[O-])c5F)c5ccc2[nH]5)C=C4)C=C3)cc1)N1C(=O)/C(=C/c2ccc(O)c(O)c2)SC1=S
REMARK SMILES IDX 10 1 9 2 8 3 6 4 7 5 5 7 4 8 3 9 2 10 1 11 79 12 80 13 93 14
REMARK SMILES IDX 81 15 82 16 92 17 94 18 83 19 84 20 85 21 91 22 86 23 89 24
REMARK SMILES IDX 87 25 90 26 88 28 11 30 12 31 13 32 14 33 15 35 16 36 17 37
REMARK SMILES IDX 78 38 18 39 77 40 19 41 20 42 21 43 71 44 22 45 76 46 70 47
REMARK SMILES IDX 72 48 23 49 75 50 69 51 68 52 24 54 56 55 36 56 55 57 37 58
REMARK SMILES IDX 40 59 54 60 73 61 38 62 39 63 53 65 74 66 41 67 25 68 26 69
REMARK SMILES IDX 34 70 27 71 29 72 35 73 28 74 30 75 31 76 32 77 33 78 57 79
REMARK SMILES IDX 58 80 66 81 59 82 61 83 67 84 60 85 62 86 63 87 64 88 65 89
REMARK SMILES IDX 42 90 43 91 51 92 44 93 46 94 52 95 45 96 47 97 48 98 49 99
REMARK SMILES IDX 50 100
REMARK H PARENT 8 6 90 27 88 29 13 34 72 53 40 64
REMARK Flexibility Score: inf
ROOT
ATOM      1  C   UNL A   1      43.307  26.991  26.458  1.00  0.00     0.023 C 
ENDROOT
BRANCH   1   2
ATOM      2  C   UNL A   1      42.441  26.263  25.435  1.00  0.00     0.116 C 
BRANCH   2   3
ATOM      3  N   UNL A   1      42.926  24.937  25.151  1.00  0.00    -0.354 N 
ATOM      4  C   UNL A   1      42.586  23.742  25.707  1.00  0.00     0.243 C 
ATOM      5  O   UNL A   1      42.909  22.741  25.056  1.00  0.00    -0.273 OA
ATOM      6  H   UNL A   1      43.610  24.887  24.445  1.00  0.00     0.163 HD
BRANCH   4   7
ATOM      7  C   UNL A   1      41.758  23.622  27.023  1.00  0.00     0.182 C 
BRANCH   7   8
ATOM      8  C   UNL A   1      42.355  22.847  28.215  1.00  0.00     0.046 C 
BRANCH   8   9
ATOM      9  C   UNL A   1      43.878  22.781  28.396  1.00  0.00     0.072 C 
BRANCH   9  10
ATOM     10  S   UNL A   1      44.718  24.342  28.825  1.00  0.00    -0.165 SA
ATOM     11  C   UNL A   1      46.122  24.326  27.673  1.00  0.00     0.085 C 
ENDBRANCH   9  10
ENDBRANCH   8   9
ENDBRANCH   7   8
BRANCH   7  12
ATOM     12  N   UNL A   1      40.454  23.015  26.615  1.00  0.00    -0.280 N 
ATOM     13  C   UNL A   1      39.351  23.840  26.465  1.00  0.00     0.266 C 
ATOM     14  C   UNL A   1      40.257  21.674  26.323  1.00  0.00     0.149 C 
ATOM     15  O   UNL A   1      39.312  25.045  26.683  1.00  0.00    -0.268 OA
ATOM     16  C   UNL A   1      38.160  23.048  26.047  1.00  0.00     0.081 C 
ATOM     17  S   UNL A   1      38.612  21.418  25.764  1.00  0.00    -0.054 SA
ATOM     18  S   UNL A   1      41.305  20.378  26.469  1.00  0.00    -0.052 S 
ATOM     19  C   UNL A   1      36.932  23.580  25.943  1.00  0.00     0.029 C 
BRANCH  19  20
ATOM     20  C   UNL A   1      35.713  22.852  25.552  1.00  0.00    -0.020 A 
ATOM     21  C   UNL A   1      35.186  23.045  24.265  1.00  0.00     0.012 A 
ATOM     22  C   UNL A   1      35.067  21.972  26.436  1.00  0.00     0.058 A 
ATOM     23  C   UNL A   1      34.051  22.340  23.850  1.00  0.00     0.051 A 
ATOM     24  C   UNL A   1      33.953  21.260  26.006  1.00  0.00     0.157 A 
ATOM     25  C   UNL A   1      33.451  21.446  24.722  1.00  0.00     0.157 A 
BRANCH  24  26
ATOM     26  O   UNL A   1      33.323  20.351  26.813  1.00  0.00    -0.504 OA
ATOM     27  H   UNL A   1      33.291  19.448  26.564  1.00  0.00     0.293 HD
ENDBRANCH  24  26
BRANCH  25  28
ATOM     28  O   UNL A   1      32.362  20.734  24.309  1.00  0.00    -0.504 OA
ATOM     29  H   UNL A   1      31.844  21.044  23.592  1.00  0.00     0.293 HD
ENDBRANCH  25  28
ENDBRANCH  19  20
ENDBRANCH   7  12
ENDBRANCH   4   7
ENDBRANCH   2   3
ENDBRANCH   1   2
BRANCH   1  30
ATOM     30  C   UNL A   1      44.620  27.534  25.892  1.00  0.00     0.023 C 
BRANCH  30  31
ATOM     31  C   UNL A   1      45.632  28.003  26.935  1.00  0.00     0.116 C 
BRANCH  31  32
ATOM     32  N   UNL A   1      46.528  29.050  26.458  1.00  0.00    -0.352 N 
ATOM     33  C   UNL A   1      47.765  29.390  26.957  1.00  0.00     0.251 C 
ATOM     34  H   UNL A   1      46.210  29.576  25.689  1.00  0.00     0.163 HD
ATOM     35  O   UNL A   1      48.380  30.351  26.506  1.00  0.00    -0.269 OA
BRANCH  33  36
ATOM     36  C   UNL A   1      48.314  28.600  28.077  1.00  0.00     0.039 A 
ATOM     37  C   UNL A   1      48.336  29.159  29.357  1.00  0.00     0.014 A 
ATOM     38  C   UNL A   1      48.706  27.276  27.870  1.00  0.00     0.014 A 
ATOM     39  C   UNL A   1      48.674  28.357  30.448  1.00  0.00     0.010 A 
ATOM     40  C   UNL A   1      48.968  26.462  28.966  1.00  0.00     0.010 A 
ATOM     41  C   UNL A   1      48.950  26.991  30.265  1.00  0.00    -0.014 A 
BRANCH  41  42
ATOM     42  C   UNL A   1      49.196  26.089  31.417  1.00  0.00     0.031 A 
ATOM     43  C   UNL A   1      48.047  25.636  32.276  1.00  0.00     0.074 A 
ATOM     44  C   UNL A   1      50.461  25.769  31.758  1.00  0.00     0.049 A 
ATOM     45  N   UNL A   1      48.067  24.916  33.367  1.00  0.00    -0.248 NA
ATOM     46  C   UNL A   1      46.701  26.081  31.878  1.00  0.00     0.031 C 
ATOM     47  C   UNL A   1      51.667  26.224  31.062  1.00  0.00     0.029 A 
ATOM     48  N   UNL A   1      50.945  25.009  32.794  1.00  0.00    -0.354 N 
ATOM     49  C   UNL A   1      46.752  24.863  33.811  1.00  0.00     0.074 A 
ATOM     50  C   UNL A   1      45.962  25.650  32.890  1.00  0.00     0.031 C 
ATOM     51  C   UNL A   1      52.749  25.728  31.683  1.00  0.00     0.029 A 
ATOM     52  C   UNL A   1      52.319  24.940  32.834  1.00  0.00     0.049 A 
ATOM     53  H   UNL A   1      50.364  24.557  33.447  1.00  0.00     0.167 HD
ATOM     54  C   UNL A   1      46.240  24.190  34.868  1.00  0.00     0.034 A 
ATOM     55  C   UNL A   1      53.138  24.309  33.699  1.00  0.00     0.034 A 
ATOM     56  C   UNL A   1      47.016  23.349  35.737  1.00  0.00     0.049 A 
ATOM     57  C   UNL A   1      52.536  23.505  34.819  1.00  0.00     0.074 A 
ATOM     58  C   UNL A   1      46.577  22.535  36.765  1.00  0.00     0.029 A 
ATOM     59  N   UNL A   1      48.395  23.213  35.679  1.00  0.00    -0.354 N 
ATOM     60  N   UNL A   1      51.272  23.322  35.115  1.00  0.00    -0.248 NA
ATOM     61  C   UNL A   1      53.470  22.790  35.702  1.00  0.00     0.031 C 
ATOM     62  C   UNL A   1      47.691  21.911  37.334  1.00  0.00     0.029 A 
ATOM     63  C   UNL A   1      48.823  22.330  36.653  1.00  0.00     0.049 A 
ATOM     64  H   UNL A   1      48.982  23.677  35.039  1.00  0.00     0.167 HD
ATOM     65  C   UNL A   1      51.257  22.444  36.193  1.00  0.00     0.074 A 
ATOM     66  C   UNL A   1      52.638  22.116  36.484  1.00  0.00     0.031 C 
ATOM     67  C   UNL A   1      50.196  21.964  36.890  1.00  0.00     0.034 A 
BRANCH  54  68
ATOM     68  C   UNL A   1      44.755  24.279  35.098  1.00  0.00     0.023 A 
ATOM     69  C   UNL A   1      43.903  23.332  34.493  1.00  0.00     0.012 A 
ATOM     70  C   UNL A   1      44.206  25.261  35.944  1.00  0.00     0.148 A 
ATOM     71  C   UNL A   1      42.526  23.382  34.696  1.00  0.00     0.002 A 
ATOM     72  C   UNL A   1      42.835  25.279  36.176  1.00  0.00     0.091 A 
ATOM     73  F   UNL A   1      45.027  26.170  36.490  1.00  0.00    -0.205 F 
ATOM     74  C   UNL A   1      41.993  24.348  35.546  1.00  0.00     0.022 A 
BRANCH  72  75
ATOM     75  S   UNL A   1      42.064  26.437  37.312  1.00  0.00     0.127 S 
ATOM     76  O   UNL A   1      42.929  26.321  38.484  1.00  0.00    -0.237 OA
ATOM     77  O   UNL A   1      42.183  27.705  36.590  1.00  0.00    -0.237 OA
ATOM     78  O   UNL A   1      40.696  25.970  37.491  1.00  0.00    -0.744 OA
ENDBRANCH  72  75
ENDBRANCH  54  68
BRANCH  55  79
ATOM     79  C   UNL A   1      54.612  24.335  33.482  1.00  0.00     0.023 A 
ATOM     80  C   UNL A   1      55.177  23.476  32.518  1.00  0.00     0.012 A 
ATOM     81  C   UNL A   1      55.452  25.214  34.192  1.00  0.00     0.148 A 
ATOM     82  C   UNL A   1      56.552  23.471  32.285  1.00  0.00     0.002 A 
ATOM     83  C   UNL A   1      56.816  25.241  33.920  1.00  0.00     0.091 A 
ATOM     84  F   UNL A   1      54.899  26.014  35.116  1.00  0.00    -0.205 F 
ATOM     85  C   UNL A   1      57.370  24.360  32.978  1.00  0.00     0.022 A 
BRANCH  83  86
ATOM     86  S   UNL A   1      57.921  26.442  34.669  1.00  0.00     0.127 S 
ATOM     87  O   UNL A   1      58.615  25.630  35.664  1.00  0.00    -0.237 OA
ATOM     88  O   UNL A   1      58.741  26.856  33.530  1.00  0.00    -0.237 OA
ATOM     89  O   UNL A   1      57.055  27.490  35.193  1.00  0.00    -0.744 OA
ENDBRANCH  83  86
ENDBRANCH  55  79
BRANCH  67  90
ATOM     90  C   UNL A   1      50.475  21.008  38.018  1.00  0.00     0.023 A 
ATOM     91  C   UNL A   1      50.520  19.624  37.762  1.00  0.00     0.012 A 
ATOM     92  C   UNL A   1      50.778  21.486  39.308  1.00  0.00     0.148 A 
ATOM     93  C   UNL A   1      50.839  18.727  38.781  1.00  0.00     0.002 A 
ATOM     94  C   UNL A   1      51.138  20.590  40.307  1.00  0.00     0.091 A 
ATOM     95  F   UNL A   1      50.707  22.806  39.535  1.00  0.00    -0.205 F 
ATOM     96  C   UNL A   1      51.160  19.209  40.047  1.00  0.00     0.022 A 
BRANCH  94  97
ATOM     97  S   UNL A   1      51.659  21.133  41.938  1.00  0.00     0.127 S 
ATOM     98  O   UNL A   1      50.442  21.764  42.445  1.00  0.00    -0.237 OA
ATOM     99  O   UNL A   1      52.009  19.872  42.592  1.00  0.00    -0.237 OA
ATOM    100  O   UNL A   1      52.787  22.028  41.717  1.00  0.00    -0.744 OA
ENDBRANCH  94  97
ENDBRANCH  67  90
ENDBRANCH  41  42
ENDBRANCH  33  36
ENDBRANCH  31  32
ENDBRANCH  30  31
ENDBRANCH   1  30
TORSDOF 21
ENDMDL
