MODEL 1
REMARK VINA RESULT:     -13.7      0.000      0.000
REMARK SMILES CCOc1cc2c(cc1/C=C1/C(=O)N(c3cccc(C(=O)NCCCCNC(=O)c4ccc(-c5c6nc(c(-c7cccc(S(=O)(=O)[O-])c7F)c7ccc([nH]7)c(-c7cccc(S(=O)(=O)[O-])c7F)c7nc(c(-c8cccc(S(=O)(=O)[O-])c8F)c8ccc5[nH]8)C=C7)C=C6)cc4)c3)C(=S)N=C1O)OCO2
REMARK SMILES IDX 24 1 23 2 22 3 20 4 21 5 19 7 15 8 16 9 93 10 17 11 18 12
REMARK SMILES IDX 14 13 10 14 11 15 12 16 97 17 13 18 96 19 94 20 95 21 9 22
REMARK SMILES IDX 4 23 5 24 6 25 8 26 7 27 101 28 99 29 100 30 3 31 2 32 1 33
REMARK SMILES IDX 98 34 25 36 26 37 27 38 28 39 29 41 30 42 31 43 92 44 32 45
REMARK SMILES IDX 91 46 33 47 34 48 35 49 85 50 36 51 90 52 84 53 86 54 37 55
REMARK SMILES IDX 89 56 83 57 82 58 38 60 70 61 50 62 69 63 51 64 54 65 68 66
REMARK SMILES IDX 87 67 52 68 53 69 67 71 88 72 55 73 39 74 40 75 48 76 41 77
REMARK SMILES IDX 43 78 49 79 42 80 44 81 45 82 46 83 47 84 71 85 72 86 80 87
REMARK SMILES IDX 73 88 75 89 81 90 74 91 76 92 77 93 78 94 79 95 56 96 57 97
REMARK SMILES IDX 65 98 58 99 60 100 66 101 59 102 61 103 62 104 63 105 64 106
REMARK H PARENT 22 6 98 35 27 40 86 59 54 70
REMARK Flexibility Score: inf
ROOT
ATOM      1  C   UNL A   1      35.214  21.748  26.714  1.00  0.00     0.023 C 
ENDROOT
BRANCH   1   2
ATOM      2  C   UNL A   1      33.715  21.514  26.831  1.00  0.00     0.116 C 
BRANCH   2   3
ATOM      3  N   UNL A   1      33.270  20.154  26.578  1.00  0.00    -0.352 N 
ATOM      4  C   UNL A   1      32.859  19.540  25.411  1.00  0.00     0.251 C 
ATOM      5  O   UNL A   1      32.536  18.353  25.442  1.00  0.00    -0.269 OA
ATOM      6  H   UNL A   1      33.258  19.573  27.373  1.00  0.00     0.163 HD
BRANCH   4   7
ATOM      7  C   UNL A   1      32.721  20.288  24.131  1.00  0.00     0.041 A 
ATOM      8  C   UNL A   1      32.651  22.402  22.922  1.00  0.00     0.052 A 
ATOM      9  C   UNL A   1      32.090  21.735  21.829  1.00  0.00     0.027 A 
ATOM     10  C   UNL A   1      33.101  21.624  24.001  1.00  0.00     0.040 A 
ATOM     11  C   UNL A   1      31.844  20.359  21.880  1.00  0.00     0.003 A 
ATOM     12  C   UNL A   1      32.116  19.647  23.046  1.00  0.00     0.014 A 
BRANCH   8  13
ATOM     13  N   UNL A   1      32.593  23.840  23.115  1.00  0.00    -0.251 N 
ATOM     14  C   UNL A   1      30.154  26.579  23.296  1.00  0.00     0.031 C 
ATOM     15  C   UNL A   1      31.288  25.913  22.984  1.00  0.00     0.103 C 
ATOM     16  C   UNL A   1      31.309  24.425  23.093  1.00  0.00     0.270 C 
ATOM     17  C   UNL A   1      32.557  26.485  22.568  1.00  0.00     0.226 C 
ATOM     18  O   UNL A   1      30.253  23.797  23.184  1.00  0.00    -0.268 OA
ATOM     19  N   UNL A   1      33.697  25.920  22.631  1.00  0.00    -0.184 NA
ATOM     20  C   UNL A   1      33.784  24.621  23.075  1.00  0.00     0.210 C 
ATOM     21  S   UNL A   1      35.369  24.094  23.391  1.00  0.00    -0.038 S 
BRANCH  14  22
ATOM     22  C   UNL A   1      29.936  28.045  23.383  1.00  0.00     0.021 A 
ATOM     23  C   UNL A   1      30.572  28.836  24.385  1.00  0.00     0.130 A 
ATOM     24  C   UNL A   1      30.331  30.215  24.460  1.00  0.00     0.097 A 
ATOM     25  C   UNL A   1      29.450  30.774  23.564  1.00  0.00     0.169 A 
ATOM     26  C   UNL A   1      29.126  28.687  22.428  1.00  0.00     0.062 A 
ATOM     27  C   UNL A   1      28.869  30.032  22.570  1.00  0.00     0.166 A 
ATOM     28  O   UNL A   1      29.074  32.080  23.522  1.00  0.00    -0.453 OA
ATOM     29  O   UNL A   1      28.044  30.772  21.782  1.00  0.00    -0.454 OA
ATOM     30  C   UNL A   1      28.097  32.042  22.462  1.00  0.00     0.468 C 
BRANCH  23  31
ATOM     31  O   UNL A   1      31.512  28.234  25.185  1.00  0.00    -0.493 OA
BRANCH  31  32
ATOM     32  C   UNL A   1      31.940  28.978  26.334  1.00  0.00     0.226 C 
ATOM     33  C   UNL A   1      31.550  28.308  27.645  1.00  0.00     0.049 C 
ENDBRANCH  31  32
ENDBRANCH  23  31
ENDBRANCH  14  22
BRANCH  17  34
ATOM     34  O   UNL A   1      32.529  27.690  21.996  1.00  0.00    -0.493 OA
ATOM     35  H   UNL A   1      32.245  27.781  21.108  1.00  0.00     0.295 HD
ENDBRANCH  17  34
ENDBRANCH   8  13
ENDBRANCH   4   7
ENDBRANCH   2   3
ENDBRANCH   1   2
BRANCH   1  36
ATOM     36  C   UNL A   1      35.941  20.987  25.615  1.00  0.00     0.023 C 
BRANCH  36  37
ATOM     37  C   UNL A   1      37.330  21.495  25.251  1.00  0.00     0.116 C 
BRANCH  37  38
ATOM     38  N   UNL A   1      38.405  20.558  25.562  1.00  0.00    -0.352 N 
ATOM     39  C   UNL A   1      39.609  20.790  26.191  1.00  0.00     0.251 C 
ATOM     40  H   UNL A   1      38.246  19.628  25.282  1.00  0.00     0.163 HD
ATOM     41  O   UNL A   1      40.426  19.886  26.315  1.00  0.00    -0.269 OA
BRANCH  39  42
ATOM     42  C   UNL A   1      39.922  22.151  26.678  1.00  0.00     0.039 A 
ATOM     43  C   UNL A   1      40.885  22.312  27.679  1.00  0.00     0.014 A 
ATOM     44  C   UNL A   1      39.317  23.267  26.098  1.00  0.00     0.014 A 
ATOM     45  C   UNL A   1      41.316  23.595  28.025  1.00  0.00     0.010 A 
ATOM     46  C   UNL A   1      39.805  24.537  26.384  1.00  0.00     0.010 A 
ATOM     47  C   UNL A   1      40.817  24.716  27.342  1.00  0.00    -0.014 A 
BRANCH  47  48
ATOM     48  C   UNL A   1      41.336  26.088  27.583  1.00  0.00     0.031 A 
ATOM     49  C   UNL A   1      42.736  26.438  27.158  1.00  0.00     0.074 A 
ATOM     50  C   UNL A   1      40.610  26.965  28.305  1.00  0.00     0.049 A 
ATOM     51  N   UNL A   1      43.436  27.510  27.425  1.00  0.00    -0.248 NA
ATOM     52  C   UNL A   1      43.458  25.433  26.360  1.00  0.00     0.031 C 
ATOM     53  C   UNL A   1      39.268  26.720  28.840  1.00  0.00     0.029 A 
ATOM     54  N   UNL A   1      40.915  28.229  28.748  1.00  0.00    -0.354 N 
ATOM     55  C   UNL A   1      44.694  27.284  26.879  1.00  0.00     0.074 A 
ATOM     56  C   UNL A   1      44.669  25.965  26.286  1.00  0.00     0.031 C 
ATOM     57  C   UNL A   1      38.871  27.792  29.544  1.00  0.00     0.029 A 
ATOM     58  C   UNL A   1      39.939  28.787  29.542  1.00  0.00     0.049 A 
ATOM     59  H   UNL A   1      41.754  28.692  28.520  1.00  0.00     0.167 HD
ATOM     60  C   UNL A   1      45.766  28.110  26.850  1.00  0.00     0.034 A 
ATOM     61  C   UNL A   1      39.912  29.961  30.204  1.00  0.00     0.034 A 
ATOM     62  C   UNL A   1      45.766  29.446  27.377  1.00  0.00     0.049 A 
ATOM     63  C   UNL A   1      41.093  30.889  30.099  1.00  0.00     0.074 A 
ATOM     64  C   UNL A   1      46.768  30.397  27.309  1.00  0.00     0.029 A 
ATOM     65  N   UNL A   1      44.711  30.023  28.065  1.00  0.00    -0.354 N 
ATOM     66  N   UNL A   1      42.219  30.718  29.449  1.00  0.00    -0.248 NA
ATOM     67  C   UNL A   1      40.989  32.185  30.788  1.00  0.00     0.031 C 
ATOM     68  C   UNL A   1      46.320  31.550  27.963  1.00  0.00     0.029 A 
ATOM     69  C   UNL A   1      45.034  31.320  28.426  1.00  0.00     0.049 A 
ATOM     70  H   UNL A   1      43.856  29.577  28.268  1.00  0.00     0.167 HD
ATOM     71  C   UNL A   1      42.937  31.897  29.615  1.00  0.00     0.074 A 
ATOM     72  C   UNL A   1      42.116  32.779  30.417  1.00  0.00     0.031 C 
ATOM     73  C   UNL A   1      44.174  32.213  29.158  1.00  0.00     0.034 A 
BRANCH  60  74
ATOM     74  C   UNL A   1      47.012  27.614  26.165  1.00  0.00     0.023 A 
ATOM     75  C   UNL A   1      47.951  26.862  26.897  1.00  0.00     0.012 A 
ATOM     76  C   UNL A   1      47.228  27.844  24.793  1.00  0.00     0.148 A 
ATOM     77  C   UNL A   1      49.105  26.375  26.286  1.00  0.00     0.002 A 
ATOM     78  C   UNL A   1      48.360  27.319  24.179  1.00  0.00     0.091 A 
ATOM     79  F   UNL A   1      46.336  28.583  24.117  1.00  0.00    -0.205 F 
ATOM     80  C   UNL A   1      49.304  26.596  24.926  1.00  0.00     0.022 A 
BRANCH  78  81
ATOM     81  S   UNL A   1      48.666  27.482  22.416  1.00  0.00     0.127 S 
ATOM     82  O   UNL A   1      47.541  28.318  21.998  1.00  0.00    -0.237 OA
ATOM     83  O   UNL A   1      49.966  28.154  22.387  1.00  0.00    -0.237 OA
ATOM     84  O   UNL A   1      48.673  26.127  21.885  1.00  0.00    -0.744 OA
ENDBRANCH  78  81
ENDBRANCH  60  74
BRANCH  61  85
ATOM     85  C   UNL A   1      38.694  30.359  30.967  1.00  0.00     0.023 A 
ATOM     86  C   UNL A   1      38.592  30.006  32.327  1.00  0.00     0.012 A 
ATOM     87  C   UNL A   1      37.658  31.105  30.372  1.00  0.00     0.148 A 
ATOM     88  C   UNL A   1      37.467  30.362  33.073  1.00  0.00     0.002 A 
ATOM     89  C   UNL A   1      36.564  31.501  31.135  1.00  0.00     0.091 A 
ATOM     90  F   UNL A   1      37.766  31.420  29.074  1.00  0.00    -0.205 F 
ATOM     91  C   UNL A   1      36.459  31.117  32.481  1.00  0.00     0.022 A 
BRANCH  89  92
ATOM     92  S   UNL A   1      35.284  32.584  30.490  1.00  0.00     0.127 S 
ATOM     93  O   UNL A   1      36.043  33.791  30.174  1.00  0.00    -0.237 OA
ATOM     94  O   UNL A   1      34.806  31.834  29.327  1.00  0.00    -0.237 OA
ATOM     95  O   UNL A   1      34.305  32.710  31.561  1.00  0.00    -0.744 OA
ENDBRANCH  89  92
ENDBRANCH  61  85
BRANCH  73  96
ATOM     96  C   UNL A   1      44.708  33.587  29.459  1.00  0.00     0.023 A 
ATOM     97  C   UNL A   1      45.331  33.838  30.696  1.00  0.00     0.012 A 
ATOM     98  C   UNL A   1      44.692  34.592  28.473  1.00  0.00     0.148 A 
ATOM     99  C   UNL A   1      45.914  35.078  30.955  1.00  0.00     0.002 A 
ATOM    100  C   UNL A   1      45.313  35.811  28.721  1.00  0.00     0.091 A 
ATOM    101  F   UNL A   1      44.076  34.337  27.309  1.00  0.00    -0.205 F 
ATOM    102  C   UNL A   1      45.918  36.058  29.964  1.00  0.00     0.022 A 
BRANCH 100 103
ATOM    103  S   UNL A   1      45.450  37.093  27.470  1.00  0.00     0.127 S 
ATOM    104  O   UNL A   1      44.089  37.622  27.437  1.00  0.00    -0.237 OA
ATOM    105  O   UNL A   1      46.442  37.995  28.057  1.00  0.00    -0.237 OA
ATOM    106  O   UNL A   1      45.890  36.422  26.254  1.00  0.00    -0.744 OA
ENDBRANCH 100 103
ENDBRANCH  73  96
ENDBRANCH  47  48
ENDBRANCH  39  42
ENDBRANCH  37  38
ENDBRANCH  36  37
ENDBRANCH   1  36
TORSDOF 19
ENDMDL
MODEL 2
REMARK VINA RESULT:     -13.3      2.232      2.769
REMARK SMILES CCOc1cc2c(cc1/C=C1/C(=O)N(c3cccc(C(=O)NCCCCNC(=O)c4ccc(-c5c6nc(c(-c7cccc(S(=O)(=O)[O-])c7F)c7ccc([nH]7)c(-c7cccc(S(=O)(=O)[O-])c7F)c7nc(c(-c8cccc(S(=O)(=O)[O-])c8F)c8ccc5[nH]8)C=C7)C=C6)cc4)c3)C(=S)N=C1O)OCO2
REMARK SMILES IDX 24 1 23 2 22 3 20 4 21 5 19 7 15 8 16 9 93 10 17 11 18 12
REMARK SMILES IDX 14 13 10 14 11 15 12 16 97 17 13 18 96 19 94 20 95 21 9 22
REMARK SMILES IDX 4 23 5 24 6 25 8 26 7 27 101 28 99 29 100 30 3 31 2 32 1 33
REMARK SMILES IDX 98 34 25 36 26 37 27 38 28 39 29 41 30 42 31 43 92 44 32 45
REMARK SMILES IDX 91 46 33 47 34 48 35 49 85 50 36 51 90 52 84 53 86 54 37 55
REMARK SMILES IDX 89 56 83 57 82 58 38 60 70 61 50 62 69 63 51 64 54 65 68 66
REMARK SMILES IDX 87 67 52 68 53 69 67 71 88 72 55 73 39 74 40 75 48 76 41 77
REMARK SMILES IDX 43 78 49 79 42 80 44 81 45 82 46 83 47 84 71 85 72 86 80 87
REMARK SMILES IDX 73 88 75 89 81 90 74 91 76 92 77 93 78 94 79 95 56 96 57 97
REMARK SMILES IDX 65 98 58 99 60 100 66 101 59 102 61 103 62 104 63 105 64 106
REMARK H PARENT 22 6 98 35 27 40 86 59 54 70
REMARK Flexibility Score: inf
ROOT
ATOM      1  C   UNL A   1      35.572  20.831  24.944  1.00  0.00     0.023 C 
ENDROOT
BRANCH   1   2
ATOM      2  C   UNL A   1      34.173  20.233  24.936  1.00  0.00     0.116 C 
BRANCH   2   3
ATOM      3  N   UNL A   1      33.418  20.416  23.707  1.00  0.00    -0.352 N 
ATOM      4  C   UNL A   1      32.418  21.313  23.386  1.00  0.00     0.251 C 
ATOM      5  O   UNL A   1      31.930  21.286  22.257  1.00  0.00    -0.269 OA
ATOM      6  H   UNL A   1      33.661  19.797  22.981  1.00  0.00     0.163 HD
BRANCH   4   7
ATOM      7  C   UNL A   1      31.855  22.260  24.388  1.00  0.00     0.041 A 
ATOM      8  C   UNL A   1      31.129  24.507  24.987  1.00  0.00     0.052 A 
ATOM      9  C   UNL A   1      31.167  24.138  26.335  1.00  0.00     0.027 A 
ATOM     10  C   UNL A   1      31.325  23.500  24.029  1.00  0.00     0.040 A 
ATOM     11  C   UNL A   1      31.545  22.845  26.713  1.00  0.00     0.003 A 
ATOM     12  C   UNL A   1      31.933  21.923  25.742  1.00  0.00     0.014 A 
BRANCH   8  13
ATOM     13  N   UNL A   1      31.126  25.881  24.520  1.00  0.00    -0.251 N 
ATOM     14  C   UNL A   1      28.791  28.515  23.473  1.00  0.00     0.031 C 
ATOM     15  C   UNL A   1      29.893  27.732  23.485  1.00  0.00     0.103 C 
ATOM     16  C   UNL A   1      29.863  26.448  24.245  1.00  0.00     0.270 C 
ATOM     17  C   UNL A   1      31.172  28.006  22.853  1.00  0.00     0.226 C 
ATOM     18  O   UNL A   1      28.788  25.971  24.610  1.00  0.00    -0.268 OA
ATOM     19  N   UNL A   1      32.292  27.482  23.156  1.00  0.00    -0.184 NA
ATOM     20  C   UNL A   1      32.343  26.513  24.132  1.00  0.00     0.210 C 
ATOM     21  S   UNL A   1      33.915  26.116  24.643  1.00  0.00    -0.038 S 
BRANCH  14  22
ATOM     22  C   UNL A   1      28.627  29.874  22.899  1.00  0.00     0.021 A 
ATOM     23  C   UNL A   1      28.932  31.044  23.653  1.00  0.00     0.130 A 
ATOM     24  C   UNL A   1      28.747  32.317  23.097  1.00  0.00     0.097 A 
ATOM     25  C   UNL A   1      28.240  32.404  21.821  1.00  0.00     0.169 A 
ATOM     26  C   UNL A   1      28.211  30.021  21.562  1.00  0.00     0.062 A 
ATOM     27  C   UNL A   1      27.987  31.287  21.071  1.00  0.00     0.166 A 
ATOM     28  O   UNL A   1      27.962  33.553  21.148  1.00  0.00    -0.453 OA
ATOM     29  O   UNL A   1      27.506  31.586  19.834  1.00  0.00    -0.454 OA
ATOM     30  C   UNL A   1      27.392  33.021  19.935  1.00  0.00     0.468 C 
BRANCH  23  31
ATOM     31  O   UNL A   1      29.524  30.886  24.882  1.00  0.00    -0.493 OA
BRANCH  31  32
ATOM     32  C   UNL A   1      30.930  31.160  24.952  1.00  0.00     0.226 C 
ATOM     33  C   UNL A   1      31.676  30.175  25.843  1.00  0.00     0.049 C 
ENDBRANCH  31  32
ENDBRANCH  23  31
ENDBRANCH  14  22
BRANCH  17  34
ATOM     34  O   UNL A   1      31.175  28.832  21.805  1.00  0.00    -0.493 OA
ATOM     35  H   UNL A   1      31.983  29.057  21.388  1.00  0.00     0.295 HD
ENDBRANCH  17  34
ENDBRANCH   8  13
ENDBRANCH   4   7
ENDBRANCH   2   3
ENDBRANCH   1   2
BRANCH   1  36
ATOM     36  C   UNL A   1      35.671  22.334  25.157  1.00  0.00     0.023 C 
BRANCH  36  37
ATOM     37  C   UNL A   1      37.008  22.854  25.670  1.00  0.00     0.116 C 
BRANCH  37  38
ATOM     38  N   UNL A   1      37.991  21.807  25.931  1.00  0.00    -0.352 N 
ATOM     39  C   UNL A   1      39.260  21.914  26.458  1.00  0.00     0.251 C 
ATOM     40  H   UNL A   1      37.706  20.894  25.696  1.00  0.00     0.163 HD
ATOM     41  O   UNL A   1      39.977  20.925  26.551  1.00  0.00    -0.269 OA
BRANCH  39  42
ATOM     42  C   UNL A   1      39.763  23.242  26.873  1.00  0.00     0.039 A 
ATOM     43  C   UNL A   1      40.672  23.325  27.931  1.00  0.00     0.014 A 
ATOM     44  C   UNL A   1      39.391  24.390  26.172  1.00  0.00     0.014 A 
ATOM     45  C   UNL A   1      41.287  24.546  28.220  1.00  0.00     0.010 A 
ATOM     46  C   UNL A   1      40.064  25.584  26.407  1.00  0.00     0.010 A 
ATOM     47  C   UNL A   1      41.026  25.674  27.425  1.00  0.00    -0.014 A 
BRANCH  47  48
ATOM     48  C   UNL A   1      41.750  26.959  27.610  1.00  0.00     0.031 A 
ATOM     49  C   UNL A   1      43.185  27.074  27.174  1.00  0.00     0.074 A 
ATOM     50  C   UNL A   1      41.169  27.966  28.294  1.00  0.00     0.049 A 
ATOM     51  N   UNL A   1      44.042  28.037  27.398  1.00  0.00    -0.248 NA
ATOM     52  C   UNL A   1      43.742  25.939  26.419  1.00  0.00     0.031 C 
ATOM     53  C   UNL A   1      39.809  27.951  28.836  1.00  0.00     0.029 A 
ATOM     54  N   UNL A   1      41.666  29.186  28.685  1.00  0.00    -0.354 N 
ATOM     55  C   UNL A   1      45.248  27.599  26.864  1.00  0.00     0.074 A 
ATOM     56  C   UNL A   1      45.019  26.276  26.325  1.00  0.00     0.031 C 
ATOM     57  C   UNL A   1      39.583  29.099  29.496  1.00  0.00     0.029 A 
ATOM     58  C   UNL A   1      40.790  29.919  29.454  1.00  0.00     0.049 A 
ATOM     59  H   UNL A   1      42.564  29.505  28.440  1.00  0.00     0.167 HD
ATOM     60  C   UNL A   1      46.433  28.250  26.802  1.00  0.00     0.034 A 
ATOM     61  C   UNL A   1      40.946  31.109  30.067  1.00  0.00     0.034 A 
ATOM     62  C   UNL A   1      46.639  29.592  27.274  1.00  0.00     0.049 A 
ATOM     63  C   UNL A   1      42.254  31.840  29.925  1.00  0.00     0.074 A 
ATOM     64  C   UNL A   1      47.774  30.375  27.169  1.00  0.00     0.029 A 
ATOM     65  N   UNL A   1      45.688  30.350  27.936  1.00  0.00    -0.354 N 
ATOM     66  N   UNL A   1      43.337  31.474  29.286  1.00  0.00    -0.248 NA
ATOM     67  C   UNL A   1      42.352  33.164  30.561  1.00  0.00     0.031 C 
ATOM     68  C   UNL A   1      47.510  31.609  27.774  1.00  0.00     0.029 A 
ATOM     69  C   UNL A   1      46.206  31.596  28.243  1.00  0.00     0.049 A 
ATOM     70  H   UNL A   1      44.776  30.048  28.156  1.00  0.00     0.167 HD
ATOM     71  C   UNL A   1      44.228  32.535  29.404  1.00  0.00     0.074 A 
ATOM     72  C   UNL A   1      43.554  33.564  30.167  1.00  0.00     0.031 C 
ATOM     73  C   UNL A   1      45.496  32.639  28.936  1.00  0.00     0.034 A 
BRANCH  60  74
ATOM     74  C   UNL A   1      47.586  27.543  26.140  1.00  0.00     0.023 A 
ATOM     75  C   UNL A   1      47.785  27.694  24.753  1.00  0.00     0.012 A 
ATOM     76  C   UNL A   1      48.498  26.777  26.891  1.00  0.00     0.148 A 
ATOM     77  C   UNL A   1      48.854  27.066  24.116  1.00  0.00     0.002 A 
ATOM     78  C   UNL A   1      49.586  26.188  26.255  1.00  0.00     0.091 A 
ATOM     79  F   UNL A   1      48.278  26.624  28.205  1.00  0.00    -0.205 F 
ATOM     80  C   UNL A   1      49.758  26.322  24.868  1.00  0.00     0.022 A 
BRANCH  78  81
ATOM     81  S   UNL A   1      50.848  25.276  27.151  1.00  0.00     0.127 S 
ATOM     82  O   UNL A   1      50.064  24.194  27.746  1.00  0.00    -0.237 OA
ATOM     83  O   UNL A   1      51.748  24.854  26.075  1.00  0.00    -0.237 OA
ATOM     84  O   UNL A   1      51.432  26.220  28.092  1.00  0.00    -0.744 OA
ENDBRANCH  78  81
ENDBRANCH  60  74
BRANCH  61  85
ATOM     85  C   UNL A   1      39.806  31.719  30.811  1.00  0.00     0.023 A 
ATOM     86  C   UNL A   1      38.869  32.501  30.105  1.00  0.00     0.012 A 
ATOM     87  C   UNL A   1      39.623  31.510  32.191  1.00  0.00     0.148 A 
ATOM     88  C   UNL A   1      37.790  33.088  30.766  1.00  0.00     0.002 A 
ATOM     89  C   UNL A   1      38.516  32.055  32.834  1.00  0.00     0.091 A 
ATOM     90  F   UNL A   1      40.532  30.776  32.848  1.00  0.00    -0.205 F 
ATOM     91  C   UNL A   1      37.608  32.857  32.127  1.00  0.00     0.022 A 
BRANCH  89  92
ATOM     92  S   UNL A   1      38.133  31.702  34.553  1.00  0.00     0.127 S 
ATOM     93  O   UNL A   1      36.783  32.247  34.677  1.00  0.00    -0.237 OA
ATOM     94  O   UNL A   1      38.214  30.241  34.590  1.00  0.00    -0.237 OA
ATOM     95  O   UNL A   1      39.165  32.377  35.329  1.00  0.00    -0.744 OA
ENDBRANCH  89  92
ENDBRANCH  61  85
BRANCH  73  96
ATOM     96  C   UNL A   1      46.235  33.927  29.182  1.00  0.00     0.023 A 
ATOM     97  C   UNL A   1      47.053  34.056  30.320  1.00  0.00     0.012 A 
ATOM     98  C   UNL A   1      46.206  34.961  28.226  1.00  0.00     0.148 A 
ATOM     99  C   UNL A   1      47.817  35.207  30.513  1.00  0.00     0.002 A 
ATOM    100  C   UNL A   1      47.003  36.086  28.403  1.00  0.00     0.091 A 
ATOM    101  F   UNL A   1      45.404  34.824  27.159  1.00  0.00    -0.205 F 
ATOM    102  C   UNL A   1      47.803  36.213  29.551  1.00  0.00     0.022 A 
BRANCH 100 103
ATOM    103  S   UNL A   1      47.121  37.385  27.169  1.00  0.00     0.127 S 
ATOM    104  O   UNL A   1      45.749  37.887  27.133  1.00  0.00    -0.237 OA
ATOM    105  O   UNL A   1      48.090  38.301  27.773  1.00  0.00    -0.237 OA
ATOM    106  O   UNL A   1      47.583  36.739  25.948  1.00  0.00    -0.744 OA
ENDBRANCH 100 103
ENDBRANCH  73  96
ENDBRANCH  47  48
ENDBRANCH  39  42
ENDBRANCH  37  38
ENDBRANCH  36  37
ENDBRANCH   1  36
TORSDOF 19
ENDMDL
MODEL 3
REMARK VINA RESULT:     -13.2      6.047     10.007
REMARK SMILES CCOc1cc2c(cc1/C=C1/C(=O)N(c3cccc(C(=O)NCCCCNC(=O)c4ccc(-c5c6nc(c(-c7cccc(S(=O)(=O)[O-])c7F)c7ccc([nH]7)c(-c7cccc(S(=O)(=O)[O-])c7F)c7nc(c(-c8cccc(S(=O)(=O)[O-])c8F)c8ccc5[nH]8)C=C7)C=C6)cc4)c3)C(=S)N=C1O)OCO2
REMARK SMILES IDX 24 1 23 2 22 3 20 4 21 5 19 7 15 8 16 9 93 10 17 11 18 12
REMARK SMILES IDX 14 13 10 14 11 15 12 16 97 17 13 18 96 19 94 20 95 21 9 22
REMARK SMILES IDX 4 23 5 24 6 25 8 26 7 27 101 28 99 29 100 30 3 31 2 32 1 33
REMARK SMILES IDX 98 34 25 36 26 37 27 38 28 39 29 41 30 42 31 43 92 44 32 45
REMARK SMILES IDX 91 46 33 47 34 48 35 49 85 50 36 51 90 52 84 53 86 54 37 55
REMARK SMILES IDX 89 56 83 57 82 58 38 60 70 61 50 62 69 63 51 64 54 65 68 66
REMARK SMILES IDX 87 67 52 68 53 69 67 71 88 72 55 73 39 74 40 75 48 76 41 77
REMARK SMILES IDX 43 78 49 79 42 80 44 81 45 82 46 83 47 84 71 85 72 86 80 87
REMARK SMILES IDX 73 88 75 89 81 90 74 91 76 92 77 93 78 94 79 95 56 96 57 97
REMARK SMILES IDX 65 98 58 99 60 100 66 101 59 102 61 103 62 104 63 105 64 106
REMARK H PARENT 22 6 98 35 27 40 86 59 54 70
REMARK Flexibility Score: inf
ROOT
ATOM      1  C   UNL A   1      43.131  23.082  28.301  1.00  0.00     0.023 C 
ENDROOT
BRANCH   1   2
ATOM      2  C   UNL A   1      42.237  24.302  28.462  1.00  0.00     0.116 C 
BRANCH   2   3
ATOM      3  N   UNL A   1      40.838  24.107  28.120  1.00  0.00    -0.352 N 
ATOM      4  C   UNL A   1      39.856  25.016  27.780  1.00  0.00     0.251 C 
ATOM      5  O   UNL A   1      38.727  24.605  27.513  1.00  0.00    -0.269 OA
ATOM      6  H   UNL A   1      40.540  23.169  28.134  1.00  0.00     0.163 HD
BRANCH   4   7
ATOM      7  C   UNL A   1      40.097  26.485  27.800  1.00  0.00     0.041 A 
ATOM      8  C   UNL A   1      39.720  28.669  28.811  1.00  0.00     0.052 A 
ATOM      9  C   UNL A   1      40.215  29.270  27.649  1.00  0.00     0.027 A 
ATOM     10  C   UNL A   1      39.821  27.274  28.918  1.00  0.00     0.040 A 
ATOM     11  C   UNL A   1      40.648  28.492  26.571  1.00  0.00     0.003 A 
ATOM     12  C   UNL A   1      40.545  27.103  26.629  1.00  0.00     0.014 A 
BRANCH   8  13
ATOM     13  N   UNL A   1      38.913  29.358  29.802  1.00  0.00    -0.251 N 
ATOM     14  C   UNL A   1      39.208  30.910  33.117  1.00  0.00     0.031 C 
ATOM     15  C   UNL A   1      38.687  30.190  32.098  1.00  0.00     0.103 C 
ATOM     16  C   UNL A   1      39.577  29.768  30.977  1.00  0.00     0.270 C 
ATOM     17  C   UNL A   1      37.303  29.782  31.929  1.00  0.00     0.226 C 
ATOM     18  O   UNL A   1      40.801  29.821  31.107  1.00  0.00    -0.268 OA
ATOM     19  N   UNL A   1      36.744  29.441  30.837  1.00  0.00    -0.184 NA
ATOM     20  C   UNL A   1      37.492  29.382  29.684  1.00  0.00     0.210 C 
ATOM     21  S   UNL A   1      36.576  29.208  28.263  1.00  0.00    -0.038 S 
BRANCH  14  22
ATOM     22  C   UNL A   1      38.503  31.539  34.261  1.00  0.00     0.021 A 
ATOM     23  C   UNL A   1      37.721  32.720  34.099  1.00  0.00     0.130 A 
ATOM     24  C   UNL A   1      37.084  33.308  35.200  1.00  0.00     0.097 A 
ATOM     25  C   UNL A   1      37.256  32.733  36.438  1.00  0.00     0.169 A 
ATOM     26  C   UNL A   1      38.559  30.935  35.531  1.00  0.00     0.062 A 
ATOM     27  C   UNL A   1      37.967  31.574  36.598  1.00  0.00     0.166 A 
ATOM     28  O   UNL A   1      36.746  33.193  37.611  1.00  0.00    -0.453 OA
ATOM     29  O   UNL A   1      38.007  31.160  37.893  1.00  0.00    -0.454 OA
ATOM     30  C   UNL A   1      37.323  32.253  38.540  1.00  0.00     0.468 C 
BRANCH  23  31
ATOM     31  O   UNL A   1      37.511  33.187  32.824  1.00  0.00    -0.493 OA
BRANCH  31  32
ATOM     32  C   UNL A   1      38.077  34.468  32.515  1.00  0.00     0.226 C 
ATOM     33  C   UNL A   1      39.084  34.404  31.373  1.00  0.00     0.049 C 
ENDBRANCH  31  32
ENDBRANCH  23  31
ENDBRANCH  14  22
BRANCH  17  34
ATOM     34  O   UNL A   1      36.554  29.680  33.029  1.00  0.00    -0.493 OA
ATOM     35  H   UNL A   1      36.683  30.276  33.741  1.00  0.00     0.295 HD
ENDBRANCH  17  34
ENDBRANCH   8  13
ENDBRANCH   4   7
ENDBRANCH   2   3
ENDBRANCH   1   2
BRANCH   1  36
ATOM     36  C   UNL A   1      43.904  22.968  26.995  1.00  0.00     0.023 C 
BRANCH  36  37
ATOM     37  C   UNL A   1      45.405  23.210  27.080  1.00  0.00     0.116 C 
BRANCH  37  38
ATOM     38  N   UNL A   1      45.997  23.706  25.841  1.00  0.00    -0.352 N 
ATOM     39  C   UNL A   1      46.124  25.004  25.394  1.00  0.00     0.251 C 
ATOM     40  H   UNL A   1      46.356  23.015  25.240  1.00  0.00     0.163 HD
ATOM     41  O   UNL A   1      46.599  25.233  24.288  1.00  0.00    -0.269 OA
BRANCH  39  42
ATOM     42  C   UNL A   1      45.643  26.114  26.244  1.00  0.00     0.039 A 
ATOM     43  C   UNL A   1      44.295  26.481  26.187  1.00  0.00     0.014 A 
ATOM     44  C   UNL A   1      46.506  26.742  27.144  1.00  0.00     0.014 A 
ATOM     45  C   UNL A   1      43.791  27.405  27.106  1.00  0.00     0.010 A 
ATOM     46  C   UNL A   1      45.986  27.598  28.108  1.00  0.00     0.010 A 
ATOM     47  C   UNL A   1      44.622  27.932  28.107  1.00  0.00    -0.014 A 
BRANCH  47  48
ATOM     48  C   UNL A   1      44.104  28.817  29.184  1.00  0.00     0.031 A 
ATOM     49  C   UNL A   1      43.992  30.297  28.940  1.00  0.00     0.074 A 
ATOM     50  C   UNL A   1      43.872  28.315  30.414  1.00  0.00     0.049 A 
ATOM     51  N   UNL A   1      43.732  31.256  29.790  1.00  0.00    -0.248 NA
ATOM     52  C   UNL A   1      44.246  30.764  27.566  1.00  0.00     0.031 C 
ATOM     53  C   UNL A   1      44.017  26.910  30.800  1.00  0.00     0.029 A 
ATOM     54  N   UNL A   1      43.505  28.941  31.581  1.00  0.00    -0.354 N 
ATOM     55  C   UNL A   1      43.847  32.439  29.069  1.00  0.00     0.074 A 
ATOM     56  C   UNL A   1      44.222  32.079  27.719  1.00  0.00     0.031 C 
ATOM     57  C   UNL A   1      43.750  26.781  32.110  1.00  0.00     0.029 A 
ATOM     58  C   UNL A   1      43.449  28.097  32.667  1.00  0.00     0.049 A 
ATOM     59  H   UNL A   1      43.301  29.902  31.635  1.00  0.00     0.167 HD
ATOM     60  C   UNL A   1      43.632  33.709  29.484  1.00  0.00     0.034 A 
ATOM     61  C   UNL A   1      43.199  28.354  33.966  1.00  0.00     0.034 A 
ATOM     62  C   UNL A   1      43.191  34.059  30.807  1.00  0.00     0.049 A 
ATOM     63  C   UNL A   1      42.898  29.768  34.388  1.00  0.00     0.074 A 
ATOM     64  C   UNL A   1      42.850  35.306  31.298  1.00  0.00     0.029 A 
ATOM     65  N   UNL A   1      43.023  33.158  31.846  1.00  0.00    -0.354 N 
ATOM     66  N   UNL A   1      42.864  30.855  33.657  1.00  0.00    -0.248 NA
ATOM     67  C   UNL A   1      42.569  29.987  35.805  1.00  0.00     0.031 C 
ATOM     68  C   UNL A   1      42.482  35.161  32.640  1.00  0.00     0.029 A 
ATOM     69  C   UNL A   1      42.580  33.821  32.978  1.00  0.00     0.049 A 
ATOM     70  H   UNL A   1      43.194  32.190  31.789  1.00  0.00     0.167 HD
ATOM     71  C   UNL A   1      42.469  31.878  34.513  1.00  0.00     0.074 A 
ATOM     72  C   UNL A   1      42.265  31.278  35.815  1.00  0.00     0.031 C 
ATOM     73  C   UNL A   1      42.307  33.197  34.247  1.00  0.00     0.034 A 
BRANCH  60  74
ATOM     74  C   UNL A   1      43.808  34.814  28.477  1.00  0.00     0.023 A 
ATOM     75  C   UNL A   1      42.678  35.325  27.807  1.00  0.00     0.012 A 
ATOM     76  C   UNL A   1      45.073  35.382  28.232  1.00  0.00     0.148 A 
ATOM     77  C   UNL A   1      42.808  36.359  26.882  1.00  0.00     0.002 A 
ATOM     78  C   UNL A   1      45.188  36.442  27.340  1.00  0.00     0.091 A 
ATOM     79  F   UNL A   1      46.139  34.868  28.861  1.00  0.00    -0.205 F 
ATOM     80  C   UNL A   1      44.060  36.924  26.656  1.00  0.00     0.022 A 
BRANCH  78  81
ATOM     81  S   UNL A   1      46.745  37.288  27.042  1.00  0.00     0.127 S 
ATOM     82  O   UNL A   1      47.220  37.519  28.406  1.00  0.00    -0.237 OA
ATOM     83  O   UNL A   1      47.505  36.283  26.296  1.00  0.00    -0.237 OA
ATOM     84  O   UNL A   1      46.412  38.483  26.282  1.00  0.00    -0.744 OA
ENDBRANCH  78  81
ENDBRANCH  60  74
BRANCH  61  85
ATOM     85  C   UNL A   1      43.148  27.236  34.951  1.00  0.00     0.023 A 
ATOM     86  C   UNL A   1      41.942  26.526  35.118  1.00  0.00     0.012 A 
ATOM     87  C   UNL A   1      44.278  26.851  35.696  1.00  0.00     0.148 A 
ATOM     88  C   UNL A   1      41.855  25.473  36.030  1.00  0.00     0.002 A 
ATOM     89  C   UNL A   1      44.200  25.768  36.566  1.00  0.00     0.091 A 
ATOM     90  F   UNL A   1      45.413  27.547  35.535  1.00  0.00    -0.205 F 
ATOM     91  C   UNL A   1      42.985  25.088  36.746  1.00  0.00     0.022 A 
BRANCH  89  92
ATOM     92  S   UNL A   1      45.637  25.121  37.429  1.00  0.00     0.127 S 
ATOM     93  O   UNL A   1      46.553  24.850  36.324  1.00  0.00    -0.237 OA
ATOM     94  O   UNL A   1      46.015  26.249  38.281  1.00  0.00    -0.237 OA
ATOM     95  O   UNL A   1      45.159  23.955  38.160  1.00  0.00    -0.744 OA
ENDBRANCH  89  92
ENDBRANCH  61  85
BRANCH  73  96
ATOM     96  C   UNL A   1      41.836  34.089  35.363  1.00  0.00     0.023 A 
ATOM     97  C   UNL A   1      40.466  34.382  35.492  1.00  0.00     0.012 A 
ATOM     98  C   UNL A   1      42.739  34.542  36.346  1.00  0.00     0.148 A 
ATOM     99  C   UNL A   1      40.002  35.131  36.574  1.00  0.00     0.002 A 
ATOM    100  C   UNL A   1      42.264  35.249  37.444  1.00  0.00     0.091 A 
ATOM    101  F   UNL A   1      44.043  34.267  36.192  1.00  0.00    -0.205 F 
ATOM    102  C   UNL A   1      40.897  35.551  37.555  1.00  0.00     0.022 A 
BRANCH 100 103
ATOM    103  S   UNL A   1      43.329  35.746  38.802  1.00  0.00     0.127 S 
ATOM    104  O   UNL A   1      42.355  36.155  39.811  1.00  0.00    -0.237 OA
ATOM    105  O   UNL A   1      44.041  34.504  39.109  1.00  0.00    -0.237 OA
ATOM    106  O   UNL A   1      44.174  36.812  38.281  1.00  0.00    -0.744 OA
ENDBRANCH 100 103
ENDBRANCH  73  96
ENDBRANCH  47  48
ENDBRANCH  39  42
ENDBRANCH  37  38
ENDBRANCH  36  37
ENDBRANCH   1  36
TORSDOF 19
ENDMDL
