MODEL 1
REMARK VINA RESULT:     -11.9      0.000      0.000
REMARK SMILES Cc1c([C@H]2[C@H](C(=O)NCCCCNC(=O)c3ccc(-c4c5nc(c(-c6cccc(S(=O)(=O)[O-])c6F)c6ccc([nH]6)c(-c6cccc(S(=O)(=O)[O-])c6F)c6nc(c(-c7cccc(S(=O)(=O)[O-])c7F)c7ccc4[nH]7)C=C6)C=C5)cc3)OCC(=O)N2CC(C)C)cnn1C
REMARK SMILES IDX 11 1 10 2 9 3 8 4 6 5 7 6 5 8 4 9 83 10 79 11 81 12 80 13
REMARK SMILES IDX 82 14 3 15 1 16 2 17 90 18 88 19 89 20 91 21 84 22 85 23
REMARK SMILES IDX 86 24 87 25 12 26 13 27 14 28 15 30 16 31 17 32 78 33 18 34
REMARK SMILES IDX 77 35 19 36 20 37 21 38 71 39 22 40 76 41 70 42 72 43 23 44
REMARK SMILES IDX 75 45 69 46 68 47 24 49 56 50 36 51 55 52 37 53 40 54 54 55
REMARK SMILES IDX 73 56 38 57 39 58 53 60 74 61 41 62 25 63 26 64 34 65 27 66
REMARK SMILES IDX 29 67 35 68 28 69 30 70 31 71 32 72 33 73 57 74 58 75 66 76
REMARK SMILES IDX 59 77 61 78 67 79 60 80 62 81 63 82 64 83 65 84 42 85 43 86
REMARK SMILES IDX 51 87 44 88 46 89 52 90 45 91 47 92 48 93 49 94 50 95
REMARK H PARENT 8 7 13 29 72 48 40 59
REMARK Flexibility Score: inf
ROOT
ATOM      1  C   UNL A   1      32.109  28.299  27.471  1.00  0.00     0.023 C 
ENDROOT
BRANCH   1   2
ATOM      2  C   UNL A   1      31.599  27.356  26.385  1.00  0.00     0.023 C 
BRANCH   2   3
ATOM      3  C   UNL A   1      32.114  25.924  26.507  1.00  0.00     0.116 C 
BRANCH   3   4
ATOM      4  N   UNL A   1      31.064  25.002  26.860  1.00  0.00    -0.354 N 
ATOM      5  C   UNL A   1      31.048  23.645  26.908  1.00  0.00     0.251 C 
ATOM      6  O   UNL A   1      29.979  23.125  27.250  1.00  0.00    -0.272 OA
ATOM      7  H   UNL A   1      30.214  25.429  27.109  1.00  0.00     0.163 HD
BRANCH   5   8
ATOM      8  C   UNL A   1      32.252  22.747  26.524  1.00  0.00     0.234 C 
ATOM      9  C   UNL A   1      32.453  22.609  24.988  1.00  0.00     0.157 C 
ATOM     10  N   UNL A   1      33.553  23.424  24.447  1.00  0.00    -0.330 N 
ATOM     11  O   UNL A   1      33.448  22.808  27.284  1.00  0.00    -0.356 OA
ATOM     12  C   UNL A   1      34.668  23.726  25.219  1.00  0.00     0.249 C 
ATOM     13  C   UNL A   1      34.481  23.590  26.739  1.00  0.00     0.261 C 
ATOM     14  O   UNL A   1      35.686  24.235  24.750  1.00  0.00    -0.272 OA
BRANCH   9  15
ATOM     15  C   UNL A   1      32.663  21.154  24.636  1.00  0.00     0.019 A 
ATOM     16  C   UNL A   1      31.883  21.151  22.143  1.00  0.00     0.067 C 
ATOM     17  C   UNL A   1      32.386  20.554  23.411  1.00  0.00     0.040 A 
ATOM     18  N   UNL A   1      32.589  19.211  23.599  1.00  0.00    -0.273 N 
ATOM     19  C   UNL A   1      33.082  20.082  25.455  1.00  0.00     0.141 A 
ATOM     20  N   UNL A   1      33.060  18.909  24.821  1.00  0.00    -0.181 NA
ATOM     21  C   UNL A   1      32.271  18.141  22.683  1.00  0.00     0.174 C 
ENDBRANCH   9  15
BRANCH  10  22
ATOM     22  C   UNL A   1      33.413  24.082  23.144  1.00  0.00     0.123 C 
BRANCH  22  23
ATOM     23  C   UNL A   1      32.779  25.482  23.155  1.00  0.00     0.002 C 
ATOM     24  C   UNL A   1      33.447  26.403  22.134  1.00  0.00     0.009 C 
ATOM     25  C   UNL A   1      31.288  25.369  22.812  1.00  0.00     0.009 C 
ENDBRANCH  22  23
ENDBRANCH  10  22
ENDBRANCH   5   8
ENDBRANCH   3   4
ENDBRANCH   2   3
ENDBRANCH   1   2
BRANCH   1  26
ATOM     26  C   UNL A   1      33.447  28.963  27.166  1.00  0.00     0.116 C 
BRANCH  26  27
ATOM     27  N   UNL A   1      33.519  30.364  27.560  1.00  0.00    -0.352 N 
ATOM     28  C   UNL A   1      34.572  31.009  28.181  1.00  0.00     0.251 C 
ATOM     29  H   UNL A   1      32.727  30.914  27.362  1.00  0.00     0.163 HD
ATOM     30  O   UNL A   1      34.487  32.168  28.531  1.00  0.00    -0.269 OA
BRANCH  28  31
ATOM     31  C   UNL A   1      35.790  30.215  28.446  1.00  0.00     0.039 A 
ATOM     32  C   UNL A   1      36.851  30.290  27.542  1.00  0.00     0.014 A 
ATOM     33  C   UNL A   1      35.918  29.528  29.653  1.00  0.00     0.014 A 
ATOM     34  C   UNL A   1      38.082  29.738  27.895  1.00  0.00     0.010 A 
ATOM     35  C   UNL A   1      37.165  29.052  30.034  1.00  0.00     0.010 A 
ATOM     36  C   UNL A   1      38.260  29.157  29.163  1.00  0.00    -0.014 A 
BRANCH  36  37
ATOM     37  C   UNL A   1      39.588  28.673  29.613  1.00  0.00     0.031 A 
ATOM     38  C   UNL A   1      40.319  29.403  30.704  1.00  0.00     0.074 A 
ATOM     39  C   UNL A   1      40.183  27.653  28.961  1.00  0.00     0.049 A 
ATOM     40  N   UNL A   1      41.519  29.190  31.176  1.00  0.00    -0.248 NA
ATOM     41  C   UNL A   1      39.626  30.549  31.319  1.00  0.00     0.031 C 
ATOM     42  C   UNL A   1      39.618  26.933  27.817  1.00  0.00     0.029 A 
ATOM     43  N   UNL A   1      41.410  27.067  29.147  1.00  0.00    -0.354 N 
ATOM     44  C   UNL A   1      41.743  30.198  32.106  1.00  0.00     0.074 A 
ATOM     45  C   UNL A   1      40.570  31.044  32.106  1.00  0.00     0.031 C 
ATOM     46  C   UNL A   1      40.494  25.998  27.409  1.00  0.00     0.029 A 
ATOM     47  C   UNL A   1      41.688  26.066  28.246  1.00  0.00     0.049 A 
ATOM     48  H   UNL A   1      42.033  27.338  29.861  1.00  0.00     0.167 HD
ATOM     49  C   UNL A   1      42.811  30.381  32.916  1.00  0.00     0.034 A 
ATOM     50  C   UNL A   1      42.781  25.290  28.111  1.00  0.00     0.034 A 
ATOM     51  C   UNL A   1      43.939  29.494  32.966  1.00  0.00     0.049 A 
ATOM     52  C   UNL A   1      43.917  25.458  29.083  1.00  0.00     0.074 A 
ATOM     53  C   UNL A   1      45.020  29.524  33.830  1.00  0.00     0.029 A 
ATOM     54  N   UNL A   1      44.131  28.413  32.120  1.00  0.00    -0.354 N 
ATOM     55  N   UNL A   1      44.032  26.305  30.077  1.00  0.00    -0.248 NA
ATOM     56  C   UNL A   1      45.056  24.538  28.944  1.00  0.00     0.031 C 
ATOM     57  C   UNL A   1      45.868  28.462  33.502  1.00  0.00     0.029 A 
ATOM     58  C   UNL A   1      45.312  27.766  32.440  1.00  0.00     0.049 A 
ATOM     59  H   UNL A   1      43.518  28.145  31.399  1.00  0.00     0.167 HD
ATOM     60  C   UNL A   1      45.237  26.001  30.700  1.00  0.00     0.074 A 
ATOM     61  C   UNL A   1      45.805  24.876  29.985  1.00  0.00     0.031 C 
ATOM     62  C   UNL A   1      45.830  26.609  31.757  1.00  0.00     0.034 A 
BRANCH  49  63
ATOM     63  C   UNL A   1      42.769  31.545  33.868  1.00  0.00     0.023 A 
ATOM     64  C   UNL A   1      43.286  32.792  33.458  1.00  0.00     0.012 A 
ATOM     65  C   UNL A   1      42.184  31.425  35.143  1.00  0.00     0.148 A 
ATOM     66  C   UNL A   1      43.257  33.891  34.315  1.00  0.00     0.002 A 
ATOM     67  C   UNL A   1      42.120  32.537  35.976  1.00  0.00     0.091 A 
ATOM     68  F   UNL A   1      41.722  30.226  35.526  1.00  0.00    -0.205 F 
ATOM     69  C   UNL A   1      42.665  33.766  35.568  1.00  0.00     0.022 A 
BRANCH  67  70
ATOM     70  S   UNL A   1      41.310  32.494  37.580  1.00  0.00     0.127 S 
ATOM     71  O   UNL A   1      42.184  31.592  38.327  1.00  0.00    -0.237 OA
ATOM     72  O   UNL A   1      41.379  33.895  37.998  1.00  0.00    -0.237 OA
ATOM     73  O   UNL A   1      39.962  32.003  37.332  1.00  0.00    -0.744 OA
ENDBRANCH  67  70
ENDBRANCH  49  63
BRANCH  50  74
ATOM     74  C   UNL A   1      42.811  24.222  27.071  1.00  0.00     0.023 A 
ATOM     75  C   UNL A   1      43.550  24.436  25.890  1.00  0.00     0.012 A 
ATOM     76  C   UNL A   1      42.151  22.992  27.254  1.00  0.00     0.148 A 
ATOM     77  C   UNL A   1      43.607  23.456  24.899  1.00  0.00     0.002 A 
ATOM     78  C   UNL A   1      42.255  22.000  26.285  1.00  0.00     0.091 A 
ATOM     79  F   UNL A   1      41.441  22.812  28.377  1.00  0.00    -0.205 F 
ATOM     80  C   UNL A   1      42.969  22.236  25.100  1.00  0.00     0.022 A 
BRANCH  78  81
ATOM     81  S   UNL A   1      41.577  20.353  26.525  1.00  0.00     0.127 S 
ATOM     82  O   UNL A   1      40.141  20.613  26.495  1.00  0.00    -0.237 OA
ATOM     83  O   UNL A   1      42.098  19.635  25.361  1.00  0.00    -0.237 OA
ATOM     84  O   UNL A   1      42.116  19.894  27.798  1.00  0.00    -0.744 OA
ENDBRANCH  78  81
ENDBRANCH  50  74
BRANCH  62  85
ATOM     85  C   UNL A   1      47.149  26.061  32.230  1.00  0.00     0.023 A 
ATOM     86  C   UNL A   1      47.178  25.156  33.308  1.00  0.00     0.012 A 
ATOM     87  C   UNL A   1      48.344  26.371  31.550  1.00  0.00     0.148 A 
ATOM     88  C   UNL A   1      48.381  24.584  33.720  1.00  0.00     0.002 A 
ATOM     89  C   UNL A   1      49.532  25.763  31.939  1.00  0.00     0.091 A 
ATOM     90  F   UNL A   1      48.297  27.251  30.540  1.00  0.00    -0.205 F 
ATOM     91  C   UNL A   1      49.555  24.877  33.028  1.00  0.00     0.022 A 
BRANCH  89  92
ATOM     92  S   UNL A   1      51.070  26.013  31.043  1.00  0.00     0.127 S 
ATOM     93  O   UNL A   1      51.382  27.404  31.370  1.00  0.00    -0.237 OA
ATOM     94  O   UNL A   1      51.956  25.027  31.661  1.00  0.00    -0.237 OA
ATOM     95  O   UNL A   1      50.761  25.750  29.644  1.00  0.00    -0.744 OA
ENDBRANCH  89  92
ENDBRANCH  62  85
ENDBRANCH  36  37
ENDBRANCH  28  31
ENDBRANCH  26  27
ENDBRANCH   1  26
TORSDOF 17
ENDMDL
MODEL 2
REMARK VINA RESULT:     -11.7      2.972      8.273
REMARK SMILES Cc1c([C@H]2[C@H](C(=O)NCCCCNC(=O)c3ccc(-c4c5nc(c(-c6cccc(S(=O)(=O)[O-])c6F)c6ccc([nH]6)c(-c6cccc(S(=O)(=O)[O-])c6F)c6nc(c(-c7cccc(S(=O)(=O)[O-])c7F)c7ccc4[nH]7)C=C6)C=C5)cc3)OCC(=O)N2CC(C)C)cnn1C
REMARK SMILES IDX 11 1 10 2 9 3 8 4 6 5 7 6 5 8 4 9 83 10 79 11 81 12 80 13
REMARK SMILES IDX 82 14 3 15 1 16 2 17 90 18 88 19 89 20 91 21 84 22 85 23
REMARK SMILES IDX 86 24 87 25 12 26 13 27 14 28 15 30 16 31 17 32 78 33 18 34
REMARK SMILES IDX 77 35 19 36 20 37 21 38 71 39 22 40 76 41 70 42 72 43 23 44
REMARK SMILES IDX 75 45 69 46 68 47 24 49 56 50 36 51 55 52 37 53 40 54 54 55
REMARK SMILES IDX 73 56 38 57 39 58 53 60 74 61 41 62 25 63 26 64 34 65 27 66
REMARK SMILES IDX 29 67 35 68 28 69 30 70 31 71 32 72 33 73 57 74 58 75 66 76
REMARK SMILES IDX 59 77 61 78 67 79 60 80 62 81 63 82 64 83 65 84 42 85 43 86
REMARK SMILES IDX 51 87 44 88 46 89 52 90 45 91 47 92 48 93 49 94 50 95
REMARK H PARENT 8 7 13 29 72 48 40 59
REMARK Flexibility Score: inf
ROOT
ATOM      1  C   UNL A   1      31.432  29.500  27.122  1.00  0.00     0.023 C 
ENDROOT
BRANCH   1   2
ATOM      2  C   UNL A   1      31.820  28.040  27.344  1.00  0.00     0.023 C 
BRANCH   2   3
ATOM      3  C   UNL A   1      31.075  27.052  26.450  1.00  0.00     0.116 C 
BRANCH   3   4
ATOM      4  N   UNL A   1      30.926  25.764  27.078  1.00  0.00    -0.354 N 
ATOM      5  C   UNL A   1      31.157  24.511  26.608  1.00  0.00     0.251 C 
ATOM      6  O   UNL A   1      30.929  23.584  27.396  1.00  0.00    -0.272 OA
ATOM      7  H   UNL A   1      30.603  25.798  28.006  1.00  0.00     0.163 HD
BRANCH   5   8
ATOM      8  C   UNL A   1      31.634  24.197  25.167  1.00  0.00     0.234 C 
ATOM      9  C   UNL A   1      33.167  24.375  24.972  1.00  0.00     0.157 C 
ATOM     10  N   UNL A   1      33.923  23.112  24.944  1.00  0.00    -0.330 N 
ATOM     11  O   UNL A   1      31.059  23.113  24.454  1.00  0.00    -0.356 OA
ATOM     12  C   UNL A   1      33.344  21.940  24.470  1.00  0.00     0.249 C 
ATOM     13  C   UNL A   1      31.806  21.923  24.441  1.00  0.00     0.261 C 
ATOM     14  O   UNL A   1      33.993  20.918  24.250  1.00  0.00    -0.272 OA
BRANCH   9  15
ATOM     15  C   UNL A   1      33.426  25.164  23.710  1.00  0.00     0.019 A 
ATOM     16  C   UNL A   1      34.065  27.485  24.724  1.00  0.00     0.067 C 
ATOM     17  C   UNL A   1      33.788  26.506  23.637  1.00  0.00     0.040 A 
ATOM     18  N   UNL A   1      33.767  26.826  22.304  1.00  0.00    -0.273 N 
ATOM     19  C   UNL A   1      33.279  24.775  22.359  1.00  0.00     0.141 A 
ATOM     20  N   UNL A   1      33.507  25.775  21.507  1.00  0.00    -0.181 NA
ATOM     21  C   UNL A   1      33.899  28.139  21.716  1.00  0.00     0.174 C 
ENDBRANCH   9  15
BRANCH  10  22
ATOM     22  C   UNL A   1      35.242  23.026  25.580  1.00  0.00     0.123 C 
BRANCH  22  23
ATOM     23  C   UNL A   1      36.389  23.757  24.866  1.00  0.00     0.002 C 
ATOM     24  C   UNL A   1      37.638  23.824  25.744  1.00  0.00     0.009 C 
ATOM     25  C   UNL A   1      36.739  23.013  23.570  1.00  0.00     0.009 C 
ENDBRANCH  22  23
ENDBRANCH  10  22
ENDBRANCH   5   8
ENDBRANCH   3   4
ENDBRANCH   2   3
ENDBRANCH   1   2
BRANCH   1  26
ATOM     26  C   UNL A   1      32.559  30.391  26.612  1.00  0.00     0.116 C 
BRANCH  26  27
ATOM     27  N   UNL A   1      32.355  31.812  26.868  1.00  0.00    -0.352 N 
ATOM     28  C   UNL A   1      33.228  32.689  27.483  1.00  0.00     0.251 C 
ATOM     29  H   UNL A   1      31.498  32.190  26.567  1.00  0.00     0.163 HD
ATOM     30  O   UNL A   1      32.916  33.839  27.709  1.00  0.00    -0.269 OA
BRANCH  28  31
ATOM     31  C   UNL A   1      34.541  32.154  27.901  1.00  0.00     0.039 A 
ATOM     32  C   UNL A   1      35.628  33.025  27.977  1.00  0.00     0.014 A 
ATOM     33  C   UNL A   1      34.640  30.836  28.348  1.00  0.00     0.014 A 
ATOM     34  C   UNL A   1      36.804  32.591  28.588  1.00  0.00     0.010 A 
ATOM     35  C   UNL A   1      35.782  30.434  29.028  1.00  0.00     0.010 A 
ATOM     36  C   UNL A   1      36.872  31.308  29.160  1.00  0.00    -0.014 A 
BRANCH  36  37
ATOM     37  C   UNL A   1      38.064  30.863  29.924  1.00  0.00     0.031 A 
ATOM     38  C   UNL A   1      39.041  29.911  29.295  1.00  0.00     0.074 A 
ATOM     39  C   UNL A   1      38.200  31.222  31.216  1.00  0.00     0.049 A 
ATOM     40  N   UNL A   1      40.091  29.341  29.825  1.00  0.00    -0.248 NA
ATOM     41  C   UNL A   1      38.782  29.515  27.900  1.00  0.00     0.031 C 
ATOM     42  C   UNL A   1      37.261  32.058  31.969  1.00  0.00     0.029 A 
ATOM     43  N   UNL A   1      39.168  30.902  32.137  1.00  0.00    -0.354 N 
ATOM     44  C   UNL A   1      40.590  28.487  28.848  1.00  0.00     0.074 A 
ATOM     45  C   UNL A   1      39.707  28.585  27.707  1.00  0.00     0.031 C 
ATOM     46  C   UNL A   1      37.702  32.190  33.231  1.00  0.00     0.029 A 
ATOM     47  C   UNL A   1      38.941  31.432  33.385  1.00  0.00     0.049 A 
ATOM     48  H   UNL A   1      39.951  30.346  31.921  1.00  0.00     0.167 HD
ATOM     49  C   UNL A   1      41.704  27.720  28.883  1.00  0.00     0.034 A 
ATOM     50  C   UNL A   1      39.652  31.322  34.524  1.00  0.00     0.034 A 
ATOM     51  C   UNL A   1      42.618  27.684  29.989  1.00  0.00     0.049 A 
ATOM     52  C   UNL A   1      40.934  30.534  34.508  1.00  0.00     0.074 A 
ATOM     53  C   UNL A   1      43.834  27.030  30.080  1.00  0.00     0.029 A 
ATOM     54  N   UNL A   1      42.420  28.335  31.197  1.00  0.00    -0.354 N 
ATOM     55  N   UNL A   1      41.485  29.877  33.515  1.00  0.00    -0.248 NA
ATOM     56  C   UNL A   1      41.715  30.504  35.753  1.00  0.00     0.031 C 
ATOM     57  C   UNL A   1      44.369  27.283  31.348  1.00  0.00     0.029 A 
ATOM     58  C   UNL A   1      43.491  28.100  32.042  1.00  0.00     0.049 A 
ATOM     59  H   UNL A   1      41.634  28.883  31.421  1.00  0.00     0.167 HD
ATOM     60  C   UNL A   1      42.689  29.385  34.005  1.00  0.00     0.074 A 
ATOM     61  C   UNL A   1      42.799  29.837  35.377  1.00  0.00     0.031 C 
ATOM     62  C   UNL A   1      43.612  28.612  33.382  1.00  0.00     0.034 A 
BRANCH  49  63
ATOM     63  C   UNL A   1      42.032  26.918  27.653  1.00  0.00     0.023 A 
ATOM     64  C   UNL A   1      42.530  27.578  26.510  1.00  0.00     0.012 A 
ATOM     65  C   UNL A   1      41.893  25.517  27.636  1.00  0.00     0.148 A 
ATOM     66  C   UNL A   1      42.849  26.863  25.357  1.00  0.00     0.002 A 
ATOM     67  C   UNL A   1      42.254  24.806  26.496  1.00  0.00     0.091 A 
ATOM     68  F   UNL A   1      41.393  24.909  28.721  1.00  0.00    -0.205 F 
ATOM     69  C   UNL A   1      42.721  25.478  25.354  1.00  0.00     0.022 A 
BRANCH  67  70
ATOM     70  S   UNL A   1      42.194  23.011  26.421  1.00  0.00     0.127 S 
ATOM     71  O   UNL A   1      43.235  22.642  27.378  1.00  0.00    -0.237 OA
ATOM     72  O   UNL A   1      40.829  22.728  26.866  1.00  0.00    -0.237 OA
ATOM     73  O   UNL A   1      42.462  22.662  25.033  1.00  0.00    -0.744 OA
ENDBRANCH  67  70
ENDBRANCH  49  63
BRANCH  50  74
ATOM     74  C   UNL A   1      39.215  32.052  35.748  1.00  0.00     0.023 A 
ATOM     75  C   UNL A   1      39.572  33.407  35.901  1.00  0.00     0.012 A 
ATOM     76  C   UNL A   1      38.425  31.435  36.735  1.00  0.00     0.148 A 
ATOM     77  C   UNL A   1      39.174  34.125  37.029  1.00  0.00     0.002 A 
ATOM     78  C   UNL A   1      37.989  32.172  37.832  1.00  0.00     0.091 A 
ATOM     79  F   UNL A   1      38.107  30.142  36.581  1.00  0.00    -0.205 F 
ATOM     80  C   UNL A   1      38.375  33.511  37.989  1.00  0.00     0.022 A 
BRANCH  78  81
ATOM     81  S   UNL A   1      36.846  31.497  39.044  1.00  0.00     0.127 S 
ATOM     82  O   UNL A   1      37.666  31.478  40.252  1.00  0.00    -0.237 OA
ATOM     83  O   UNL A   1      35.774  32.493  39.043  1.00  0.00    -0.237 OA
ATOM     84  O   UNL A   1      36.450  30.196  38.521  1.00  0.00    -0.744 OA
ENDBRANCH  78  81
ENDBRANCH  50  74
BRANCH  62  85
ATOM     85  C   UNL A   1      44.839  28.223  34.161  1.00  0.00     0.023 A 
ATOM     86  C   UNL A   1      45.963  29.071  34.155  1.00  0.00     0.012 A 
ATOM     87  C   UNL A   1      44.845  27.068  34.969  1.00  0.00     0.148 A 
ATOM     88  C   UNL A   1      47.085  28.764  34.923  1.00  0.00     0.002 A 
ATOM     89  C   UNL A   1      45.950  26.791  35.765  1.00  0.00     0.091 A 
ATOM     90  F   UNL A   1      43.773  26.262  34.943  1.00  0.00    -0.205 F 
ATOM     91  C   UNL A   1      47.074  27.633  35.737  1.00  0.00     0.022 A 
BRANCH  89  92
ATOM     92  S   UNL A   1      45.980  25.408  36.911  1.00  0.00     0.127 S 
ATOM     93  O   UNL A   1      47.030  25.816  37.843  1.00  0.00    -0.237 OA
ATOM     94  O   UNL A   1      44.627  25.431  37.467  1.00  0.00    -0.237 OA
ATOM     95  O   UNL A   1      46.278  24.232  36.104  1.00  0.00    -0.744 OA
ENDBRANCH  89  92
ENDBRANCH  62  85
ENDBRANCH  36  37
ENDBRANCH  28  31
ENDBRANCH  26  27
ENDBRANCH   1  26
TORSDOF 17
ENDMDL
MODEL 3
REMARK VINA RESULT:     -11.4      2.479      7.824
REMARK SMILES Cc1c([C@H]2[C@H](C(=O)NCCCCNC(=O)c3ccc(-c4c5nc(c(-c6cccc(S(=O)(=O)[O-])c6F)c6ccc([nH]6)c(-c6cccc(S(=O)(=O)[O-])c6F)c6nc(c(-c7cccc(S(=O)(=O)[O-])c7F)c7ccc4[nH]7)C=C6)C=C5)cc3)OCC(=O)N2CC(C)C)cnn1C
REMARK SMILES IDX 11 1 10 2 9 3 8 4 6 5 7 6 5 8 4 9 83 10 79 11 81 12 80 13
REMARK SMILES IDX 82 14 3 15 1 16 2 17 90 18 88 19 89 20 91 21 84 22 85 23
REMARK SMILES IDX 86 24 87 25 12 26 13 27 14 28 15 30 16 31 17 32 78 33 18 34
REMARK SMILES IDX 77 35 19 36 20 37 21 38 71 39 22 40 76 41 70 42 72 43 23 44
REMARK SMILES IDX 75 45 69 46 68 47 24 49 56 50 36 51 55 52 37 53 40 54 54 55
REMARK SMILES IDX 73 56 38 57 39 58 53 60 74 61 41 62 25 63 26 64 34 65 27 66
REMARK SMILES IDX 29 67 35 68 28 69 30 70 31 71 32 72 33 73 57 74 58 75 66 76
REMARK SMILES IDX 59 77 61 78 67 79 60 80 62 81 63 82 64 83 65 84 42 85 43 86
REMARK SMILES IDX 51 87 44 88 46 89 52 90 45 91 47 92 48 93 49 94 50 95
REMARK H PARENT 8 7 13 29 72 48 40 59
REMARK Flexibility Score: inf
ROOT
ATOM      1  C   UNL A   1      32.208  28.071  25.495  1.00  0.00     0.023 C 
ENDROOT
BRANCH   1   2
ATOM      2  C   UNL A   1      32.057  27.134  26.691  1.00  0.00     0.023 C 
BRANCH   2   3
ATOM      3  C   UNL A   1      32.338  25.667  26.375  1.00  0.00     0.116 C 
BRANCH   3   4
ATOM      4  N   UNL A   1      31.159  24.851  26.513  1.00  0.00    -0.354 N 
ATOM      5  C   UNL A   1      31.011  23.503  26.583  1.00  0.00     0.251 C 
ATOM      6  O   UNL A   1      29.851  23.088  26.698  1.00  0.00    -0.272 OA
ATOM      7  H   UNL A   1      30.317  25.356  26.565  1.00  0.00     0.163 HD
BRANCH   5   8
ATOM      8  C   UNL A   1      32.182  22.493  26.485  1.00  0.00     0.234 C 
ATOM      9  C   UNL A   1      32.848  22.455  25.079  1.00  0.00     0.157 C 
ATOM     10  N   UNL A   1      34.135  23.165  25.001  1.00  0.00    -0.330 N 
ATOM     11  O   UNL A   1      33.075  22.339  27.577  1.00  0.00    -0.356 OA
ATOM     12  C   UNL A   1      34.970  23.259  26.108  1.00  0.00     0.249 C 
ATOM     13  C   UNL A   1      34.297  23.025  27.471  1.00  0.00     0.261 C 
ATOM     14  O   UNL A   1      36.128  23.670  26.036  1.00  0.00    -0.272 OA
BRANCH   9  15
ATOM     15  C   UNL A   1      33.019  21.019  24.641  1.00  0.00     0.019 A 
ATOM     16  C   UNL A   1      31.779  21.072  22.343  1.00  0.00     0.067 C 
ATOM     17  C   UNL A   1      32.527  20.450  23.470  1.00  0.00     0.040 A 
ATOM     18  N   UNL A   1      32.792  19.108  23.567  1.00  0.00    -0.273 N 
ATOM     19  C   UNL A   1      33.610  19.933  25.326  1.00  0.00     0.141 A 
ATOM     20  N   UNL A   1      33.493  18.781  24.666  1.00  0.00    -0.181 NA
ATOM     21  C   UNL A   1      32.329  18.059  22.689  1.00  0.00     0.174 C 
ENDBRANCH   9  15
BRANCH  10  22
ATOM     22  C   UNL A   1      34.480  23.939  23.804  1.00  0.00     0.123 C 
BRANCH  22  23
ATOM     23  C   UNL A   1      33.301  24.513  23.003  1.00  0.00     0.002 C 
ATOM     24  C   UNL A   1      33.419  26.029  22.849  1.00  0.00     0.009 C 
ATOM     25  C   UNL A   1      33.277  23.877  21.607  1.00  0.00     0.009 C 
ENDBRANCH  22  23
ENDBRANCH  10  22
ENDBRANCH   5   8
ENDBRANCH   3   4
ENDBRANCH   2   3
ENDBRANCH   1   2
BRANCH   1  26
ATOM     26  C   UNL A   1      33.242  29.177  25.676  1.00  0.00     0.116 C 
BRANCH  26  27
ATOM     27  N   UNL A   1      32.706  30.403  26.251  1.00  0.00    -0.352 N 
ATOM     28  C   UNL A   1      33.319  31.244  27.159  1.00  0.00     0.251 C 
ATOM     29  H   UNL A   1      31.803  30.663  25.958  1.00  0.00     0.163 HD
ATOM     30  O   UNL A   1      32.741  32.203  27.626  1.00  0.00    -0.269 OA
BRANCH  28  31
ATOM     31  C   UNL A   1      34.694  30.900  27.578  1.00  0.00     0.039 A 
ATOM     32  C   UNL A   1      35.625  31.927  27.740  1.00  0.00     0.014 A 
ATOM     33  C   UNL A   1      34.997  29.588  27.942  1.00  0.00     0.014 A 
ATOM     34  C   UNL A   1      36.845  31.646  28.354  1.00  0.00     0.010 A 
ATOM     35  C   UNL A   1      36.178  29.329  28.625  1.00  0.00     0.010 A 
ATOM     36  C   UNL A   1      37.110  30.355  28.844  1.00  0.00    -0.014 A 
BRANCH  36  37
ATOM     37  C   UNL A   1      38.345  30.056  29.609  1.00  0.00     0.031 A 
ATOM     38  C   UNL A   1      39.343  29.074  29.064  1.00  0.00     0.074 A 
ATOM     39  C   UNL A   1      38.508  30.576  30.843  1.00  0.00     0.049 A 
ATOM     40  N   UNL A   1      40.435  28.617  29.618  1.00  0.00    -0.248 NA
ATOM     41  C   UNL A   1      39.057  28.500  27.737  1.00  0.00     0.031 C 
ATOM     42  C   UNL A   1      37.557  31.459  31.524  1.00  0.00     0.029 A 
ATOM     43  N   UNL A   1      39.518  30.411  31.758  1.00  0.00    -0.354 N 
ATOM     44  C   UNL A   1      40.939  27.671  28.733  1.00  0.00     0.074 A 
ATOM     45  C   UNL A   1      40.015  27.593  27.624  1.00  0.00     0.031 C 
ATOM     46  C   UNL A   1      38.033  31.761  32.744  1.00  0.00     0.029 A 
ATOM     47  C   UNL A   1      39.308  31.080  32.941  1.00  0.00     0.049 A 
ATOM     48  H   UNL A   1      40.318  29.864  31.581  1.00  0.00     0.167 HD
ATOM     49  C   UNL A   1      42.087  26.960  28.818  1.00  0.00     0.034 A 
ATOM     50  C   UNL A   1      40.061  31.138  34.057  1.00  0.00     0.034 A 
ATOM     51  C   UNL A   1      43.038  27.097  29.885  1.00  0.00     0.049 A 
ATOM     52  C   UNL A   1      41.376  30.408  34.087  1.00  0.00     0.074 A 
ATOM     53  C   UNL A   1      44.284  26.509  30.008  1.00  0.00     0.029 A 
ATOM     54  N   UNL A   1      42.850  27.882  31.012  1.00  0.00    -0.354 N 
ATOM     55  N   UNL A   1      41.923  29.658  33.160  1.00  0.00    -0.248 NA
ATOM     56  C   UNL A   1      42.199  30.562  35.296  1.00  0.00     0.031 C 
ATOM     57  C   UNL A   1      44.849  26.937  31.214  1.00  0.00     0.029 A 
ATOM     58  C   UNL A   1      43.958  27.796  31.837  1.00  0.00     0.049 A 
ATOM     59  H   UNL A   1      42.048  28.421  31.198  1.00  0.00     0.167 HD
ATOM     60  C   UNL A   1      43.164  29.278  33.660  1.00  0.00     0.074 A 
ATOM     61  C   UNL A   1      43.298  29.899  34.962  1.00  0.00     0.031 C 
ATOM     62  C   UNL A   1      44.100  28.473  33.101  1.00  0.00     0.034 A 
BRANCH  49  63
ATOM     63  C   UNL A   1      42.411  26.027  27.682  1.00  0.00     0.023 A 
ATOM     64  C   UNL A   1      43.247  26.475  26.639  1.00  0.00     0.012 A 
ATOM     65  C   UNL A   1      41.930  24.704  27.665  1.00  0.00     0.148 A 
ATOM     66  C   UNL A   1      43.570  25.633  25.575  1.00  0.00     0.002 A 
ATOM     67  C   UNL A   1      42.292  23.857  26.622  1.00  0.00     0.091 A 
ATOM     68  F   UNL A   1      41.115  24.305  28.651  1.00  0.00    -0.205 F 
ATOM     69  C   UNL A   1      43.101  24.323  25.573  1.00  0.00     0.022 A 
BRANCH  67  70
ATOM     70  S   UNL A   1      41.799  22.130  26.569  1.00  0.00     0.127 S 
ATOM     71  O   UNL A   1      42.316  21.636  27.843  1.00  0.00    -0.237 OA
ATOM     72  O   UNL A   1      40.340  22.226  26.500  1.00  0.00    -0.237 OA
ATOM     73  O   UNL A   1      42.424  21.575  25.377  1.00  0.00    -0.744 OA
ENDBRANCH  67  70
ENDBRANCH  49  63
BRANCH  50  74
ATOM     74  C   UNL A   1      39.632  31.995  35.199  1.00  0.00     0.023 A 
ATOM     75  C   UNL A   1      39.984  33.360  35.202  1.00  0.00     0.012 A 
ATOM     76  C   UNL A   1      38.855  31.485  36.255  1.00  0.00     0.148 A 
ATOM     77  C   UNL A   1      39.593  34.194  36.249  1.00  0.00     0.002 A 
ATOM     78  C   UNL A   1      38.425  32.333  37.271  1.00  0.00     0.091 A 
ATOM     79  F   UNL A   1      38.542  30.181  36.244  1.00  0.00    -0.205 F 
ATOM     80  C   UNL A   1      38.806  33.684  37.278  1.00  0.00     0.022 A 
BRANCH  78  81
ATOM     81  S   UNL A   1      37.298  31.788  38.560  1.00  0.00     0.127 S 
ATOM     82  O   UNL A   1      37.029  30.410  38.160  1.00  0.00    -0.237 OA
ATOM     83  O   UNL A   1      38.117  31.932  39.764  1.00  0.00    -0.237 OA
ATOM     84  O   UNL A   1      36.166  32.703  38.497  1.00  0.00    -0.744 OA
ENDBRANCH  78  81
ENDBRANCH  50  74
BRANCH  62  85
ATOM     85  C   UNL A   1      45.368  28.232  33.874  1.00  0.00     0.023 A 
ATOM     86  C   UNL A   1      46.463  29.099  33.697  1.00  0.00     0.012 A 
ATOM     87  C   UNL A   1      45.442  27.207  34.838  1.00  0.00     0.148 A 
ATOM     88  C   UNL A   1      47.624  28.936  34.452  1.00  0.00     0.002 A 
ATOM     89  C   UNL A   1      46.586  27.078  35.617  1.00  0.00     0.091 A 
ATOM     90  F   UNL A   1      44.396  26.379  34.974  1.00  0.00    -0.205 F 
ATOM     91  C   UNL A   1      47.681  27.935  35.420  1.00  0.00     0.022 A 
BRANCH  89  92
ATOM     92  S   UNL A   1      46.705  25.876  36.947  1.00  0.00     0.127 S 
ATOM     93  O   UNL A   1      46.706  24.614  36.209  1.00  0.00    -0.237 OA
ATOM     94  O   UNL A   1      47.983  26.221  37.569  1.00  0.00    -0.237 OA
ATOM     95  O   UNL A   1      45.543  26.107  37.795  1.00  0.00    -0.744 OA
ENDBRANCH  89  92
ENDBRANCH  62  85
ENDBRANCH  36  37
ENDBRANCH  28  31
ENDBRANCH  26  27
ENDBRANCH   1  26
TORSDOF 17
ENDMDL
