MODEL 1
REMARK VINA RESULT:     -12.6      0.000      0.000
REMARK SMILES COc1ccc(C(=O)Nc2cc(C(=O)NCCCCNC(=O)c3ccc(-c4c5nc(c(-c6cccc(S(=O)(=O)[O-])c6F)c6ccc([nH]6)c(-c6cccc(S(=O)(=O)[O-])c6F)c6nc(c(-c7cccc(S(=O)(=O)[O-])c7F)c7ccc4[nH]7)C=C6)C=C5)cc3)c(Cl)cc2Cl)cc1Cl
REMARK SMILES IDX 17 1 16 2 15 3 13 4 14 5 12 7 10 8 11 9 89 10 88 11 90 12
REMARK SMILES IDX 86 13 87 14 9 15 7 16 8 17 6 19 3 20 4 21 92 22 5 23 91 24
REMARK SMILES IDX 93 25 2 26 1 27 18 28 19 29 20 30 21 31 22 33 23 34 24 35
REMARK SMILES IDX 85 36 25 37 84 38 26 39 27 40 28 41 78 42 29 43 83 44 77 45
REMARK SMILES IDX 79 46 30 47 82 48 76 49 75 50 31 52 63 53 43 54 62 55 44 56
REMARK SMILES IDX 47 57 61 58 80 59 45 60 46 61 60 63 81 64 48 65 32 66 33 67
REMARK SMILES IDX 41 68 34 69 36 70 42 71 35 72 37 73 38 74 39 75 40 76 64 77
REMARK SMILES IDX 65 78 73 79 66 80 68 81 74 82 67 83 69 84 70 85 71 86 72 87
REMARK SMILES IDX 49 88 50 89 58 90 51 91 53 92 59 93 52 94 54 95 55 96 56 97
REMARK SMILES IDX 57 98
REMARK H PARENT 15 6 9 18 20 32 79 51 47 62
REMARK Flexibility Score: inf
ROOT
ATOM      1  C   UNL A   1      35.312  22.612  23.178  1.00  0.00     0.023 C 
ENDROOT
BRANCH   1   2
ATOM      2  C   UNL A   1      34.710  23.964  23.555  1.00  0.00     0.116 C 
BRANCH   2   3
ATOM      3  N   UNL A   1      34.007  24.647  22.484  1.00  0.00    -0.352 N 
ATOM      4  C   UNL A   1      33.260  25.802  22.502  1.00  0.00     0.252 C 
ATOM      5  O   UNL A   1      32.828  26.258  21.445  1.00  0.00    -0.269 OA
ATOM      6  H   UNL A   1      34.076  24.214  21.603  1.00  0.00     0.163 HD
BRANCH   4   7
ATOM      7  C   UNL A   1      32.842  26.469  23.760  1.00  0.00     0.060 A 
ATOM      8  C   UNL A   1      31.433  26.267  25.757  1.00  0.00     0.061 A 
ATOM      9  C   UNL A   1      31.878  25.774  24.523  1.00  0.00     0.043 A 
ATOM     10  C   UNL A   1      31.919  27.508  26.192  1.00  0.00     0.066 A 
ATOM     11  C   UNL A   1      32.831  28.230  25.421  1.00  0.00     0.044 A 
ATOM     12  Cl  UNL A   1      31.443  28.168  27.721  1.00  0.00    -0.082 Cl
ATOM     13  C   UNL A   1      33.268  27.729  24.189  1.00  0.00     0.055 A 
ATOM     14  Cl  UNL A   1      34.226  28.794  23.228  1.00  0.00    -0.083 Cl
BRANCH   8  15
ATOM     15  N   UNL A   1      30.510  25.580  26.574  1.00  0.00    -0.321 N 
ATOM     16  C   UNL A   1      30.242  24.242  26.768  1.00  0.00     0.255 C 
ATOM     17  O   UNL A   1      29.192  23.922  27.325  1.00  0.00    -0.269 OA
ATOM     18  H   UNL A   1      29.944  26.176  27.113  1.00  0.00     0.170 HD
BRANCH  16  19
ATOM     19  C   UNL A   1      31.232  23.179  26.450  1.00  0.00     0.041 A 
ATOM     20  C   UNL A   1      33.095  21.165  25.779  1.00  0.00     0.137 A 
ATOM     21  C   UNL A   1      31.930  21.356  25.020  1.00  0.00     0.049 A 
ATOM     22  C   UNL A   1      33.307  21.983  26.893  1.00  0.00     0.083 A 
ATOM     23  C   UNL A   1      31.008  22.356  25.344  1.00  0.00     0.018 A 
ATOM     24  C   UNL A   1      32.344  22.928  27.258  1.00  0.00     0.038 A 
ATOM     25  Cl  UNL A   1      34.745  22.003  27.850  1.00  0.00    -0.080 Cl
BRANCH  20  26
ATOM     26  O   UNL A   1      33.906  20.191  25.269  1.00  0.00    -0.495 OA
ATOM     27  C   UNL A   1      33.292  19.102  24.592  1.00  0.00     0.278 C 
ENDBRANCH  20  26
ENDBRANCH  16  19
ENDBRANCH   8  15
ENDBRANCH   4   7
ENDBRANCH   2   3
ENDBRANCH   1   2
BRANCH   1  28
ATOM     28  C   UNL A   1      36.723  22.310  23.683  1.00  0.00     0.023 C 
BRANCH  28  29
ATOM     29  C   UNL A   1      36.864  21.851  25.130  1.00  0.00     0.116 C 
BRANCH  29  30
ATOM     30  N   UNL A   1      37.853  20.802  25.333  1.00  0.00    -0.352 N 
ATOM     31  C   UNL A   1      39.089  20.858  25.938  1.00  0.00     0.251 C 
ATOM     32  H   UNL A   1      37.601  19.918  24.983  1.00  0.00     0.163 HD
ATOM     33  O   UNL A   1      39.800  19.854  25.959  1.00  0.00    -0.269 OA
BRANCH  31  34
ATOM     34  C   UNL A   1      39.589  22.126  26.518  1.00  0.00     0.039 A 
ATOM     35  C   UNL A   1      40.625  22.075  27.456  1.00  0.00     0.014 A 
ATOM     36  C   UNL A   1      39.065  23.360  26.126  1.00  0.00     0.014 A 
ATOM     37  C   UNL A   1      41.204  23.262  27.918  1.00  0.00     0.010 A 
ATOM     38  C   UNL A   1      39.696  24.536  26.524  1.00  0.00     0.010 A 
ATOM     39  C   UNL A   1      40.779  24.503  27.416  1.00  0.00    -0.014 A 
BRANCH  39  40
ATOM     40  C   UNL A   1      41.474  25.769  27.775  1.00  0.00     0.031 A 
ATOM     41  C   UNL A   1      40.746  26.849  28.531  1.00  0.00     0.074 A 
ATOM     42  C   UNL A   1      42.724  25.995  27.323  1.00  0.00     0.049 A 
ATOM     43  N   UNL A   1      41.154  28.050  28.852  1.00  0.00    -0.248 NA
ATOM     44  C   UNL A   1      39.367  26.553  28.955  1.00  0.00     0.031 C 
ATOM     45  C   UNL A   1      43.509  25.068  26.504  1.00  0.00     0.029 A 
ATOM     46  N   UNL A   1      43.545  27.089  27.457  1.00  0.00    -0.354 N 
ATOM     47  C   UNL A   1      40.075  28.666  29.472  1.00  0.00     0.074 A 
ATOM     48  C   UNL A   1      38.982  27.718  29.456  1.00  0.00     0.031 C 
ATOM     49  C   UNL A   1      44.694  25.630  26.213  1.00  0.00     0.029 A 
ATOM     50  C   UNL A   1      44.744  26.967  26.795  1.00  0.00     0.049 A 
ATOM     51  H   UNL A   1      43.296  27.886  27.979  1.00  0.00     0.167 HD
ATOM     52  C   UNL A   1      40.005  29.897  30.034  1.00  0.00     0.034 A 
ATOM     53  C   UNL A   1      45.768  27.833  26.663  1.00  0.00     0.034 A 
ATOM     54  C   UNL A   1      41.107  30.818  30.098  1.00  0.00     0.049 A 
ATOM     55  C   UNL A   1      45.686  29.173  27.345  1.00  0.00     0.074 A 
ATOM     56  C   UNL A   1      41.166  32.047  30.732  1.00  0.00     0.029 A 
ATOM     57  N   UNL A   1      42.344  30.614  29.506  1.00  0.00    -0.354 N 
ATOM     58  N   UNL A   1      44.715  29.670  28.072  1.00  0.00    -0.248 NA
ATOM     59  C   UNL A   1      46.855  30.056  27.220  1.00  0.00     0.031 C 
ATOM     60  C   UNL A   1      42.434  32.594  30.509  1.00  0.00     0.029 A 
ATOM     61  C   UNL A   1      43.172  31.696  29.755  1.00  0.00     0.049 A 
ATOM     62  H   UNL A   1      42.597  29.818  28.985  1.00  0.00     0.167 HD
ATOM     63  C   UNL A   1      45.169  30.905  28.521  1.00  0.00     0.074 A 
ATOM     64  C   UNL A   1      46.510  31.072  28.001  1.00  0.00     0.031 C 
ATOM     65  C   UNL A   1      44.526  31.825  29.281  1.00  0.00     0.034 A 
BRANCH  52  66
ATOM     66  C   UNL A   1      38.705  30.297  30.684  1.00  0.00     0.023 A 
ATOM     67  C   UNL A   1      38.487  29.988  32.042  1.00  0.00     0.012 A 
ATOM     68  C   UNL A   1      37.729  31.024  29.975  1.00  0.00     0.148 A 
ATOM     69  C   UNL A   1      37.303  30.363  32.676  1.00  0.00     0.002 A 
ATOM     70  C   UNL A   1      36.570  31.433  30.626  1.00  0.00     0.091 A 
ATOM     71  F   UNL A   1      37.944  31.292  28.679  1.00  0.00    -0.205 F 
ATOM     72  C   UNL A   1      36.351  31.094  31.971  1.00  0.00     0.022 A 
BRANCH  70  73
ATOM     73  S   UNL A   1      35.318  32.447  29.831  1.00  0.00     0.127 S 
ATOM     74  O   UNL A   1      34.788  31.525  28.828  1.00  0.00    -0.237 OA
ATOM     75  O   UNL A   1      34.405  32.734  30.937  1.00  0.00    -0.237 OA
ATOM     76  O   UNL A   1      36.019  33.609  29.306  1.00  0.00    -0.744 OA
ENDBRANCH  70  73
ENDBRANCH  52  66
BRANCH  53  77
ATOM     77  C   UNL A   1      46.993  27.432  25.914  1.00  0.00     0.023 A 
ATOM     78  C   UNL A   1      47.982  26.672  26.570  1.00  0.00     0.012 A 
ATOM     79  C   UNL A   1      47.174  27.770  24.559  1.00  0.00     0.148 A 
ATOM     80  C   UNL A   1      49.142  26.282  25.901  1.00  0.00     0.002 A 
ATOM     81  C   UNL A   1      48.308  27.332  23.882  1.00  0.00     0.091 A 
ATOM     82  F   UNL A   1      46.230  28.504  23.955  1.00  0.00    -0.205 F 
ATOM     83  C   UNL A   1      49.302  26.603  24.556  1.00  0.00     0.022 A 
BRANCH  81  84
ATOM     84  S   UNL A   1      48.533  27.584  22.117  1.00  0.00     0.127 S 
ATOM     85  O   UNL A   1      49.693  28.469  22.087  1.00  0.00    -0.237 OA
ATOM     86  O   UNL A   1      48.784  26.221  21.646  1.00  0.00    -0.237 OA
ATOM     87  O   UNL A   1      47.282  28.159  21.642  1.00  0.00    -0.744 OA
ENDBRANCH  81  84
ENDBRANCH  53  77
BRANCH  65  88
ATOM     88  C   UNL A   1      45.270  33.086  29.635  1.00  0.00     0.023 A 
ATOM     89  C   UNL A   1      46.120  33.105  30.758  1.00  0.00     0.012 A 
ATOM     90  C   UNL A   1      45.186  34.226  28.811  1.00  0.00     0.148 A 
ATOM     91  C   UNL A   1      46.856  34.248  31.071  1.00  0.00     0.002 A 
ATOM     92  C   UNL A   1      45.958  35.345  29.103  1.00  0.00     0.091 A 
ATOM     93  F   UNL A   1      44.356  34.195  27.758  1.00  0.00    -0.205 F 
ATOM     94  C   UNL A   1      46.784  35.362  30.237  1.00  0.00     0.022 A 
BRANCH  92  95
ATOM     95  S   UNL A   1      46.001  36.787  28.032  1.00  0.00     0.127 S 
ATOM     96  O   UNL A   1      46.836  37.706  28.802  1.00  0.00    -0.237 OA
ATOM     97  O   UNL A   1      46.632  36.258  26.822  1.00  0.00    -0.237 OA
ATOM     98  O   UNL A   1      44.614  37.198  27.857  1.00  0.00    -0.744 OA
ENDBRANCH  92  95
ENDBRANCH  65  88
ENDBRANCH  39  40
ENDBRANCH  31  34
ENDBRANCH  29  30
ENDBRANCH  28  29
ENDBRANCH   1  28
TORSDOF 17
ENDMDL
MODEL 2
REMARK VINA RESULT:     -12.5      5.080      7.591
REMARK SMILES COc1ccc(C(=O)Nc2cc(C(=O)NCCCCNC(=O)c3ccc(-c4c5nc(c(-c6cccc(S(=O)(=O)[O-])c6F)c6ccc([nH]6)c(-c6cccc(S(=O)(=O)[O-])c6F)c6nc(c(-c7cccc(S(=O)(=O)[O-])c7F)c7ccc4[nH]7)C=C6)C=C5)cc3)c(Cl)cc2Cl)cc1Cl
REMARK SMILES IDX 17 1 16 2 15 3 13 4 14 5 12 7 10 8 11 9 89 10 88 11 90 12
REMARK SMILES IDX 86 13 87 14 9 15 7 16 8 17 6 19 3 20 4 21 92 22 5 23 91 24
REMARK SMILES IDX 93 25 2 26 1 27 18 28 19 29 20 30 21 31 22 33 23 34 24 35
REMARK SMILES IDX 85 36 25 37 84 38 26 39 27 40 28 41 78 42 29 43 83 44 77 45
REMARK SMILES IDX 79 46 30 47 82 48 76 49 75 50 31 52 63 53 43 54 62 55 44 56
REMARK SMILES IDX 47 57 61 58 80 59 45 60 46 61 60 63 81 64 48 65 32 66 33 67
REMARK SMILES IDX 41 68 34 69 36 70 42 71 35 72 37 73 38 74 39 75 40 76 64 77
REMARK SMILES IDX 65 78 73 79 66 80 68 81 74 82 67 83 69 84 70 85 71 86 72 87
REMARK SMILES IDX 49 88 50 89 58 90 51 91 53 92 59 93 52 94 54 95 55 96 56 97
REMARK SMILES IDX 57 98
REMARK H PARENT 15 6 9 18 20 32 79 51 47 62
REMARK Flexibility Score: inf
ROOT
ATOM      1  C   UNL A   1      33.705  28.905  25.316  1.00  0.00     0.023 C 
ENDROOT
BRANCH   1   2
ATOM      2  C   UNL A   1      33.656  28.046  24.054  1.00  0.00     0.116 C 
BRANCH   2   3
ATOM      3  N   UNL A   1      32.451  28.187  23.256  1.00  0.00    -0.352 N 
ATOM      4  C   UNL A   1      31.289  27.451  23.257  1.00  0.00     0.252 C 
ATOM      5  O   UNL A   1      30.346  27.810  22.555  1.00  0.00    -0.269 OA
ATOM      6  H   UNL A   1      32.469  28.929  22.609  1.00  0.00     0.163 HD
BRANCH   4   7
ATOM      7  C   UNL A   1      31.156  26.162  23.981  1.00  0.00     0.060 A 
ATOM      8  C   UNL A   1      31.032  23.727  23.719  1.00  0.00     0.061 A 
ATOM      9  C   UNL A   1      31.106  25.010  23.164  1.00  0.00     0.043 A 
ATOM     10  C   UNL A   1      30.940  23.609  25.114  1.00  0.00     0.066 A 
ATOM     11  C   UNL A   1      30.934  24.743  25.928  1.00  0.00     0.044 A 
ATOM     12  Cl  UNL A   1      30.879  22.057  25.878  1.00  0.00    -0.082 Cl
ATOM     13  C   UNL A   1      31.006  26.020  25.363  1.00  0.00     0.055 A 
ATOM     14  Cl  UNL A   1      30.779  27.347  26.442  1.00  0.00    -0.083 Cl
BRANCH   8  15
ATOM     15  N   UNL A   1      31.032  22.549  22.942  1.00  0.00    -0.321 N 
ATOM     16  C   UNL A   1      32.020  21.655  22.593  1.00  0.00     0.255 C 
ATOM     17  O   UNL A   1      31.809  20.868  21.670  1.00  0.00    -0.269 OA
ATOM     18  H   UNL A   1      30.148  22.321  22.575  1.00  0.00     0.170 HD
BRANCH  16  19
ATOM     19  C   UNL A   1      33.278  21.516  23.374  1.00  0.00     0.041 A 
ATOM     20  C   UNL A   1      35.660  21.184  24.855  1.00  0.00     0.137 A 
ATOM     21  C   UNL A   1      34.629  20.234  24.920  1.00  0.00     0.049 A 
ATOM     22  C   UNL A   1      35.477  22.315  24.053  1.00  0.00     0.083 A 
ATOM     23  C   UNL A   1      33.450  20.391  24.183  1.00  0.00     0.018 A 
ATOM     24  C   UNL A   1      34.265  22.505  23.382  1.00  0.00     0.038 A 
ATOM     25  Cl  UNL A   1      36.684  23.506  23.726  1.00  0.00    -0.080 Cl
BRANCH  20  26
ATOM     26  O   UNL A   1      36.758  20.825  25.585  1.00  0.00    -0.495 OA
ATOM     27  C   UNL A   1      37.758  20.047  24.941  1.00  0.00     0.278 C 
ENDBRANCH  20  26
ENDBRANCH  16  19
ENDBRANCH   8  15
ENDBRANCH   4   7
ENDBRANCH   2   3
ENDBRANCH   1   2
BRANCH   1  28
ATOM     28  C   UNL A   1      32.690  30.043  25.426  1.00  0.00     0.023 C 
BRANCH  28  29
ATOM     29  C   UNL A   1      32.340  30.532  26.828  1.00  0.00     0.116 C 
BRANCH  29  30
ATOM     30  N   UNL A   1      32.492  31.967  27.017  1.00  0.00    -0.352 N 
ATOM     31  C   UNL A   1      33.546  32.682  27.542  1.00  0.00     0.251 C 
ATOM     32  H   UNL A   1      31.725  32.510  26.727  1.00  0.00     0.163 HD
ATOM     33  O   UNL A   1      33.451  33.903  27.661  1.00  0.00    -0.269 OA
BRANCH  31  34
ATOM     34  C   UNL A   1      34.771  31.991  28.006  1.00  0.00     0.039 A 
ATOM     35  C   UNL A   1      35.962  32.718  28.097  1.00  0.00     0.014 A 
ATOM     36  C   UNL A   1      34.748  30.645  28.380  1.00  0.00     0.014 A 
ATOM     37  C   UNL A   1      37.098  32.126  28.658  1.00  0.00     0.010 A 
ATOM     38  C   UNL A   1      35.854  30.085  29.012  1.00  0.00     0.010 A 
ATOM     39  C   UNL A   1      37.039  30.819  29.169  1.00  0.00    -0.014 A 
BRANCH  39  40
ATOM     40  C   UNL A   1      38.185  30.217  29.904  1.00  0.00     0.031 A 
ATOM     41  C   UNL A   1      38.501  30.651  31.311  1.00  0.00     0.074 A 
ATOM     42  C   UNL A   1      39.010  29.363  29.266  1.00  0.00     0.049 A 
ATOM     43  N   UNL A   1      39.507  30.308  32.074  1.00  0.00    -0.248 NA
ATOM     44  C   UNL A   1      37.584  31.622  31.931  1.00  0.00     0.031 C 
ATOM     45  C   UNL A   1      38.870  28.928  27.874  1.00  0.00     0.029 A 
ATOM     46  N   UNL A   1      40.154  28.730  29.692  1.00  0.00    -0.354 N 
ATOM     47  C   UNL A   1      39.370  31.050  33.241  1.00  0.00     0.074 A 
ATOM     48  C   UNL A   1      38.200  31.885  33.074  1.00  0.00     0.031 C 
ATOM     49  C   UNL A   1      39.882  28.102  27.564  1.00  0.00     0.029 A 
ATOM     50  C   UNL A   1      40.762  27.971  28.720  1.00  0.00     0.049 A 
ATOM     51  H   UNL A   1      40.505  28.815  30.608  1.00  0.00     0.167 HD
ATOM     52  C   UNL A   1      40.128  31.018  34.363  1.00  0.00     0.034 A 
ATOM     53  C   UNL A   1      41.902  27.252  28.750  1.00  0.00     0.034 A 
ATOM     54  C   UNL A   1      41.257  30.148  34.549  1.00  0.00     0.049 A 
ATOM     55  C   UNL A   1      42.695  27.191  30.029  1.00  0.00     0.074 A 
ATOM     56  C   UNL A   1      42.028  29.970  35.685  1.00  0.00     0.029 A 
ATOM     57  N   UNL A   1      41.781  29.312  33.575  1.00  0.00    -0.354 N 
ATOM     58  N   UNL A   1      42.452  27.771  31.178  1.00  0.00    -0.248 NA
ATOM     59  C   UNL A   1      43.898  26.345  30.025  1.00  0.00     0.031 C 
ATOM     60  C   UNL A   1      43.029  29.038  35.392  1.00  0.00     0.029 A 
ATOM     61  C   UNL A   1      42.868  28.619  34.081  1.00  0.00     0.049 A 
ATOM     62  H   UNL A   1      41.432  29.224  32.659  1.00  0.00     0.167 HD
ATOM     63  C   UNL A   1      43.448  27.334  32.045  1.00  0.00     0.074 A 
ATOM     64  C   UNL A   1      44.286  26.423  31.292  1.00  0.00     0.031 C 
ATOM     65  C   UNL A   1      43.659  27.670  33.340  1.00  0.00     0.034 A 
BRANCH  52  66
ATOM     66  C   UNL A   1      39.720  31.909  35.508  1.00  0.00     0.023 A 
ATOM     67  C   UNL A   1      40.172  33.245  35.541  1.00  0.00     0.012 A 
ATOM     68  C   UNL A   1      38.852  31.449  36.517  1.00  0.00     0.148 A 
ATOM     69  C   UNL A   1      39.796  34.098  36.576  1.00  0.00     0.002 A 
ATOM     70  C   UNL A   1      38.445  32.319  37.523  1.00  0.00     0.091 A 
ATOM     71  F   UNL A   1      38.448  30.171  36.481  1.00  0.00    -0.205 F 
ATOM     72  C   UNL A   1      38.925  33.638  37.561  1.00  0.00     0.022 A 
BRANCH  70  73
ATOM     73  S   UNL A   1      37.264  31.849  38.792  1.00  0.00     0.127 S 
ATOM     74  O   UNL A   1      36.838  30.532  38.323  1.00  0.00    -0.237 OA
ATOM     75  O   UNL A   1      38.095  31.828  39.996  1.00  0.00    -0.237 OA
ATOM     76  O   UNL A   1      36.236  32.880  38.783  1.00  0.00    -0.744 OA
ENDBRANCH  70  73
ENDBRANCH  52  66
BRANCH  53  77
ATOM     77  C   UNL A   1      42.324  26.472  27.552  1.00  0.00     0.023 A 
ATOM     78  C   UNL A   1      43.102  27.102  26.560  1.00  0.00     0.012 A 
ATOM     79  C   UNL A   1      41.989  25.113  27.400  1.00  0.00     0.148 A 
ATOM     80  C   UNL A   1      43.512  26.402  25.425  1.00  0.00     0.002 A 
ATOM     81  C   UNL A   1      42.446  24.407  26.292  1.00  0.00     0.091 A 
ATOM     82  F   UNL A   1      41.237  24.534  28.346  1.00  0.00    -0.205 F 
ATOM     83  C   UNL A   1      43.193  25.054  25.294  1.00  0.00     0.022 A 
BRANCH  81  84
ATOM     84  S   UNL A   1      42.196  22.637  26.108  1.00  0.00     0.127 S 
ATOM     85  O   UNL A   1      42.883  22.367  24.849  1.00  0.00    -0.237 OA
ATOM     86  O   UNL A   1      42.864  22.111  27.300  1.00  0.00    -0.237 OA
ATOM     87  O   UNL A   1      40.753  22.444  26.100  1.00  0.00    -0.744 OA
ENDBRANCH  81  84
ENDBRANCH  53  77
BRANCH  65  88
ATOM     88  C   UNL A   1      44.820  27.026  34.052  1.00  0.00     0.023 A 
ATOM     89  C   UNL A   1      46.062  27.689  34.107  1.00  0.00     0.012 A 
ATOM     90  C   UNL A   1      44.658  25.802  34.732  1.00  0.00     0.148 A 
ATOM     91  C   UNL A   1      47.133  27.130  34.805  1.00  0.00     0.002 A 
ATOM     92  C   UNL A   1      45.715  25.275  35.464  1.00  0.00     0.091 A 
ATOM     93  F   UNL A   1      43.473  25.178  34.650  1.00  0.00    -0.205 F 
ATOM     94  C   UNL A   1      46.956  25.931  35.492  1.00  0.00     0.022 A 
BRANCH  92  95
ATOM     95  S   UNL A   1      45.548  23.787  36.457  1.00  0.00     0.127 S 
ATOM     96  O   UNL A   1      46.934  23.333  36.549  1.00  0.00    -0.237 OA
ATOM     97  O   UNL A   1      44.993  24.308  37.707  1.00  0.00    -0.237 OA
ATOM     98  O   UNL A   1      44.649  22.911  35.718  1.00  0.00    -0.744 OA
ENDBRANCH  92  95
ENDBRANCH  65  88
ENDBRANCH  39  40
ENDBRANCH  31  34
ENDBRANCH  29  30
ENDBRANCH  28  29
ENDBRANCH   1  28
TORSDOF 17
ENDMDL
MODEL 3
REMARK VINA RESULT:     -12.4      1.751      3.368
REMARK SMILES COc1ccc(C(=O)Nc2cc(C(=O)NCCCCNC(=O)c3ccc(-c4c5nc(c(-c6cccc(S(=O)(=O)[O-])c6F)c6ccc([nH]6)c(-c6cccc(S(=O)(=O)[O-])c6F)c6nc(c(-c7cccc(S(=O)(=O)[O-])c7F)c7ccc4[nH]7)C=C6)C=C5)cc3)c(Cl)cc2Cl)cc1Cl
REMARK SMILES IDX 17 1 16 2 15 3 13 4 14 5 12 7 10 8 11 9 89 10 88 11 90 12
REMARK SMILES IDX 86 13 87 14 9 15 7 16 8 17 6 19 3 20 4 21 92 22 5 23 91 24
REMARK SMILES IDX 93 25 2 26 1 27 18 28 19 29 20 30 21 31 22 33 23 34 24 35
REMARK SMILES IDX 85 36 25 37 84 38 26 39 27 40 28 41 78 42 29 43 83 44 77 45
REMARK SMILES IDX 79 46 30 47 82 48 76 49 75 50 31 52 63 53 43 54 62 55 44 56
REMARK SMILES IDX 47 57 61 58 80 59 45 60 46 61 60 63 81 64 48 65 32 66 33 67
REMARK SMILES IDX 41 68 34 69 36 70 42 71 35 72 37 73 38 74 39 75 40 76 64 77
REMARK SMILES IDX 65 78 73 79 66 80 68 81 74 82 67 83 69 84 70 85 71 86 72 87
REMARK SMILES IDX 49 88 50 89 58 90 51 91 53 92 59 93 52 94 54 95 55 96 56 97
REMARK SMILES IDX 57 98
REMARK H PARENT 15 6 9 18 20 32 79 51 47 62
REMARK Flexibility Score: inf
ROOT
ATOM      1  C   UNL A   1      37.500  21.620  24.955  1.00  0.00     0.023 C 
ENDROOT
BRANCH   1   2
ATOM      2  C   UNL A   1      35.995  21.698  24.701  1.00  0.00     0.116 C 
BRANCH   2   3
ATOM      3  N   UNL A   1      35.600  22.531  23.579  1.00  0.00    -0.352 N 
ATOM      4  C   UNL A   1      34.457  23.269  23.375  1.00  0.00     0.252 C 
ATOM      5  O   UNL A   1      34.372  23.987  22.381  1.00  0.00    -0.269 OA
ATOM      6  H   UNL A   1      36.256  22.575  22.847  1.00  0.00     0.163 HD
BRANCH   4   7
ATOM      7  C   UNL A   1      33.259  23.150  24.242  1.00  0.00     0.060 A 
ATOM      8  C   UNL A   1      31.923  24.264  25.970  1.00  0.00     0.061 A 
ATOM      9  C   UNL A   1      33.043  24.226  25.132  1.00  0.00     0.043 A 
ATOM     10  C   UNL A   1      31.045  23.170  25.959  1.00  0.00     0.066 A 
ATOM     11  C   UNL A   1      31.277  22.076  25.124  1.00  0.00     0.044 A 
ATOM     12  Cl  UNL A   1      29.620  23.157  26.942  1.00  0.00    -0.082 Cl
ATOM     13  C   UNL A   1      32.401  22.047  24.291  1.00  0.00     0.055 A 
ATOM     14  Cl  UNL A   1      32.701  20.564  23.463  1.00  0.00    -0.083 Cl
BRANCH   8  15
ATOM     15  N   UNL A   1      31.643  25.343  26.835  1.00  0.00    -0.321 N 
ATOM     16  C   UNL A   1      31.613  26.709  26.653  1.00  0.00     0.255 C 
ATOM     17  O   UNL A   1      31.618  27.440  27.643  1.00  0.00    -0.269 OA
ATOM     18  H   UNL A   1      31.426  25.065  27.753  1.00  0.00     0.170 HD
BRANCH  16  19
ATOM     19  C   UNL A   1      31.440  27.328  25.311  1.00  0.00     0.041 A 
ATOM     20  C   UNL A   1      31.050  28.526  22.784  1.00  0.00     0.137 A 
ATOM     21  C   UNL A   1      29.961  28.091  23.554  1.00  0.00     0.049 A 
ATOM     22  C   UNL A   1      32.342  28.337  23.286  1.00  0.00     0.083 A 
ATOM     23  C   UNL A   1      30.149  27.502  24.810  1.00  0.00     0.018 A 
ATOM     24  C   UNL A   1      32.526  27.677  24.505  1.00  0.00     0.038 A 
ATOM     25  Cl  UNL A   1      33.788  28.943  22.560  1.00  0.00    -0.080 Cl
BRANCH  20  26
ATOM     26  O   UNL A   1      30.668  29.138  21.624  1.00  0.00    -0.495 OA
ATOM     27  C   UNL A   1      29.464  29.893  21.636  1.00  0.00     0.278 C 
ENDBRANCH  20  26
ENDBRANCH  16  19
ENDBRANCH   8  15
ENDBRANCH   4   7
ENDBRANCH   2   3
ENDBRANCH   1   2
BRANCH   1  28
ATOM     28  C   UNL A   1      38.159  20.247  24.832  1.00  0.00     0.023 C 
BRANCH  28  29
ATOM     29  C   UNL A   1      38.767  19.649  26.096  1.00  0.00     0.116 C 
BRANCH  29  30
ATOM     30  N   UNL A   1      40.056  19.003  25.894  1.00  0.00    -0.352 N 
ATOM     31  C   UNL A   1      41.329  19.517  26.004  1.00  0.00     0.251 C 
ATOM     32  H   UNL A   1      40.011  18.054  25.638  1.00  0.00     0.163 HD
ATOM     33  O   UNL A   1      42.296  18.805  25.737  1.00  0.00    -0.269 OA
BRANCH  31  34
ATOM     34  C   UNL A   1      41.542  20.930  26.394  1.00  0.00     0.039 A 
ATOM     35  C   UNL A   1      42.020  21.210  27.678  1.00  0.00     0.014 A 
ATOM     36  C   UNL A   1      41.303  21.974  25.498  1.00  0.00     0.014 A 
ATOM     37  C   UNL A   1      42.356  22.523  28.025  1.00  0.00     0.010 A 
ATOM     38  C   UNL A   1      41.715  23.266  25.816  1.00  0.00     0.010 A 
ATOM     39  C   UNL A   1      42.255  23.556  27.079  1.00  0.00    -0.014 A 
BRANCH  39  40
ATOM     40  C   UNL A   1      42.744  24.931  27.370  1.00  0.00     0.031 A 
ATOM     41  C   UNL A   1      41.836  25.940  28.023  1.00  0.00     0.074 A 
ATOM     42  C   UNL A   1      43.967  25.308  26.944  1.00  0.00     0.049 A 
ATOM     43  N   UNL A   1      42.053  27.206  28.271  1.00  0.00    -0.248 NA
ATOM     44  C   UNL A   1      40.498  25.473  28.420  1.00  0.00     0.031 C 
ATOM     45  C   UNL A   1      44.912  24.455  26.220  1.00  0.00     0.029 A 
ATOM     46  N   UNL A   1      44.614  26.517  27.028  1.00  0.00    -0.354 N 
ATOM     47  C   UNL A   1      40.870  27.696  28.810  1.00  0.00     0.074 A 
ATOM     48  C   UNL A   1      39.927  26.598  28.825  1.00  0.00     0.031 C 
ATOM     49  C   UNL A   1      46.014  25.164  25.929  1.00  0.00     0.029 A 
ATOM     50  C   UNL A   1      45.846  26.529  26.416  1.00  0.00     0.049 A 
ATOM     51  H   UNL A   1      44.231  27.302  27.483  1.00  0.00     0.167 HD
ATOM     52  C   UNL A   1      40.599  28.937  29.280  1.00  0.00     0.034 A 
ATOM     53  C   UNL A   1      46.739  27.526  26.257  1.00  0.00     0.034 A 
ATOM     54  C   UNL A   1      41.553  30.012  29.316  1.00  0.00     0.049 A 
ATOM     55  C   UNL A   1      46.436  28.881  26.839  1.00  0.00     0.074 A 
ATOM     56  C   UNL A   1      41.407  31.275  29.863  1.00  0.00     0.029 A 
ATOM     57  N   UNL A   1      42.831  29.954  28.781  1.00  0.00    -0.354 N 
ATOM     58  N   UNL A   1      45.373  29.277  27.496  1.00  0.00    -0.248 NA
ATOM     59  C   UNL A   1      47.469  29.916  26.690  1.00  0.00     0.031 C 
ATOM     60  C   UNL A   1      42.591  31.987  29.643  1.00  0.00     0.029 A 
ATOM     61  C   UNL A   1      43.483  31.160  28.979  1.00  0.00     0.049 A 
ATOM     62  H   UNL A   1      43.218  29.171  28.327  1.00  0.00     0.167 HD
ATOM     63  C   UNL A   1      45.624  30.592  27.872  1.00  0.00     0.074 A 
ATOM     64  C   UNL A   1      46.949  30.919  27.385  1.00  0.00     0.031 C 
ATOM     65  C   UNL A   1      44.823  31.455  28.543  1.00  0.00     0.034 A 
BRANCH  52  66
ATOM     66  C   UNL A   1      39.229  29.184  29.857  1.00  0.00     0.023 A 
ATOM     67  C   UNL A   1      38.931  28.722  31.156  1.00  0.00     0.012 A 
ATOM     68  C   UNL A   1      38.259  29.916  29.145  1.00  0.00     0.148 A 
ATOM     69  C   UNL A   1      37.679  28.954  31.723  1.00  0.00     0.002 A 
ATOM     70  C   UNL A   1      37.028  30.181  29.735  1.00  0.00     0.091 A 
ATOM     71  F   UNL A   1      38.552  30.330  27.904  1.00  0.00    -0.205 F 
ATOM     72  C   UNL A   1      36.732  29.690  31.018  1.00  0.00     0.022 A 
BRANCH  70  73
ATOM     73  S   UNL A   1      35.770  31.189  28.942  1.00  0.00     0.127 S 
ATOM     74  O   UNL A   1      34.918  31.542  30.077  1.00  0.00    -0.237 OA
ATOM     75  O   UNL A   1      36.557  32.298  28.403  1.00  0.00    -0.237 OA
ATOM     76  O   UNL A   1      35.151  30.338  27.935  1.00  0.00    -0.744 OA
ENDBRANCH  70  73
ENDBRANCH  52  66
BRANCH  53  77
ATOM     77  C   UNL A   1      48.040  27.261  25.579  1.00  0.00     0.023 A 
ATOM     78  C   UNL A   1      49.126  26.782  26.339  1.00  0.00     0.012 A 
ATOM     79  C   UNL A   1      48.204  27.451  24.194  1.00  0.00     0.148 A 
ATOM     80  C   UNL A   1      50.359  26.526  25.738  1.00  0.00     0.002 A 
ATOM     81  C   UNL A   1      49.419  27.143  23.591  1.00  0.00     0.091 A 
ATOM     82  F   UNL A   1      47.165  27.920  23.490  1.00  0.00    -0.205 F 
ATOM     83  C   UNL A   1      50.504  26.697  24.364  1.00  0.00     0.022 A 
BRANCH  81  84
ATOM     84  S   UNL A   1      49.655  27.206  21.811  1.00  0.00     0.127 S 
ATOM     85  O   UNL A   1      49.447  28.623  21.531  1.00  0.00    -0.237 OA
ATOM     86  O   UNL A   1      51.038  26.746  21.671  1.00  0.00    -0.237 OA
ATOM     87  O   UNL A   1      48.665  26.294  21.253  1.00  0.00    -0.744 OA
ENDBRANCH  81  84
ENDBRANCH  53  77
BRANCH  65  88
ATOM     88  C   UNL A   1      45.361  32.832  28.831  1.00  0.00     0.023 A 
ATOM     89  C   UNL A   1      46.105  33.061  30.006  1.00  0.00     0.012 A 
ATOM     90  C   UNL A   1      45.198  33.877  27.900  1.00  0.00     0.148 A 
ATOM     91  C   UNL A   1      46.653  34.317  30.263  1.00  0.00     0.002 A 
ATOM     92  C   UNL A   1      45.788  35.113  28.142  1.00  0.00     0.091 A 
ATOM     93  F   UNL A   1      44.471  33.644  26.798  1.00  0.00    -0.205 F 
ATOM     94  C   UNL A   1      46.505  35.338  29.327  1.00  0.00     0.022 A 
BRANCH  92  95
ATOM     95  S   UNL A   1      45.730  36.454  26.947  1.00  0.00     0.127 S 
ATOM     96  O   UNL A   1      44.293  36.701  26.846  1.00  0.00    -0.237 OA
ATOM     97  O   UNL A   1      46.483  37.509  27.627  1.00  0.00    -0.237 OA
ATOM     98  O   UNL A   1      46.365  35.943  25.739  1.00  0.00    -0.744 OA
ENDBRANCH  92  95
ENDBRANCH  65  88
ENDBRANCH  39  40
ENDBRANCH  31  34
ENDBRANCH  29  30
ENDBRANCH  28  29
ENDBRANCH   1  28
TORSDOF 17
ENDMDL
