MODEL 1
REMARK VINA RESULT:     -13.8      0.000      0.000
REMARK SMILES COc1cccc([C@@H]2[NH2+][C@@](C)(C(=O)NCCCCNC(=O)c3ccc(-c4c5nc(c(-c6cccc(S(=O)(=O)[O-])c6F)c6ccc([nH]6)c(-c6cccc(S(=O)(=O)[O-])c6F)c6nc(c(-c7cccc(S(=O)(=O)[O-])c7F)c7ccc4[nH]7)C=C6)C=C5)cc3)[C@@H]3C(=O)N(C)C(=O)[C@@H]32)c1O
REMARK SMILES IDX 17 1 16 2 15 3 14 4 12 5 13 6 10 8 8 9 9 10 92 11 85 14
REMARK SMILES IDX 90 15 11 16 86 17 88 18 91 19 87 20 89 21 7 22 3 23 4 24
REMARK SMILES IDX 93 25 5 26 6 27 2 28 1 29 94 30 18 32 19 33 20 34 21 36
REMARK SMILES IDX 22 37 23 38 84 39 24 40 83 41 25 42 26 43 27 44 77 45 28 46
REMARK SMILES IDX 82 47 76 48 78 49 29 50 81 51 75 52 74 53 30 55 62 56 42 57
REMARK SMILES IDX 61 58 43 59 46 60 60 61 79 62 44 63 45 64 59 66 80 67 47 68
REMARK SMILES IDX 31 69 32 70 40 71 33 72 35 73 41 74 34 75 36 76 37 77 38 78
REMARK SMILES IDX 39 79 63 80 64 81 72 82 65 83 67 84 73 85 66 86 68 87 69 88
REMARK SMILES IDX 70 89 71 90 48 91 49 92 57 93 50 94 52 95 58 96 51 97 53 98
REMARK SMILES IDX 54 99 55 100 56 101
REMARK H PARENT 14 7 9 12 9 13 94 31 19 35 78 54 46 65
REMARK Flexibility Score: inf
ROOT
ATOM      1  C   UNL A   1      36.097  20.794  25.127  1.00  0.00     0.023 C 
ENDROOT
BRANCH   1   2
ATOM      2  C   UNL A   1      35.329  21.817  25.965  1.00  0.00     0.023 C 
BRANCH   2   3
ATOM      3  C   UNL A   1      34.012  22.281  25.355  1.00  0.00     0.116 C 
BRANCH   3   4
ATOM      4  N   UNL A   1      34.165  22.732  23.981  1.00  0.00    -0.351 N 
ATOM      5  C   UNL A   1      33.404  23.599  23.248  1.00  0.00     0.281 C 
ATOM      6  O   UNL A   1      33.745  23.800  22.079  1.00  0.00    -0.268 OA
ATOM      7  H   UNL A   1      34.938  22.353  23.504  1.00  0.00     0.163 HD
BRANCH   5   8
ATOM      8  C   UNL A   1      32.183  24.341  23.881  1.00  0.00     0.185 C 
ATOM      9  C   UNL A   1      31.921  26.548  22.933  1.00  0.00     0.232 C 
ATOM     10  N   UNL A   1      31.517  25.132  22.813  1.00  0.00    -0.326 N 
ATOM     11  C   UNL A   1      32.922  26.637  24.094  1.00  0.00     0.161 C 
ATOM     12  H   UNL A   1      31.797  24.775  21.899  1.00  0.00     0.347 HD
ATOM     13  H   UNL A   1      30.506  25.056  22.910  1.00  0.00     0.347 HD
ATOM     14  C   UNL A   1      32.694  25.365  24.901  1.00  0.00     0.169 C 
ATOM     15  C   UNL A   1      32.666  27.731  25.096  1.00  0.00     0.239 C 
ATOM     16  C   UNL A   1      31.267  23.273  24.500  1.00  0.00     0.091 C 
ATOM     17  C   UNL A   1      31.776  25.846  25.997  1.00  0.00     0.240 C 
ATOM     18  N   UNL A   1      31.952  27.194  26.134  1.00  0.00    -0.285 N 
ATOM     19  O   UNL A   1      32.981  28.900  24.965  1.00  0.00    -0.274 OA
ATOM     20  O   UNL A   1      30.994  25.172  26.654  1.00  0.00    -0.274 OA
ATOM     21  C   UNL A   1      31.347  27.997  27.169  1.00  0.00     0.156 C 
BRANCH   9  22
ATOM     22  C   UNL A   1      30.723  27.496  22.998  1.00  0.00     0.056 A 
ATOM     23  C   UNL A   1      29.560  29.580  22.412  1.00  0.00     0.161 A 
ATOM     24  C   UNL A   1      28.387  29.057  22.963  1.00  0.00     0.050 A 
ATOM     25  C   UNL A   1      30.731  28.813  22.482  1.00  0.00     0.166 A 
ATOM     26  C   UNL A   1      28.368  27.786  23.536  1.00  0.00     0.005 A 
ATOM     27  C   UNL A   1      29.521  27.005  23.535  1.00  0.00     0.014 A 
BRANCH  23  28
ATOM     28  O   UNL A   1      29.411  30.844  21.910  1.00  0.00    -0.493 OA
ATOM     29  C   UNL A   1      28.183  31.514  22.150  1.00  0.00     0.278 C 
ENDBRANCH  23  28
BRANCH  25  30
ATOM     30  O   UNL A   1      31.946  29.348  22.155  1.00  0.00    -0.504 OA
ATOM     31  H   UNL A   1      32.384  29.073  21.374  1.00  0.00     0.293 HD
ENDBRANCH  25  30
ENDBRANCH   9  22
ENDBRANCH   5   8
ENDBRANCH   3   4
ENDBRANCH   2   3
ENDBRANCH   1   2
BRANCH   1  32
ATOM     32  C   UNL A   1      37.545  21.161  24.817  1.00  0.00     0.116 C 
BRANCH  32  33
ATOM     33  N   UNL A   1      38.491  20.117  25.195  1.00  0.00    -0.352 N 
ATOM     34  C   UNL A   1      39.648  20.217  25.933  1.00  0.00     0.251 C 
ATOM     35  H   UNL A   1      38.270  19.213  24.876  1.00  0.00     0.163 HD
ATOM     36  O   UNL A   1      40.396  19.250  26.043  1.00  0.00    -0.269 OA
BRANCH  34  37
ATOM     37  C   UNL A   1      40.004  21.507  26.561  1.00  0.00     0.039 A 
ATOM     38  C   UNL A   1      41.002  21.527  27.538  1.00  0.00     0.014 A 
ATOM     39  C   UNL A   1      39.398  22.696  26.145  1.00  0.00     0.014 A 
ATOM     40  C   UNL A   1      41.465  22.753  28.024  1.00  0.00     0.010 A 
ATOM     41  C   UNL A   1      39.911  23.916  26.576  1.00  0.00     0.010 A 
ATOM     42  C   UNL A   1      40.965  23.958  27.503  1.00  0.00    -0.014 A 
BRANCH  42  43
ATOM     43  C   UNL A   1      41.588  25.263  27.844  1.00  0.00     0.031 A 
ATOM     44  C   UNL A   1      40.795  26.339  28.531  1.00  0.00     0.074 A 
ATOM     45  C   UNL A   1      42.845  25.520  27.423  1.00  0.00     0.049 A 
ATOM     46  N   UNL A   1      41.149  27.564  28.821  1.00  0.00    -0.248 NA
ATOM     47  C   UNL A   1      39.416  26.005  28.925  1.00  0.00     0.031 C 
ATOM     48  C   UNL A   1      43.691  24.589  26.672  1.00  0.00     0.029 A 
ATOM     49  N   UNL A   1      43.616  26.653  27.528  1.00  0.00    -0.354 N 
ATOM     50  C   UNL A   1      40.032  28.159  29.395  1.00  0.00     0.074 A 
ATOM     51  C   UNL A   1      38.981  27.165  29.398  1.00  0.00     0.031 C 
ATOM     52  C   UNL A   1      44.854  25.189  26.376  1.00  0.00     0.029 A 
ATOM     53  C   UNL A   1      44.824  26.559  26.876  1.00  0.00     0.049 A 
ATOM     54  H   UNL A   1      43.330  27.454  28.023  1.00  0.00     0.167 HD
ATOM     55  C   UNL A   1      39.902  29.413  29.889  1.00  0.00     0.034 A 
ATOM     56  C   UNL A   1      45.788  27.478  26.674  1.00  0.00     0.034 A 
ATOM     57  C   UNL A   1      40.961  30.387  29.915  1.00  0.00     0.049 A 
ATOM     58  C   UNL A   1      45.620  28.858  27.250  1.00  0.00     0.074 A 
ATOM     59  C   UNL A   1      40.955  31.643  30.498  1.00  0.00     0.029 A 
ATOM     60  N   UNL A   1      42.200  30.231  29.315  1.00  0.00    -0.354 N 
ATOM     61  N   UNL A   1      44.627  29.340  27.958  1.00  0.00    -0.248 NA
ATOM     62  C   UNL A   1      46.715  29.813  27.025  1.00  0.00     0.031 C 
ATOM     63  C   UNL A   1      42.175  32.263  30.213  1.00  0.00     0.029 A 
ATOM     64  C   UNL A   1      42.955  31.379  29.485  1.00  0.00     0.049 A 
ATOM     65  H   UNL A   1      42.498  29.423  28.838  1.00  0.00     0.167 HD
ATOM     66  C   UNL A   1      44.986  30.643  28.280  1.00  0.00     0.074 A 
ATOM     67  C   UNL A   1      46.302  30.865  27.719  1.00  0.00     0.031 C 
ATOM     68  C   UNL A   1      44.280  31.579  28.960  1.00  0.00     0.034 A 
BRANCH  55  69
ATOM     69  C   UNL A   1      38.576  29.807  30.485  1.00  0.00     0.023 A 
ATOM     70  C   UNL A   1      38.285  29.473  31.822  1.00  0.00     0.012 A 
ATOM     71  C   UNL A   1      37.664  30.592  29.752  1.00  0.00     0.148 A 
ATOM     72  C   UNL A   1      37.097  29.897  32.416  1.00  0.00     0.002 A 
ATOM     73  C   UNL A   1      36.504  31.048  30.365  1.00  0.00     0.091 A 
ATOM     74  F   UNL A   1      37.953  30.883  28.475  1.00  0.00    -0.205 F 
ATOM     75  C   UNL A   1      36.214  30.694  31.692  1.00  0.00     0.022 A 
BRANCH  73  76
ATOM     76  S   UNL A   1      35.340  32.146  29.547  1.00  0.00     0.127 S 
ATOM     77  O   UNL A   1      34.442  32.496  30.648  1.00  0.00    -0.237 OA
ATOM     78  O   UNL A   1      36.210  33.234  29.100  1.00  0.00    -0.237 OA
ATOM     79  O   UNL A   1      34.734  31.368  28.476  1.00  0.00    -0.744 OA
ENDBRANCH  73  76
ENDBRANCH  55  69
BRANCH  56  80
ATOM     80  C   UNL A   1      47.012  27.123  25.899  1.00  0.00     0.023 A 
ATOM     81  C   UNL A   1      48.028  26.362  26.509  1.00  0.00     0.012 A 
ATOM     82  C   UNL A   1      47.170  27.529  24.559  1.00  0.00     0.148 A 
ATOM     83  C   UNL A   1      49.196  26.046  25.813  1.00  0.00     0.002 A 
ATOM     84  C   UNL A   1      48.308  27.159  23.853  1.00  0.00     0.091 A 
ATOM     85  F   UNL A   1      46.199  28.266  23.999  1.00  0.00    -0.205 F 
ATOM     86  C   UNL A   1      49.331  26.435  24.484  1.00  0.00     0.022 A 
BRANCH  84  87
ATOM     87  S   UNL A   1      48.501  27.499  22.099  1.00  0.00     0.127 S 
ATOM     88  O   UNL A   1      49.716  28.309  22.084  1.00  0.00    -0.237 OA
ATOM     89  O   UNL A   1      48.650  26.152  21.545  1.00  0.00    -0.237 OA
ATOM     90  O   UNL A   1      47.278  28.179  21.696  1.00  0.00    -0.744 OA
ENDBRANCH  84  87
ENDBRANCH  56  80
BRANCH  68  91
ATOM     91  C   UNL A   1      44.915  32.931  29.155  1.00  0.00     0.023 A 
ATOM     92  C   UNL A   1      45.683  33.182  30.309  1.00  0.00     0.012 A 
ATOM     93  C   UNL A   1      44.816  33.925  28.161  1.00  0.00     0.148 A 
ATOM     94  C   UNL A   1      46.317  34.411  30.487  1.00  0.00     0.002 A 
ATOM     95  C   UNL A   1      45.493  35.129  28.320  1.00  0.00     0.091 A 
ATOM     96  F   UNL A   1      44.070  33.672  27.077  1.00  0.00    -0.205 F 
ATOM     97  C   UNL A   1      46.232  35.379  29.488  1.00  0.00     0.022 A 
BRANCH  95  98
ATOM     98  S   UNL A   1      45.520  36.399  27.051  1.00  0.00     0.127 S 
ATOM     99  O   UNL A   1      44.108  36.771  26.970  1.00  0.00    -0.237 OA
ATOM    100  O   UNL A   1      46.386  37.415  27.651  1.00  0.00    -0.237 OA
ATOM    101  O   UNL A   1      46.064  35.767  25.857  1.00  0.00    -0.744 OA
ENDBRANCH  95  98
ENDBRANCH  68  91
ENDBRANCH  42  43
ENDBRANCH  34  37
ENDBRANCH  32  33
ENDBRANCH   1  32
TORSDOF 17
ENDMDL
MODEL 2
REMARK VINA RESULT:     -13.7      5.190     10.561
REMARK SMILES COc1cccc([C@@H]2[NH2+][C@@](C)(C(=O)NCCCCNC(=O)c3ccc(-c4c5nc(c(-c6cccc(S(=O)(=O)[O-])c6F)c6ccc([nH]6)c(-c6cccc(S(=O)(=O)[O-])c6F)c6nc(c(-c7cccc(S(=O)(=O)[O-])c7F)c7ccc4[nH]7)C=C6)C=C5)cc3)[C@@H]3C(=O)N(C)C(=O)[C@@H]32)c1O
REMARK SMILES IDX 17 1 16 2 15 3 14 4 12 5 13 6 10 8 8 9 9 10 92 11 85 14
REMARK SMILES IDX 90 15 11 16 86 17 88 18 91 19 87 20 89 21 7 22 3 23 4 24
REMARK SMILES IDX 93 25 5 26 6 27 2 28 1 29 94 30 18 32 19 33 20 34 21 36
REMARK SMILES IDX 22 37 23 38 84 39 24 40 83 41 25 42 26 43 27 44 77 45 28 46
REMARK SMILES IDX 82 47 76 48 78 49 29 50 81 51 75 52 74 53 30 55 62 56 42 57
REMARK SMILES IDX 61 58 43 59 46 60 60 61 79 62 44 63 45 64 59 66 80 67 47 68
REMARK SMILES IDX 31 69 32 70 40 71 33 72 35 73 41 74 34 75 36 76 37 77 38 78
REMARK SMILES IDX 39 79 63 80 64 81 72 82 65 83 67 84 73 85 66 86 68 87 69 88
REMARK SMILES IDX 70 89 71 90 48 91 49 92 57 93 50 94 52 95 58 96 51 97 53 98
REMARK SMILES IDX 54 99 55 100 56 101
REMARK H PARENT 14 7 9 12 9 13 94 31 19 35 78 54 46 65
REMARK Flexibility Score: inf
ROOT
ATOM      1  C   UNL A   1      31.685  29.601  26.908  1.00  0.00     0.023 C 
ENDROOT
BRANCH   1   2
ATOM      2  C   UNL A   1      32.340  28.223  26.821  1.00  0.00     0.023 C 
BRANCH   2   3
ATOM      3  C   UNL A   1      31.670  27.258  25.849  1.00  0.00     0.116 C 
BRANCH   3   4
ATOM      4  N   UNL A   1      30.712  26.384  26.508  1.00  0.00    -0.351 N 
ATOM      5  C   UNL A   1      30.346  25.100  26.216  1.00  0.00     0.281 C 
ATOM      6  O   UNL A   1      29.484  24.582  26.931  1.00  0.00    -0.268 OA
ATOM      7  H   UNL A   1      30.256  26.779  27.285  1.00  0.00     0.163 HD
BRANCH   5   8
ATOM      8  C   UNL A   1      31.030  24.305  25.057  1.00  0.00     0.185 C 
ATOM      9  C   UNL A   1      31.855  22.171  25.834  1.00  0.00     0.232 C 
ATOM     10  N   UNL A   1      30.702  22.865  25.226  1.00  0.00    -0.326 N 
ATOM     11  C   UNL A   1      32.931  23.232  26.104  1.00  0.00     0.161 C 
ATOM     12  H   UNL A   1      29.888  22.771  25.834  1.00  0.00     0.347 HD
ATOM     13  H   UNL A   1      30.495  22.452  24.317  1.00  0.00     0.347 HD
ATOM     14  C   UNL A   1      32.552  24.406  25.210  1.00  0.00     0.169 C 
ATOM     15  C   UNL A   1      34.322  22.886  25.645  1.00  0.00     0.239 C 
ATOM     16  C   UNL A   1      30.513  24.889  23.732  1.00  0.00     0.091 C 
ATOM     17  C   UNL A   1      33.438  24.187  24.008  1.00  0.00     0.240 C 
ATOM     18  N   UNL A   1      34.506  23.432  24.403  1.00  0.00    -0.285 N 
ATOM     19  O   UNL A   1      35.113  22.182  26.248  1.00  0.00    -0.274 OA
ATOM     20  O   UNL A   1      33.250  24.592  22.869  1.00  0.00    -0.274 OA
ATOM     21  C   UNL A   1      35.642  23.122  23.569  1.00  0.00     0.156 C 
BRANCH   9  22
ATOM     22  C   UNL A   1      32.296  20.949  25.028  1.00  0.00     0.056 A 
ATOM     23  C   UNL A   1      33.069  18.624  24.845  1.00  0.00     0.161 A 
ATOM     24  C   UNL A   1      32.848  18.680  23.466  1.00  0.00     0.050 A 
ATOM     25  C   UNL A   1      32.841  19.778  25.605  1.00  0.00     0.166 A 
ATOM     26  C   UNL A   1      32.373  19.844  22.862  1.00  0.00     0.005 A 
ATOM     27  C   UNL A   1      32.081  20.961  23.640  1.00  0.00     0.014 A 
BRANCH  23  28
ATOM     28  O   UNL A   1      33.553  17.418  25.271  1.00  0.00    -0.493 OA
ATOM     29  C   UNL A   1      32.849  16.246  24.888  1.00  0.00     0.278 C 
ENDBRANCH  23  28
BRANCH  25  30
ATOM     30  O   UNL A   1      33.235  19.852  26.913  1.00  0.00    -0.504 OA
ATOM     31  H   UNL A   1      33.040  20.616  27.419  1.00  0.00     0.293 HD
ENDBRANCH  25  30
ENDBRANCH   9  22
ENDBRANCH   5   8
ENDBRANCH   3   4
ENDBRANCH   2   3
ENDBRANCH   1   2
BRANCH   1  32
ATOM     32  C   UNL A   1      32.374  30.703  26.109  1.00  0.00     0.116 C 
BRANCH  32  33
ATOM     33  N   UNL A   1      32.177  32.030  26.679  1.00  0.00    -0.352 N 
ATOM     34  C   UNL A   1      32.986  32.739  27.537  1.00  0.00     0.251 C 
ATOM     35  H   UNL A   1      31.345  32.484  26.412  1.00  0.00     0.163 HD
ATOM     36  O   UNL A   1      32.595  33.796  28.022  1.00  0.00    -0.269 OA
BRANCH  34  37
ATOM     37  C   UNL A   1      34.314  32.200  27.901  1.00  0.00     0.039 A 
ATOM     38  C   UNL A   1      35.406  33.069  27.938  1.00  0.00     0.014 A 
ATOM     39  C   UNL A   1      34.465  30.857  28.259  1.00  0.00     0.014 A 
ATOM     40  C   UNL A   1      36.630  32.615  28.435  1.00  0.00     0.010 A 
ATOM     41  C   UNL A   1      35.665  30.428  28.822  1.00  0.00     0.010 A 
ATOM     42  C   UNL A   1      36.752  31.309  28.937  1.00  0.00    -0.014 A 
BRANCH  42  43
ATOM     43  C   UNL A   1      37.973  30.872  29.664  1.00  0.00     0.031 A 
ATOM     44  C   UNL A   1      38.900  29.851  29.067  1.00  0.00     0.074 A 
ATOM     45  C   UNL A   1      38.180  31.315  30.923  1.00  0.00     0.049 A 
ATOM     46  N   UNL A   1      39.957  29.291  29.597  1.00  0.00    -0.248 NA
ATOM     47  C   UNL A   1      38.591  29.380  27.707  1.00  0.00     0.031 C 
ATOM     48  C   UNL A   1      37.307  32.243  31.646  1.00  0.00     0.029 A 
ATOM     49  N   UNL A   1      39.164  31.012  31.832  1.00  0.00    -0.354 N 
ATOM     50  C   UNL A   1      40.416  28.377  28.657  1.00  0.00     0.074 A 
ATOM     51  C   UNL A   1      39.515  28.446  27.527  1.00  0.00     0.031 C 
ATOM     52  C   UNL A   1      37.787  32.425  32.887  1.00  0.00     0.029 A 
ATOM     53  C   UNL A   1      38.975  31.597  33.064  1.00  0.00     0.049 A 
ATOM     54  H   UNL A   1      39.932  30.433  31.622  1.00  0.00     0.167 HD
ATOM     55  C   UNL A   1      41.500  27.569  28.723  1.00  0.00     0.034 A 
ATOM     56  C   UNL A   1      39.658  31.461  34.217  1.00  0.00     0.034 A 
ATOM     57  C   UNL A   1      42.415  27.528  29.834  1.00  0.00     0.049 A 
ATOM     58  C   UNL A   1      40.867  30.567  34.252  1.00  0.00     0.074 A 
ATOM     59  C   UNL A   1      43.602  26.825  29.940  1.00  0.00     0.029 A 
ATOM     60  N   UNL A   1      42.235  28.194  31.036  1.00  0.00    -0.354 N 
ATOM     61  N   UNL A   1      41.396  29.855  33.286  1.00  0.00    -0.248 NA
ATOM     62  C   UNL A   1      41.594  30.477  35.528  1.00  0.00     0.031 C 
ATOM     63  C   UNL A   1      44.118  27.031  31.223  1.00  0.00     0.029 A 
ATOM     64  C   UNL A   1      43.272  27.893  31.902  1.00  0.00     0.049 A 
ATOM     65  H   UNL A   1      41.481  28.793  31.242  1.00  0.00     0.167 HD
ATOM     66  C   UNL A   1      42.524  29.253  33.829  1.00  0.00     0.074 A 
ATOM     67  C   UNL A   1      42.624  29.709  35.199  1.00  0.00     0.031 C 
ATOM     68  C   UNL A   1      43.387  28.382  33.251  1.00  0.00     0.034 A 
BRANCH  55  69
ATOM     69  C   UNL A   1      41.795  26.678  27.545  1.00  0.00     0.023 A 
ATOM     70  C   UNL A   1      42.474  27.201  26.426  1.00  0.00     0.012 A 
ATOM     71  C   UNL A   1      41.488  25.303  27.589  1.00  0.00     0.148 A 
ATOM     72  C   UNL A   1      42.825  26.376  25.360  1.00  0.00     0.002 A 
ATOM     73  C   UNL A   1      41.882  24.479  26.542  1.00  0.00     0.091 A 
ATOM     74  F   UNL A   1      40.826  24.830  28.654  1.00  0.00    -0.205 F 
ATOM     75  C   UNL A   1      42.541  25.014  25.423  1.00  0.00     0.022 A 
BRANCH  73  76
ATOM     76  S   UNL A   1      41.636  22.699  26.563  1.00  0.00     0.127 S 
ATOM     77  O   UNL A   1      42.309  22.295  25.329  1.00  0.00    -0.237 OA
ATOM     78  O   UNL A   1      42.328  22.309  27.791  1.00  0.00    -0.237 OA
ATOM     79  O   UNL A   1      40.195  22.490  26.579  1.00  0.00    -0.744 OA
ENDBRANCH  73  76
ENDBRANCH  55  69
BRANCH  56  80
ATOM     80  C   UNL A   1      39.224  32.200  35.437  1.00  0.00     0.023 A 
ATOM     81  C   UNL A   1      39.503  33.575  35.556  1.00  0.00     0.012 A 
ATOM     82  C   UNL A   1      38.530  31.549  36.476  1.00  0.00     0.148 A 
ATOM     83  C   UNL A   1      39.135  34.280  36.703  1.00  0.00     0.002 A 
ATOM     84  C   UNL A   1      38.113  32.270  37.589  1.00  0.00     0.091 A 
ATOM     85  F   UNL A   1      38.286  30.236  36.353  1.00  0.00    -0.205 F 
ATOM     86  C   UNL A   1      38.432  33.630  37.714  1.00  0.00     0.022 A 
BRANCH  84  87
ATOM     87  S   UNL A   1      37.083  31.545  38.870  1.00  0.00     0.127 S 
ATOM     88  O   UNL A   1      37.935  31.679  40.049  1.00  0.00    -0.237 OA
ATOM     89  O   UNL A   1      35.913  32.424  38.850  1.00  0.00    -0.237 OA
ATOM     90  O   UNL A   1      36.815  30.182  38.431  1.00  0.00    -0.744 OA
ENDBRANCH  84  87
ENDBRANCH  56  80
BRANCH  68  91
ATOM     91  C   UNL A   1      44.531  27.871  34.088  1.00  0.00     0.023 A 
ATOM     92  C   UNL A   1      45.744  28.586  34.124  1.00  0.00     0.012 A 
ATOM     93  C   UNL A   1      44.378  26.727  34.896  1.00  0.00     0.148 A 
ATOM     94  C   UNL A   1      46.799  28.154  34.927  1.00  0.00     0.002 A 
ATOM     95  C   UNL A   1      45.414  26.332  35.734  1.00  0.00     0.091 A 
ATOM     96  F   UNL A   1      43.221  26.053  34.837  1.00  0.00    -0.205 F 
ATOM     97  C   UNL A   1      46.630  27.035  35.740  1.00  0.00     0.022 A 
BRANCH  95  98
ATOM     98  S   UNL A   1      45.260  24.961  36.884  1.00  0.00     0.127 S 
ATOM     99  O   UNL A   1      46.489  25.088  37.667  1.00  0.00    -0.237 OA
ATOM    100  O   UNL A   1      44.036  25.305  37.610  1.00  0.00    -0.237 OA
ATOM    101  O   UNL A   1      45.165  23.758  36.070  1.00  0.00    -0.744 OA
ENDBRANCH  95  98
ENDBRANCH  68  91
ENDBRANCH  42  43
ENDBRANCH  34  37
ENDBRANCH  32  33
ENDBRANCH   1  32
TORSDOF 17
ENDMDL
MODEL 3
REMARK VINA RESULT:     -13.4      1.435      7.427
REMARK SMILES COc1cccc([C@@H]2[NH2+][C@@](C)(C(=O)NCCCCNC(=O)c3ccc(-c4c5nc(c(-c6cccc(S(=O)(=O)[O-])c6F)c6ccc([nH]6)c(-c6cccc(S(=O)(=O)[O-])c6F)c6nc(c(-c7cccc(S(=O)(=O)[O-])c7F)c7ccc4[nH]7)C=C6)C=C5)cc3)[C@@H]3C(=O)N(C)C(=O)[C@@H]32)c1O
REMARK SMILES IDX 17 1 16 2 15 3 14 4 12 5 13 6 10 8 8 9 9 10 92 11 85 14
REMARK SMILES IDX 90 15 11 16 86 17 88 18 91 19 87 20 89 21 7 22 3 23 4 24
REMARK SMILES IDX 93 25 5 26 6 27 2 28 1 29 94 30 18 32 19 33 20 34 21 36
REMARK SMILES IDX 22 37 23 38 84 39 24 40 83 41 25 42 26 43 27 44 77 45 28 46
REMARK SMILES IDX 82 47 76 48 78 49 29 50 81 51 75 52 74 53 30 55 62 56 42 57
REMARK SMILES IDX 61 58 43 59 46 60 60 61 79 62 44 63 45 64 59 66 80 67 47 68
REMARK SMILES IDX 31 69 32 70 40 71 33 72 35 73 41 74 34 75 36 76 37 77 38 78
REMARK SMILES IDX 39 79 63 80 64 81 72 82 65 83 67 84 73 85 66 86 68 87 69 88
REMARK SMILES IDX 70 89 71 90 48 91 49 92 57 93 50 94 52 95 58 96 51 97 53 98
REMARK SMILES IDX 54 99 55 100 56 101
REMARK H PARENT 14 7 9 12 9 13 94 31 19 35 78 54 46 65
REMARK Flexibility Score: inf
ROOT
ATOM      1  C   UNL A   1      35.795  20.832  24.784  1.00  0.00     0.023 C 
ENDROOT
BRANCH   1   2
ATOM      2  C   UNL A   1      34.588  21.647  25.250  1.00  0.00     0.023 C 
BRANCH   2   3
ATOM      3  C   UNL A   1      34.594  23.106  24.807  1.00  0.00     0.116 C 
BRANCH   3   4
ATOM      4  N   UNL A   1      34.392  23.251  23.375  1.00  0.00    -0.351 N 
ATOM      5  C   UNL A   1      33.351  23.804  22.684  1.00  0.00     0.281 C 
ATOM      6  O   UNL A   1      33.418  23.785  21.451  1.00  0.00    -0.268 OA
ATOM      7  H   UNL A   1      35.120  22.896  22.816  1.00  0.00     0.163 HD
BRANCH   5   8
ATOM      8  C   UNL A   1      32.150  24.477  23.425  1.00  0.00     0.185 C 
ATOM      9  C   UNL A   1      31.786  26.728  22.627  1.00  0.00     0.232 C 
ATOM     10  N   UNL A   1      31.409  25.312  22.444  1.00  0.00    -0.326 N 
ATOM     11  C   UNL A   1      32.848  26.774  23.735  1.00  0.00     0.161 C 
ATOM     12  H   UNL A   1      31.646  25.015  21.497  1.00  0.00     0.347 HD
ATOM     13  H   UNL A   1      30.406  25.203  22.592  1.00  0.00     0.347 HD
ATOM     14  C   UNL A   1      32.694  25.452  24.475  1.00  0.00     0.169 C 
ATOM     15  C   UNL A   1      32.624  27.800  24.814  1.00  0.00     0.239 C 
ATOM     16  C   UNL A   1      31.294  23.351  24.028  1.00  0.00     0.091 C 
ATOM     17  C   UNL A   1      31.828  25.844  25.647  1.00  0.00     0.240 C 
ATOM     18  N   UNL A   1      31.982  27.186  25.855  1.00  0.00    -0.285 N 
ATOM     19  O   UNL A   1      32.905  28.983  24.736  1.00  0.00    -0.274 OA
ATOM     20  O   UNL A   1      31.099  25.113  26.303  1.00  0.00    -0.274 OA
ATOM     21  C   UNL A   1      31.418  27.911  26.967  1.00  0.00     0.156 C 
BRANCH   9  22
ATOM     22  C   UNL A   1      30.573  27.640  22.813  1.00  0.00     0.056 A 
ATOM     23  C   UNL A   1      29.330  29.720  22.411  1.00  0.00     0.161 A 
ATOM     24  C   UNL A   1      28.204  29.138  23.001  1.00  0.00     0.050 A 
ATOM     25  C   UNL A   1      30.520  28.982  22.371  1.00  0.00     0.166 A 
ATOM     26  C   UNL A   1      28.248  27.838  23.504  1.00  0.00     0.005 A 
ATOM     27  C   UNL A   1      29.417  27.089  23.392  1.00  0.00     0.014 A 
BRANCH  23  28
ATOM     28  O   UNL A   1      29.122  31.004  21.989  1.00  0.00    -0.493 OA
ATOM     29  C   UNL A   1      28.670  31.953  22.943  1.00  0.00     0.278 C 
ENDBRANCH  23  28
BRANCH  25  30
ATOM     30  O   UNL A   1      31.701  29.565  22.004  1.00  0.00    -0.504 OA
ATOM     31  H   UNL A   1      32.490  29.356  22.463  1.00  0.00     0.293 HD
ENDBRANCH  25  30
ENDBRANCH   9  22
ENDBRANCH   5   8
ENDBRANCH   3   4
ENDBRANCH   2   3
ENDBRANCH   1   2
BRANCH   1  32
ATOM     32  C   UNL A   1      37.155  21.467  25.059  1.00  0.00     0.116 C 
BRANCH  32  33
ATOM     33  N   UNL A   1      38.178  20.490  25.415  1.00  0.00    -0.352 N 
ATOM     34  C   UNL A   1      39.386  20.685  26.045  1.00  0.00     0.251 C 
ATOM     35  H   UNL A   1      37.976  19.560  25.170  1.00  0.00     0.163 HD
ATOM     36  O   UNL A   1      40.186  19.760  26.146  1.00  0.00    -0.269 OA
BRANCH  34  37
ATOM     37  C   UNL A   1      39.731  22.026  26.564  1.00  0.00     0.039 A 
ATOM     38  C   UNL A   1      40.785  22.145  27.471  1.00  0.00     0.014 A 
ATOM     39  C   UNL A   1      39.054  23.162  26.112  1.00  0.00     0.014 A 
ATOM     40  C   UNL A   1      41.230  23.416  27.846  1.00  0.00     0.010 A 
ATOM     41  C   UNL A   1      39.546  24.426  26.430  1.00  0.00     0.010 A 
ATOM     42  C   UNL A   1      40.653  24.565  27.282  1.00  0.00    -0.014 A 
BRANCH  42  43
ATOM     43  C   UNL A   1      41.245  25.911  27.497  1.00  0.00     0.031 A 
ATOM     44  C   UNL A   1      42.649  26.214  27.053  1.00  0.00     0.074 A 
ATOM     45  C   UNL A   1      40.551  26.829  28.203  1.00  0.00     0.049 A 
ATOM     46  N   UNL A   1      43.354  27.299  27.240  1.00  0.00    -0.248 NA
ATOM     47  C   UNL A   1      43.364  25.152  26.325  1.00  0.00     0.031 C 
ATOM     48  C   UNL A   1      39.211  26.628  28.761  1.00  0.00     0.029 A 
ATOM     49  N   UNL A   1      40.890  28.097  28.609  1.00  0.00    -0.354 N 
ATOM     50  C   UNL A   1      44.604  27.042  26.689  1.00  0.00     0.074 A 
ATOM     51  C   UNL A   1      44.567  25.691  26.174  1.00  0.00     0.031 C 
ATOM     52  C   UNL A   1      38.848  27.725  29.444  1.00  0.00     0.029 A 
ATOM     53  C   UNL A   1      39.941  28.691  29.410  1.00  0.00     0.049 A 
ATOM     54  H   UNL A   1      41.731  28.538  28.351  1.00  0.00     0.167 HD
ATOM     55  C   UNL A   1      45.676  27.864  26.605  1.00  0.00     0.034 A 
ATOM     56  C   UNL A   1      39.956  29.866  30.069  1.00  0.00     0.034 A 
ATOM     57  C   UNL A   1      45.698  29.220  27.087  1.00  0.00     0.049 A 
ATOM     58  C   UNL A   1      41.157  30.763  29.942  1.00  0.00     0.074 A 
ATOM     59  C   UNL A   1      46.700  30.165  26.944  1.00  0.00     0.029 A 
ATOM     60  N   UNL A   1      44.688  29.817  27.825  1.00  0.00    -0.354 N 
ATOM     61  N   UNL A   1      42.257  30.576  29.253  1.00  0.00    -0.248 NA
ATOM     62  C   UNL A   1      41.109  32.047  30.659  1.00  0.00     0.031 C 
ATOM     63  C   UNL A   1      46.315  31.319  27.632  1.00  0.00     0.029 A 
ATOM     64  C   UNL A   1      45.057  31.106  28.173  1.00  0.00     0.049 A 
ATOM     65  H   UNL A   1      43.836  29.388  28.066  1.00  0.00     0.167 HD
ATOM     66  C   UNL A   1      43.020  31.723  29.436  1.00  0.00     0.074 A 
ATOM     67  C   UNL A   1      42.244  32.614  30.271  1.00  0.00     0.031 C 
ATOM     68  C   UNL A   1      44.262  32.003  28.970  1.00  0.00     0.034 A 
BRANCH  55  69
ATOM     69  C   UNL A   1      46.918  27.345  25.931  1.00  0.00     0.023 A 
ATOM     70  C   UNL A   1      47.135  27.610  24.564  1.00  0.00     0.012 A 
ATOM     71  C   UNL A   1      47.915  26.681  26.674  1.00  0.00     0.148 A 
ATOM     72  C   UNL A   1      48.314  27.206  23.941  1.00  0.00     0.002 A 
ATOM     73  C   UNL A   1      49.107  26.321  26.056  1.00  0.00     0.091 A 
ATOM     74  F   UNL A   1      47.681  26.423  27.968  1.00  0.00    -0.205 F 
ATOM     75  C   UNL A   1      49.304  26.573  24.689  1.00  0.00     0.022 A 
BRANCH  73  76
ATOM     76  S   UNL A   1      50.476  25.575  26.948  1.00  0.00     0.127 S 
ATOM     77  O   UNL A   1      49.818  24.449  27.610  1.00  0.00    -0.237 OA
ATOM     78  O   UNL A   1      51.380  25.201  25.861  1.00  0.00    -0.237 OA
ATOM     79  O   UNL A   1      50.987  26.606  27.841  1.00  0.00    -0.744 OA
ENDBRANCH  73  76
ENDBRANCH  55  69
BRANCH  56  80
ATOM     80  C   UNL A   1      38.789  30.273  30.903  1.00  0.00     0.023 A 
ATOM     81  C   UNL A   1      38.751  29.928  32.268  1.00  0.00     0.012 A 
ATOM     82  C   UNL A   1      37.719  31.006  30.352  1.00  0.00     0.148 A 
ATOM     83  C   UNL A   1      37.654  30.271  33.059  1.00  0.00     0.002 A 
ATOM     84  C   UNL A   1      36.658  31.398  31.159  1.00  0.00     0.091 A 
ATOM     85  F   UNL A   1      37.765  31.313  29.047  1.00  0.00    -0.205 F 
ATOM     86  C   UNL A   1      36.613  31.013  32.508  1.00  0.00     0.022 A 
BRANCH  84  87
ATOM     87  S   UNL A   1      35.346  32.471  30.565  1.00  0.00     0.127 S 
ATOM     88  O   UNL A   1      34.897  31.761  29.371  1.00  0.00    -0.237 OA
ATOM     89  O   UNL A   1      34.406  32.449  31.687  1.00  0.00    -0.237 OA
ATOM     90  O   UNL A   1      35.974  33.766  30.337  1.00  0.00    -0.744 OA
ENDBRANCH  84  87
ENDBRANCH  56  80
BRANCH  68  91
ATOM     91  C   UNL A   1      44.863  33.335  29.338  1.00  0.00     0.023 A 
ATOM     92  C   UNL A   1      45.702  33.435  30.465  1.00  0.00     0.012 A 
ATOM     93  C   UNL A   1      44.660  34.468  28.524  1.00  0.00     0.148 A 
ATOM     94  C   UNL A   1      46.305  34.648  30.796  1.00  0.00     0.002 A 
ATOM     95  C   UNL A   1      45.306  35.660  28.830  1.00  0.00     0.091 A 
ATOM     96  F   UNL A   1      43.848  34.355  27.464  1.00  0.00    -0.205 F 
ATOM     97  C   UNL A   1      46.117  35.756  29.972  1.00  0.00     0.022 A 
BRANCH  95  98
ATOM     98  S   UNL A   1      45.200  37.114  27.781  1.00  0.00     0.127 S 
ATOM     99  O   UNL A   1      46.084  38.048  28.476  1.00  0.00    -0.237 OA
ATOM    100  O   UNL A   1      45.720  36.613  26.508  1.00  0.00    -0.237 OA
ATOM    101  O   UNL A   1      43.795  37.493  27.755  1.00  0.00    -0.744 OA
ENDBRANCH  95  98
ENDBRANCH  68  91
ENDBRANCH  42  43
ENDBRANCH  34  37
ENDBRANCH  32  33
ENDBRANCH   1  32
TORSDOF 17
ENDMDL
