MODEL 1
REMARK VINA RESULT:     -11.9      0.000      0.000
REMARK SMILES Cc1ccc2oc(CCCC(=O)NCCCCNC(=O)c3ccc(-c4c5nc(c(-c6cccc(S(=O)(=O)[O-])c6F)c6ccc([nH]6)c(-c6cccc(S(=O)(=O)[O-])c6F)c6nc(c(-c7cccc(S(=O)(=O)[O-])c7F)c7ccc4[nH]7)C=C6)C=C5)cc3)cc(=O)c2c1
REMARK SMILES IDX 15 1 14 2 13 3 11 4 12 5 10 7 9 8 8 9 7 10 1 11 2 12 3 13
REMARK SMILES IDX 88 14 4 15 87 16 5 17 85 18 6 19 84 20 86 21 16 22 17 23
REMARK SMILES IDX 18 24 19 25 20 27 21 28 22 29 83 30 23 31 82 32 24 33 25 34
REMARK SMILES IDX 26 35 76 36 27 37 81 38 75 39 77 40 28 41 80 42 74 43 73 44
REMARK SMILES IDX 29 46 61 47 41 48 60 49 42 50 45 51 59 52 78 53 43 54 44 55
REMARK SMILES IDX 58 57 79 58 46 59 30 60 31 61 39 62 32 63 34 64 40 65 33 66
REMARK SMILES IDX 35 67 36 68 37 69 38 70 62 71 63 72 71 73 64 74 66 75 72 76
REMARK SMILES IDX 65 77 67 78 68 79 69 80 70 81 47 82 48 83 56 84 49 85 51 86
REMARK SMILES IDX 57 87 50 88 52 89 53 90 54 91 55 92
REMARK H PARENT 13 6 18 26 77 45 45 56
REMARK Flexibility Score: inf
ROOT
ATOM      1  C   UNL A   1      32.366  27.490  26.888  1.00  0.00     0.023 C 
ENDROOT
BRANCH   1   2
ATOM      2  C   UNL A   1      32.465  26.092  26.281  1.00  0.00     0.116 C 
BRANCH   2   3
ATOM      3  N   UNL A   1      31.482  25.209  26.875  1.00  0.00    -0.356 N 
ATOM      4  C   UNL A   1      31.377  23.855  26.804  1.00  0.00     0.220 C 
ATOM      5  O   UNL A   1      30.379  23.309  27.277  1.00  0.00    -0.275 OA
ATOM      6  H   UNL A   1      30.786  25.657  27.410  1.00  0.00     0.163 HD
BRANCH   4   7
ATOM      7  C   UNL A   1      32.494  23.029  26.199  1.00  0.00     0.100 C 
BRANCH   7   8
ATOM      8  C   UNL A   1      32.056  21.955  25.195  1.00  0.00     0.018 C 
BRANCH   8   9
ATOM      9  C   UNL A   1      31.851  22.349  23.721  1.00  0.00     0.076 C 
BRANCH   9  10
ATOM     10  C   UNL A   1      31.851  23.815  23.347  1.00  0.00     0.108 A 
ATOM     11  C   UNL A   1      29.841  29.873  22.147  1.00  0.00     0.044 C 
ATOM     12  C   UNL A   1      30.083  28.447  22.546  1.00  0.00    -0.050 A 
ATOM     13  C   UNL A   1      29.130  27.746  23.296  1.00  0.00     0.007 A 
ATOM     14  C   UNL A   1      31.283  27.811  22.188  1.00  0.00     0.019 A 
ATOM     15  C   UNL A   1      29.376  26.433  23.699  1.00  0.00     0.048 A 
ATOM     16  C   UNL A   1      31.518  26.492  22.591  1.00  0.00     0.065 A 
ATOM     17  C   UNL A   1      30.575  25.814  23.352  1.00  0.00     0.138 A 
ATOM     18  C   UNL A   1      32.752  25.782  22.220  1.00  0.00     0.192 A 
ATOM     19  O   UNL A   1      30.765  24.536  23.803  1.00  0.00    -0.461 OA
ATOM     20  C   UNL A   1      32.830  24.357  22.606  1.00  0.00     0.095 A 
ATOM     21  O   UNL A   1      33.665  26.323  21.611  1.00  0.00    -0.289 OA
ENDBRANCH   9  10
ENDBRANCH   8   9
ENDBRANCH   7   8
ENDBRANCH   4   7
ENDBRANCH   2   3
ENDBRANCH   1   2
BRANCH   1  22
ATOM     22  C   UNL A   1      31.877  28.561  25.920  1.00  0.00     0.023 C 
BRANCH  22  23
ATOM     23  C   UNL A   1      32.854  29.707  25.701  1.00  0.00     0.116 C 
BRANCH  23  24
ATOM     24  N   UNL A   1      32.410  30.969  26.282  1.00  0.00    -0.352 N 
ATOM     25  C   UNL A   1      33.077  31.762  27.190  1.00  0.00     0.251 C 
ATOM     26  H   UNL A   1      31.529  31.295  25.989  1.00  0.00     0.163 HD
ATOM     27  O   UNL A   1      32.546  32.761  27.662  1.00  0.00    -0.269 OA
BRANCH  25  28
ATOM     28  C   UNL A   1      34.429  31.354  27.619  1.00  0.00     0.039 A 
ATOM     29  C   UNL A   1      35.435  32.319  27.699  1.00  0.00     0.014 A 
ATOM     30  C   UNL A   1      34.659  30.045  28.048  1.00  0.00     0.014 A 
ATOM     31  C   UNL A   1      36.652  31.990  28.299  1.00  0.00     0.010 A 
ATOM     32  C   UNL A   1      35.838  29.744  28.716  1.00  0.00     0.010 A 
ATOM     33  C   UNL A   1      36.842  30.715  28.858  1.00  0.00    -0.014 A 
BRANCH  33  34
ATOM     34  C   UNL A   1      38.066  30.372  29.625  1.00  0.00     0.031 A 
ATOM     35  C   UNL A   1      39.058  29.399  29.054  1.00  0.00     0.074 A 
ATOM     36  C   UNL A   1      38.216  30.836  30.882  1.00  0.00     0.049 A 
ATOM     37  N   UNL A   1      40.116  28.877  29.616  1.00  0.00    -0.248 NA
ATOM     38  C   UNL A   1      38.805  28.918  27.685  1.00  0.00     0.031 C 
ATOM     39  C   UNL A   1      37.278  31.718  31.580  1.00  0.00     0.029 A 
ATOM     40  N   UNL A   1      39.200  30.600  31.811  1.00  0.00    -0.354 N 
ATOM     41  C   UNL A   1      40.630  27.976  28.691  1.00  0.00     0.074 A 
ATOM     42  C   UNL A   1      39.749  27.997  27.544  1.00  0.00     0.031 C 
ATOM     43  C   UNL A   1      37.728  31.947  32.824  1.00  0.00     0.029 A 
ATOM     44  C   UNL A   1      38.970  31.207  33.024  1.00  0.00     0.049 A 
ATOM     45  H   UNL A   1      39.994  30.049  31.626  1.00  0.00     0.167 HD
ATOM     46  C   UNL A   1      41.751  27.224  28.774  1.00  0.00     0.034 A 
ATOM     47  C   UNL A   1      39.675  31.164  34.172  1.00  0.00     0.034 A 
ATOM     48  C   UNL A   1      42.661  27.258  29.886  1.00  0.00     0.049 A 
ATOM     49  C   UNL A   1      40.948  30.362  34.218  1.00  0.00     0.074 A 
ATOM     50  C   UNL A   1      43.884  26.624  30.015  1.00  0.00     0.029 A 
ATOM     51  N   UNL A   1      42.448  27.963  31.059  1.00  0.00    -0.354 N 
ATOM     52  N   UNL A   1      41.508  29.651  33.269  1.00  0.00    -0.248 NA
ATOM     53  C   UNL A   1      41.700  30.378  35.480  1.00  0.00     0.031 C 
ATOM     54  C   UNL A   1      44.406  26.938  31.274  1.00  0.00     0.029 A 
ATOM     55  C   UNL A   1      43.511  27.773  31.924  1.00  0.00     0.049 A 
ATOM     56  H   UNL A   1      41.657  28.517  31.250  1.00  0.00     0.167 HD
ATOM     57  C   UNL A   1      42.689  29.157  33.810  1.00  0.00     0.074 A 
ATOM     58  C   UNL A   1      42.777  29.671  35.162  1.00  0.00     0.031 C 
ATOM     59  C   UNL A   1      43.609  28.335  33.247  1.00  0.00     0.034 A 
BRANCH  46  60
ATOM     60  C   UNL A   1      42.094  26.354  27.595  1.00  0.00     0.023 A 
ATOM     61  C   UNL A   1      42.767  26.921  26.492  1.00  0.00     0.012 A 
ATOM     62  C   UNL A   1      41.799  24.978  27.593  1.00  0.00     0.148 A 
ATOM     63  C   UNL A   1      43.111  26.139  25.391  1.00  0.00     0.002 A 
ATOM     64  C   UNL A   1      42.180  24.195  26.508  1.00  0.00     0.091 A 
ATOM     65  F   UNL A   1      41.136  24.463  28.638  1.00  0.00    -0.205 F 
ATOM     66  C   UNL A   1      42.827  24.776  25.404  1.00  0.00     0.022 A 
BRANCH  64  67
ATOM     67  S   UNL A   1      41.922  22.419  26.459  1.00  0.00     0.127 S 
ATOM     68  O   UNL A   1      40.463  22.332  26.482  1.00  0.00    -0.237 OA
ATOM     69  O   UNL A   1      42.534  22.052  25.182  1.00  0.00    -0.237 OA
ATOM     70  O   UNL A   1      42.602  21.885  27.631  1.00  0.00    -0.744 OA
ENDBRANCH  64  67
ENDBRANCH  46  60
BRANCH  47  71
ATOM     71  C   UNL A   1      39.230  31.961  35.350  1.00  0.00     0.023 A 
ATOM     72  C   UNL A   1      38.367  31.368  36.292  1.00  0.00     0.012 A 
ATOM     73  C   UNL A   1      39.679  33.279  35.564  1.00  0.00     0.148 A 
ATOM     74  C   UNL A   1      37.937  32.081  37.411  1.00  0.00     0.002 A 
ATOM     75  C   UNL A   1      39.288  33.965  36.709  1.00  0.00     0.091 A 
ATOM     76  F   UNL A   1      40.487  33.832  34.649  1.00  0.00    -0.205 F 
ATOM     77  C   UNL A   1      38.405  33.374  37.626  1.00  0.00     0.022 A 
BRANCH  75  78
ATOM     78  S   UNL A   1      39.949  35.583  37.128  1.00  0.00     0.127 S 
ATOM     79  O   UNL A   1      41.380  35.306  37.227  1.00  0.00    -0.237 OA
ATOM     80  O   UNL A   1      39.554  36.384  35.970  1.00  0.00    -0.237 OA
ATOM     81  O   UNL A   1      39.285  35.962  38.370  1.00  0.00    -0.744 OA
ENDBRANCH  75  78
ENDBRANCH  47  71
BRANCH  59  82
ATOM     82  C   UNL A   1      44.799  27.942  34.081  1.00  0.00     0.023 A 
ATOM     83  C   UNL A   1      45.931  28.778  34.106  1.00  0.00     0.012 A 
ATOM     84  C   UNL A   1      44.761  26.800  34.903  1.00  0.00     0.148 A 
ATOM     85  C   UNL A   1      47.020  28.473  34.922  1.00  0.00     0.002 A 
ATOM     86  C   UNL A   1      45.830  26.524  35.747  1.00  0.00     0.091 A 
ATOM     87  F   UNL A   1      43.680  26.007  34.850  1.00  0.00    -0.205 F 
ATOM     88  C   UNL A   1      46.964  27.354  35.751  1.00  0.00     0.022 A 
BRANCH  86  89
ATOM     89  S   UNL A   1      45.809  25.158  36.914  1.00  0.00     0.127 S 
ATOM     90  O   UNL A   1      45.784  24.003  36.019  1.00  0.00    -0.237 OA
ATOM     91  O   UNL A   1      47.068  25.344  37.635  1.00  0.00    -0.237 OA
ATOM     92  O   UNL A   1      44.616  25.347  37.727  1.00  0.00    -0.744 OA
ENDBRANCH  86  89
ENDBRANCH  59  82
ENDBRANCH  33  34
ENDBRANCH  25  28
ENDBRANCH  23  24
ENDBRANCH  22  23
ENDBRANCH   1  22
TORSDOF 17
ENDMDL
MODEL 2
REMARK VINA RESULT:     -11.5      1.193      8.353
REMARK SMILES Cc1ccc2oc(CCCC(=O)NCCCCNC(=O)c3ccc(-c4c5nc(c(-c6cccc(S(=O)(=O)[O-])c6F)c6ccc([nH]6)c(-c6cccc(S(=O)(=O)[O-])c6F)c6nc(c(-c7cccc(S(=O)(=O)[O-])c7F)c7ccc4[nH]7)C=C6)C=C5)cc3)cc(=O)c2c1
REMARK SMILES IDX 15 1 14 2 13 3 11 4 12 5 10 7 9 8 8 9 7 10 1 11 2 12 3 13
REMARK SMILES IDX 88 14 4 15 87 16 5 17 85 18 6 19 84 20 86 21 16 22 17 23
REMARK SMILES IDX 18 24 19 25 20 27 21 28 22 29 83 30 23 31 82 32 24 33 25 34
REMARK SMILES IDX 26 35 76 36 27 37 81 38 75 39 77 40 28 41 80 42 74 43 73 44
REMARK SMILES IDX 29 46 61 47 41 48 60 49 42 50 45 51 59 52 78 53 43 54 44 55
REMARK SMILES IDX 58 57 79 58 46 59 30 60 31 61 39 62 32 63 34 64 40 65 33 66
REMARK SMILES IDX 35 67 36 68 37 69 38 70 62 71 63 72 71 73 64 74 66 75 72 76
REMARK SMILES IDX 65 77 67 78 68 79 69 80 70 81 47 82 48 83 56 84 49 85 51 86
REMARK SMILES IDX 57 87 50 88 52 89 53 90 54 91 55 92
REMARK H PARENT 13 6 18 26 77 45 45 56
REMARK Flexibility Score: inf
ROOT
ATOM      1  C   UNL A   1      33.142  29.023  24.642  1.00  0.00     0.023 C 
ENDROOT
BRANCH   1   2
ATOM      2  C   UNL A   1      33.095  28.886  23.121  1.00  0.00     0.116 C 
BRANCH   2   3
ATOM      3  N   UNL A   1      31.939  29.575  22.584  1.00  0.00    -0.356 N 
ATOM      4  C   UNL A   1      30.733  29.076  22.201  1.00  0.00     0.220 C 
ATOM      5  O   UNL A   1      29.929  29.824  21.641  1.00  0.00    -0.275 OA
ATOM      6  H   UNL A   1      32.042  30.550  22.483  1.00  0.00     0.163 HD
BRANCH   4   7
ATOM      7  C   UNL A   1      30.367  27.638  22.502  1.00  0.00     0.100 C 
BRANCH   7   8
ATOM      8  C   UNL A   1      29.820  27.374  23.911  1.00  0.00     0.018 C 
BRANCH   8   9
ATOM      9  C   UNL A   1      29.271  25.976  24.250  1.00  0.00     0.076 C 
BRANCH   9  10
ATOM     10  C   UNL A   1      30.230  24.910  24.733  1.00  0.00     0.108 A 
ATOM     11  C   UNL A   1      33.828  19.509  24.986  1.00  0.00     0.044 C 
ATOM     12  C   UNL A   1      32.981  20.708  24.678  1.00  0.00    -0.050 A 
ATOM     13  C   UNL A   1      32.571  20.973  23.364  1.00  0.00     0.007 A 
ATOM     14  C   UNL A   1      32.610  21.591  25.706  1.00  0.00     0.019 A 
ATOM     15  C   UNL A   1      31.818  22.111  23.076  1.00  0.00     0.048 A 
ATOM     16  C   UNL A   1      31.849  22.726  25.408  1.00  0.00     0.065 A 
ATOM     17  C   UNL A   1      31.468  22.989  24.099  1.00  0.00     0.138 A 
ATOM     18  C   UNL A   1      31.422  23.664  26.458  1.00  0.00     0.192 A 
ATOM     19  O   UNL A   1      30.752  24.099  23.744  1.00  0.00    -0.461 OA
ATOM     20  C   UNL A   1      30.525  24.758  26.034  1.00  0.00     0.095 A 
ATOM     21  O   UNL A   1      31.770  23.548  27.626  1.00  0.00    -0.289 OA
ENDBRANCH   9  10
ENDBRANCH   8   9
ENDBRANCH   7   8
ENDBRANCH   4   7
ENDBRANCH   2   3
ENDBRANCH   1   2
BRANCH   1  22
ATOM     22  C   UNL A   1      32.032  29.887  25.228  1.00  0.00     0.023 C 
BRANCH  22  23
ATOM     23  C   UNL A   1      32.255  30.304  26.675  1.00  0.00     0.116 C 
BRANCH  23  24
ATOM     24  N   UNL A   1      32.244  31.748  26.874  1.00  0.00    -0.352 N 
ATOM     25  C   UNL A   1      33.225  32.530  27.443  1.00  0.00     0.251 C 
ATOM     26  H   UNL A   1      31.439  32.222  26.563  1.00  0.00     0.163 HD
ATOM     27  O   UNL A   1      33.046  33.729  27.626  1.00  0.00    -0.269 OA
BRANCH  25  28
ATOM     28  C   UNL A   1      34.479  31.881  27.873  1.00  0.00     0.039 A 
ATOM     29  C   UNL A   1      35.612  32.669  28.084  1.00  0.00     0.014 A 
ATOM     30  C   UNL A   1      34.490  30.517  28.173  1.00  0.00     0.014 A 
ATOM     31  C   UNL A   1      36.736  32.102  28.687  1.00  0.00     0.010 A 
ATOM     32  C   UNL A   1      35.579  29.978  28.846  1.00  0.00     0.010 A 
ATOM     33  C   UNL A   1      36.708  30.766  29.119  1.00  0.00    -0.014 A 
BRANCH  33  34
ATOM     34  C   UNL A   1      37.829  30.168  29.887  1.00  0.00     0.031 A 
ATOM     35  C   UNL A   1      38.092  30.616  31.296  1.00  0.00     0.074 A 
ATOM     36  C   UNL A   1      38.681  29.322  29.273  1.00  0.00     0.049 A 
ATOM     37  N   UNL A   1      39.089  30.310  32.085  1.00  0.00    -0.248 NA
ATOM     38  C   UNL A   1      37.129  31.563  31.885  1.00  0.00     0.031 C 
ATOM     39  C   UNL A   1      38.583  28.880  27.880  1.00  0.00     0.029 A 
ATOM     40  N   UNL A   1      39.822  28.712  29.732  1.00  0.00    -0.354 N 
ATOM     41  C   UNL A   1      38.899  31.058  33.240  1.00  0.00     0.074 A 
ATOM     42  C   UNL A   1      37.711  31.857  33.039  1.00  0.00     0.031 C 
ATOM     43  C   UNL A   1      39.618  28.073  27.598  1.00  0.00     0.029 A 
ATOM     44  C   UNL A   1      40.469  27.962  28.778  1.00  0.00     0.049 A 
ATOM     45  H   UNL A   1      40.145  28.802  30.658  1.00  0.00     0.167 HD
ATOM     46  C   UNL A   1      39.629  31.056  34.380  1.00  0.00     0.034 A 
ATOM     47  C   UNL A   1      41.624  27.270  28.843  1.00  0.00     0.034 A 
ATOM     48  C   UNL A   1      40.768  30.210  34.603  1.00  0.00     0.049 A 
ATOM     49  C   UNL A   1      42.387  27.242  30.140  1.00  0.00     0.074 A 
ATOM     50  C   UNL A   1      41.504  30.046  35.763  1.00  0.00     0.029 A 
ATOM     51  N   UNL A   1      41.338  29.385  33.647  1.00  0.00    -0.354 N 
ATOM     52  N   UNL A   1      42.096  27.821  31.280  1.00  0.00    -0.248 NA
ATOM     53  C   UNL A   1      43.620  26.443  30.171  1.00  0.00     0.031 C 
ATOM     54  C   UNL A   1      42.528  29.129  35.504  1.00  0.00     0.029 A 
ATOM     55  C   UNL A   1      42.424  28.717  34.185  1.00  0.00     0.049 A 
ATOM     56  H   UNL A   1      41.019  29.289  32.720  1.00  0.00     0.167 HD
ATOM     57  C   UNL A   1      43.093  27.437  32.169  1.00  0.00     0.074 A 
ATOM     58  C   UNL A   1      43.983  26.555  31.443  1.00  0.00     0.031 C 
ATOM     59  C   UNL A   1      43.269  27.799  33.464  1.00  0.00     0.034 A 
BRANCH  46  60
ATOM     60  C   UNL A   1      39.168  31.947  35.502  1.00  0.00     0.023 A 
ATOM     61  C   UNL A   1      38.226  31.457  36.430  1.00  0.00     0.012 A 
ATOM     62  C   UNL A   1      39.696  33.241  35.670  1.00  0.00     0.148 A 
ATOM     63  C   UNL A   1      37.791  32.252  37.488  1.00  0.00     0.002 A 
ATOM     64  C   UNL A   1      39.288  34.014  36.751  1.00  0.00     0.091 A 
ATOM     65  F   UNL A   1      40.571  33.699  34.763  1.00  0.00    -0.205 F 
ATOM     66  C   UNL A   1      38.329  33.526  37.654  1.00  0.00     0.022 A 
BRANCH  64  67
ATOM     67  S   UNL A   1      39.971  35.640  37.090  1.00  0.00     0.127 S 
ATOM     68  O   UNL A   1      39.276  36.001  38.325  1.00  0.00    -0.237 OA
ATOM     69  O   UNL A   1      41.395  35.349  37.255  1.00  0.00    -0.237 OA
ATOM     70  O   UNL A   1      39.652  36.457  35.927  1.00  0.00    -0.744 OA
ENDBRANCH  64  67
ENDBRANCH  46  60
BRANCH  47  71
ATOM     71  C   UNL A   1      42.094  26.490  27.663  1.00  0.00     0.023 A 
ATOM     72  C   UNL A   1      42.897  27.126  26.697  1.00  0.00     0.012 A 
ATOM     73  C   UNL A   1      41.784  25.125  27.507  1.00  0.00     0.148 A 
ATOM     74  C   UNL A   1      43.361  26.424  25.583  1.00  0.00     0.002 A 
ATOM     75  C   UNL A   1      42.293  24.419  26.424  1.00  0.00     0.091 A 
ATOM     76  F   UNL A   1      41.005  24.541  28.430  1.00  0.00    -0.205 F 
ATOM     77  C   UNL A   1      43.070  25.070  25.452  1.00  0.00     0.022 A 
BRANCH  75  78
ATOM     78  S   UNL A   1      42.076  22.644  26.248  1.00  0.00     0.127 S 
ATOM     79  O   UNL A   1      40.622  22.528  26.158  1.00  0.00    -0.237 OA
ATOM     80  O   UNL A   1      42.794  22.369  25.004  1.00  0.00    -0.237 OA
ATOM     81  O   UNL A   1      42.690  22.059  27.434  1.00  0.00    -0.744 OA
ENDBRANCH  75  78
ENDBRANCH  47  71
BRANCH  59  82
ATOM     82  C   UNL A   1      44.461  27.238  34.190  1.00  0.00     0.023 A 
ATOM     83  C   UNL A   1      45.664  27.969  34.213  1.00  0.00     0.012 A 
ATOM     84  C   UNL A   1      44.364  26.039  34.922  1.00  0.00     0.148 A 
ATOM     85  C   UNL A   1      46.763  27.504  34.935  1.00  0.00     0.002 A 
ATOM     86  C   UNL A   1      45.447  25.603  35.676  1.00  0.00     0.091 A 
ATOM     87  F   UNL A   1      43.215  25.349  34.872  1.00  0.00    -0.205 F 
ATOM     88  C   UNL A   1      46.650  26.329  35.676  1.00  0.00     0.022 A 
BRANCH  86  89
ATOM     89  S   UNL A   1      45.365  24.151  36.732  1.00  0.00     0.127 S 
ATOM     90  O   UNL A   1      44.519  24.627  37.825  1.00  0.00    -0.237 OA
ATOM     91  O   UNL A   1      44.731  23.165  35.856  1.00  0.00    -0.237 OA
ATOM     92  O   UNL A   1      46.740  23.841  37.092  1.00  0.00    -0.744 OA
ENDBRANCH  86  89
ENDBRANCH  59  82
ENDBRANCH  33  34
ENDBRANCH  25  28
ENDBRANCH  23  24
ENDBRANCH  22  23
ENDBRANCH   1  22
TORSDOF 17
ENDMDL
MODEL 3
REMARK VINA RESULT:     -11.5      4.942     10.042
REMARK SMILES Cc1ccc2oc(CCCC(=O)NCCCCNC(=O)c3ccc(-c4c5nc(c(-c6cccc(S(=O)(=O)[O-])c6F)c6ccc([nH]6)c(-c6cccc(S(=O)(=O)[O-])c6F)c6nc(c(-c7cccc(S(=O)(=O)[O-])c7F)c7ccc4[nH]7)C=C6)C=C5)cc3)cc(=O)c2c1
REMARK SMILES IDX 15 1 14 2 13 3 11 4 12 5 10 7 9 8 8 9 7 10 1 11 2 12 3 13
REMARK SMILES IDX 88 14 4 15 87 16 5 17 85 18 6 19 84 20 86 21 16 22 17 23
REMARK SMILES IDX 18 24 19 25 20 27 21 28 22 29 83 30 23 31 82 32 24 33 25 34
REMARK SMILES IDX 26 35 76 36 27 37 81 38 75 39 77 40 28 41 80 42 74 43 73 44
REMARK SMILES IDX 29 46 61 47 41 48 60 49 42 50 45 51 59 52 78 53 43 54 44 55
REMARK SMILES IDX 58 57 79 58 46 59 30 60 31 61 39 62 32 63 34 64 40 65 33 66
REMARK SMILES IDX 35 67 36 68 37 69 38 70 62 71 63 72 71 73 64 74 66 75 72 76
REMARK SMILES IDX 65 77 67 78 68 79 69 80 70 81 47 82 48 83 56 84 49 85 51 86
REMARK SMILES IDX 57 87 50 88 52 89 53 90 54 91 55 92
REMARK H PARENT 13 6 18 26 77 45 45 56
REMARK Flexibility Score: inf
ROOT
ATOM      1  C   UNL A   1      35.182  23.207  23.400  1.00  0.00     0.023 C 
ENDROOT
BRANCH   1   2
ATOM      2  C   UNL A   1      34.881  24.374  24.339  1.00  0.00     0.116 C 
BRANCH   2   3
ATOM      3  N   UNL A   1      34.031  25.347  23.683  1.00  0.00    -0.356 N 
ATOM      4  C   UNL A   1      33.146  26.228  24.222  1.00  0.00     0.220 C 
ATOM      5  O   UNL A   1      32.421  26.880  23.469  1.00  0.00    -0.275 OA
ATOM      6  H   UNL A   1      34.106  25.375  22.701  1.00  0.00     0.163 HD
BRANCH   4   7
ATOM      7  C   UNL A   1      33.090  26.440  25.721  1.00  0.00     0.100 C 
BRANCH   7   8
ATOM      8  C   UNL A   1      31.705  26.281  26.362  1.00  0.00     0.018 C 
BRANCH   8   9
ATOM      9  C   UNL A   1      30.980  24.927  26.249  1.00  0.00     0.076 C 
BRANCH   9  10
ATOM     10  C   UNL A   1      31.802  23.665  26.108  1.00  0.00     0.108 A 
ATOM     11  C   UNL A   1      33.981  17.931  23.974  1.00  0.00     0.044 C 
ATOM     12  C   UNL A   1      33.355  19.268  24.244  1.00  0.00    -0.050 A 
ATOM     13  C   UNL A   1      32.530  19.874  23.287  1.00  0.00     0.007 A 
ATOM     14  C   UNL A   1      33.612  19.933  25.453  1.00  0.00     0.019 A 
ATOM     15  C   UNL A   1      31.983  21.136  23.525  1.00  0.00     0.048 A 
ATOM     16  C   UNL A   1      33.054  21.195  25.686  1.00  0.00     0.065 A 
ATOM     17  C   UNL A   1      32.256  21.795  24.721  1.00  0.00     0.138 A 
ATOM     18  C   UNL A   1      33.282  21.917  26.947  1.00  0.00     0.192 A 
ATOM     19  O   UNL A   1      31.711  23.040  24.879  1.00  0.00    -0.461 OA
ATOM     20  C   UNL A   1      32.543  23.185  27.119  1.00  0.00     0.095 A 
ATOM     21  O   UNL A   1      34.026  21.495  27.823  1.00  0.00    -0.289 OA
ENDBRANCH   9  10
ENDBRANCH   8   9
ENDBRANCH   7   8
ENDBRANCH   4   7
ENDBRANCH   2   3
ENDBRANCH   1   2
BRANCH   1  22
ATOM     22  C   UNL A   1      36.520  22.524  23.658  1.00  0.00     0.023 C 
BRANCH  22  23
ATOM     23  C   UNL A   1      36.773  22.164  25.115  1.00  0.00     0.116 C 
BRANCH  23  24
ATOM     24  N   UNL A   1      37.677  21.032  25.287  1.00  0.00    -0.352 N 
ATOM     25  C   UNL A   1      38.909  21.021  25.903  1.00  0.00     0.251 C 
ATOM     26  H   UNL A   1      37.368  20.172  24.921  1.00  0.00     0.163 HD
ATOM     27  O   UNL A   1      39.604  20.011  25.901  1.00  0.00    -0.269 OA
BRANCH  25  28
ATOM     28  C   UNL A   1      39.395  22.269  26.524  1.00  0.00     0.039 A 
ATOM     29  C   UNL A   1      40.441  22.204  27.447  1.00  0.00     0.014 A 
ATOM     30  C   UNL A   1      38.889  23.501  26.102  1.00  0.00     0.014 A 
ATOM     31  C   UNL A   1      41.045  23.386  27.880  1.00  0.00     0.010 A 
ATOM     32  C   UNL A   1      39.545  24.668  26.471  1.00  0.00     0.010 A 
ATOM     33  C   UNL A   1      40.634  24.623  27.355  1.00  0.00    -0.014 A 
BRANCH  33  34
ATOM     34  C   UNL A   1      41.342  25.885  27.683  1.00  0.00     0.031 A 
ATOM     35  C   UNL A   1      40.630  26.964  28.450  1.00  0.00     0.074 A 
ATOM     36  C   UNL A   1      42.573  26.110  27.182  1.00  0.00     0.049 A 
ATOM     37  N   UNL A   1      41.027  28.178  28.726  1.00  0.00    -0.248 NA
ATOM     38  C   UNL A   1      39.276  26.650  28.939  1.00  0.00     0.031 C 
ATOM     39  C   UNL A   1      43.334  25.175  26.349  1.00  0.00     0.029 A 
ATOM     40  N   UNL A   1      43.389  27.211  27.270  1.00  0.00    -0.354 N 
ATOM     41  C   UNL A   1      39.962  28.786  29.377  1.00  0.00     0.074 A 
ATOM     42  C   UNL A   1      38.888  27.819  29.428  1.00  0.00     0.031 C 
ATOM     43  C   UNL A   1      44.501  25.742  26.002  1.00  0.00     0.029 A 
ATOM     44  C   UNL A   1      44.561  27.088  26.561  1.00  0.00     0.049 A 
ATOM     45  H   UNL A   1      43.156  28.013  27.792  1.00  0.00     0.167 HD
ATOM     46  C   UNL A   1      39.893  30.026  29.914  1.00  0.00     0.034 A 
ATOM     47  C   UNL A   1      45.567  27.965  26.373  1.00  0.00     0.034 A 
ATOM     48  C   UNL A   1      40.986  30.959  29.923  1.00  0.00     0.049 A 
ATOM     49  C   UNL A   1      45.488  29.318  27.028  1.00  0.00     0.074 A 
ATOM     50  C   UNL A   1      41.057  32.194  30.544  1.00  0.00     0.029 A 
ATOM     51  N   UNL A   1      42.198  30.762  29.281  1.00  0.00    -0.354 N 
ATOM     52  N   UNL A   1      44.540  29.811  27.788  1.00  0.00    -0.248 NA
ATOM     53  C   UNL A   1      46.627  30.224  26.825  1.00  0.00     0.031 C 
ATOM     54  C   UNL A   1      42.312  32.749  30.267  1.00  0.00     0.029 A 
ATOM     55  C   UNL A   1      43.022  31.856  29.480  1.00  0.00     0.049 A 
ATOM     56  H   UNL A   1      42.437  29.963  28.759  1.00  0.00     0.167 HD
ATOM     57  C   UNL A   1      44.979  31.072  28.175  1.00  0.00     0.074 A 
ATOM     58  C   UNL A   1      46.289  31.258  27.586  1.00  0.00     0.031 C 
ATOM     59  C   UNL A   1      44.346  32.003  28.931  1.00  0.00     0.034 A 
BRANCH  46  60
ATOM     60  C   UNL A   1      38.614  30.416  30.604  1.00  0.00     0.023 A 
ATOM     61  C   UNL A   1      38.434  30.086  31.964  1.00  0.00     0.012 A 
ATOM     62  C   UNL A   1      37.615  31.145  29.931  1.00  0.00     0.148 A 
ATOM     63  C   UNL A   1      37.267  30.445  32.634  1.00  0.00     0.002 A 
ATOM     64  C   UNL A   1      36.470  31.535  30.617  1.00  0.00     0.091 A 
ATOM     65  F   UNL A   1      37.792  31.427  28.632  1.00  0.00    -0.205 F 
ATOM     66  C   UNL A   1      36.290  31.177  31.964  1.00  0.00     0.022 A 
BRANCH  64  67
ATOM     67  S   UNL A   1      35.186  32.539  29.863  1.00  0.00     0.127 S 
ATOM     68  O   UNL A   1      35.945  33.708  29.423  1.00  0.00    -0.237 OA
ATOM     69  O   UNL A   1      34.713  31.675  28.781  1.00  0.00    -0.237 OA
ATOM     70  O   UNL A   1      34.205  32.785  30.912  1.00  0.00    -0.744 OA
ENDBRANCH  64  67
ENDBRANCH  46  60
BRANCH  47  71
ATOM     71  C   UNL A   1      46.768  27.565  25.587  1.00  0.00     0.023 A 
ATOM     72  C   UNL A   1      46.789  27.805  24.199  1.00  0.00     0.012 A 
ATOM     73  C   UNL A   1      47.896  26.987  26.200  1.00  0.00     0.148 A 
ATOM     74  C   UNL A   1      47.900  27.451  23.432  1.00  0.00     0.002 A 
ATOM     75  C   UNL A   1      49.020  26.686  25.439  1.00  0.00     0.091 A 
ATOM     76  F   UNL A   1      47.851  26.752  27.520  1.00  0.00    -0.205 F 
ATOM     77  C   UNL A   1      49.018  26.902  24.052  1.00  0.00     0.022 A 
BRANCH  75  78
ATOM     78  S   UNL A   1      50.549  26.100  26.179  1.00  0.00     0.127 S 
ATOM     79  O   UNL A   1      51.410  25.952  25.008  1.00  0.00    -0.237 OA
ATOM     80  O   UNL A   1      50.902  27.206  27.068  1.00  0.00    -0.237 OA
ATOM     81  O   UNL A   1      50.197  24.866  26.871  1.00  0.00    -0.744 OA
ENDBRANCH  75  78
ENDBRANCH  47  71
BRANCH  59  82
ATOM     82  C   UNL A   1      45.058  33.305  29.179  1.00  0.00     0.023 A 
ATOM     83  C   UNL A   1      45.976  33.399  30.243  1.00  0.00     0.012 A 
ATOM     84  C   UNL A   1      44.888  34.400  28.310  1.00  0.00     0.148 A 
ATOM     85  C   UNL A   1      46.699  34.572  30.454  1.00  0.00     0.002 A 
ATOM     86  C   UNL A   1      45.644  35.551  28.498  1.00  0.00     0.091 A 
ATOM     87  F   UNL A   1      43.996  34.295  27.315  1.00  0.00    -0.205 F 
ATOM     88  C   UNL A   1      46.543  35.642  29.574  1.00  0.00     0.022 A 
BRANCH  86  89
ATOM     89  S   UNL A   1      45.576  36.943  27.365  1.00  0.00     0.127 S 
ATOM     90  O   UNL A   1      46.389  36.460  26.251  1.00  0.00    -0.237 OA
ATOM     91  O   UNL A   1      44.145  37.041  27.078  1.00  0.00    -0.237 OA
ATOM     92  O   UNL A   1      46.124  38.078  28.094  1.00  0.00    -0.744 OA
ENDBRANCH  86  89
ENDBRANCH  59  82
ENDBRANCH  33  34
ENDBRANCH  25  28
ENDBRANCH  23  24
ENDBRANCH  22  23
ENDBRANCH   1  22
TORSDOF 17
ENDMDL
