MODEL 1
REMARK VINA RESULT:     -12.3      0.000      0.000
REMARK SMILES Cc1nn(CC(=O)NCCCCNC(=O)c2ccc(-c3c4nc(c(-c5cccc(S(=O)(=O)[O-])c5F)c5ccc([nH]5)c(-c5cccc(S(=O)(=O)[O-])c5F)c5nc(c(-c6cccc(S(=O)(=O)[O-])c6F)c6ccc3[nH]6)C=C5)C=C4)cc2)c(C)c1NC(=O)C(=O)Nc1ccc(F)cc1
REMARK SMILES IDX 10 1 9 2 8 3 6 4 7 5 5 7 4 8 1 9 2 10 3 11 81 12 79 13 80 14
REMARK SMILES IDX 82 15 83 16 84 18 85 19 86 20 87 21 88 23 89 24 94 25 90 26
REMARK SMILES IDX 93 27 91 28 92 29 11 30 12 31 13 32 14 33 15 35 16 36 17 37
REMARK SMILES IDX 78 38 18 39 77 40 19 41 20 42 21 43 71 44 22 45 76 46 70 47
REMARK SMILES IDX 72 48 23 49 75 50 69 51 68 52 24 54 56 55 36 56 55 57 37 58
REMARK SMILES IDX 40 59 54 60 73 61 38 62 39 63 53 65 74 66 41 67 25 68 26 69
REMARK SMILES IDX 34 70 27 71 29 72 35 73 28 74 30 75 31 76 32 77 33 78 57 79
REMARK SMILES IDX 58 80 66 81 59 82 61 83 67 84 60 85 62 86 63 87 64 88 65 89
REMARK SMILES IDX 42 90 43 91 51 92 44 93 46 94 52 95 45 96 47 97 48 98 49 99
REMARK SMILES IDX 50 100
REMARK H PARENT 8 6 82 17 87 22 13 34 72 53 40 64
REMARK Flexibility Score: inf
ROOT
ATOM      1  C   UNL A   1      31.481  30.395  26.179  1.00  0.00     0.023 C 
ENDROOT
BRANCH   1   2
ATOM      2  C   UNL A   1      31.679  30.056  24.697  1.00  0.00     0.116 C 
BRANCH   2   3
ATOM      3  N   UNL A   1      30.455  30.172  23.930  1.00  0.00    -0.354 N 
ATOM      4  C   UNL A   1      29.968  29.444  22.883  1.00  0.00     0.241 C 
ATOM      5  O   UNL A   1      28.921  29.853  22.366  1.00  0.00    -0.273 OA
ATOM      6  H   UNL A   1      29.868  30.908  24.216  1.00  0.00     0.163 HD
BRANCH   4   7
ATOM      7  C   UNL A   1      30.562  28.127  22.427  1.00  0.00     0.244 C 
BRANCH   7   8
ATOM      8  N   UNL A   1      31.091  27.283  23.486  1.00  0.00    -0.258 N 
ATOM      9  C   UNL A   1      33.989  26.312  25.236  1.00  0.00     0.071 C 
ATOM     10  C   UNL A   1      32.604  26.478  24.723  1.00  0.00     0.083 A 
ATOM     11  N   UNL A   1      32.420  27.274  23.673  1.00  0.00    -0.175 NA
ATOM     12  C   UNL A   1      31.377  25.908  25.190  1.00  0.00     0.086 A 
ATOM     13  C   UNL A   1      30.411  26.426  24.336  1.00  0.00     0.060 A 
ATOM     14  C   UNL A   1      28.929  26.299  24.256  1.00  0.00     0.069 C 
BRANCH  12  15
ATOM     15  N   UNL A   1      31.325  25.072  26.296  1.00  0.00    -0.315 N 
ATOM     16  C   UNL A   1      31.343  23.715  26.493  1.00  0.00     0.314 C 
ATOM     17  H   UNL A   1      31.261  25.573  27.141  1.00  0.00     0.170 HD
ATOM     18  O   UNL A   1      31.264  23.272  27.638  1.00  0.00    -0.263 OA
BRANCH  16  19
ATOM     19  C   UNL A   1      31.598  22.767  25.340  1.00  0.00     0.314 C 
ATOM     20  O   UNL A   1      30.752  22.659  24.456  1.00  0.00    -0.263 OA
ATOM     21  N   UNL A   1      32.766  22.017  25.304  1.00  0.00    -0.318 N 
ATOM     22  H   UNL A   1      32.715  21.037  25.368  1.00  0.00     0.170 HD
BRANCH  21  23
ATOM     23  C   UNL A   1      34.023  22.641  25.178  1.00  0.00     0.041 A 
ATOM     24  C   UNL A   1      34.693  22.933  26.374  1.00  0.00     0.029 A 
ATOM     25  C   UNL A   1      34.633  22.904  23.952  1.00  0.00     0.029 A 
ATOM     26  C   UNL A   1      36.013  23.375  26.344  1.00  0.00     0.041 A 
ATOM     27  C   UNL A   1      35.951  23.366  23.926  1.00  0.00     0.041 A 
ATOM     28  C   UNL A   1      36.636  23.570  25.119  1.00  0.00     0.123 A 
ATOM     29  F   UNL A   1      37.920  23.948  25.090  1.00  0.00    -0.207 F 
ENDBRANCH  21  23
ENDBRANCH  16  19
ENDBRANCH  12  15
ENDBRANCH   7   8
ENDBRANCH   4   7
ENDBRANCH   2   3
ENDBRANCH   1   2
BRANCH   1  30
ATOM     30  C   UNL A   1      31.354  31.889  26.504  1.00  0.00     0.023 C 
BRANCH  30  31
ATOM     31  C   UNL A   1      32.539  32.475  27.258  1.00  0.00     0.116 C 
BRANCH  31  32
ATOM     32  N   UNL A   1      32.343  33.878  27.645  1.00  0.00    -0.352 N 
ATOM     33  C   UNL A   1      33.002  34.570  28.646  1.00  0.00     0.251 C 
ATOM     34  H   UNL A   1      31.669  34.382  27.135  1.00  0.00     0.163 HD
ATOM     35  O   UNL A   1      32.516  35.583  29.149  1.00  0.00    -0.269 OA
BRANCH  33  36
ATOM     36  C   UNL A   1      34.318  34.076  29.076  1.00  0.00     0.039 A 
ATOM     37  C   UNL A   1      34.508  33.359  30.260  1.00  0.00     0.014 A 
ATOM     38  C   UNL A   1      35.369  34.294  28.191  1.00  0.00     0.014 A 
ATOM     39  C   UNL A   1      35.757  32.787  30.499  1.00  0.00     0.010 A 
ATOM     40  C   UNL A   1      36.516  33.568  28.328  1.00  0.00     0.010 A 
ATOM     41  C   UNL A   1      36.751  32.883  29.513  1.00  0.00    -0.014 A 
BRANCH  41  42
ATOM     42  C   UNL A   1      38.031  32.202  29.636  1.00  0.00     0.031 A 
ATOM     43  C   UNL A   1      38.064  30.830  29.068  1.00  0.00     0.074 A 
ATOM     44  C   UNL A   1      39.152  32.857  30.016  1.00  0.00     0.049 A 
ATOM     45  N   UNL A   1      38.121  29.718  29.721  1.00  0.00    -0.248 NA
ATOM     46  C   UNL A   1      37.850  30.662  27.623  1.00  0.00     0.031 C 
ATOM     47  C   UNL A   1      39.307  34.292  30.309  1.00  0.00     0.029 A 
ATOM     48  N   UNL A   1      40.429  32.402  30.088  1.00  0.00    -0.354 N 
ATOM     49  C   UNL A   1      38.221  28.722  28.752  1.00  0.00     0.074 A 
ATOM     50  C   UNL A   1      37.815  29.331  27.514  1.00  0.00     0.031 C 
ATOM     51  C   UNL A   1      40.614  34.624  30.277  1.00  0.00     0.029 A 
ATOM     52  C   UNL A   1      41.389  33.407  30.160  1.00  0.00     0.049 A 
ATOM     53  H   UNL A   1      40.658  31.444  30.088  1.00  0.00     0.167 HD
ATOM     54  C   UNL A   1      38.900  27.567  29.003  1.00  0.00     0.034 A 
ATOM     55  C   UNL A   1      42.733  33.252  30.115  1.00  0.00     0.034 A 
ATOM     56  C   UNL A   1      39.196  27.439  30.410  1.00  0.00     0.049 A 
ATOM     57  C   UNL A   1      43.013  31.858  30.514  1.00  0.00     0.074 A 
ATOM     58  C   UNL A   1      38.457  27.345  31.570  1.00  0.00     0.029 A 
ATOM     59  N   UNL A   1      40.466  27.805  30.787  1.00  0.00    -0.354 N 
ATOM     60  N   UNL A   1      42.757  31.396  31.705  1.00  0.00    -0.248 NA
ATOM     61  C   UNL A   1      43.170  30.857  29.473  1.00  0.00     0.031 C 
ATOM     62  C   UNL A   1      39.202  28.079  32.542  1.00  0.00     0.029 A 
ATOM     63  C   UNL A   1      40.385  28.526  31.947  1.00  0.00     0.049 A 
ATOM     64  H   UNL A   1      41.295  27.587  30.303  1.00  0.00     0.167 HD
ATOM     65  C   UNL A   1      42.255  30.122  31.477  1.00  0.00     0.074 A 
ATOM     66  C   UNL A   1      42.671  29.795  30.114  1.00  0.00     0.031 C 
ATOM     67  C   UNL A   1      41.306  29.587  32.302  1.00  0.00     0.034 A 
BRANCH  54  68
ATOM     68  C   UNL A   1      39.667  26.751  27.981  1.00  0.00     0.023 A 
ATOM     69  C   UNL A   1      39.432  25.356  27.970  1.00  0.00     0.012 A 
ATOM     70  C   UNL A   1      40.785  27.211  27.248  1.00  0.00     0.148 A 
ATOM     71  C   UNL A   1      40.296  24.465  27.323  1.00  0.00     0.002 A 
ATOM     72  C   UNL A   1      41.599  26.330  26.544  1.00  0.00     0.091 A 
ATOM     73  F   UNL A   1      41.160  28.490  27.327  1.00  0.00    -0.205 F 
ATOM     74  C   UNL A   1      41.379  24.952  26.605  1.00  0.00     0.022 A 
BRANCH  72  75
ATOM     75  S   UNL A   1      42.993  26.909  25.567  1.00  0.00     0.127 S 
ATOM     76  O   UNL A   1      43.468  25.665  24.971  1.00  0.00    -0.237 OA
ATOM     77  O   UNL A   1      42.342  27.835  24.639  1.00  0.00    -0.237 OA
ATOM     78  O   UNL A   1      43.894  27.552  26.516  1.00  0.00    -0.744 OA
ENDBRANCH  72  75
ENDBRANCH  54  68
BRANCH  55  79
ATOM     79  C   UNL A   1      43.768  34.150  29.561  1.00  0.00     0.023 A 
ATOM     80  C   UNL A   1      44.535  34.965  30.415  1.00  0.00     0.012 A 
ATOM     81  C   UNL A   1      44.188  34.000  28.220  1.00  0.00     0.148 A 
ATOM     82  C   UNL A   1      45.704  35.586  29.957  1.00  0.00     0.002 A 
ATOM     83  C   UNL A   1      45.349  34.621  27.769  1.00  0.00     0.091 A 
ATOM     84  F   UNL A   1      43.493  33.182  27.419  1.00  0.00    -0.205 F 
ATOM     85  C   UNL A   1      46.117  35.405  28.639  1.00  0.00     0.022 A 
BRANCH  83  86
ATOM     86  S   UNL A   1      45.961  34.410  26.092  1.00  0.00     0.127 S 
ATOM     87  O   UNL A   1      44.757  34.661  25.301  1.00  0.00    -0.237 OA
ATOM     88  O   UNL A   1      46.979  35.455  26.009  1.00  0.00    -0.237 OA
ATOM     89  O   UNL A   1      46.456  33.041  26.016  1.00  0.00    -0.744 OA
ENDBRANCH  83  86
ENDBRANCH  55  79
BRANCH  67  90
ATOM     90  C   UNL A   1      41.020  30.310  33.598  1.00  0.00     0.023 A 
ATOM     91  C   UNL A   1      41.885  30.236  34.711  1.00  0.00     0.012 A 
ATOM     92  C   UNL A   1      39.950  31.217  33.633  1.00  0.00     0.148 A 
ATOM     93  C   UNL A   1      41.677  31.035  35.840  1.00  0.00     0.002 A 
ATOM     94  C   UNL A   1      39.772  32.042  34.738  1.00  0.00     0.091 A 
ATOM     95  F   UNL A   1      39.144  31.284  32.564  1.00  0.00    -0.205 F 
ATOM     96  C   UNL A   1      40.627  31.947  35.848  1.00  0.00     0.022 A 
BRANCH  94  97
ATOM     97  S   UNL A   1      38.521  33.326  34.765  1.00  0.00     0.127 S 
ATOM     98  O   UNL A   1      38.613  33.813  36.139  1.00  0.00    -0.237 OA
ATOM     99  O   UNL A   1      39.012  34.260  33.750  1.00  0.00    -0.237 OA
ATOM    100  O   UNL A   1      37.265  32.674  34.417  1.00  0.00    -0.744 OA
ENDBRANCH  94  97
ENDBRANCH  67  90
ENDBRANCH  41  42
ENDBRANCH  33  36
ENDBRANCH  31  32
ENDBRANCH  30  31
ENDBRANCH   1  30
TORSDOF 18
ENDMDL
MODEL 2
REMARK VINA RESULT:     -12.3      3.378      7.261
REMARK SMILES Cc1nn(CC(=O)NCCCCNC(=O)c2ccc(-c3c4nc(c(-c5cccc(S(=O)(=O)[O-])c5F)c5ccc([nH]5)c(-c5cccc(S(=O)(=O)[O-])c5F)c5nc(c(-c6cccc(S(=O)(=O)[O-])c6F)c6ccc3[nH]6)C=C5)C=C4)cc2)c(C)c1NC(=O)C(=O)Nc1ccc(F)cc1
REMARK SMILES IDX 10 1 9 2 8 3 6 4 7 5 5 7 4 8 1 9 2 10 3 11 81 12 79 13 80 14
REMARK SMILES IDX 82 15 83 16 84 18 85 19 86 20 87 21 88 23 89 24 94 25 90 26
REMARK SMILES IDX 93 27 91 28 92 29 11 30 12 31 13 32 14 33 15 35 16 36 17 37
REMARK SMILES IDX 78 38 18 39 77 40 19 41 20 42 21 43 71 44 22 45 76 46 70 47
REMARK SMILES IDX 72 48 23 49 75 50 69 51 68 52 24 54 56 55 36 56 55 57 37 58
REMARK SMILES IDX 40 59 54 60 73 61 38 62 39 63 53 65 74 66 41 67 25 68 26 69
REMARK SMILES IDX 34 70 27 71 29 72 35 73 28 74 30 75 31 76 32 77 33 78 57 79
REMARK SMILES IDX 58 80 66 81 59 82 61 83 67 84 60 85 62 86 63 87 64 88 65 89
REMARK SMILES IDX 42 90 43 91 51 92 44 93 46 94 52 95 45 96 47 97 48 98 49 99
REMARK SMILES IDX 50 100
REMARK H PARENT 8 6 82 17 87 22 13 34 72 53 40 64
REMARK Flexibility Score: inf
ROOT
ATOM      1  C   UNL A   1      32.398  30.375  26.429  1.00  0.00     0.023 C 
ENDROOT
BRANCH   1   2
ATOM      2  C   UNL A   1      31.932  29.585  25.201  1.00  0.00     0.116 C 
BRANCH   2   3
ATOM      3  N   UNL A   1      32.965  29.458  24.194  1.00  0.00    -0.354 N 
ATOM      4  C   UNL A   1      33.027  28.723  23.045  1.00  0.00     0.241 C 
ATOM      5  O   UNL A   1      34.101  28.748  22.431  1.00  0.00    -0.273 OA
ATOM      6  H   UNL A   1      33.768  30.000  24.368  1.00  0.00     0.163 HD
BRANCH   4   7
ATOM      7  C   UNL A   1      31.836  28.010  22.439  1.00  0.00     0.244 C 
BRANCH   7   8
ATOM      8  N   UNL A   1      31.758  26.585  22.716  1.00  0.00    -0.258 N 
ATOM      9  C   UNL A   1      33.173  23.428  22.055  1.00  0.00     0.071 C 
ATOM     10  C   UNL A   1      32.345  24.562  22.542  1.00  0.00     0.083 A 
ATOM     11  N   UNL A   1      32.596  25.773  22.053  1.00  0.00    -0.175 NA
ATOM     12  C   UNL A   1      31.277  24.576  23.497  1.00  0.00     0.086 A 
ATOM     13  C   UNL A   1      30.891  25.909  23.559  1.00  0.00     0.060 A 
ATOM     14  C   UNL A   1      29.880  26.655  24.361  1.00  0.00     0.069 C 
BRANCH  12  15
ATOM     15  N   UNL A   1      30.865  23.430  24.161  1.00  0.00    -0.315 N 
ATOM     16  C   UNL A   1      31.084  22.892  25.403  1.00  0.00     0.314 C 
ATOM     17  H   UNL A   1      30.275  22.869  23.608  1.00  0.00     0.170 HD
ATOM     18  O   UNL A   1      30.569  21.813  25.692  1.00  0.00    -0.263 OA
BRANCH  16  19
ATOM     19  C   UNL A   1      31.832  23.671  26.465  1.00  0.00     0.314 C 
ATOM     20  O   UNL A   1      31.372  23.724  27.603  1.00  0.00    -0.263 OA
ATOM     21  N   UNL A   1      33.010  24.330  26.141  1.00  0.00    -0.318 N 
ATOM     22  H   UNL A   1      33.046  25.312  26.190  1.00  0.00     0.170 HD
BRANCH  21  23
ATOM     23  C   UNL A   1      34.154  23.612  25.741  1.00  0.00     0.041 A 
ATOM     24  C   UNL A   1      34.183  22.253  26.079  1.00  0.00     0.029 A 
ATOM     25  C   UNL A   1      35.187  24.168  24.987  1.00  0.00     0.029 A 
ATOM     26  C   UNL A   1      35.180  21.427  25.565  1.00  0.00     0.041 A 
ATOM     27  C   UNL A   1      36.197  23.340  24.489  1.00  0.00     0.041 A 
ATOM     28  C   UNL A   1      36.168  21.976  24.760  1.00  0.00     0.123 A 
ATOM     29  F   UNL A   1      37.099  21.174  24.226  1.00  0.00    -0.207 F 
ENDBRANCH  21  23
ENDBRANCH  16  19
ENDBRANCH  12  15
ENDBRANCH   7   8
ENDBRANCH   4   7
ENDBRANCH   2   3
ENDBRANCH   1   2
BRANCH   1  30
ATOM     30  C   UNL A   1      33.534  29.733  27.236  1.00  0.00     0.023 C 
BRANCH  30  31
ATOM     31  C   UNL A   1      34.800  30.572  27.322  1.00  0.00     0.116 C 
BRANCH  31  32
ATOM     32  N   UNL A   1      34.657  31.749  28.189  1.00  0.00    -0.352 N 
ATOM     33  C   UNL A   1      35.226  31.946  29.436  1.00  0.00     0.251 C 
ATOM     34  H   UNL A   1      34.095  32.480  27.845  1.00  0.00     0.163 HD
ATOM     35  O   UNL A   1      34.753  32.754  30.233  1.00  0.00    -0.269 OA
BRANCH  33  36
ATOM     36  C   UNL A   1      36.434  31.179  29.771  1.00  0.00     0.039 A 
ATOM     37  C   UNL A   1      36.412  29.806  30.032  1.00  0.00     0.014 A 
ATOM     38  C   UNL A   1      37.632  31.885  29.739  1.00  0.00     0.014 A 
ATOM     39  C   UNL A   1      37.626  29.135  30.174  1.00  0.00     0.010 A 
ATOM     40  C   UNL A   1      38.809  31.197  29.674  1.00  0.00     0.010 A 
ATOM     41  C   UNL A   1      38.822  29.841  29.973  1.00  0.00    -0.014 A 
BRANCH  41  42
ATOM     42  C   UNL A   1      40.120  29.181  29.976  1.00  0.00     0.031 A 
ATOM     43  C   UNL A   1      40.706  28.966  31.324  1.00  0.00     0.074 A 
ATOM     44  C   UNL A   1      40.626  28.602  28.864  1.00  0.00     0.049 A 
ATOM     45  N   UNL A   1      41.718  29.580  31.839  1.00  0.00    -0.248 NA
ATOM     46  C   UNL A   1      39.998  28.090  32.267  1.00  0.00     0.031 C 
ATOM     47  C   UNL A   1      39.995  28.481  27.538  1.00  0.00     0.029 A 
ATOM     48  N   UNL A   1      41.760  27.870  28.717  1.00  0.00    -0.354 N 
ATOM     49  C   UNL A   1      41.934  28.969  33.072  1.00  0.00     0.074 A 
ATOM     50  C   UNL A   1      40.729  28.246  33.374  1.00  0.00     0.031 C 
ATOM     51  C   UNL A   1      40.625  27.529  26.819  1.00  0.00     0.029 A 
ATOM     52  C   UNL A   1      41.808  27.119  27.546  1.00  0.00     0.049 A 
ATOM     53  H   UNL A   1      42.487  27.870  29.382  1.00  0.00     0.167 HD
ATOM     54  C   UNL A   1      43.188  28.881  33.599  1.00  0.00     0.034 A 
ATOM     55  C   UNL A   1      42.750  26.211  27.201  1.00  0.00     0.034 A 
ATOM     56  C   UNL A   1      44.111  29.723  32.876  1.00  0.00     0.049 A 
ATOM     57  C   UNL A   1      43.960  26.535  27.985  1.00  0.00     0.074 A 
ATOM     58  C   UNL A   1      44.229  31.074  32.629  1.00  0.00     0.029 A 
ATOM     59  N   UNL A   1      44.887  29.087  31.937  1.00  0.00    -0.354 N 
ATOM     60  N   UNL A   1      44.627  27.644  27.833  1.00  0.00    -0.248 NA
ATOM     61  C   UNL A   1      44.182  25.835  29.238  1.00  0.00     0.031 C 
ATOM     62  C   UNL A   1      44.719  31.162  31.291  1.00  0.00     0.029 A 
ATOM     63  C   UNL A   1      44.938  29.867  30.814  1.00  0.00     0.049 A 
ATOM     64  H   UNL A   1      45.331  28.216  32.052  1.00  0.00     0.167 HD
ATOM     65  C   UNL A   1      44.966  28.019  29.127  1.00  0.00     0.074 A 
ATOM     66  C   UNL A   1      44.799  26.804  29.923  1.00  0.00     0.031 C 
ATOM     67  C   UNL A   1      45.058  29.338  29.471  1.00  0.00     0.034 A 
BRANCH  54  68
ATOM     68  C   UNL A   1      43.703  27.756  34.477  1.00  0.00     0.023 A 
ATOM     69  C   UNL A   1      44.379  28.129  35.662  1.00  0.00     0.012 A 
ATOM     70  C   UNL A   1      43.817  26.404  34.080  1.00  0.00     0.148 A 
ATOM     71  C   UNL A   1      45.176  27.224  36.374  1.00  0.00     0.002 A 
ATOM     72  C   UNL A   1      44.549  25.491  34.831  1.00  0.00     0.091 A 
ATOM     73  F   UNL A   1      43.334  26.007  32.900  1.00  0.00    -0.205 F 
ATOM     74  C   UNL A   1      45.258  25.903  35.962  1.00  0.00     0.022 A 
BRANCH  72  75
ATOM     75  S   UNL A   1      44.659  23.758  34.363  1.00  0.00     0.127 S 
ATOM     76  O   UNL A   1      45.547  23.234  35.396  1.00  0.00    -0.237 OA
ATOM     77  O   UNL A   1      43.262  23.332  34.468  1.00  0.00    -0.237 OA
ATOM     78  O   UNL A   1      45.182  23.753  33.003  1.00  0.00    -0.744 OA
ENDBRANCH  72  75
ENDBRANCH  54  68
BRANCH  55  79
ATOM     79  C   UNL A   1      42.620  24.973  26.405  1.00  0.00     0.023 A 
ATOM     80  C   UNL A   1      43.576  24.655  25.422  1.00  0.00     0.012 A 
ATOM     81  C   UNL A   1      41.708  23.970  26.805  1.00  0.00     0.148 A 
ATOM     82  C   UNL A   1      43.643  23.367  24.876  1.00  0.00     0.002 A 
ATOM     83  C   UNL A   1      41.778  22.693  26.257  1.00  0.00     0.091 A 
ATOM     84  F   UNL A   1      40.834  24.250  27.780  1.00  0.00    -0.205 F 
ATOM     85  C   UNL A   1      42.753  22.383  25.301  1.00  0.00     0.022 A 
BRANCH  83  86
ATOM     86  S   UNL A   1      40.684  21.364  26.777  1.00  0.00     0.127 S 
ATOM     87  O   UNL A   1      39.384  21.847  26.311  1.00  0.00    -0.237 OA
ATOM     88  O   UNL A   1      41.218  20.225  26.034  1.00  0.00    -0.237 OA
ATOM     89  O   UNL A   1      40.811  21.285  28.227  1.00  0.00    -0.744 OA
ENDBRANCH  83  86
ENDBRANCH  55  79
BRANCH  67  90
ATOM     90  C   UNL A   1      45.039  30.354  28.351  1.00  0.00     0.023 A 
ATOM     91  C   UNL A   1      43.841  30.795  27.752  1.00  0.00     0.012 A 
ATOM     92  C   UNL A   1      46.239  31.002  28.019  1.00  0.00     0.148 A 
ATOM     93  C   UNL A   1      43.840  31.845  26.829  1.00  0.00     0.002 A 
ATOM     94  C   UNL A   1      46.229  32.074  27.135  1.00  0.00     0.091 A 
ATOM     95  F   UNL A   1      47.368  30.578  28.605  1.00  0.00    -0.205 F 
ATOM     96  C   UNL A   1      45.034  32.494  26.529  1.00  0.00     0.022 A 
BRANCH  94  97
ATOM     97  S   UNL A   1      47.706  33.036  26.801  1.00  0.00     0.127 S 
ATOM     98  O   UNL A   1      47.273  33.886  25.695  1.00  0.00    -0.237 OA
ATOM     99  O   UNL A   1      47.913  33.738  28.069  1.00  0.00    -0.237 OA
ATOM    100  O   UNL A   1      48.751  32.072  26.476  1.00  0.00    -0.744 OA
ENDBRANCH  94  97
ENDBRANCH  67  90
ENDBRANCH  41  42
ENDBRANCH  33  36
ENDBRANCH  31  32
ENDBRANCH  30  31
ENDBRANCH   1  30
TORSDOF 18
ENDMDL
MODEL 3
REMARK VINA RESULT:     -12.1      3.610      7.461
REMARK SMILES Cc1nn(CC(=O)NCCCCNC(=O)c2ccc(-c3c4nc(c(-c5cccc(S(=O)(=O)[O-])c5F)c5ccc([nH]5)c(-c5cccc(S(=O)(=O)[O-])c5F)c5nc(c(-c6cccc(S(=O)(=O)[O-])c6F)c6ccc3[nH]6)C=C5)C=C4)cc2)c(C)c1NC(=O)C(=O)Nc1ccc(F)cc1
REMARK SMILES IDX 10 1 9 2 8 3 6 4 7 5 5 7 4 8 1 9 2 10 3 11 81 12 79 13 80 14
REMARK SMILES IDX 82 15 83 16 84 18 85 19 86 20 87 21 88 23 89 24 94 25 90 26
REMARK SMILES IDX 93 27 91 28 92 29 11 30 12 31 13 32 14 33 15 35 16 36 17 37
REMARK SMILES IDX 78 38 18 39 77 40 19 41 20 42 21 43 71 44 22 45 76 46 70 47
REMARK SMILES IDX 72 48 23 49 75 50 69 51 68 52 24 54 56 55 36 56 55 57 37 58
REMARK SMILES IDX 40 59 54 60 73 61 38 62 39 63 53 65 74 66 41 67 25 68 26 69
REMARK SMILES IDX 34 70 27 71 29 72 35 73 28 74 30 75 31 76 32 77 33 78 57 79
REMARK SMILES IDX 58 80 66 81 59 82 61 83 67 84 60 85 62 86 63 87 64 88 65 89
REMARK SMILES IDX 42 90 43 91 51 92 44 93 46 94 52 95 45 96 47 97 48 98 49 99
REMARK SMILES IDX 50 100
REMARK H PARENT 8 6 82 17 87 22 13 34 72 53 40 64
REMARK Flexibility Score: inf
ROOT
ATOM      1  C   UNL A   1      32.031  30.241  25.791  1.00  0.00     0.023 C 
ENDROOT
BRANCH   1   2
ATOM      2  C   UNL A   1      32.654  29.344  24.715  1.00  0.00     0.116 C 
BRANCH   2   3
ATOM      3  N   UNL A   1      31.754  29.093  23.608  1.00  0.00    -0.354 N 
ATOM      4  C   UNL A   1      31.061  27.978  23.237  1.00  0.00     0.241 C 
ATOM      5  O   UNL A   1      30.441  28.042  22.169  1.00  0.00    -0.273 OA
ATOM      6  H   UNL A   1      31.618  29.867  23.015  1.00  0.00     0.163 HD
BRANCH   4   7
ATOM      7  C   UNL A   1      30.914  26.751  24.113  1.00  0.00     0.244 C 
BRANCH   7   8
ATOM      8  N   UNL A   1      31.945  25.740  23.946  1.00  0.00    -0.258 N 
ATOM      9  C   UNL A   1      33.282  23.300  21.786  1.00  0.00     0.071 C 
ATOM     10  C   UNL A   1      32.987  24.213  22.921  1.00  0.00     0.083 A 
ATOM     11  N   UNL A   1      31.913  24.993  22.832  1.00  0.00    -0.175 NA
ATOM     12  C   UNL A   1      33.698  24.411  24.148  1.00  0.00     0.086 A 
ATOM     13  C   UNL A   1      32.969  25.390  24.812  1.00  0.00     0.060 A 
ATOM     14  C   UNL A   1      33.142  26.106  26.107  1.00  0.00     0.069 C 
BRANCH  12  15
ATOM     15  N   UNL A   1      34.869  23.728  24.442  1.00  0.00    -0.315 N 
ATOM     16  C   UNL A   1      35.233  22.763  25.346  1.00  0.00     0.314 C 
ATOM     17  H   UNL A   1      35.617  24.000  23.862  1.00  0.00     0.170 HD
ATOM     18  O   UNL A   1      36.396  22.362  25.363  1.00  0.00    -0.263 OA
BRANCH  16  19
ATOM     19  C   UNL A   1      34.198  22.091  26.223  1.00  0.00     0.314 C 
ATOM     20  O   UNL A   1      33.509  22.780  26.970  1.00  0.00    -0.263 OA
ATOM     21  N   UNL A   1      34.053  20.711  26.190  1.00  0.00    -0.318 N 
ATOM     22  H   UNL A   1      34.262  20.182  26.993  1.00  0.00     0.170 HD
BRANCH  21  23
ATOM     23  C   UNL A   1      33.612  20.056  25.023  1.00  0.00     0.041 A 
ATOM     24  C   UNL A   1      34.140  18.780  24.790  1.00  0.00     0.029 A 
ATOM     25  C   UNL A   1      32.650  20.584  24.162  1.00  0.00     0.029 A 
ATOM     26  C   UNL A   1      33.623  17.986  23.770  1.00  0.00     0.041 A 
ATOM     27  C   UNL A   1      32.147  19.791  23.126  1.00  0.00     0.041 A 
ATOM     28  C   UNL A   1      32.618  18.493  22.957  1.00  0.00     0.123 A 
ATOM     29  F   UNL A   1      32.087  17.714  22.007  1.00  0.00    -0.207 F 
ENDBRANCH  21  23
ENDBRANCH  16  19
ENDBRANCH  12  15
ENDBRANCH   7   8
ENDBRANCH   4   7
ENDBRANCH   2   3
ENDBRANCH   1   2
BRANCH   1  30
ATOM     30  C   UNL A   1      32.604  30.073  27.204  1.00  0.00     0.023 C 
BRANCH  30  31
ATOM     31  C   UNL A   1      33.979  30.692  27.405  1.00  0.00     0.116 C 
BRANCH  31  32
ATOM     32  N   UNL A   1      34.020  31.673  28.498  1.00  0.00    -0.352 N 
ATOM     33  C   UNL A   1      34.936  31.736  29.534  1.00  0.00     0.251 C 
ATOM     34  H   UNL A   1      33.318  32.363  28.492  1.00  0.00     0.163 HD
ATOM     35  O   UNL A   1      34.674  32.322  30.583  1.00  0.00    -0.269 OA
BRANCH  33  36
ATOM     36  C   UNL A   1      36.249  31.106  29.333  1.00  0.00     0.039 A 
ATOM     37  C   UNL A   1      37.389  31.830  28.975  1.00  0.00     0.014 A 
ATOM     38  C   UNL A   1      36.317  29.742  29.599  1.00  0.00     0.014 A 
ATOM     39  C   UNL A   1      38.620  31.176  28.974  1.00  0.00     0.010 A 
ATOM     40  C   UNL A   1      37.537  29.162  29.794  1.00  0.00     0.010 A 
ATOM     41  C   UNL A   1      38.684  29.842  29.406  1.00  0.00    -0.014 A 
BRANCH  41  42
ATOM     42  C   UNL A   1      39.948  29.136  29.554  1.00  0.00     0.031 A 
ATOM     43  C   UNL A   1      40.375  28.912  30.960  1.00  0.00     0.074 A 
ATOM     44  C   UNL A   1      40.552  28.529  28.508  1.00  0.00     0.049 A 
ATOM     45  N   UNL A   1      41.346  29.494  31.580  1.00  0.00    -0.248 NA
ATOM     46  C   UNL A   1      39.536  28.070  31.823  1.00  0.00     0.031 C 
ATOM     47  C   UNL A   1      40.066  28.420  27.122  1.00  0.00     0.029 A 
ATOM     48  N   UNL A   1      41.668  27.757  28.490  1.00  0.00    -0.354 N 
ATOM     49  C   UNL A   1      41.403  28.887  32.833  1.00  0.00     0.074 A 
ATOM     50  C   UNL A   1      40.146  28.210  33.003  1.00  0.00     0.031 C 
ATOM     51  C   UNL A   1      40.737  27.440  26.481  1.00  0.00     0.029 A 
ATOM     52  C   UNL A   1      41.817  26.994  27.336  1.00  0.00     0.049 A 
ATOM     53  H   UNL A   1      42.317  27.737  29.231  1.00  0.00     0.167 HD
ATOM     54  C   UNL A   1      42.588  28.758  33.495  1.00  0.00     0.034 A 
ATOM     55  C   UNL A   1      42.757  26.050  27.101  1.00  0.00     0.034 A 
ATOM     56  C   UNL A   1      43.614  29.560  32.874  1.00  0.00     0.049 A 
ATOM     57  C   UNL A   1      43.885  26.337  28.011  1.00  0.00     0.074 A 
ATOM     58  C   UNL A   1      43.807  30.904  32.635  1.00  0.00     0.029 A 
ATOM     59  N   UNL A   1      44.465  28.889  32.029  1.00  0.00    -0.354 N 
ATOM     60  N   UNL A   1      44.604  27.421  27.928  1.00  0.00    -0.248 NA
ATOM     61  C   UNL A   1      43.942  25.641  29.284  1.00  0.00     0.031 C 
ATOM     62  C   UNL A   1      44.445  30.963  31.359  1.00  0.00     0.029 A 
ATOM     63  C   UNL A   1      44.667  29.657  30.915  1.00  0.00     0.049 A 
ATOM     64  H   UNL A   1      44.861  28.003  32.196  1.00  0.00     0.167 HD
ATOM     65  C   UNL A   1      44.813  27.794  29.249  1.00  0.00     0.074 A 
ATOM     66  C   UNL A   1      44.515  26.593  30.028  1.00  0.00     0.031 C 
ATOM     67  C   UNL A   1      44.915  29.112  29.595  1.00  0.00     0.034 A 
BRANCH  54  68
ATOM     68  C   UNL A   1      42.961  27.623  34.429  1.00  0.00     0.023 A 
ATOM     69  C   UNL A   1      43.167  27.956  35.789  1.00  0.00     0.012 A 
ATOM     70  C   UNL A   1      43.394  26.342  34.017  1.00  0.00     0.148 A 
ATOM     71  C   UNL A   1      43.825  27.090  36.670  1.00  0.00     0.002 A 
ATOM     72  C   UNL A   1      43.980  25.455  34.915  1.00  0.00     0.091 A 
ATOM     73  F   UNL A   1      43.370  26.008  32.725  1.00  0.00    -0.205 F 
ATOM     74  C   UNL A   1      44.228  25.837  36.235  1.00  0.00     0.022 A 
BRANCH  72  75
ATOM     75  S   UNL A   1      44.488  23.805  34.414  1.00  0.00     0.127 S 
ATOM     76  O   UNL A   1      45.936  23.885  34.574  1.00  0.00    -0.237 OA
ATOM     77  O   UNL A   1      43.798  22.969  35.398  1.00  0.00    -0.237 OA
ATOM     78  O   UNL A   1      44.000  23.643  33.050  1.00  0.00    -0.744 OA
ENDBRANCH  72  75
ENDBRANCH  54  68
BRANCH  55  79
ATOM     79  C   UNL A   1      42.670  24.810  26.301  1.00  0.00     0.023 A 
ATOM     80  C   UNL A   1      43.648  24.518  25.332  1.00  0.00     0.012 A 
ATOM     81  C   UNL A   1      41.778  23.784  26.685  1.00  0.00     0.148 A 
ATOM     82  C   UNL A   1      43.756  23.234  24.784  1.00  0.00     0.002 A 
ATOM     83  C   UNL A   1      41.888  22.510  26.137  1.00  0.00     0.091 A 
ATOM     84  F   UNL A   1      40.883  24.040  27.648  1.00  0.00    -0.205 F 
ATOM     85  C   UNL A   1      42.885  22.227  25.195  1.00  0.00     0.022 A 
BRANCH  83  86
ATOM     86  S   UNL A   1      40.821  21.153  26.639  1.00  0.00     0.127 S 
ATOM     87  O   UNL A   1      39.560  21.509  25.991  1.00  0.00    -0.237 OA
ATOM     88  O   UNL A   1      41.505  20.000  26.059  1.00  0.00    -0.237 OA
ATOM     89  O   UNL A   1      40.780  21.194  28.096  1.00  0.00    -0.744 OA
ENDBRANCH  83  86
ENDBRANCH  55  79
BRANCH  67  90
ATOM     90  C   UNL A   1      45.056  30.118  28.476  1.00  0.00     0.023 A 
ATOM     91  C   UNL A   1      43.940  30.686  27.825  1.00  0.00     0.012 A 
ATOM     92  C   UNL A   1      46.333  30.628  28.195  1.00  0.00     0.148 A 
ATOM     93  C   UNL A   1      44.094  31.725  26.902  1.00  0.00     0.002 A 
ATOM     94  C   UNL A   1      46.479  31.691  27.311  1.00  0.00     0.091 A 
ATOM     95  F   UNL A   1      47.383  30.086  28.830  1.00  0.00    -0.205 F 
ATOM     96  C   UNL A   1      45.364  32.236  26.655  1.00  0.00     0.022 A 
BRANCH  94  97
ATOM     97  S   UNL A   1      48.066  32.482  27.041  1.00  0.00     0.127 S 
ATOM     98  O   UNL A   1      48.866  31.385  26.502  1.00  0.00    -0.237 OA
ATOM     99  O   UNL A   1      47.731  33.529  26.074  1.00  0.00    -0.237 OA
ATOM    100  O   UNL A   1      48.493  32.986  28.341  1.00  0.00    -0.744 OA
ENDBRANCH  94  97
ENDBRANCH  67  90
ENDBRANCH  41  42
ENDBRANCH  33  36
ENDBRANCH  31  32
ENDBRANCH  30  31
ENDBRANCH   1  30
TORSDOF 18
ENDMDL
