MODEL 1
REMARK VINA RESULT:     -12.2      0.000      0.000
REMARK SMILES COC(=O)c1cc(F)cc(-c2ccc(C(=O)NCCCCNC(=O)c3ccc(-c4c5nc(c(-c6cccc(S(=O)(=O)[O-])c6F)c6ccc([nH]6)c(-c6cccc(S(=O)(=O)[O-])c6F)c6nc(c(-c7cccc(S(=O)(=O)[O-])c7F)c7ccc4[nH]7)C=C6)C=C5)cc3)cc2C)c1
REMARK SMILES IDX 19 1 18 2 17 3 15 4 16 5 14 7 11 8 12 9 89 10 13 11 88 12
REMARK SMILES IDX 90 13 10 14 5 15 6 16 91 17 7 18 8 19 9 20 3 21 4 22 2 23
REMARK SMILES IDX 1 24 20 25 21 26 22 27 23 28 24 30 25 31 26 32 87 33 27 34
REMARK SMILES IDX 86 35 28 36 29 37 30 38 80 39 31 40 85 41 79 42 81 43 32 44
REMARK SMILES IDX 84 45 78 46 77 47 33 49 65 50 45 51 64 52 46 53 49 54 63 55
REMARK SMILES IDX 82 56 47 57 48 58 62 60 83 61 50 62 34 63 35 64 43 65 36 66
REMARK SMILES IDX 38 67 44 68 37 69 39 70 40 71 41 72 42 73 66 74 67 75 75 76
REMARK SMILES IDX 68 77 70 78 76 79 69 80 71 81 72 82 73 83 74 84 51 85 52 86
REMARK SMILES IDX 60 87 53 88 55 89 61 90 54 91 56 92 57 93 58 94 59 95
REMARK H PARENT 17 6 22 29 81 48 49 59
REMARK Flexibility Score: inf
ROOT
ATOM      1  C   UNL A   1      31.791  27.669  26.673  1.00  0.00     0.023 C 
ENDROOT
BRANCH   1   2
ATOM      2  C   UNL A   1      31.263  26.523  25.812  1.00  0.00     0.116 C 
BRANCH   2   3
ATOM      3  N   UNL A   1      30.324  25.661  26.512  1.00  0.00    -0.352 N 
ATOM      4  C   UNL A   1      30.265  24.305  26.733  1.00  0.00     0.251 C 
ATOM      5  O   UNL A   1      29.260  23.873  27.303  1.00  0.00    -0.269 OA
ATOM      6  H   UNL A   1      29.571  26.153  26.913  1.00  0.00     0.163 HD
BRANCH   4   7
ATOM      7  C   UNL A   1      31.314  23.327  26.311  1.00  0.00     0.040 A 
ATOM      8  C   UNL A   1      33.254  21.470  25.334  1.00  0.00    -0.015 A 
ATOM      9  C   UNL A   1      33.161  21.819  26.697  1.00  0.00     0.010 A 
ATOM     10  C   UNL A   1      32.312  22.027  24.453  1.00  0.00    -0.042 A 
ATOM     11  C   UNL A   1      32.170  22.673  27.183  1.00  0.00     0.014 A 
ATOM     12  C   UNL A   1      31.381  22.975  24.949  1.00  0.00     0.018 A 
ATOM     13  C   UNL A   1      32.167  21.615  23.012  1.00  0.00     0.045 C 
BRANCH   8  14
ATOM     14  C   UNL A   1      34.300  20.496  24.965  1.00  0.00    -0.014 A 
ATOM     15  C   UNL A   1      34.862  18.180  24.409  1.00  0.00     0.063 A 
ATOM     16  C   UNL A   1      36.219  18.456  24.560  1.00  0.00     0.055 A 
ATOM     17  C   UNL A   1      33.919  19.200  24.575  1.00  0.00     0.024 A 
ATOM     18  C   UNL A   1      36.606  19.750  24.890  1.00  0.00     0.124 A 
ATOM     19  F   UNL A   1      37.910  20.023  25.038  1.00  0.00    -0.207 F 
ATOM     20  C   UNL A   1      35.669  20.762  25.108  1.00  0.00     0.048 A 
BRANCH  15  21
ATOM     21  C   UNL A   1      34.341  16.821  24.138  1.00  0.00     0.337 C 
ATOM     22  O   UNL A   1      34.014  16.434  23.035  1.00  0.00    -0.246 OA
BRANCH  21  23
ATOM     23  O   UNL A   1      34.168  16.161  25.312  1.00  0.00    -0.465 OA
ATOM     24  C   UNL A   1      32.843  15.651  25.476  1.00  0.00     0.282 C 
ENDBRANCH  21  23
ENDBRANCH  15  21
ENDBRANCH   8  14
ENDBRANCH   4   7
ENDBRANCH   2   3
ENDBRANCH   1   2
BRANCH   1  25
ATOM     25  C   UNL A   1      33.312  27.794  26.792  1.00  0.00     0.023 C 
BRANCH  25  26
ATOM     26  C   UNL A   1      33.942  28.982  26.064  1.00  0.00     0.116 C 
BRANCH  26  27
ATOM     27  N   UNL A   1      33.759  30.250  26.749  1.00  0.00    -0.352 N 
ATOM     28  C   UNL A   1      34.538  30.852  27.709  1.00  0.00     0.251 C 
ATOM     29  H   UNL A   1      32.955  30.754  26.486  1.00  0.00     0.163 HD
ATOM     30  O   UNL A   1      34.123  31.883  28.237  1.00  0.00    -0.269 OA
BRANCH  28  31
ATOM     31  C   UNL A   1      35.837  30.278  28.140  1.00  0.00     0.039 A 
ATOM     32  C   UNL A   1      35.896  29.635  29.384  1.00  0.00     0.014 A 
ATOM     33  C   UNL A   1      37.008  30.417  27.391  1.00  0.00     0.014 A 
ATOM     34  C   UNL A   1      37.107  29.119  29.859  1.00  0.00     0.010 A 
ATOM     35  C   UNL A   1      38.200  29.840  27.830  1.00  0.00     0.010 A 
ATOM     36  C   UNL A   1      38.269  29.209  29.080  1.00  0.00    -0.014 A 
BRANCH  36  37
ATOM     37  C   UNL A   1      39.574  28.687  29.562  1.00  0.00     0.031 A 
ATOM     38  C   UNL A   1      40.304  29.393  30.674  1.00  0.00     0.074 A 
ATOM     39  C   UNL A   1      40.138  27.628  28.949  1.00  0.00     0.049 A 
ATOM     40  N   UNL A   1      41.481  29.134  31.182  1.00  0.00    -0.248 NA
ATOM     41  C   UNL A   1      39.638  30.560  31.279  1.00  0.00     0.031 C 
ATOM     42  C   UNL A   1      39.559  26.902  27.819  1.00  0.00     0.029 A 
ATOM     43  N   UNL A   1      41.337  26.997  29.173  1.00  0.00    -0.354 N 
ATOM     44  C   UNL A   1      41.710  30.119  32.136  1.00  0.00     0.074 A 
ATOM     45  C   UNL A   1      40.566  31.002  32.115  1.00  0.00     0.031 C 
ATOM     46  C   UNL A   1      40.402  25.925  27.447  1.00  0.00     0.029 A 
ATOM     47  C   UNL A   1      41.591  25.972  28.293  1.00  0.00     0.049 A 
ATOM     48  H   UNL A   1      41.955  27.256  29.894  1.00  0.00     0.167 HD
ATOM     49  C   UNL A   1      42.764  30.257  32.975  1.00  0.00     0.034 A 
ATOM     50  C   UNL A   1      42.664  25.162  28.176  1.00  0.00     0.034 A 
ATOM     51  C   UNL A   1      43.872  29.343  33.031  1.00  0.00     0.049 A 
ATOM     52  C   UNL A   1      43.802  25.309  29.150  1.00  0.00     0.074 A 
ATOM     53  C   UNL A   1      44.941  29.345  33.908  1.00  0.00     0.029 A 
ATOM     54  N   UNL A   1      44.054  28.265  32.179  1.00  0.00    -0.354 N 
ATOM     55  N   UNL A   1      43.934  26.158  30.139  1.00  0.00    -0.248 NA
ATOM     56  C   UNL A   1      44.923  24.367  29.015  1.00  0.00     0.031 C 
ATOM     57  C   UNL A   1      45.781  28.280  33.574  1.00  0.00     0.029 A 
ATOM     58  C   UNL A   1      45.222  27.600  32.505  1.00  0.00     0.049 A 
ATOM     59  H   UNL A   1      43.443  28.011  31.450  1.00  0.00     0.167 HD
ATOM     60  C   UNL A   1      45.133  25.836  30.764  1.00  0.00     0.074 A 
ATOM     61  C   UNL A   1      45.682  24.700  30.053  1.00  0.00     0.031 C 
ATOM     62  C   UNL A   1      45.731  26.437  31.822  1.00  0.00     0.034 A 
BRANCH  49  63
ATOM     63  C   UNL A   1      42.745  31.400  33.958  1.00  0.00     0.023 A 
ATOM     64  C   UNL A   1      43.378  32.613  33.620  1.00  0.00     0.012 A 
ATOM     65  C   UNL A   1      42.021  31.312  35.163  1.00  0.00     0.148 A 
ATOM     66  C   UNL A   1      43.312  33.713  34.474  1.00  0.00     0.002 A 
ATOM     67  C   UNL A   1      41.922  32.426  35.990  1.00  0.00     0.091 A 
ATOM     68  F   UNL A   1      41.441  30.144  35.477  1.00  0.00    -0.205 F 
ATOM     69  C   UNL A   1      42.574  33.623  35.652  1.00  0.00     0.022 A 
BRANCH  67  70
ATOM     70  S   UNL A   1      40.926  32.443  37.484  1.00  0.00     0.127 S 
ATOM     71  O   UNL A   1      40.658  33.872  37.643  1.00  0.00    -0.237 OA
ATOM     72  O   UNL A   1      39.764  31.646  37.089  1.00  0.00    -0.237 OA
ATOM     73  O   UNL A   1      41.749  31.845  38.526  1.00  0.00    -0.744 OA
ENDBRANCH  67  70
ENDBRANCH  49  63
BRANCH  50  74
ATOM     74  C   UNL A   1      42.660  24.088  27.144  1.00  0.00     0.023 A 
ATOM     75  C   UNL A   1      43.339  24.301  25.928  1.00  0.00     0.012 A 
ATOM     76  C   UNL A   1      42.060  22.836  27.385  1.00  0.00     0.148 A 
ATOM     77  C   UNL A   1      43.406  23.294  24.964  1.00  0.00     0.002 A 
ATOM     78  C   UNL A   1      42.179  21.819  26.445  1.00  0.00     0.091 A 
ATOM     79  F   UNL A   1      41.409  22.657  28.543  1.00  0.00    -0.205 F 
ATOM     80  C   UNL A   1      42.839  22.050  25.228  1.00  0.00     0.022 A 
BRANCH  78  81
ATOM     81  S   UNL A   1      41.607  20.144  26.756  1.00  0.00     0.127 S 
ATOM     82  O   UNL A   1      41.859  19.497  25.470  1.00  0.00    -0.237 OA
ATOM     83  O   UNL A   1      42.492  19.721  27.842  1.00  0.00    -0.237 OA
ATOM     84  O   UNL A   1      40.207  20.270  27.136  1.00  0.00    -0.744 OA
ENDBRANCH  78  81
ENDBRANCH  50  74
BRANCH  62  85
ATOM     85  C   UNL A   1      47.044  25.881  32.306  1.00  0.00     0.023 A 
ATOM     86  C   UNL A   1      48.250  26.419  31.817  1.00  0.00     0.012 A 
ATOM     87  C   UNL A   1      47.082  24.919  33.336  1.00  0.00     0.148 A 
ATOM     88  C   UNL A   1      49.474  25.997  32.334  1.00  0.00     0.002 A 
ATOM     89  C   UNL A   1      48.302  24.539  33.880  1.00  0.00     0.091 A 
ATOM     90  F   UNL A   1      45.921  24.409  33.776  1.00  0.00    -0.205 F 
ATOM     91  C   UNL A   1      49.500  25.070  33.373  1.00  0.00     0.022 A 
BRANCH  89  92
ATOM     92  S   UNL A   1      48.429  23.432  35.289  1.00  0.00     0.127 S 
ATOM     93  O   UNL A   1      49.877  23.282  35.420  1.00  0.00    -0.237 OA
ATOM     94  O   UNL A   1      47.798  24.212  36.354  1.00  0.00    -0.237 OA
ATOM     95  O   UNL A   1      47.709  22.222  34.917  1.00  0.00    -0.744 OA
ENDBRANCH  89  92
ENDBRANCH  62  85
ENDBRANCH  36  37
ENDBRANCH  28  31
ENDBRANCH  26  27
ENDBRANCH  25  26
ENDBRANCH   1  25
TORSDOF 17
ENDMDL
MODEL 2
REMARK VINA RESULT:     -11.7      4.145      8.262
REMARK SMILES COC(=O)c1cc(F)cc(-c2ccc(C(=O)NCCCCNC(=O)c3ccc(-c4c5nc(c(-c6cccc(S(=O)(=O)[O-])c6F)c6ccc([nH]6)c(-c6cccc(S(=O)(=O)[O-])c6F)c6nc(c(-c7cccc(S(=O)(=O)[O-])c7F)c7ccc4[nH]7)C=C6)C=C5)cc3)cc2C)c1
REMARK SMILES IDX 19 1 18 2 17 3 15 4 16 5 14 7 11 8 12 9 89 10 13 11 88 12
REMARK SMILES IDX 90 13 10 14 5 15 6 16 91 17 7 18 8 19 9 20 3 21 4 22 2 23
REMARK SMILES IDX 1 24 20 25 21 26 22 27 23 28 24 30 25 31 26 32 87 33 27 34
REMARK SMILES IDX 86 35 28 36 29 37 30 38 80 39 31 40 85 41 79 42 81 43 32 44
REMARK SMILES IDX 84 45 78 46 77 47 33 49 65 50 45 51 64 52 46 53 49 54 63 55
REMARK SMILES IDX 82 56 47 57 48 58 62 60 83 61 50 62 34 63 35 64 43 65 36 66
REMARK SMILES IDX 38 67 44 68 37 69 39 70 40 71 41 72 42 73 66 74 67 75 75 76
REMARK SMILES IDX 68 77 70 78 76 79 69 80 71 81 72 82 73 83 74 84 51 85 52 86
REMARK SMILES IDX 60 87 53 88 55 89 61 90 54 91 56 92 57 93 58 94 59 95
REMARK H PARENT 17 6 22 29 81 48 49 59
REMARK Flexibility Score: inf
ROOT
ATOM      1  C   UNL A   1      33.651  34.515  29.474  1.00  0.00     0.023 C 
ENDROOT
BRANCH   1   2
ATOM      2  C   UNL A   1      34.286  34.661  30.856  1.00  0.00     0.116 C 
BRANCH   2   3
ATOM      3  N   UNL A   1      34.604  33.388  31.481  1.00  0.00    -0.352 N 
ATOM      4  C   UNL A   1      35.770  32.675  31.642  1.00  0.00     0.251 C 
ATOM      5  O   UNL A   1      35.677  31.557  32.153  1.00  0.00    -0.269 OA
ATOM      6  H   UNL A   1      33.819  32.941  31.873  1.00  0.00     0.163 HD
BRANCH   4   7
ATOM      7  C   UNL A   1      37.123  33.150  31.219  1.00  0.00     0.040 A 
ATOM      8  C   UNL A   1      39.742  34.101  30.585  1.00  0.00    -0.015 A 
ATOM      9  C   UNL A   1      38.852  33.625  29.601  1.00  0.00     0.010 A 
ATOM     10  C   UNL A   1      39.281  34.150  31.912  1.00  0.00    -0.042 A 
ATOM     11  C   UNL A   1      37.550  33.225  29.902  1.00  0.00     0.014 A 
ATOM     12  C   UNL A   1      37.993  33.639  32.212  1.00  0.00     0.018 A 
ATOM     13  C   UNL A   1      40.041  34.797  33.039  1.00  0.00     0.045 C 
BRANCH   8  14
ATOM     14  C   UNL A   1      41.064  34.565  30.121  1.00  0.00    -0.014 A 
ATOM     15  C   UNL A   1      42.376  35.617  28.343  1.00  0.00     0.063 A 
ATOM     16  C   UNL A   1      43.560  35.222  28.961  1.00  0.00     0.055 A 
ATOM     17  C   UNL A   1      41.145  35.322  28.939  1.00  0.00     0.024 A 
ATOM     18  C   UNL A   1      43.488  34.522  30.160  1.00  0.00     0.124 A 
ATOM     19  F   UNL A   1      44.623  34.137  30.760  1.00  0.00    -0.207 F 
ATOM     20  C   UNL A   1      42.263  34.178  30.735  1.00  0.00     0.048 A 
BRANCH  15  21
ATOM     21  C   UNL A   1      42.341  36.294  27.027  1.00  0.00     0.337 C 
ATOM     22  O   UNL A   1      42.299  37.500  26.892  1.00  0.00    -0.246 OA
BRANCH  21  23
ATOM     23  O   UNL A   1      42.225  35.365  26.043  1.00  0.00    -0.465 OA
ATOM     24  C   UNL A   1      43.472  34.753  25.704  1.00  0.00     0.282 C 
ENDBRANCH  21  23
ENDBRANCH  15  21
ENDBRANCH   8  14
ENDBRANCH   4   7
ENDBRANCH   2   3
ENDBRANCH   1   2
BRANCH   1  25
ATOM     25  C   UNL A   1      34.604  34.541  28.275  1.00  0.00     0.023 C 
BRANCH  25  26
ATOM     26  C   UNL A   1      35.305  33.221  27.953  1.00  0.00     0.116 C 
BRANCH  26  27
ATOM     27  N   UNL A   1      34.393  32.108  27.753  1.00  0.00    -0.352 N 
ATOM     28  C   UNL A   1      34.632  30.755  27.798  1.00  0.00     0.251 C 
ATOM     29  H   UNL A   1      33.463  32.362  27.555  1.00  0.00     0.163 HD
ATOM     30  O   UNL A   1      33.724  29.989  27.478  1.00  0.00    -0.269 OA
BRANCH  28  31
ATOM     31  C   UNL A   1      35.954  30.203  28.188  1.00  0.00     0.039 A 
ATOM     32  C   UNL A   1      36.067  29.574  29.435  1.00  0.00     0.014 A 
ATOM     33  C   UNL A   1      37.095  30.349  27.394  1.00  0.00     0.014 A 
ATOM     34  C   UNL A   1      37.301  29.080  29.871  1.00  0.00     0.010 A 
ATOM     35  C   UNL A   1      38.309  29.794  27.796  1.00  0.00     0.010 A 
ATOM     36  C   UNL A   1      38.433  29.177  29.049  1.00  0.00    -0.014 A 
BRANCH  36  37
ATOM     37  C   UNL A   1      39.761  28.678  29.489  1.00  0.00     0.031 A 
ATOM     38  C   UNL A   1      40.509  29.389  30.587  1.00  0.00     0.074 A 
ATOM     39  C   UNL A   1      40.329  27.637  28.850  1.00  0.00     0.049 A 
ATOM     40  N   UNL A   1      41.704  29.150  31.059  1.00  0.00    -0.248 NA
ATOM     41  C   UNL A   1      39.836  30.536  31.221  1.00  0.00     0.031 C 
ATOM     42  C   UNL A   1      39.734  26.909  27.729  1.00  0.00     0.029 A 
ATOM     43  N   UNL A   1      41.547  27.029  29.033  1.00  0.00    -0.354 N 
ATOM     44  C   UNL A   1      41.940  30.131  32.015  1.00  0.00     0.074 A 
ATOM     45  C   UNL A   1      40.778  30.989  32.035  1.00  0.00     0.031 C 
ATOM     46  C   UNL A   1      40.586  25.954  27.324  1.00  0.00     0.029 A 
ATOM     47  C   UNL A   1      41.798  26.017  28.137  1.00  0.00     0.049 A 
ATOM     48  H   UNL A   1      42.180  27.294  29.739  1.00  0.00     0.167 HD
ATOM     49  C   UNL A   1      43.014  30.283  32.826  1.00  0.00     0.034 A 
ATOM     50  C   UNL A   1      42.882  25.232  27.981  1.00  0.00     0.034 A 
ATOM     51  C   UNL A   1      44.142  29.392  32.841  1.00  0.00     0.049 A 
ATOM     52  C   UNL A   1      44.045  25.393  28.923  1.00  0.00     0.074 A 
ATOM     53  C   UNL A   1      45.236  29.408  33.687  1.00  0.00     0.029 A 
ATOM     54  N   UNL A   1      44.322  28.326  31.973  1.00  0.00    -0.354 N 
ATOM     55  N   UNL A   1      44.187  26.236  29.916  1.00  0.00    -0.248 NA
ATOM     56  C   UNL A   1      45.181  24.477  28.748  1.00  0.00     0.031 C 
ATOM     57  C   UNL A   1      46.088  28.364  33.318  1.00  0.00     0.029 A 
ATOM     58  C   UNL A   1      45.512  27.682  32.259  1.00  0.00     0.049 A 
ATOM     59  H   UNL A   1      43.696  28.066  31.260  1.00  0.00     0.167 HD
ATOM     60  C   UNL A   1      45.410  25.933  30.504  1.00  0.00     0.074 A 
ATOM     61  C   UNL A   1      45.962  24.816  29.766  1.00  0.00     0.031 C 
ATOM     62  C   UNL A   1      46.026  26.537  31.551  1.00  0.00     0.034 A 
BRANCH  49  63
ATOM     63  C   UNL A   1      43.000  31.416  33.820  1.00  0.00     0.023 A 
ATOM     64  C   UNL A   1      43.522  32.671  33.446  1.00  0.00     0.012 A 
ATOM     65  C   UNL A   1      42.384  31.272  35.078  1.00  0.00     0.148 A 
ATOM     66  C   UNL A   1      43.453  33.758  34.315  1.00  0.00     0.002 A 
ATOM     67  C   UNL A   1      42.279  32.372  35.923  1.00  0.00     0.091 A 
ATOM     68  F   UNL A   1      41.910  30.067  35.424  1.00  0.00    -0.205 F 
ATOM     69  C   UNL A   1      42.821  33.612  35.547  1.00  0.00     0.022 A 
BRANCH  67  70
ATOM     70  S   UNL A   1      41.409  32.313  37.493  1.00  0.00     0.127 S 
ATOM     71  O   UNL A   1      40.088  31.841  37.080  1.00  0.00    -0.237 OA
ATOM     72  O   UNL A   1      42.197  31.337  38.245  1.00  0.00    -0.237 OA
ATOM     73  O   UNL A   1      41.446  33.667  38.027  1.00  0.00    -0.744 OA
ENDBRANCH  67  70
ENDBRANCH  49  63
BRANCH  50  74
ATOM     74  C   UNL A   1      42.872  24.167  26.938  1.00  0.00     0.023 A 
ATOM     75  C   UNL A   1      43.626  24.349  25.762  1.00  0.00     0.012 A 
ATOM     76  C   UNL A   1      42.188  22.951  27.134  1.00  0.00     0.148 A 
ATOM     77  C   UNL A   1      43.686  23.347  24.793  1.00  0.00     0.002 A 
ATOM     78  C   UNL A   1      42.297  21.936  26.191  1.00  0.00     0.091 A 
ATOM     79  F   UNL A   1      41.467  22.802  28.255  1.00  0.00    -0.205 F 
ATOM     80  C   UNL A   1      43.034  22.137  25.013  1.00  0.00     0.022 A 
BRANCH  78  81
ATOM     81  S   UNL A   1      41.613  20.295  26.454  1.00  0.00     0.127 S 
ATOM     82  O   UNL A   1      42.164  19.946  27.761  1.00  0.00    -0.237 OA
ATOM     83  O   UNL A   1      40.175  20.563  26.443  1.00  0.00    -0.237 OA
ATOM     84  O   UNL A   1      42.082  19.489  25.336  1.00  0.00    -0.744 OA
ENDBRANCH  78  81
ENDBRANCH  50  74
BRANCH  62  85
ATOM     85  C   UNL A   1      47.364  26.004  31.991  1.00  0.00     0.023 A 
ATOM     86  C   UNL A   1      48.539  26.487  31.386  1.00  0.00     0.012 A 
ATOM     87  C   UNL A   1      47.461  25.125  33.090  1.00  0.00     0.148 A 
ATOM     88  C   UNL A   1      49.791  26.092  31.854  1.00  0.00     0.002 A 
ATOM     89  C   UNL A   1      48.711  24.773  33.582  1.00  0.00     0.091 A 
ATOM     90  F   UNL A   1      46.327  24.665  33.642  1.00  0.00    -0.205 F 
ATOM     91  C   UNL A   1      49.878  25.248  32.960  1.00  0.00     0.022 A 
BRANCH  89  92
ATOM     92  S   UNL A   1      48.921  23.779  35.063  1.00  0.00     0.127 S 
ATOM     93  O   UNL A   1      48.280  22.524  34.673  1.00  0.00    -0.237 OA
ATOM     94  O   UNL A   1      50.377  23.707  35.185  1.00  0.00    -0.237 OA
ATOM     95  O   UNL A   1      48.259  24.509  36.136  1.00  0.00    -0.744 OA
ENDBRANCH  89  92
ENDBRANCH  62  85
ENDBRANCH  36  37
ENDBRANCH  28  31
ENDBRANCH  26  27
ENDBRANCH  25  26
ENDBRANCH   1  25
TORSDOF 17
ENDMDL
MODEL 3
REMARK VINA RESULT:     -11.7      5.891     10.214
REMARK SMILES COC(=O)c1cc(F)cc(-c2ccc(C(=O)NCCCCNC(=O)c3ccc(-c4c5nc(c(-c6cccc(S(=O)(=O)[O-])c6F)c6ccc([nH]6)c(-c6cccc(S(=O)(=O)[O-])c6F)c6nc(c(-c7cccc(S(=O)(=O)[O-])c7F)c7ccc4[nH]7)C=C6)C=C5)cc3)cc2C)c1
REMARK SMILES IDX 19 1 18 2 17 3 15 4 16 5 14 7 11 8 12 9 89 10 13 11 88 12
REMARK SMILES IDX 90 13 10 14 5 15 6 16 91 17 7 18 8 19 9 20 3 21 4 22 2 23
REMARK SMILES IDX 1 24 20 25 21 26 22 27 23 28 24 30 25 31 26 32 87 33 27 34
REMARK SMILES IDX 86 35 28 36 29 37 30 38 80 39 31 40 85 41 79 42 81 43 32 44
REMARK SMILES IDX 84 45 78 46 77 47 33 49 65 50 45 51 64 52 46 53 49 54 63 55
REMARK SMILES IDX 82 56 47 57 48 58 62 60 83 61 50 62 34 63 35 64 43 65 36 66
REMARK SMILES IDX 38 67 44 68 37 69 39 70 40 71 41 72 42 73 66 74 67 75 75 76
REMARK SMILES IDX 68 77 70 78 76 79 69 80 71 81 72 82 73 83 74 84 51 85 52 86
REMARK SMILES IDX 60 87 53 88 55 89 61 90 54 91 56 92 57 93 58 94 59 95
REMARK H PARENT 17 6 22 29 81 48 49 59
REMARK Flexibility Score: inf
ROOT
ATOM      1  C   UNL A   1      41.365  21.140  26.203  1.00  0.00     0.023 C 
ENDROOT
BRANCH   1   2
ATOM      2  C   UNL A   1      40.564  21.699  27.378  1.00  0.00     0.116 C 
BRANCH   2   3
ATOM      3  N   UNL A   1      40.107  23.062  27.167  1.00  0.00    -0.352 N 
ATOM      4  C   UNL A   1      38.985  23.607  26.587  1.00  0.00     0.251 C 
ATOM      5  O   UNL A   1      38.946  24.836  26.487  1.00  0.00    -0.269 OA
ATOM      6  H   UNL A   1      40.732  23.739  27.514  1.00  0.00     0.163 HD
BRANCH   4   7
ATOM      7  C   UNL A   1      37.834  22.817  26.052  1.00  0.00     0.040 A 
ATOM      8  C   UNL A   1      35.523  21.410  25.131  1.00  0.00    -0.015 A 
ATOM      9  C   UNL A   1      36.830  21.059  24.736  1.00  0.00     0.010 A 
ATOM     10  C   UNL A   1      35.382  22.460  26.055  1.00  0.00    -0.042 A 
ATOM     11  C   UNL A   1      37.961  21.701  25.239  1.00  0.00     0.014 A 
ATOM     12  C   UNL A   1      36.536  23.170  26.471  1.00  0.00     0.018 A 
ATOM     13  C   UNL A   1      34.077  22.832  26.707  1.00  0.00     0.045 C 
BRANCH   8  14
ATOM     14  C   UNL A   1      34.419  20.599  24.583  1.00  0.00    -0.014 A 
ATOM     15  C   UNL A   1      33.574  18.371  24.021  1.00  0.00     0.063 A 
ATOM     16  C   UNL A   1      32.536  18.934  23.283  1.00  0.00     0.055 A 
ATOM     17  C   UNL A   1      34.482  19.199  24.692  1.00  0.00     0.024 A 
ATOM     18  C   UNL A   1      32.435  20.319  23.218  1.00  0.00     0.124 A 
ATOM     19  F   UNL A   1      31.439  20.868  22.508  1.00  0.00    -0.207 F 
ATOM     20  C   UNL A   1      33.366  21.152  23.842  1.00  0.00     0.048 A 
BRANCH  15  21
ATOM     21  C   UNL A   1      33.817  16.913  24.089  1.00  0.00     0.337 C 
ATOM     22  O   UNL A   1      33.879  16.196  23.111  1.00  0.00    -0.246 OA
BRANCH  21  23
ATOM     23  O   UNL A   1      33.818  16.514  25.387  1.00  0.00    -0.465 OA
ATOM     24  C   UNL A   1      32.572  15.948  25.798  1.00  0.00     0.282 C 
ENDBRANCH  21  23
ENDBRANCH  15  21
ENDBRANCH   8  14
ENDBRANCH   4   7
ENDBRANCH   2   3
ENDBRANCH   1   2
BRANCH   1  25
ATOM     25  C   UNL A   1      41.468  19.616  26.105  1.00  0.00     0.023 C 
BRANCH  25  26
ATOM     26  C   UNL A   1      42.860  19.026  26.341  1.00  0.00     0.116 C 
BRANCH  26  27
ATOM     27  N   UNL A   1      43.637  18.860  25.125  1.00  0.00    -0.352 N 
ATOM     28  C   UNL A   1      44.369  19.783  24.415  1.00  0.00     0.251 C 
ATOM     29  H   UNL A   1      43.641  17.949  24.753  1.00  0.00     0.163 HD
ATOM     30  O   UNL A   1      44.856  19.441  23.339  1.00  0.00    -0.269 OA
BRANCH  28  31
ATOM     31  C   UNL A   1      44.555  21.176  24.896  1.00  0.00     0.039 A 
ATOM     32  C   UNL A   1      44.187  22.225  24.043  1.00  0.00     0.014 A 
ATOM     33  C   UNL A   1      45.143  21.476  26.127  1.00  0.00     0.014 A 
ATOM     34  C   UNL A   1      44.386  23.555  24.428  1.00  0.00     0.010 A 
ATOM     35  C   UNL A   1      45.277  22.800  26.542  1.00  0.00     0.010 A 
ATOM     36  C   UNL A   1      44.925  23.855  25.688  1.00  0.00    -0.014 A 
BRANCH  36  37
ATOM     37  C   UNL A   1      45.165  25.256  26.120  1.00  0.00     0.031 A 
ATOM     38  C   UNL A   1      46.564  25.814  26.126  1.00  0.00     0.074 A 
ATOM     39  C   UNL A   1      44.140  25.997  26.582  1.00  0.00     0.049 A 
ATOM     40  N   UNL A   1      46.983  26.983  26.534  1.00  0.00    -0.248 NA
ATOM     41  C   UNL A   1      47.638  24.935  25.632  1.00  0.00     0.031 C 
ATOM     42  C   UNL A   1      42.753  25.546  26.687  1.00  0.00     0.029 A 
ATOM     43  N   UNL A   1      44.112  27.279  27.074  1.00  0.00    -0.354 N 
ATOM     44  C   UNL A   1      48.365  26.969  26.381  1.00  0.00     0.074 A 
ATOM     45  C   UNL A   1      48.719  25.663  25.872  1.00  0.00     0.031 C 
ATOM     46  C   UNL A   1      42.008  26.532  27.211  1.00  0.00     0.029 A 
ATOM     47  C   UNL A   1      42.867  27.676  27.504  1.00  0.00     0.049 A 
ATOM     48  H   UNL A   1      44.908  27.857  27.117  1.00  0.00     0.167 HD
ATOM     49  C   UNL A   1      49.254  27.964  26.612  1.00  0.00     0.034 A 
ATOM     50  C   UNL A   1      42.463  28.829  28.074  1.00  0.00     0.034 A 
ATOM     51  C   UNL A   1      48.888  29.279  27.062  1.00  0.00     0.049 A 
ATOM     52  C   UNL A   1      43.463  29.935  28.281  1.00  0.00     0.074 A 
ATOM     53  C   UNL A   1      49.704  30.381  27.238  1.00  0.00     0.029 A 
ATOM     54  N   UNL A   1      47.605  29.670  27.408  1.00  0.00    -0.354 N 
ATOM     55  N   UNL A   1      44.742  29.950  27.994  1.00  0.00    -0.248 NA
ATOM     56  C   UNL A   1      42.962  31.192  28.855  1.00  0.00     0.031 C 
ATOM     57  C   UNL A   1      48.917  31.436  27.709  1.00  0.00     0.029 A 
ATOM     58  C   UNL A   1      47.606  30.996  27.803  1.00  0.00     0.049 A 
ATOM     59  H   UNL A   1      46.809  29.091  27.376  1.00  0.00     0.167 HD
ATOM     60  C   UNL A   1      45.193  31.224  28.323  1.00  0.00     0.074 A 
ATOM     61  C   UNL A   1      44.045  31.959  28.814  1.00  0.00     0.031 C 
ATOM     62  C   UNL A   1      46.447  31.732  28.239  1.00  0.00     0.034 A 
BRANCH  49  63
ATOM     63  C   UNL A   1      50.708  27.700  26.315  1.00  0.00     0.023 A 
ATOM     64  C   UNL A   1      51.558  27.267  27.353  1.00  0.00     0.012 A 
ATOM     65  C   UNL A   1      51.210  27.783  25.002  1.00  0.00     0.148 A 
ATOM     66  C   UNL A   1      52.888  26.942  27.095  1.00  0.00     0.002 A 
ATOM     67  C   UNL A   1      52.526  27.415  24.744  1.00  0.00     0.091 A 
ATOM     68  F   UNL A   1      50.392  28.215  24.031  1.00  0.00    -0.205 F 
ATOM     69  C   UNL A   1      53.368  27.003  25.789  1.00  0.00     0.022 A 
BRANCH  67  70
ATOM     70  S   UNL A   1      53.217  27.375  23.086  1.00  0.00     0.127 S 
ATOM     71  O   UNL A   1      54.489  26.689  23.314  1.00  0.00    -0.237 OA
ATOM     72  O   UNL A   1      52.223  26.587  22.357  1.00  0.00    -0.237 OA
ATOM     73  O   UNL A   1      53.327  28.763  22.660  1.00  0.00    -0.744 OA
ENDBRANCH  67  70
ENDBRANCH  49  63
BRANCH  50  74
ATOM     74  C   UNL A   1      41.023  29.015  28.409  1.00  0.00     0.023 A 
ATOM     75  C   UNL A   1      40.101  29.254  27.370  1.00  0.00     0.012 A 
ATOM     76  C   UNL A   1      40.550  28.880  29.729  1.00  0.00     0.148 A 
ATOM     77  C   UNL A   1      38.738  29.373  27.642  1.00  0.00     0.002 A 
ATOM     78  C   UNL A   1      39.185  28.943  29.985  1.00  0.00     0.091 A 
ATOM     79  F   UNL A   1      41.444  28.664  30.704  1.00  0.00    -0.205 F 
ATOM     80  C   UNL A   1      38.279  29.204  28.945  1.00  0.00     0.022 A 
BRANCH  78  81
ATOM     81  S   UNL A   1      38.489  28.596  31.605  1.00  0.00     0.127 S 
ATOM     82  O   UNL A   1      39.274  29.478  32.465  1.00  0.00    -0.237 OA
ATOM     83  O   UNL A   1      37.093  28.995  31.425  1.00  0.00    -0.237 OA
ATOM     84  O   UNL A   1      38.683  27.169  31.820  1.00  0.00    -0.744 OA
ENDBRANCH  78  81
ENDBRANCH  50  74
BRANCH  62  85
ATOM     85  C   UNL A   1      46.665  33.160  28.666  1.00  0.00     0.023 A 
ATOM     86  C   UNL A   1      47.128  33.434  29.966  1.00  0.00     0.012 A 
ATOM     87  C   UNL A   1      46.535  34.215  27.740  1.00  0.00     0.148 A 
ATOM     88  C   UNL A   1      47.444  34.738  30.346  1.00  0.00     0.002 A 
ATOM     89  C   UNL A   1      46.897  35.504  28.109  1.00  0.00     0.091 A 
ATOM     90  F   UNL A   1      46.077  33.933  26.510  1.00  0.00    -0.205 F 
ATOM     91  C   UNL A   1      47.343  35.769  29.415  1.00  0.00     0.022 A 
BRANCH  89  92
ATOM     92  S   UNL A   1      46.900  36.876  26.949  1.00  0.00     0.127 S 
ATOM     93  O   UNL A   1      47.709  36.340  25.856  1.00  0.00    -0.237 OA
ATOM     94  O   UNL A   1      45.478  37.026  26.640  1.00  0.00    -0.237 OA
ATOM     95  O   UNL A   1      47.487  38.004  27.662  1.00  0.00    -0.744 OA
ENDBRANCH  89  92
ENDBRANCH  62  85
ENDBRANCH  36  37
ENDBRANCH  28  31
ENDBRANCH  26  27
ENDBRANCH  25  26
ENDBRANCH   1  25
TORSDOF 17
ENDMDL
