MODEL 1
REMARK VINA RESULT:     -11.9      0.000      0.000
REMARK SMILES O=C(CCC(=O)N1CCN(S(=O)(=O)c2cccs2)CC1)NCCCCNC(=O)c1ccc(-c2c3nc(c(-c4cccc(S(=O)(=O)[O-])c4F)c4ccc([nH]4)c(-c4cccc(S(=O)(=O)[O-])c4F)c4nc(c(-c5cccc(S(=O)(=O)[O-])c5F)c5ccc2[nH]5)C=C4)C=C3)cc1
REMARK SMILES IDX 23 1 22 2 21 3 1 4 2 5 3 7 4 8 5 9 6 10 7 11 8 12 20 13 9 14
REMARK SMILES IDX 19 15 10 16 11 17 12 18 13 19 14 20 15 21 18 22 16 23 17 24
REMARK SMILES IDX 24 25 25 26 26 27 27 28 28 30 29 31 30 32 91 33 31 34 90 35
REMARK SMILES IDX 32 36 33 37 34 38 84 39 35 40 89 41 83 42 85 43 36 44 88 45
REMARK SMILES IDX 82 46 81 47 37 49 69 50 49 51 68 52 50 53 53 54 67 55 86 56
REMARK SMILES IDX 51 57 52 58 66 60 87 61 54 62 38 63 39 64 47 65 40 66 42 67
REMARK SMILES IDX 48 68 41 69 43 70 44 71 45 72 46 73 70 74 71 75 79 76 72 77
REMARK SMILES IDX 74 78 80 79 73 80 75 81 76 82 77 83 78 84 55 85 56 86 64 87
REMARK SMILES IDX 57 88 59 89 65 90 58 91 60 92 61 93 62 94 63 95
REMARK H PARENT 21 6 26 29 85 48 53 59
REMARK Flexibility Score: inf
ROOT
ATOM      1  C   UNL A   1      30.419  32.313  25.359  1.00  0.00     0.023 C 
ENDROOT
BRANCH   1   2
ATOM      2  C   UNL A   1      29.498  32.134  24.159  1.00  0.00     0.116 C 
BRANCH   2   3
ATOM      3  N   UNL A   1      29.453  30.786  23.630  1.00  0.00    -0.356 N 
ATOM      4  O   UNL A   1      27.163  30.672  23.580  1.00  0.00    -0.275 OA
ATOM      5  C   UNL A   1      28.258  30.183  23.313  1.00  0.00     0.220 C 
ATOM      6  H   UNL A   1      30.294  30.293  23.494  1.00  0.00     0.163 HD
BRANCH   5   7
ATOM      7  C   UNL A   1      28.392  28.889  22.540  1.00  0.00     0.110 C 
BRANCH   7   8
ATOM      8  C   UNL A   1      28.965  27.784  23.423  1.00  0.00     0.110 C 
BRANCH   8   9
ATOM      9  C   UNL A   1      30.378  27.403  23.008  1.00  0.00     0.223 C 
ATOM     10  O   UNL A   1      30.716  27.574  21.835  1.00  0.00    -0.275 OA
ATOM     11  N   UNL A   1      31.255  26.881  23.952  1.00  0.00    -0.340 N 
ATOM     12  C   UNL A   1      32.600  26.501  23.477  1.00  0.00     0.136 C 
ATOM     13  C   UNL A   1      30.827  26.300  25.227  1.00  0.00     0.136 C 
ATOM     14  C   UNL A   1      33.662  26.360  24.589  1.00  0.00     0.124 C 
ATOM     15  C   UNL A   1      31.927  26.232  26.283  1.00  0.00     0.124 C 
ATOM     16  N   UNL A   1      33.155  25.579  25.776  1.00  0.00    -0.194 NA
BRANCH  16  17
ATOM     17  S   UNL A   1      33.172  23.892  25.502  1.00  0.00     0.252 S 
ATOM     18  O   UNL A   1      32.749  23.261  26.732  1.00  0.00    -0.206 OA
ATOM     19  O   UNL A   1      32.452  23.675  24.267  1.00  0.00    -0.206 OA
BRANCH  17  20
ATOM     20  C   UNL A   1      34.828  23.254  25.289  1.00  0.00     0.135 A 
ATOM     21  C   UNL A   1      35.971  23.797  24.719  1.00  0.00     0.033 A 
ATOM     22  S   UNL A   1      35.192  21.779  26.084  1.00  0.00    -0.131 S 
ATOM     23  C   UNL A   1      37.139  23.022  24.969  1.00  0.00     0.013 A 
ATOM     24  C   UNL A   1      36.858  21.906  25.722  1.00  0.00     0.066 A 
ENDBRANCH  17  20
ENDBRANCH  16  17
ENDBRANCH   8   9
ENDBRANCH   7   8
ENDBRANCH   5   7
ENDBRANCH   2   3
ENDBRANCH   1   2
BRANCH   1  25
ATOM     25  C   UNL A   1      31.186  31.070  25.817  1.00  0.00     0.023 C 
BRANCH  25  26
ATOM     26  C   UNL A   1      32.253  31.277  26.891  1.00  0.00     0.116 C 
BRANCH  26  27
ATOM     27  N   UNL A   1      32.434  32.668  27.273  1.00  0.00    -0.352 N 
ATOM     28  C   UNL A   1      33.532  33.278  27.837  1.00  0.00     0.251 C 
ATOM     29  H   UNL A   1      31.663  33.257  27.105  1.00  0.00     0.163 HD
ATOM     30  O   UNL A   1      33.480  34.471  28.129  1.00  0.00    -0.269 OA
BRANCH  28  31
ATOM     31  C   UNL A   1      34.746  32.490  28.166  1.00  0.00     0.039 A 
ATOM     32  C   UNL A   1      35.984  33.140  28.121  1.00  0.00     0.014 A 
ATOM     33  C   UNL A   1      34.677  31.150  28.558  1.00  0.00     0.014 A 
ATOM     34  C   UNL A   1      37.131  32.487  28.583  1.00  0.00     0.010 A 
ATOM     35  C   UNL A   1      35.816  30.511  29.056  1.00  0.00     0.010 A 
ATOM     36  C   UNL A   1      37.044  31.188  29.110  1.00  0.00    -0.014 A 
BRANCH  36  37
ATOM     37  C   UNL A   1      38.183  30.602  29.863  1.00  0.00     0.031 A 
ATOM     38  C   UNL A   1      38.507  31.020  31.266  1.00  0.00     0.074 A 
ATOM     39  C   UNL A   1      38.992  29.734  29.221  1.00  0.00     0.049 A 
ATOM     40  N   UNL A   1      39.467  30.592  32.046  1.00  0.00    -0.248 NA
ATOM     41  C   UNL A   1      37.658  32.059  31.867  1.00  0.00     0.031 C 
ATOM     42  C   UNL A   1      38.837  29.315  27.826  1.00  0.00     0.029 A 
ATOM     43  N   UNL A   1      40.116  29.069  29.644  1.00  0.00    -0.354 N 
ATOM     44  C   UNL A   1      39.351  31.318  33.225  1.00  0.00     0.074 A 
ATOM     45  C   UNL A   1      38.237  32.227  33.050  1.00  0.00     0.031 C 
ATOM     46  C   UNL A   1      39.829  28.469  27.507  1.00  0.00     0.029 A 
ATOM     47  C   UNL A   1      40.695  28.291  28.669  1.00  0.00     0.049 A 
ATOM     48  H   UNL A   1      40.474  29.142  30.558  1.00  0.00     0.167 HD
ATOM     49  C   UNL A   1      40.087  31.213  34.358  1.00  0.00     0.034 A 
ATOM     50  C   UNL A   1      41.794  27.512  28.702  1.00  0.00     0.034 A 
ATOM     51  C   UNL A   1      41.171  30.283  34.546  1.00  0.00     0.049 A 
ATOM     52  C   UNL A   1      42.558  27.375  29.988  1.00  0.00     0.074 A 
ATOM     53  C   UNL A   1      41.916  30.048  35.690  1.00  0.00     0.029 A 
ATOM     54  N   UNL A   1      41.669  29.438  33.567  1.00  0.00    -0.354 N 
ATOM     55  N   UNL A   1      42.317  27.929  31.150  1.00  0.00    -0.248 NA
ATOM     56  C   UNL A   1      43.720  26.473  29.980  1.00  0.00     0.031 C 
ATOM     57  C   UNL A   1      42.863  29.059  35.402  1.00  0.00     0.029 A 
ATOM     58  C   UNL A   1      42.713  28.683  34.077  1.00  0.00     0.049 A 
ATOM     59  H   UNL A   1      41.330  29.382  32.644  1.00  0.00     0.167 HD
ATOM     60  C   UNL A   1      43.280  27.430  32.017  1.00  0.00     0.074 A 
ATOM     61  C   UNL A   1      44.097  26.509  31.252  1.00  0.00     0.031 C 
ATOM     62  C   UNL A   1      43.481  27.725  33.324  1.00  0.00     0.034 A 
BRANCH  49  63
ATOM     63  C   UNL A   1      39.688  32.072  35.526  1.00  0.00     0.023 A 
ATOM     64  C   UNL A   1      40.210  33.377  35.614  1.00  0.00     0.012 A 
ATOM     65  C   UNL A   1      38.762  31.629  36.489  1.00  0.00     0.148 A 
ATOM     66  C   UNL A   1      39.829  34.225  36.652  1.00  0.00     0.002 A 
ATOM     67  C   UNL A   1      38.367  32.491  37.508  1.00  0.00     0.091 A 
ATOM     68  F   UNL A   1      38.296  30.375  36.406  1.00  0.00    -0.205 F 
ATOM     69  C   UNL A   1      38.901  33.787  37.593  1.00  0.00     0.022 A 
BRANCH  67  70
ATOM     70  S   UNL A   1      37.133  32.011  38.724  1.00  0.00     0.127 S 
ATOM     71  O   UNL A   1      37.046  30.569  38.507  1.00  0.00    -0.237 OA
ATOM     72  O   UNL A   1      37.762  32.399  39.989  1.00  0.00    -0.237 OA
ATOM     73  O   UNL A   1      35.944  32.782  38.389  1.00  0.00    -0.744 OA
ENDBRANCH  67  70
ENDBRANCH  49  63
BRANCH  50  74
ATOM     74  C   UNL A   1      42.167  26.725  27.495  1.00  0.00     0.023 A 
ATOM     75  C   UNL A   1      42.893  27.356  26.467  1.00  0.00     0.012 A 
ATOM     76  C   UNL A   1      41.877  25.352  27.390  1.00  0.00     0.148 A 
ATOM     77  C   UNL A   1      43.312  26.636  25.349  1.00  0.00     0.002 A 
ATOM     78  C   UNL A   1      42.339  24.630  26.295  1.00  0.00     0.091 A 
ATOM     79  F   UNL A   1      41.167  24.769  28.367  1.00  0.00    -0.205 F 
ATOM     80  C   UNL A   1      43.047  25.271  25.268  1.00  0.00     0.022 A 
BRANCH  78  81
ATOM     81  S   UNL A   1      42.147  22.845  26.213  1.00  0.00     0.127 S 
ATOM     82  O   UNL A   1      42.879  22.406  27.398  1.00  0.00    -0.237 OA
ATOM     83  O   UNL A   1      40.695  22.675  26.290  1.00  0.00    -0.237 OA
ATOM     84  O   UNL A   1      42.715  22.471  24.924  1.00  0.00    -0.744 OA
ENDBRANCH  78  81
ENDBRANCH  50  74
BRANCH  62  85
ATOM     85  C   UNL A   1      44.630  27.048  34.020  1.00  0.00     0.023 A 
ATOM     86  C   UNL A   1      45.913  27.625  33.942  1.00  0.00     0.012 A 
ATOM     87  C   UNL A   1      44.438  25.893  34.799  1.00  0.00     0.148 A 
ATOM     88  C   UNL A   1      46.990  27.052  34.617  1.00  0.00     0.002 A 
ATOM     89  C   UNL A   1      45.510  25.344  35.494  1.00  0.00     0.091 A 
ATOM     90  F   UNL A   1      43.216  25.340  34.840  1.00  0.00    -0.205 F 
ATOM     91  C   UNL A   1      46.788  25.919  35.401  1.00  0.00     0.022 A 
BRANCH  89  92
ATOM     92  S   UNL A   1      45.297  23.928  36.580  1.00  0.00     0.127 S 
ATOM     93  O   UNL A   1      46.677  23.626  36.956  1.00  0.00    -0.237 OA
ATOM     94  O   UNL A   1      44.475  24.469  37.663  1.00  0.00    -0.237 OA
ATOM     95  O   UNL A   1      44.623  22.923  35.768  1.00  0.00    -0.744 OA
ENDBRANCH  89  92
ENDBRANCH  62  85
ENDBRANCH  36  37
ENDBRANCH  28  31
ENDBRANCH  26  27
ENDBRANCH  25  26
ENDBRANCH   1  25
TORSDOF 18
ENDMDL
MODEL 2
REMARK VINA RESULT:     -11.5      2.471      3.326
REMARK SMILES O=C(CCC(=O)N1CCN(S(=O)(=O)c2cccs2)CC1)NCCCCNC(=O)c1ccc(-c2c3nc(c(-c4cccc(S(=O)(=O)[O-])c4F)c4ccc([nH]4)c(-c4cccc(S(=O)(=O)[O-])c4F)c4nc(c(-c5cccc(S(=O)(=O)[O-])c5F)c5ccc2[nH]5)C=C4)C=C3)cc1
REMARK SMILES IDX 23 1 22 2 21 3 1 4 2 5 3 7 4 8 5 9 6 10 7 11 8 12 20 13 9 14
REMARK SMILES IDX 19 15 10 16 11 17 12 18 13 19 14 20 15 21 18 22 16 23 17 24
REMARK SMILES IDX 24 25 25 26 26 27 27 28 28 30 29 31 30 32 91 33 31 34 90 35
REMARK SMILES IDX 32 36 33 37 34 38 84 39 35 40 89 41 83 42 85 43 36 44 88 45
REMARK SMILES IDX 82 46 81 47 37 49 69 50 49 51 68 52 50 53 53 54 67 55 86 56
REMARK SMILES IDX 51 57 52 58 66 60 87 61 54 62 38 63 39 64 47 65 40 66 42 67
REMARK SMILES IDX 48 68 41 69 43 70 44 71 45 72 46 73 70 74 71 75 79 76 72 77
REMARK SMILES IDX 74 78 80 79 73 80 75 81 76 82 77 83 78 84 55 85 56 86 64 87
REMARK SMILES IDX 57 88 59 89 65 90 58 91 60 92 61 93 62 94 63 95
REMARK H PARENT 21 6 26 29 85 48 53 59
REMARK Flexibility Score: inf
ROOT
ATOM      1  C   UNL A   1      33.385  28.935  24.927  1.00  0.00     0.023 C 
ENDROOT
BRANCH   1   2
ATOM      2  C   UNL A   1      32.031  29.632  24.926  1.00  0.00     0.116 C 
BRANCH   2   3
ATOM      3  N   UNL A   1      30.901  28.753  24.706  1.00  0.00    -0.356 N 
ATOM      4  O   UNL A   1      30.726  29.218  22.467  1.00  0.00    -0.275 OA
ATOM      5  C   UNL A   1      30.377  28.565  23.448  1.00  0.00     0.220 C 
ATOM      6  H   UNL A   1      30.501  28.281  25.472  1.00  0.00     0.163 HD
BRANCH   5   7
ATOM      7  C   UNL A   1      29.377  27.435  23.345  1.00  0.00     0.110 C 
BRANCH   7   8
ATOM      8  C   UNL A   1      30.083  26.083  23.308  1.00  0.00     0.110 C 
BRANCH   8   9
ATOM      9  C   UNL A   1      30.222  25.478  24.697  1.00  0.00     0.223 C 
ATOM     10  O   UNL A   1      29.545  25.946  25.616  1.00  0.00    -0.275 OA
ATOM     11  N   UNL A   1      31.094  24.415  24.900  1.00  0.00    -0.340 N 
ATOM     12  C   UNL A   1      31.205  23.896  26.277  1.00  0.00     0.136 C 
ATOM     13  C   UNL A   1      32.183  24.070  23.984  1.00  0.00     0.136 C 
ATOM     14  C   UNL A   1      31.808  22.478  26.386  1.00  0.00     0.124 C 
ATOM     15  C   UNL A   1      32.695  22.639  24.132  1.00  0.00     0.124 C 
ATOM     16  N   UNL A   1      33.040  22.306  25.532  1.00  0.00    -0.194 NA
BRANCH  16  17
ATOM     17  S   UNL A   1      34.432  22.987  26.253  1.00  0.00     0.252 S 
ATOM     18  O   UNL A   1      34.647  24.271  25.623  1.00  0.00    -0.206 OA
ATOM     19  O   UNL A   1      34.240  22.881  27.683  1.00  0.00    -0.206 OA
BRANCH  17  20
ATOM     20  C   UNL A   1      35.922  22.094  25.833  1.00  0.00     0.135 A 
ATOM     21  C   UNL A   1      36.133  20.827  25.308  1.00  0.00     0.033 A 
ATOM     22  S   UNL A   1      37.388  22.981  25.881  1.00  0.00    -0.131 S 
ATOM     23  C   UNL A   1      37.485  20.606  24.917  1.00  0.00     0.013 A 
ATOM     24  C   UNL A   1      38.270  21.709  25.153  1.00  0.00     0.066 A 
ENDBRANCH  17  20
ENDBRANCH  16  17
ENDBRANCH   8   9
ENDBRANCH   7   8
ENDBRANCH   5   7
ENDBRANCH   2   3
ENDBRANCH   1   2
BRANCH   1  25
ATOM     25  C   UNL A   1      34.157  28.952  26.250  1.00  0.00     0.023 C 
BRANCH  25  26
ATOM     26  C   UNL A   1      33.385  29.403  27.489  1.00  0.00     0.116 C 
BRANCH  26  27
ATOM     27  N   UNL A   1      33.658  30.776  27.880  1.00  0.00    -0.352 N 
ATOM     28  C   UNL A   1      34.812  31.318  28.400  1.00  0.00     0.251 C 
ATOM     29  H   UNL A   1      32.913  31.408  27.755  1.00  0.00     0.163 HD
ATOM     30  O   UNL A   1      34.838  32.507  28.709  1.00  0.00    -0.269 OA
BRANCH  28  31
ATOM     31  C   UNL A   1      35.996  30.462  28.663  1.00  0.00     0.039 A 
ATOM     32  C   UNL A   1      37.049  30.494  27.742  1.00  0.00     0.014 A 
ATOM     33  C   UNL A   1      36.101  29.674  29.813  1.00  0.00     0.014 A 
ATOM     34  C   UNL A   1      38.248  29.836  28.032  1.00  0.00     0.010 A 
ATOM     35  C   UNL A   1      37.312  29.050  30.121  1.00  0.00     0.010 A 
ATOM     36  C   UNL A   1      38.409  29.159  29.252  1.00  0.00    -0.014 A 
BRANCH  36  37
ATOM     37  C   UNL A   1      39.755  28.711  29.694  1.00  0.00     0.031 A 
ATOM     38  C   UNL A   1      40.528  29.444  30.749  1.00  0.00     0.074 A 
ATOM     39  C   UNL A   1      40.321  27.666  29.056  1.00  0.00     0.049 A 
ATOM     40  N   UNL A   1      41.711  29.167  31.236  1.00  0.00    -0.248 NA
ATOM     41  C   UNL A   1      39.906  30.648  31.320  1.00  0.00     0.031 C 
ATOM     42  C   UNL A   1      39.708  26.925  27.950  1.00  0.00     0.029 A 
ATOM     43  N   UNL A   1      41.542  27.062  29.223  1.00  0.00    -0.354 N 
ATOM     44  C   UNL A   1      41.985  30.167  32.161  1.00  0.00     0.074 A 
ATOM     45  C   UNL A   1      40.851  31.069  32.153  1.00  0.00     0.031 C 
ATOM     46  C   UNL A   1      40.556  25.970  27.537  1.00  0.00     0.029 A 
ATOM     47  C   UNL A   1      41.774  26.034  28.339  1.00  0.00     0.049 A 
ATOM     48  H   UNL A   1      42.189  27.338  29.911  1.00  0.00     0.167 HD
ATOM     49  C   UNL A   1      43.069  30.302  32.963  1.00  0.00     0.034 A 
ATOM     50  C   UNL A   1      42.841  25.225  28.192  1.00  0.00     0.034 A 
ATOM     51  C   UNL A   1      44.180  29.386  32.999  1.00  0.00     0.049 A 
ATOM     52  C   UNL A   1      44.005  25.365  29.130  1.00  0.00     0.074 A 
ATOM     53  C   UNL A   1      45.280  29.398  33.840  1.00  0.00     0.029 A 
ATOM     54  N   UNL A   1      44.337  28.298  32.155  1.00  0.00    -0.354 N 
ATOM     55  N   UNL A   1      44.161  26.203  30.126  1.00  0.00    -0.248 NA
ATOM     56  C   UNL A   1      45.120  24.424  28.955  1.00  0.00     0.031 C 
ATOM     57  C   UNL A   1      46.100  28.315  33.507  1.00  0.00     0.029 A 
ATOM     58  C   UNL A   1      45.516  27.633  32.452  1.00  0.00     0.049 A 
ATOM     59  H   UNL A   1      43.703  28.035  31.448  1.00  0.00     0.167 HD
ATOM     60  C   UNL A   1      45.378  25.878  30.709  1.00  0.00     0.074 A 
ATOM     61  C   UNL A   1      45.911  24.751  29.971  1.00  0.00     0.031 C 
ATOM     62  C   UNL A   1      46.008  26.475  31.750  1.00  0.00     0.034 A 
BRANCH  49  63
ATOM     63  C   UNL A   1      43.070  31.445  33.941  1.00  0.00     0.023 A 
ATOM     64  C   UNL A   1      43.661  32.664  33.554  1.00  0.00     0.012 A 
ATOM     65  C   UNL A   1      42.441  31.347  35.195  1.00  0.00     0.148 A 
ATOM     66  C   UNL A   1      43.641  33.765  34.408  1.00  0.00     0.002 A 
ATOM     67  C   UNL A   1      42.402  32.459  36.033  1.00  0.00     0.091 A 
ATOM     68  F   UNL A   1      41.907  30.172  35.559  1.00  0.00    -0.205 F 
ATOM     69  C   UNL A   1      43.004  33.666  35.643  1.00  0.00     0.022 A 
BRANCH  67  70
ATOM     70  S   UNL A   1      41.551  32.419  37.615  1.00  0.00     0.127 S 
ATOM     71  O   UNL A   1      42.356  31.455  38.363  1.00  0.00    -0.237 OA
ATOM     72  O   UNL A   1      41.672  33.802  38.080  1.00  0.00    -0.237 OA
ATOM     73  O   UNL A   1      40.188  32.011  37.307  1.00  0.00    -0.744 OA
ENDBRANCH  67  70
ENDBRANCH  49  63
BRANCH  50  74
ATOM     74  C   UNL A   1      42.800  24.144  27.170  1.00  0.00     0.023 A 
ATOM     75  C   UNL A   1      43.447  24.347  25.936  1.00  0.00     0.012 A 
ATOM     76  C   UNL A   1      42.196  22.901  27.434  1.00  0.00     0.148 A 
ATOM     77  C   UNL A   1      43.483  23.334  24.978  1.00  0.00     0.002 A 
ATOM     78  C   UNL A   1      42.276  21.880  26.492  1.00  0.00     0.091 A 
ATOM     79  F   UNL A   1      41.565  22.729  28.605  1.00  0.00    -0.205 F 
ATOM     80  C   UNL A   1      42.909  22.096  25.260  1.00  0.00     0.022 A 
BRANCH  78  81
ATOM     81  S   UNL A   1      41.677  20.226  26.865  1.00  0.00     0.127 S 
ATOM     82  O   UNL A   1      40.413  20.505  27.539  1.00  0.00    -0.237 OA
ATOM     83  O   UNL A   1      41.545  19.626  25.536  1.00  0.00    -0.237 OA
ATOM     84  O   UNL A   1      42.728  19.628  27.679  1.00  0.00    -0.744 OA
ENDBRANCH  78  81
ENDBRANCH  50  74
BRANCH  62  85
ATOM     85  C   UNL A   1      47.347  25.925  32.160  1.00  0.00     0.023 A 
ATOM     86  C   UNL A   1      48.502  26.366  31.486  1.00  0.00     0.012 A 
ATOM     87  C   UNL A   1      47.474  25.035  33.242  1.00  0.00     0.148 A 
ATOM     88  C   UNL A   1      49.764  25.915  31.873  1.00  0.00     0.002 A 
ATOM     89  C   UNL A   1      48.737  24.614  33.643  1.00  0.00     0.091 A 
ATOM     90  F   UNL A   1      46.361  24.604  33.855  1.00  0.00    -0.205 F 
ATOM     91  C   UNL A   1      49.883  25.049  32.957  1.00  0.00     0.022 A 
BRANCH  89  92
ATOM     92  S   UNL A   1      48.961  23.556  35.078  1.00  0.00     0.127 S 
ATOM     93  O   UNL A   1      48.180  22.377  34.708  1.00  0.00    -0.237 OA
ATOM     94  O   UNL A   1      50.409  23.343  35.103  1.00  0.00    -0.237 OA
ATOM     95  O   UNL A   1      48.455  24.329  36.205  1.00  0.00    -0.744 OA
ENDBRANCH  89  92
ENDBRANCH  62  85
ENDBRANCH  36  37
ENDBRANCH  28  31
ENDBRANCH  26  27
ENDBRANCH  25  26
ENDBRANCH   1  25
TORSDOF 18
ENDMDL
MODEL 3
REMARK VINA RESULT:     -11.4      5.077     10.790
REMARK SMILES O=C(CCC(=O)N1CCN(S(=O)(=O)c2cccs2)CC1)NCCCCNC(=O)c1ccc(-c2c3nc(c(-c4cccc(S(=O)(=O)[O-])c4F)c4ccc([nH]4)c(-c4cccc(S(=O)(=O)[O-])c4F)c4nc(c(-c5cccc(S(=O)(=O)[O-])c5F)c5ccc2[nH]5)C=C4)C=C3)cc1
REMARK SMILES IDX 23 1 22 2 21 3 1 4 2 5 3 7 4 8 5 9 6 10 7 11 8 12 20 13 9 14
REMARK SMILES IDX 19 15 10 16 11 17 12 18 13 19 14 20 15 21 18 22 16 23 17 24
REMARK SMILES IDX 24 25 25 26 26 27 27 28 28 30 29 31 30 32 91 33 31 34 90 35
REMARK SMILES IDX 32 36 33 37 34 38 84 39 35 40 89 41 83 42 85 43 36 44 88 45
REMARK SMILES IDX 82 46 81 47 37 49 69 50 49 51 68 52 50 53 53 54 67 55 86 56
REMARK SMILES IDX 51 57 52 58 66 60 87 61 54 62 38 63 39 64 47 65 40 66 42 67
REMARK SMILES IDX 48 68 41 69 43 70 44 71 45 72 46 73 70 74 71 75 79 76 72 77
REMARK SMILES IDX 74 78 80 79 73 80 75 81 76 82 77 83 78 84 55 85 56 86 64 87
REMARK SMILES IDX 57 88 59 89 65 90 58 91 60 92 61 93 62 94 63 95
REMARK H PARENT 21 6 26 29 85 48 53 59
REMARK Flexibility Score: inf
ROOT
ATOM      1  C   UNL A   1      36.177  20.612  25.346  1.00  0.00     0.023 C 
ENDROOT
BRANCH   1   2
ATOM      2  C   UNL A   1      34.906  20.097  24.683  1.00  0.00     0.116 C 
BRANCH   2   3
ATOM      3  N   UNL A   1      33.756  20.966  24.827  1.00  0.00    -0.356 N 
ATOM      4  O   UNL A   1      32.242  19.257  25.030  1.00  0.00    -0.275 OA
ATOM      5  C   UNL A   1      32.501  20.458  25.064  1.00  0.00     0.220 C 
ATOM      6  H   UNL A   1      33.877  21.941  24.754  1.00  0.00     0.163 HD
BRANCH   5   7
ATOM      7  C   UNL A   1      31.463  21.492  25.440  1.00  0.00     0.110 C 
BRANCH   7   8
ATOM      8  C   UNL A   1      32.056  22.545  26.372  1.00  0.00     0.110 C 
BRANCH   8   9
ATOM      9  C   UNL A   1      31.093  23.698  26.609  1.00  0.00     0.223 C 
ATOM     10  O   UNL A   1      30.188  23.553  27.434  1.00  0.00    -0.275 OA
ATOM     11  N   UNL A   1      31.255  24.886  25.904  1.00  0.00    -0.340 N 
ATOM     12  C   UNL A   1      30.267  25.953  26.157  1.00  0.00     0.136 C 
ATOM     13  C   UNL A   1      32.033  24.999  24.669  1.00  0.00     0.136 C 
ATOM     14  C   UNL A   1      30.717  27.365  25.724  1.00  0.00     0.124 C 
ATOM     15  C   UNL A   1      32.470  26.422  24.333  1.00  0.00     0.124 C 
ATOM     16  N   UNL A   1      31.339  27.377  24.349  1.00  0.00    -0.194 NA
BRANCH  16  17
ATOM     17  S   UNL A   1      30.169  27.334  23.104  1.00  0.00     0.252 S 
ATOM     18  O   UNL A   1      30.886  27.379  21.849  1.00  0.00    -0.206 OA
ATOM     19  O   UNL A   1      29.285  26.232  23.418  1.00  0.00    -0.206 OA
BRANCH  17  20
ATOM     20  C   UNL A   1      29.185  28.825  23.042  1.00  0.00     0.135 A 
ATOM     21  C   UNL A   1      27.832  29.040  22.823  1.00  0.00     0.033 A 
ATOM     22  S   UNL A   1      29.959  30.277  23.523  1.00  0.00    -0.131 S 
ATOM     23  C   UNL A   1      27.433  30.382  23.087  1.00  0.00     0.013 A 
ATOM     24  C   UNL A   1      28.493  31.156  23.499  1.00  0.00     0.066 A 
ENDBRANCH  17  20
ENDBRANCH  16  17
ENDBRANCH   8   9
ENDBRANCH   7   8
ENDBRANCH   5   7
ENDBRANCH   2   3
ENDBRANCH   1   2
BRANCH   1  25
ATOM     25  C   UNL A   1      37.486  19.950  24.907  1.00  0.00     0.023 C 
BRANCH  25  26
ATOM     26  C   UNL A   1      38.774  20.724  25.183  1.00  0.00     0.116 C 
BRANCH  26  27
ATOM     27  N   UNL A   1      39.798  19.937  25.850  1.00  0.00    -0.352 N 
ATOM     28  C   UNL A   1      40.740  20.338  26.771  1.00  0.00     0.251 C 
ATOM     29  H   UNL A   1      39.821  18.982  25.610  1.00  0.00     0.163 HD
ATOM     30  O   UNL A   1      41.556  19.524  27.197  1.00  0.00    -0.269 OA
BRANCH  28  31
ATOM     31  C   UNL A   1      40.826  21.759  27.191  1.00  0.00     0.039 A 
ATOM     32  C   UNL A   1      41.588  22.065  28.324  1.00  0.00     0.014 A 
ATOM     33  C   UNL A   1      40.212  22.785  26.467  1.00  0.00     0.014 A 
ATOM     34  C   UNL A   1      41.835  23.400  28.658  1.00  0.00     0.010 A 
ATOM     35  C   UNL A   1      40.490  24.119  26.778  1.00  0.00     0.010 A 
ATOM     36  C   UNL A   1      41.336  24.437  27.851  1.00  0.00    -0.014 A 
BRANCH  36  37
ATOM     37  C   UNL A   1      41.828  25.829  28.024  1.00  0.00     0.031 A 
ATOM     38  C   UNL A   1      43.192  26.251  27.569  1.00  0.00     0.074 A 
ATOM     39  C   UNL A   1      41.045  26.703  28.690  1.00  0.00     0.049 A 
ATOM     40  N   UNL A   1      43.753  27.431  27.651  1.00  0.00    -0.248 NA
ATOM     41  C   UNL A   1      44.043  25.219  26.959  1.00  0.00     0.031 C 
ATOM     42  C   UNL A   1      39.733  26.389  29.262  1.00  0.00     0.029 A 
ATOM     43  N   UNL A   1      41.244  28.020  29.021  1.00  0.00    -0.354 N 
ATOM     44  C   UNL A   1      45.027  27.285  27.118  1.00  0.00     0.074 A 
ATOM     45  C   UNL A   1      45.164  25.895  26.732  1.00  0.00     0.031 C 
ATOM     46  C   UNL A   1      39.248  27.480  29.875  1.00  0.00     0.029 A 
ATOM     47  C   UNL A   1      40.214  28.567  29.749  1.00  0.00     0.049 A 
ATOM     48  H   UNL A   1      42.048  28.524  28.762  1.00  0.00     0.167 HD
ATOM     49  C   UNL A   1      45.982  28.229  26.941  1.00  0.00     0.034 A 
ATOM     50  C   UNL A   1      40.055  29.806  30.254  1.00  0.00     0.034 A 
ATOM     51  C   UNL A   1      45.833  29.619  27.290  1.00  0.00     0.049 A 
ATOM     52  C   UNL A   1      41.107  30.845  29.995  1.00  0.00     0.074 A 
ATOM     53  C   UNL A   1      46.717  30.663  27.067  1.00  0.00     0.029 A 
ATOM     54  N   UNL A   1      44.735  30.160  27.939  1.00  0.00    -0.354 N 
ATOM     55  N   UNL A   1      42.226  30.733  29.321  1.00  0.00    -0.248 NA
ATOM     56  C   UNL A   1      40.858  32.194  30.527  1.00  0.00     0.031 C 
ATOM     57  C   UNL A   1      46.150  31.835  27.579  1.00  0.00     0.029 A 
ATOM     58  C   UNL A   1      44.918  31.521  28.128  1.00  0.00     0.049 A 
ATOM     59  H   UNL A   1      43.941  29.652  28.224  1.00  0.00     0.167 HD
ATOM     60  C   UNL A   1      42.803  31.995  29.328  1.00  0.00     0.074 A 
ATOM     61  C   UNL A   1      41.901  32.866  30.054  1.00  0.00     0.031 C 
ATOM     62  C   UNL A   1      43.986  32.391  28.799  1.00  0.00     0.034 A 
BRANCH  49  63
ATOM     63  C   UNL A   1      47.254  27.810  26.255  1.00  0.00     0.023 A 
ATOM     64  C   UNL A   1      48.311  27.312  27.042  1.00  0.00     0.012 A 
ATOM     65  C   UNL A   1      47.385  27.840  24.855  1.00  0.00     0.148 A 
ATOM     66  C   UNL A   1      49.489  26.865  26.445  1.00  0.00     0.002 A 
ATOM     67  C   UNL A   1      48.554  27.368  24.265  1.00  0.00     0.091 A 
ATOM     68  F   UNL A   1      46.380  28.342  24.123  1.00  0.00    -0.205 F 
ATOM     69  C   UNL A   1      49.608  26.884  25.057  1.00  0.00     0.022 A 
BRANCH  67  70
ATOM     70  S   UNL A   1      48.754  27.312  22.479  1.00  0.00     0.127 S 
ATOM     71  O   UNL A   1      48.533  25.895  22.199  1.00  0.00    -0.237 OA
ATOM     72  O   UNL A   1      47.687  28.198  22.010  1.00  0.00    -0.237 OA
ATOM     73  O   UNL A   1      50.098  27.813  22.228  1.00  0.00    -0.744 OA
ENDBRANCH  67  70
ENDBRANCH  49  63
BRANCH  50  74
ATOM     74  C   UNL A   1      38.794  30.146  30.968  1.00  0.00     0.023 A 
ATOM     75  C   UNL A   1      38.666  29.801  32.328  1.00  0.00     0.012 A 
ATOM     76  C   UNL A   1      37.761  30.865  30.341  1.00  0.00     0.148 A 
ATOM     77  C   UNL A   1      37.525  30.157  33.046  1.00  0.00     0.002 A 
ATOM     78  C   UNL A   1      36.646  31.257  31.076  1.00  0.00     0.091 A 
ATOM     79  F   UNL A   1      37.887  31.168  29.041  1.00  0.00    -0.205 F 
ATOM     80  C   UNL A   1      36.521  30.896  32.424  1.00  0.00     0.022 A 
BRANCH  78  81
ATOM     81  S   UNL A   1      35.394  32.330  30.359  1.00  0.00     0.127 S 
ATOM     82  O   UNL A   1      34.427  32.437  31.447  1.00  0.00    -0.237 OA
ATOM     83  O   UNL A   1      36.144  33.556  30.081  1.00  0.00    -0.237 OA
ATOM     84  O   UNL A   1      34.948  31.628  29.162  1.00  0.00    -0.744 OA
ENDBRANCH  78  81
ENDBRANCH  50  74
BRANCH  62  85
ATOM     85  C   UNL A   1      44.381  33.831  28.982  1.00  0.00     0.023 A 
ATOM     86  C   UNL A   1      43.994  34.775  28.011  1.00  0.00     0.012 A 
ATOM     87  C   UNL A   1      45.069  34.262  30.131  1.00  0.00     0.148 A 
ATOM     88  C   UNL A   1      44.299  36.126  28.175  1.00  0.00     0.002 A 
ATOM     89  C   UNL A   1      45.344  35.615  30.302  1.00  0.00     0.091 A 
ATOM     90  F   UNL A   1      45.456  33.346  31.032  1.00  0.00    -0.205 F 
ATOM     91  C   UNL A   1      44.964  36.548  29.324  1.00  0.00     0.022 A 
BRANCH  89  92
ATOM     92  S   UNL A   1      46.133  36.229  31.795  1.00  0.00     0.127 S 
ATOM     93  O   UNL A   1      46.068  37.676  31.598  1.00  0.00    -0.237 OA
ATOM     94  O   UNL A   1      45.262  35.720  32.856  1.00  0.00    -0.237 OA
ATOM     95  O   UNL A   1      47.467  35.643  31.790  1.00  0.00    -0.744 OA
ENDBRANCH  89  92
ENDBRANCH  62  85
ENDBRANCH  36  37
ENDBRANCH  28  31
ENDBRANCH  26  27
ENDBRANCH  25  26
ENDBRANCH   1  25
TORSDOF 18
ENDMDL
