MODEL 1
REMARK VINA RESULT:     -12.5      0.000      0.000
REMARK SMILES Cn1c(=O)[nH]c(=O)c2c1nc(NC1CCCC1)n2CC(=O)NCCCCNC(=O)c1ccc(-c2c3nc(c(-c4cccc(S(=O)(=O)[O-])c4F)c4ccc([nH]4)c(-c4cccc(S(=O)(=O)[O-])c4F)c4nc(c(-c5cccc(S(=O)(=O)[O-])c5F)c5ccc2[nH]5)C=C4)C=C3)cc1
REMARK SMILES IDX 24 1 23 2 22 3 20 4 21 5 19 7 18 8 1 9 2 10 3 11 9 12 4 13
REMARK SMILES IDX 5 14 8 15 10 16 6 17 11 19 7 20 12 21 13 23 14 24 17 25
REMARK SMILES IDX 15 26 16 27 25 28 26 29 27 30 28 31 29 33 30 34 31 35 92 36
REMARK SMILES IDX 32 37 91 38 33 39 34 40 35 41 85 42 36 43 90 44 84 45 86 46
REMARK SMILES IDX 37 47 89 48 83 49 82 50 38 52 70 53 50 54 69 55 51 56 54 57
REMARK SMILES IDX 68 58 87 59 52 60 53 61 67 63 88 64 55 65 39 66 40 67 48 68
REMARK SMILES IDX 41 69 43 70 49 71 42 72 44 73 45 74 46 75 47 76 71 77 72 78
REMARK SMILES IDX 80 79 73 80 75 81 81 82 74 83 76 84 77 85 78 86 79 87 56 88
REMARK SMILES IDX 57 89 65 90 58 91 60 92 66 93 59 94 61 95 62 96 63 97 64 98
REMARK H PARENT 22 6 5 18 12 22 27 32 86 51 54 62
REMARK Flexibility Score: inf
ROOT
ATOM      1  C   UNL A   1      36.837  20.917  24.577  1.00  0.00     0.023 C 
ENDROOT
BRANCH   1   2
ATOM      2  C   UNL A   1      35.810  21.304  25.652  1.00  0.00     0.116 C 
BRANCH   2   3
ATOM      3  N   UNL A   1      35.739  22.741  25.835  1.00  0.00    -0.355 N 
ATOM      4  C   UNL A   1      35.252  23.688  24.979  1.00  0.00     0.240 C 
ATOM      5  O   UNL A   1      35.487  24.878  25.206  1.00  0.00    -0.273 OA
ATOM      6  H   UNL A   1      36.087  23.079  26.692  1.00  0.00     0.163 HD
BRANCH   4   7
ATOM      7  C   UNL A   1      34.472  23.284  23.745  1.00  0.00     0.226 C 
BRANCH   7   8
ATOM      8  N   UNL A   1      33.089  23.720  23.796  1.00  0.00    -0.295 N 
ATOM      9  C   UNL A   1      29.085  25.979  23.856  1.00  0.00     0.157 C 
ATOM     10  N   UNL A   1      30.438  25.946  23.337  1.00  0.00    -0.279 N 
ATOM     11  C   UNL A   1      30.929  26.983  22.554  1.00  0.00     0.329 A 
ATOM     12  C   UNL A   1      31.273  24.893  23.639  1.00  0.00     0.170 A 
ATOM     13  O   UNL A   1      30.276  27.979  22.243  1.00  0.00    -0.248 OA
ATOM     14  N   UNL A   1      32.232  26.867  22.106  1.00  0.00    -0.272 N 
ATOM     15  C   UNL A   1      32.560  24.832  23.190  1.00  0.00     0.154 A 
ATOM     16  N   UNL A   1      30.960  23.839  24.430  1.00  0.00    -0.194 NA
ATOM     17  C   UNL A   1      33.105  25.835  22.347  1.00  0.00     0.279 A 
ATOM     18  H   UNL A   1      32.572  27.607  21.553  1.00  0.00     0.175 HD
ATOM     19  C   UNL A   1      32.072  23.138  24.538  1.00  0.00     0.206 A 
ATOM     20  O   UNL A   1      34.240  25.828  21.870  1.00  0.00    -0.267 OA
BRANCH  19  21
ATOM     21  N   UNL A   1      32.273  22.033  25.286  1.00  0.00    -0.353 N 
ATOM     22  H   UNL A   1      32.627  22.143  26.198  1.00  0.00     0.163 HD
BRANCH  21  23
ATOM     23  C   UNL A   1      31.994  20.689  24.812  1.00  0.00     0.082 C 
ATOM     24  C   UNL A   1      32.331  20.456  23.343  1.00  0.00     0.025 C 
ATOM     25  C   UNL A   1      32.754  19.599  25.562  1.00  0.00     0.025 C 
ATOM     26  C   UNL A   1      32.390  18.938  23.225  1.00  0.00     0.002 C 
ATOM     27  C   UNL A   1      32.838  18.424  24.592  1.00  0.00     0.002 C 
ENDBRANCH  21  23
ENDBRANCH  19  21
ENDBRANCH   7   8
ENDBRANCH   4   7
ENDBRANCH   2   3
ENDBRANCH   1   2
BRANCH   1  28
ATOM     28  C   UNL A   1      37.798  19.782  24.959  1.00  0.00     0.023 C 
BRANCH  28  29
ATOM     29  C   UNL A   1      39.044  20.245  25.696  1.00  0.00     0.116 C 
BRANCH  29  30
ATOM     30  N   UNL A   1      40.074  19.205  25.794  1.00  0.00    -0.352 N 
ATOM     31  C   UNL A   1      41.434  19.398  25.967  1.00  0.00     0.251 C 
ATOM     32  H   UNL A   1      39.766  18.272  25.729  1.00  0.00     0.163 HD
ATOM     33  O   UNL A   1      42.251  18.536  25.669  1.00  0.00    -0.269 OA
BRANCH  31  34
ATOM     34  C   UNL A   1      41.864  20.674  26.558  1.00  0.00     0.039 A 
ATOM     35  C   UNL A   1      42.450  21.695  25.803  1.00  0.00     0.014 A 
ATOM     36  C   UNL A   1      41.563  20.850  27.905  1.00  0.00     0.014 A 
ATOM     37  C   UNL A   1      42.659  22.931  26.411  1.00  0.00     0.010 A 
ATOM     38  C   UNL A   1      41.589  22.109  28.434  1.00  0.00     0.010 A 
ATOM     39  C   UNL A   1      42.209  23.131  27.724  1.00  0.00    -0.014 A 
BRANCH  39  40
ATOM     40  C   UNL A   1      42.306  24.424  28.386  1.00  0.00     0.031 A 
ATOM     41  C   UNL A   1      41.145  25.334  28.191  1.00  0.00     0.074 A 
ATOM     42  C   UNL A   1      43.269  24.664  29.304  1.00  0.00     0.049 A 
ATOM     43  N   UNL A   1      41.142  26.478  27.591  1.00  0.00    -0.248 NA
ATOM     44  C   UNL A   1      39.808  24.880  28.602  1.00  0.00     0.031 C 
ATOM     45  C   UNL A   1      44.288  23.738  29.829  1.00  0.00     0.029 A 
ATOM     46  N   UNL A   1      43.444  25.759  30.085  1.00  0.00    -0.354 N 
ATOM     47  C   UNL A   1      39.851  26.987  27.727  1.00  0.00     0.074 A 
ATOM     48  C   UNL A   1      39.039  25.894  28.198  1.00  0.00     0.031 C 
ATOM     49  C   UNL A   1      44.770  24.212  30.998  1.00  0.00     0.029 A 
ATOM     50  C   UNL A   1      44.249  25.548  31.199  1.00  0.00     0.049 A 
ATOM     51  H   UNL A   1      43.034  26.630  29.879  1.00  0.00     0.167 HD
ATOM     52  C   UNL A   1      39.600  28.323  27.634  1.00  0.00     0.034 A 
ATOM     53  C   UNL A   1      44.435  26.408  32.230  1.00  0.00     0.034 A 
ATOM     54  C   UNL A   1      40.744  29.029  27.113  1.00  0.00     0.049 A 
ATOM     55  C   UNL A   1      44.073  27.753  31.730  1.00  0.00     0.074 A 
ATOM     56  C   UNL A   1      41.442  29.009  25.923  1.00  0.00     0.029 A 
ATOM     57  N   UNL A   1      41.576  29.626  28.030  1.00  0.00    -0.354 N 
ATOM     58  N   UNL A   1      44.734  28.365  30.786  1.00  0.00    -0.248 NA
ATOM     59  C   UNL A   1      42.713  28.214  31.945  1.00  0.00     0.031 C 
ATOM     60  C   UNL A   1      42.811  29.140  26.302  1.00  0.00     0.029 A 
ATOM     61  C   UNL A   1      42.865  29.305  27.689  1.00  0.00     0.049 A 
ATOM     62  H   UNL A   1      41.298  30.183  28.793  1.00  0.00     0.167 HD
ATOM     63  C   UNL A   1      43.749  28.938  29.993  1.00  0.00     0.074 A 
ATOM     64  C   UNL A   1      42.537  28.904  30.814  1.00  0.00     0.031 C 
ATOM     65  C   UNL A   1      43.932  29.111  28.650  1.00  0.00     0.034 A 
BRANCH  52  66
ATOM     66  C   UNL A   1      38.460  29.068  28.288  1.00  0.00     0.023 A 
ATOM     67  C   UNL A   1      37.621  29.836  27.446  1.00  0.00     0.012 A 
ATOM     68  C   UNL A   1      38.316  29.261  29.680  1.00  0.00     0.148 A 
ATOM     69  C   UNL A   1      36.726  30.781  27.958  1.00  0.00     0.002 A 
ATOM     70  C   UNL A   1      37.372  30.150  30.188  1.00  0.00     0.091 A 
ATOM     71  F   UNL A   1      39.176  28.684  30.524  1.00  0.00    -0.205 F 
ATOM     72  C   UNL A   1      36.596  30.934  29.331  1.00  0.00     0.022 A 
BRANCH  70  73
ATOM     73  S   UNL A   1      37.120  30.360  31.956  1.00  0.00     0.127 S 
ATOM     74  O   UNL A   1      38.357  31.027  32.352  1.00  0.00    -0.237 OA
ATOM     75  O   UNL A   1      35.923  31.202  31.988  1.00  0.00    -0.237 OA
ATOM     76  O   UNL A   1      36.919  29.018  32.485  1.00  0.00    -0.744 OA
ENDBRANCH  70  73
ENDBRANCH  52  66
BRANCH  53  77
ATOM     77  C   UNL A   1      44.606  26.127  33.674  1.00  0.00     0.023 A 
ATOM     78  C   UNL A   1      45.874  26.286  34.267  1.00  0.00     0.012 A 
ATOM     79  C   UNL A   1      43.480  26.016  34.522  1.00  0.00     0.148 A 
ATOM     80  C   UNL A   1      46.013  26.381  35.657  1.00  0.00     0.002 A 
ATOM     81  C   UNL A   1      43.623  26.119  35.903  1.00  0.00     0.091 A 
ATOM     82  F   UNL A   1      42.266  25.908  33.968  1.00  0.00    -0.205 F 
ATOM     83  C   UNL A   1      44.887  26.313  36.473  1.00  0.00     0.022 A 
BRANCH  81  84
ATOM     84  S   UNL A   1      42.211  26.105  37.017  1.00  0.00     0.127 S 
ATOM     85  O   UNL A   1      42.851  26.291  38.319  1.00  0.00    -0.237 OA
ATOM     86  O   UNL A   1      41.444  27.252  36.541  1.00  0.00    -0.237 OA
ATOM     87  O   UNL A   1      41.576  24.804  36.840  1.00  0.00    -0.744 OA
ENDBRANCH  81  84
ENDBRANCH  53  77
BRANCH  65  88
ATOM     88  C   UNL A   1      45.305  28.826  28.077  1.00  0.00     0.023 A 
ATOM     89  C   UNL A   1      46.377  29.738  28.194  1.00  0.00     0.012 A 
ATOM     90  C   UNL A   1      45.573  27.542  27.575  1.00  0.00     0.148 A 
ATOM     91  C   UNL A   1      47.674  29.390  27.804  1.00  0.00     0.002 A 
ATOM     92  C   UNL A   1      46.872  27.181  27.232  1.00  0.00     0.091 A 
ATOM     93  F   UNL A   1      44.551  26.678  27.471  1.00  0.00    -0.205 F 
ATOM     94  C   UNL A   1      47.924  28.105  27.334  1.00  0.00     0.022 A 
BRANCH  92  95
ATOM     95  S   UNL A   1      47.283  25.503  26.748  1.00  0.00     0.127 S 
ATOM     96  O   UNL A   1      47.302  24.811  28.035  1.00  0.00    -0.237 OA
ATOM     97  O   UNL A   1      46.162  25.144  25.877  1.00  0.00    -0.237 OA
ATOM     98  O   UNL A   1      48.566  25.588  26.060  1.00  0.00    -0.744 OA
ENDBRANCH  92  95
ENDBRANCH  65  88
ENDBRANCH  39  40
ENDBRANCH  31  34
ENDBRANCH  29  30
ENDBRANCH  28  29
ENDBRANCH   1  28
TORSDOF 17
ENDMDL
MODEL 2
REMARK VINA RESULT:     -12.4      1.412      2.723
REMARK SMILES Cn1c(=O)[nH]c(=O)c2c1nc(NC1CCCC1)n2CC(=O)NCCCCNC(=O)c1ccc(-c2c3nc(c(-c4cccc(S(=O)(=O)[O-])c4F)c4ccc([nH]4)c(-c4cccc(S(=O)(=O)[O-])c4F)c4nc(c(-c5cccc(S(=O)(=O)[O-])c5F)c5ccc2[nH]5)C=C4)C=C3)cc1
REMARK SMILES IDX 24 1 23 2 22 3 20 4 21 5 19 7 18 8 1 9 2 10 3 11 9 12 4 13
REMARK SMILES IDX 5 14 8 15 10 16 6 17 11 19 7 20 12 21 13 23 14 24 17 25
REMARK SMILES IDX 15 26 16 27 25 28 26 29 27 30 28 31 29 33 30 34 31 35 92 36
REMARK SMILES IDX 32 37 91 38 33 39 34 40 35 41 85 42 36 43 90 44 84 45 86 46
REMARK SMILES IDX 37 47 89 48 83 49 82 50 38 52 70 53 50 54 69 55 51 56 54 57
REMARK SMILES IDX 68 58 87 59 52 60 53 61 67 63 88 64 55 65 39 66 40 67 48 68
REMARK SMILES IDX 41 69 43 70 49 71 42 72 44 73 45 74 46 75 47 76 71 77 72 78
REMARK SMILES IDX 80 79 73 80 75 81 81 82 74 83 76 84 77 85 78 86 79 87 56 88
REMARK SMILES IDX 57 89 65 90 58 91 60 92 66 93 59 94 61 95 62 96 63 97 64 98
REMARK H PARENT 22 6 5 18 12 22 27 32 86 51 54 62
REMARK Flexibility Score: inf
ROOT
ATOM      1  C   UNL A   1      36.424  20.260  25.089  1.00  0.00     0.023 C 
ENDROOT
BRANCH   1   2
ATOM      2  C   UNL A   1      35.927  21.703  24.906  1.00  0.00     0.116 C 
BRANCH   2   3
ATOM      3  N   UNL A   1      34.721  21.957  25.669  1.00  0.00    -0.355 N 
ATOM      4  C   UNL A   1      34.180  23.156  26.037  1.00  0.00     0.240 C 
ATOM      5  O   UNL A   1      33.279  23.174  26.880  1.00  0.00    -0.273 OA
ATOM      6  H   UNL A   1      34.224  21.158  25.960  1.00  0.00     0.163 HD
BRANCH   4   7
ATOM      7  C   UNL A   1      34.705  24.451  25.452  1.00  0.00     0.226 C 
BRANCH   7   8
ATOM      8  N   UNL A   1      33.656  25.253  24.848  1.00  0.00    -0.295 N 
ATOM      9  C   UNL A   1      30.818  27.628  22.122  1.00  0.00     0.157 C 
ATOM     10  N   UNL A   1      31.718  26.496  22.224  1.00  0.00    -0.279 N 
ATOM     11  C   UNL A   1      32.017  25.718  21.114  1.00  0.00     0.329 A 
ATOM     12  C   UNL A   1      32.318  26.193  23.427  1.00  0.00     0.170 A 
ATOM     13  O   UNL A   1      31.554  25.915  19.990  1.00  0.00    -0.248 OA
ATOM     14  N   UNL A   1      32.888  24.662  21.305  1.00  0.00    -0.272 N 
ATOM     15  C   UNL A   1      33.188  25.151  23.562  1.00  0.00     0.154 A 
ATOM     16  N   UNL A   1      32.171  26.885  24.580  1.00  0.00    -0.194 NA
ATOM     17  C   UNL A   1      33.497  24.288  22.478  1.00  0.00     0.279 A 
ATOM     18  H   UNL A   1      33.095  24.116  20.512  1.00  0.00     0.175 HD
ATOM     19  C   UNL A   1      33.000  26.322  25.438  1.00  0.00     0.206 A 
ATOM     20  O   UNL A   1      34.238  23.307  22.534  1.00  0.00    -0.267 OA
BRANCH  19  21
ATOM     21  N   UNL A   1      33.257  26.712  26.704  1.00  0.00    -0.353 N 
ATOM     22  H   UNL A   1      33.481  26.023  27.369  1.00  0.00     0.163 HD
BRANCH  21  23
ATOM     23  C   UNL A   1      33.217  28.099  27.133  1.00  0.00     0.082 C 
ATOM     24  C   UNL A   1      33.901  29.074  26.181  1.00  0.00     0.025 C 
ATOM     25  C   UNL A   1      31.806  28.652  27.308  1.00  0.00     0.025 C 
ATOM     26  C   UNL A   1      33.342  30.429  26.594  1.00  0.00     0.002 C 
ATOM     27  C   UNL A   1      31.939  30.162  27.137  1.00  0.00     0.002 C 
ENDBRANCH  21  23
ENDBRANCH  19  21
ENDBRANCH   7   8
ENDBRANCH   4   7
ENDBRANCH   2   3
ENDBRANCH   1   2
BRANCH   1  28
ATOM     28  C   UNL A   1      37.859  19.990  24.616  1.00  0.00     0.023 C 
BRANCH  28  29
ATOM     29  C   UNL A   1      38.924  20.288  25.660  1.00  0.00     0.116 C 
BRANCH  29  30
ATOM     30  N   UNL A   1      39.912  19.213  25.798  1.00  0.00    -0.352 N 
ATOM     31  C   UNL A   1      41.272  19.358  26.012  1.00  0.00     0.251 C 
ATOM     32  H   UNL A   1      39.572  18.291  25.731  1.00  0.00     0.163 HD
ATOM     33  O   UNL A   1      42.066  18.465  25.747  1.00  0.00    -0.269 OA
BRANCH  31  34
ATOM     34  C   UNL A   1      41.730  20.623  26.605  1.00  0.00     0.039 A 
ATOM     35  C   UNL A   1      42.391  21.608  25.865  1.00  0.00     0.014 A 
ATOM     36  C   UNL A   1      41.378  20.830  27.936  1.00  0.00     0.014 A 
ATOM     37  C   UNL A   1      42.625  22.843  26.466  1.00  0.00     0.010 A 
ATOM     38  C   UNL A   1      41.436  22.093  28.450  1.00  0.00     0.010 A 
ATOM     39  C   UNL A   1      42.128  23.079  27.756  1.00  0.00    -0.014 A 
BRANCH  39  40
ATOM     40  C   UNL A   1      42.251  24.376  28.407  1.00  0.00     0.031 A 
ATOM     41  C   UNL A   1      41.091  25.292  28.238  1.00  0.00     0.074 A 
ATOM     42  C   UNL A   1      43.241  24.616  29.295  1.00  0.00     0.049 A 
ATOM     43  N   UNL A   1      41.077  26.432  27.630  1.00  0.00    -0.248 NA
ATOM     44  C   UNL A   1      39.763  24.848  28.689  1.00  0.00     0.031 C 
ATOM     45  C   UNL A   1      44.269  23.687  29.798  1.00  0.00     0.029 A 
ATOM     46  N   UNL A   1      43.443  25.715  30.064  1.00  0.00    -0.354 N 
ATOM     47  C   UNL A   1      39.794  26.949  27.798  1.00  0.00     0.074 A 
ATOM     48  C   UNL A   1      38.989  25.865  28.299  1.00  0.00     0.031 C 
ATOM     49  C   UNL A   1      44.785  24.167  30.950  1.00  0.00     0.029 A 
ATOM     50  C   UNL A   1      44.278  25.507  31.156  1.00  0.00     0.049 A 
ATOM     51  H   UNL A   1      43.034  26.588  29.863  1.00  0.00     0.167 HD
ATOM     52  C   UNL A   1      39.549  28.287  27.703  1.00  0.00     0.034 A 
ATOM     53  C   UNL A   1      44.498  26.372  32.176  1.00  0.00     0.034 A 
ATOM     54  C   UNL A   1      40.682  28.982  27.145  1.00  0.00     0.049 A 
ATOM     55  C   UNL A   1      44.130  27.717  31.677  1.00  0.00     0.074 A 
ATOM     56  C   UNL A   1      41.346  28.950  25.936  1.00  0.00     0.029 A 
ATOM     57  N   UNL A   1      41.543  29.580  28.035  1.00  0.00    -0.354 N 
ATOM     58  N   UNL A   1      44.769  28.318  30.711  1.00  0.00    -0.248 NA
ATOM     59  C   UNL A   1      42.780  28.187  31.926  1.00  0.00     0.031 C 
ATOM     60  C   UNL A   1      42.726  29.075  26.276  1.00  0.00     0.029 A 
ATOM     61  C   UNL A   1      42.819  29.248  27.660  1.00  0.00     0.049 A 
ATOM     62  H   UNL A   1      41.289  30.144  28.801  1.00  0.00     0.167 HD
ATOM     63  C   UNL A   1      43.765  28.892  29.941  1.00  0.00     0.074 A 
ATOM     64  C   UNL A   1      42.577  28.871  30.795  1.00  0.00     0.031 C 
ATOM     65  C   UNL A   1      43.912  29.055  28.592  1.00  0.00     0.034 A 
BRANCH  52  66
ATOM     66  C   UNL A   1      38.431  29.043  28.383  1.00  0.00     0.023 A 
ATOM     67  C   UNL A   1      37.576  29.813  27.560  1.00  0.00     0.012 A 
ATOM     68  C   UNL A   1      38.326  29.243  29.777  1.00  0.00     0.148 A 
ATOM     69  C   UNL A   1      36.702  30.767  28.091  1.00  0.00     0.002 A 
ATOM     70  C   UNL A   1      37.402  30.141  30.306  1.00  0.00     0.091 A 
ATOM     71  F   UNL A   1      39.203  28.664  30.601  1.00  0.00    -0.205 F 
ATOM     72  C   UNL A   1      36.609  30.927  29.467  1.00  0.00     0.022 A 
BRANCH  70  73
ATOM     73  S   UNL A   1      37.198  30.361  32.080  1.00  0.00     0.127 S 
ATOM     74  O   UNL A   1      38.468  30.980  32.447  1.00  0.00    -0.237 OA
ATOM     75  O   UNL A   1      36.036  31.249  32.137  1.00  0.00    -0.237 OA
ATOM     76  O   UNL A   1      36.957  29.027  32.614  1.00  0.00    -0.744 OA
ENDBRANCH  70  73
ENDBRANCH  52  66
BRANCH  53  77
ATOM     77  C   UNL A   1      44.708  26.101  33.616  1.00  0.00     0.023 A 
ATOM     78  C   UNL A   1      46.008  26.169  34.154  1.00  0.00     0.012 A 
ATOM     79  C   UNL A   1      43.614  26.091  34.511  1.00  0.00     0.148 A 
ATOM     80  C   UNL A   1      46.213  26.273  35.535  1.00  0.00     0.002 A 
ATOM     81  C   UNL A   1      43.822  26.203  35.883  1.00  0.00     0.091 A 
ATOM     82  F   UNL A   1      42.372  26.071  34.009  1.00  0.00    -0.205 F 
ATOM     83  C   UNL A   1      45.121  26.305  36.398  1.00  0.00     0.022 A 
BRANCH  81  84
ATOM     84  S   UNL A   1      42.462  26.316  37.054  1.00  0.00     0.127 S 
ATOM     85  O   UNL A   1      41.729  25.079  36.786  1.00  0.00    -0.237 OA
ATOM     86  O   UNL A   1      43.169  26.346  38.331  1.00  0.00    -0.237 OA
ATOM     87  O   UNL A   1      41.736  27.531  36.707  1.00  0.00    -0.744 OA
ENDBRANCH  81  84
ENDBRANCH  53  77
BRANCH  65  88
ATOM     88  C   UNL A   1      45.266  28.757  27.983  1.00  0.00     0.023 A 
ATOM     89  C   UNL A   1      46.353  29.655  28.082  1.00  0.00     0.012 A 
ATOM     90  C   UNL A   1      45.505  27.474  27.464  1.00  0.00     0.148 A 
ATOM     91  C   UNL A   1      47.635  29.293  27.657  1.00  0.00     0.002 A 
ATOM     92  C   UNL A   1      46.791  27.100  27.086  1.00  0.00     0.091 A 
ATOM     93  F   UNL A   1      44.470  26.625  27.378  1.00  0.00    -0.205 F 
ATOM     94  C   UNL A   1      47.857  28.009  27.170  1.00  0.00     0.022 A 
BRANCH  92  95
ATOM     95  S   UNL A   1      47.168  25.421  26.578  1.00  0.00     0.127 S 
ATOM     96  O   UNL A   1      46.296  25.250  25.418  1.00  0.00    -0.237 OA
ATOM     97  O   UNL A   1      48.596  25.501  26.265  1.00  0.00    -0.237 OA
ATOM     98  O   UNL A   1      46.859  24.577  27.727  1.00  0.00    -0.744 OA
ENDBRANCH  92  95
ENDBRANCH  65  88
ENDBRANCH  39  40
ENDBRANCH  31  34
ENDBRANCH  29  30
ENDBRANCH  28  29
ENDBRANCH   1  28
TORSDOF 17
ENDMDL
MODEL 3
REMARK VINA RESULT:     -12.2      3.154      7.958
REMARK SMILES Cn1c(=O)[nH]c(=O)c2c1nc(NC1CCCC1)n2CC(=O)NCCCCNC(=O)c1ccc(-c2c3nc(c(-c4cccc(S(=O)(=O)[O-])c4F)c4ccc([nH]4)c(-c4cccc(S(=O)(=O)[O-])c4F)c4nc(c(-c5cccc(S(=O)(=O)[O-])c5F)c5ccc2[nH]5)C=C4)C=C3)cc1
REMARK SMILES IDX 24 1 23 2 22 3 20 4 21 5 19 7 18 8 1 9 2 10 3 11 9 12 4 13
REMARK SMILES IDX 5 14 8 15 10 16 6 17 11 19 7 20 12 21 13 23 14 24 17 25
REMARK SMILES IDX 15 26 16 27 25 28 26 29 27 30 28 31 29 33 30 34 31 35 92 36
REMARK SMILES IDX 32 37 91 38 33 39 34 40 35 41 85 42 36 43 90 44 84 45 86 46
REMARK SMILES IDX 37 47 89 48 83 49 82 50 38 52 70 53 50 54 69 55 51 56 54 57
REMARK SMILES IDX 68 58 87 59 52 60 53 61 67 63 88 64 55 65 39 66 40 67 48 68
REMARK SMILES IDX 41 69 43 70 49 71 42 72 44 73 45 74 46 75 47 76 71 77 72 78
REMARK SMILES IDX 80 79 73 80 75 81 81 82 74 83 76 84 77 85 78 86 79 87 56 88
REMARK SMILES IDX 57 89 65 90 58 91 60 92 66 93 59 94 61 95 62 96 63 97 64 98
REMARK H PARENT 22 6 5 18 12 22 27 32 86 51 54 62
REMARK Flexibility Score: inf
ROOT
ATOM      1  C   UNL A   1      31.802  29.581  26.460  1.00  0.00     0.023 C 
ENDROOT
BRANCH   1   2
ATOM      2  C   UNL A   1      32.015  28.518  27.549  1.00  0.00     0.116 C 
BRANCH   2   3
ATOM      3  N   UNL A   1      31.030  27.457  27.465  1.00  0.00    -0.355 N 
ATOM      4  C   UNL A   1      31.108  26.272  26.791  1.00  0.00     0.240 C 
ATOM      5  O   UNL A   1      30.084  25.598  26.643  1.00  0.00    -0.273 OA
ATOM      6  H   UNL A   1      30.194  27.612  27.961  1.00  0.00     0.163 HD
BRANCH   4   7
ATOM      7  C   UNL A   1      32.422  25.806  26.196  1.00  0.00     0.226 C 
BRANCH   7   8
ATOM      8  N   UNL A   1      32.237  24.836  25.133  1.00  0.00    -0.295 N 
ATOM      9  C   UNL A   1      32.113  21.168  22.365  1.00  0.00     0.157 C 
ATOM     10  N   UNL A   1      32.100  21.639  23.735  1.00  0.00    -0.279 N 
ATOM     11  C   UNL A   1      32.118  20.747  24.799  1.00  0.00     0.329 A 
ATOM     12  C   UNL A   1      32.102  22.991  24.006  1.00  0.00     0.170 A 
ATOM     13  O   UNL A   1      32.139  19.522  24.669  1.00  0.00    -0.248 OA
ATOM     14  N   UNL A   1      32.108  21.287  26.071  1.00  0.00    -0.272 N 
ATOM     15  C   UNL A   1      32.113  23.477  25.280  1.00  0.00     0.154 A 
ATOM     16  N   UNL A   1      32.139  23.980  23.083  1.00  0.00    -0.194 NA
ATOM     17  C   UNL A   1      32.082  22.618  26.409  1.00  0.00     0.279 A 
ATOM     18  H   UNL A   1      32.122  20.646  26.819  1.00  0.00     0.175 HD
ATOM     19  C   UNL A   1      32.240  25.100  23.772  1.00  0.00     0.206 A 
ATOM     20  O   UNL A   1      32.048  22.983  27.585  1.00  0.00    -0.267 OA
BRANCH  19  21
ATOM     21  N   UNL A   1      32.379  26.351  23.284  1.00  0.00    -0.353 N 
ATOM     22  H   UNL A   1      33.276  26.756  23.286  1.00  0.00     0.163 HD
BRANCH  21  23
ATOM     23  C   UNL A   1      31.271  27.129  22.760  1.00  0.00     0.082 C 
ATOM     24  C   UNL A   1      29.969  26.976  23.537  1.00  0.00     0.025 C 
ATOM     25  C   UNL A   1      31.531  28.633  22.729  1.00  0.00     0.025 C 
ATOM     26  C   UNL A   1      29.146  28.181  23.099  1.00  0.00     0.002 C 
ATOM     27  C   UNL A   1      30.151  29.282  22.766  1.00  0.00     0.002 C 
ENDBRANCH  21  23
ENDBRANCH  19  21
ENDBRANCH   7   8
ENDBRANCH   4   7
ENDBRANCH   2   3
ENDBRANCH   1   2
BRANCH   1  28
ATOM     28  C   UNL A   1      32.961  30.568  26.262  1.00  0.00     0.023 C 
BRANCH  28  29
ATOM     29  C   UNL A   1      34.062  30.451  27.304  1.00  0.00     0.116 C 
BRANCH  29  30
ATOM     30  N   UNL A   1      34.006  31.504  28.322  1.00  0.00    -0.352 N 
ATOM     31  C   UNL A   1      34.905  31.710  29.355  1.00  0.00     0.251 C 
ATOM     32  H   UNL A   1      33.249  32.132  28.266  1.00  0.00     0.163 HD
ATOM     33  O   UNL A   1      34.604  32.347  30.355  1.00  0.00    -0.269 OA
BRANCH  31  34
ATOM     34  C   UNL A   1      36.258  31.158  29.190  1.00  0.00     0.039 A 
ATOM     35  C   UNL A   1      37.397  31.964  29.108  1.00  0.00     0.014 A 
ATOM     36  C   UNL A   1      36.352  29.769  29.217  1.00  0.00     0.014 A 
ATOM     37  C   UNL A   1      38.647  31.349  29.134  1.00  0.00     0.010 A 
ATOM     38  C   UNL A   1      37.569  29.190  29.435  1.00  0.00     0.010 A 
ATOM     39  C   UNL A   1      38.720  29.960  29.314  1.00  0.00    -0.014 A 
BRANCH  39  40
ATOM     40  C   UNL A   1      39.992  29.264  29.447  1.00  0.00     0.031 A 
ATOM     41  C   UNL A   1      40.423  28.973  30.841  1.00  0.00     0.074 A 
ATOM     42  C   UNL A   1      40.598  28.713  28.371  1.00  0.00     0.049 A 
ATOM     43  N   UNL A   1      41.464  29.438  31.450  1.00  0.00    -0.248 NA
ATOM     44  C   UNL A   1      39.543  28.171  31.704  1.00  0.00     0.031 C 
ATOM     45  C   UNL A   1      40.117  28.647  26.980  1.00  0.00     0.029 A 
ATOM     46  N   UNL A   1      41.718  27.949  28.327  1.00  0.00    -0.354 N 
ATOM     47  C   UNL A   1      41.488  28.827  32.703  1.00  0.00     0.074 A 
ATOM     48  C   UNL A   1      40.201  28.202  32.867  1.00  0.00     0.031 C 
ATOM     49  C   UNL A   1      40.783  27.676  26.317  1.00  0.00     0.029 A 
ATOM     50  C   UNL A   1      41.856  27.198  27.164  1.00  0.00     0.049 A 
ATOM     51  H   UNL A   1      42.378  27.928  29.057  1.00  0.00     0.167 HD
ATOM     52  C   UNL A   1      42.644  28.716  33.417  1.00  0.00     0.034 A 
ATOM     53  C   UNL A   1      42.771  26.223  26.941  1.00  0.00     0.034 A 
ATOM     54  C   UNL A   1      43.685  29.535  32.847  1.00  0.00     0.049 A 
ATOM     55  C   UNL A   1      43.878  26.455  27.897  1.00  0.00     0.074 A 
ATOM     56  C   UNL A   1      43.860  30.889  32.647  1.00  0.00     0.029 A 
ATOM     57  N   UNL A   1      44.578  28.909  32.009  1.00  0.00    -0.354 N 
ATOM     58  N   UNL A   1      44.641  27.512  27.862  1.00  0.00    -0.248 NA
ATOM     59  C   UNL A   1      43.836  25.751  29.166  1.00  0.00     0.031 C 
ATOM     60  C   UNL A   1      44.484  30.989  31.368  1.00  0.00     0.029 A 
ATOM     61  C   UNL A   1      44.718  29.695  30.895  1.00  0.00     0.049 A 
ATOM     62  H   UNL A   1      45.034  28.053  32.179  1.00  0.00     0.167 HD
ATOM     63  C   UNL A   1      44.792  27.871  29.195  1.00  0.00     0.074 A 
ATOM     64  C   UNL A   1      44.368  26.692  29.953  1.00  0.00     0.031 C 
ATOM     65  C   UNL A   1      44.958  29.176  29.563  1.00  0.00     0.034 A 
BRANCH  52  66
ATOM     66  C   UNL A   1      42.965  27.653  34.441  1.00  0.00     0.023 A 
ATOM     67  C   UNL A   1      43.106  28.070  35.785  1.00  0.00     0.012 A 
ATOM     68  C   UNL A   1      43.380  26.338  34.133  1.00  0.00     0.148 A 
ATOM     69  C   UNL A   1      43.675  27.243  36.760  1.00  0.00     0.002 A 
ATOM     70  C   UNL A   1      43.878  25.493  35.121  1.00  0.00     0.091 A 
ATOM     71  F   UNL A   1      43.417  25.931  32.861  1.00  0.00    -0.205 F 
ATOM     72  C   UNL A   1      44.056  25.950  36.429  1.00  0.00     0.022 A 
BRANCH  70  73
ATOM     73  S   UNL A   1      44.345  23.792  34.770  1.00  0.00     0.127 S 
ATOM     74  O   UNL A   1      43.041  23.150  34.637  1.00  0.00    -0.237 OA
ATOM     75  O   UNL A   1      45.094  23.941  33.521  1.00  0.00    -0.237 OA
ATOM     76  O   UNL A   1      45.156  23.367  35.904  1.00  0.00    -0.744 OA
ENDBRANCH  70  73
ENDBRANCH  52  66
BRANCH  53  77
ATOM     77  C   UNL A   1      42.634  24.954  26.192  1.00  0.00     0.023 A 
ATOM     78  C   UNL A   1      43.595  24.614  25.219  1.00  0.00     0.012 A 
ATOM     79  C   UNL A   1      41.757  23.943  26.646  1.00  0.00     0.148 A 
ATOM     80  C   UNL A   1      43.713  23.300  24.749  1.00  0.00     0.002 A 
ATOM     81  C   UNL A   1      41.882  22.636  26.182  1.00  0.00     0.091 A 
ATOM     82  F   UNL A   1      40.868  24.245  27.602  1.00  0.00    -0.205 F 
ATOM     83  C   UNL A   1      42.867  22.309  25.242  1.00  0.00     0.022 A 
BRANCH  81  84
ATOM     84  S   UNL A   1      40.872  21.291  26.817  1.00  0.00     0.127 S 
ATOM     85  O   UNL A   1      39.608  21.504  26.111  1.00  0.00    -0.237 OA
ATOM     86  O   UNL A   1      41.627  20.120  26.383  1.00  0.00    -0.237 OA
ATOM     87  O   UNL A   1      40.796  21.494  28.258  1.00  0.00    -0.744 OA
ENDBRANCH  81  84
ENDBRANCH  53  77
BRANCH  65  88
ATOM     88  C   UNL A   1      45.152  30.204  28.469  1.00  0.00     0.023 A 
ATOM     89  C   UNL A   1      44.066  30.824  27.812  1.00  0.00     0.012 A 
ATOM     90  C   UNL A   1      46.446  30.694  28.224  1.00  0.00     0.148 A 
ATOM     91  C   UNL A   1      44.263  31.885  26.922  1.00  0.00     0.002 A 
ATOM     92  C   UNL A   1      46.636  31.779  27.376  1.00  0.00     0.091 A 
ATOM     93  F   UNL A   1      47.473  30.105  28.855  1.00  0.00    -0.205 F 
ATOM     94  C   UNL A   1      45.549  32.372  26.714  1.00  0.00     0.022 A 
BRANCH  92  95
ATOM     95  S   UNL A   1      48.248  32.538  27.170  1.00  0.00     0.127 S 
ATOM     96  O   UNL A   1      48.988  31.496  26.460  1.00  0.00    -0.237 OA
ATOM     97  O   UNL A   1      47.938  33.723  26.368  1.00  0.00    -0.237 OA
ATOM     98  O   UNL A   1      48.723  32.841  28.516  1.00  0.00    -0.744 OA
ENDBRANCH  92  95
ENDBRANCH  65  88
ENDBRANCH  39  40
ENDBRANCH  31  34
ENDBRANCH  29  30
ENDBRANCH  28  29
ENDBRANCH   1  28
TORSDOF 17
ENDMDL
