MODEL 1
REMARK VINA RESULT:     -11.9      0.000      0.000
REMARK SMILES CCN(CC)c1ccc(NC(=O)c2ccc(OC)cc2)cc1C(=O)NCCCCNC(=O)c1ccc(-c2c3nc(c(-c4cccc(S(=O)(=O)[O-])c4F)c4ccc([nH]4)c(-c4cccc(S(=O)(=O)[O-])c4F)c4nc(c(-c5cccc(S(=O)(=O)[O-])c5F)c5ccc2[nH]5)C=C4)C=C3)cc1
REMARK SMILES IDX 27 1 26 2 25 3 23 4 24 5 22 7 6 8 7 9 8 10 21 11 9 12 3 13
REMARK SMILES IDX 2 14 1 15 4 16 5 17 10 18 11 19 12 21 13 22 14 23 20 24
REMARK SMILES IDX 15 25 19 26 16 27 17 28 18 29 28 30 29 31 30 32 31 33 32 35
REMARK SMILES IDX 33 36 34 37 95 38 35 39 94 40 36 41 37 42 38 43 88 44 39 45
REMARK SMILES IDX 93 46 87 47 89 48 40 49 92 50 86 51 85 52 41 54 73 55 53 56
REMARK SMILES IDX 72 57 54 58 57 59 71 60 90 61 55 62 56 63 70 65 91 66 58 67
REMARK SMILES IDX 42 68 43 69 51 70 44 71 46 72 52 73 45 74 47 75 48 76 49 77
REMARK SMILES IDX 50 78 74 79 75 80 83 81 76 82 78 83 84 84 77 85 79 86 80 87
REMARK SMILES IDX 81 88 82 89 59 90 60 91 68 92 61 93 63 94 69 95 62 96 64 97
REMARK SMILES IDX 65 98 66 99 67 100
REMARK H PARENT 25 6 10 20 30 34 89 53 57 64
REMARK Flexibility Score: inf
ROOT
ATOM      1  C   UNL A   1      32.216  29.839  26.166  1.00  0.00     0.023 C 
ENDROOT
BRANCH   1   2
ATOM      2  C   UNL A   1      32.320  28.664  27.128  1.00  0.00     0.116 C 
BRANCH   2   3
ATOM      3  N   UNL A   1      31.328  27.621  27.101  1.00  0.00    -0.352 N 
ATOM      4  C   UNL A   1      31.382  26.432  26.382  1.00  0.00     0.253 C 
ATOM      5  O   UNL A   1      30.477  25.614  26.557  1.00  0.00    -0.269 OA
ATOM      6  H   UNL A   1      30.524  27.764  27.651  1.00  0.00     0.163 HD
BRANCH   4   7
ATOM      7  C   UNL A   1      32.422  26.138  25.323  1.00  0.00     0.065 A 
ATOM      8  C   UNL A   1      32.317  26.378  23.932  1.00  0.00     0.050 A 
ATOM      9  C   UNL A   1      33.201  25.651  23.130  1.00  0.00     0.029 A 
ATOM     10  C   UNL A   1      34.216  24.864  23.641  1.00  0.00     0.028 A 
ATOM     11  C   UNL A   1      33.607  25.511  25.824  1.00  0.00     0.042 A 
ATOM     12  C   UNL A   1      34.563  24.961  24.966  1.00  0.00     0.042 A 
BRANCH   8  13
ATOM     13  N   UNL A   1      31.453  27.259  23.291  1.00  0.00    -0.371 N 
BRANCH  13  14
ATOM     14  C   UNL A   1      29.993  27.029  23.292  1.00  0.00     0.113 C 
ATOM     15  C   UNL A   1      29.120  28.266  23.145  1.00  0.00     0.027 C 
ENDBRANCH  13  14
BRANCH  13  16
ATOM     16  C   UNL A   1      31.933  28.615  22.931  1.00  0.00     0.113 C 
ATOM     17  C   UNL A   1      33.438  28.802  22.868  1.00  0.00     0.027 C 
ENDBRANCH  13  16
ENDBRANCH   8  13
BRANCH  12  18
ATOM     18  N   UNL A   1      35.827  24.550  25.450  1.00  0.00    -0.322 N 
ATOM     19  C   UNL A   1      36.277  23.308  25.893  1.00  0.00     0.255 C 
ATOM     20  H   UNL A   1      36.504  25.263  25.479  1.00  0.00     0.170 HD
ATOM     21  O   UNL A   1      37.413  23.186  26.351  1.00  0.00    -0.269 OA
BRANCH  19  22
ATOM     22  C   UNL A   1      35.419  22.097  25.845  1.00  0.00     0.040 A 
ATOM     23  C   UNL A   1      34.492  21.902  26.875  1.00  0.00     0.017 A 
ATOM     24  C   UNL A   1      35.420  21.236  24.737  1.00  0.00     0.017 A 
ATOM     25  C   UNL A   1      33.489  20.937  26.729  1.00  0.00     0.047 A 
ATOM     26  C   UNL A   1      34.395  20.288  24.587  1.00  0.00     0.047 A 
ATOM     27  C   UNL A   1      33.402  20.171  25.562  1.00  0.00     0.118 A 
BRANCH  27  28
ATOM     28  O   UNL A   1      32.312  19.344  25.488  1.00  0.00    -0.497 OA
ATOM     29  C   UNL A   1      32.384  18.304  24.517  1.00  0.00     0.278 C 
ENDBRANCH  27  28
ENDBRANCH  19  22
ENDBRANCH  12  18
ENDBRANCH   4   7
ENDBRANCH   2   3
ENDBRANCH   1   2
BRANCH   1  30
ATOM     30  C   UNL A   1      31.845  31.194  26.775  1.00  0.00     0.023 C 
BRANCH  30  31
ATOM     31  C   UNL A   1      32.972  32.095  27.285  1.00  0.00     0.116 C 
BRANCH  31  32
ATOM     32  N   UNL A   1      32.591  33.472  27.579  1.00  0.00    -0.352 N 
ATOM     33  C   UNL A   1      33.152  34.400  28.430  1.00  0.00     0.251 C 
ATOM     34  H   UNL A   1      31.801  33.791  27.087  1.00  0.00     0.163 HD
ATOM     35  O   UNL A   1      32.647  35.520  28.516  1.00  0.00    -0.269 OA
BRANCH  33  36
ATOM     36  C   UNL A   1      34.316  34.055  29.279  1.00  0.00     0.039 A 
ATOM     37  C   UNL A   1      34.098  33.299  30.436  1.00  0.00     0.014 A 
ATOM     38  C   UNL A   1      35.613  34.446  28.946  1.00  0.00     0.014 A 
ATOM     39  C   UNL A   1      35.186  32.843  31.188  1.00  0.00     0.010 A 
ATOM     40  C   UNL A   1      36.700  33.918  29.645  1.00  0.00     0.010 A 
ATOM     41  C   UNL A   1      36.501  33.096  30.765  1.00  0.00    -0.014 A 
BRANCH  41  42
ATOM     42  C   UNL A   1      37.668  32.470  31.448  1.00  0.00     0.031 A 
ATOM     43  C   UNL A   1      38.405  31.315  30.823  1.00  0.00     0.074 A 
ATOM     44  C   UNL A   1      38.013  32.883  32.687  1.00  0.00     0.049 A 
ATOM     45  N   UNL A   1      39.405  30.619  31.301  1.00  0.00    -0.248 NA
ATOM     46  C   UNL A   1      37.944  30.866  29.500  1.00  0.00     0.031 C 
ATOM     47  C   UNL A   1      37.332  33.933  33.449  1.00  0.00     0.029 A 
ATOM     48  N   UNL A   1      39.004  32.452  33.536  1.00  0.00    -0.354 N 
ATOM     49  C   UNL A   1      39.672  29.633  30.358  1.00  0.00     0.074 A 
ATOM     50  C   UNL A   1      38.703  29.800  29.295  1.00  0.00     0.031 C 
ATOM     51  C   UNL A   1      37.925  34.066  34.645  1.00  0.00     0.029 A 
ATOM     52  C   UNL A   1      39.005  33.091  34.755  1.00  0.00     0.049 A 
ATOM     53  H   UNL A   1      39.651  31.750  33.296  1.00  0.00     0.167 HD
ATOM     54  C   UNL A   1      40.648  28.694  30.357  1.00  0.00     0.034 A 
ATOM     55  C   UNL A   1      39.777  32.910  35.846  1.00  0.00     0.034 A 
ATOM     56  C   UNL A   1      41.632  28.546  31.398  1.00  0.00     0.049 A 
ATOM     57  C   UNL A   1      40.874  31.880  35.808  1.00  0.00     0.074 A 
ATOM     58  C   UNL A   1      42.709  27.679  31.444  1.00  0.00     0.029 A 
ATOM     59  N   UNL A   1      41.651  29.269  32.579  1.00  0.00    -0.354 N 
ATOM     60  N   UNL A   1      41.210  31.068  34.836  1.00  0.00    -0.248 NA
ATOM     61  C   UNL A   1      41.724  31.770  37.003  1.00  0.00     0.031 C 
ATOM     62  C   UNL A   1      43.363  27.857  32.668  1.00  0.00     0.029 A 
ATOM     63  C   UNL A   1      42.715  28.862  33.367  1.00  0.00     0.049 A 
ATOM     64  H   UNL A   1      41.005  29.970  32.823  1.00  0.00     0.167 HD
ATOM     65  C   UNL A   1      42.330  30.377  35.286  1.00  0.00     0.074 A 
ATOM     66  C   UNL A   1      42.628  30.882  36.610  1.00  0.00     0.031 C 
ATOM     67  C   UNL A   1      43.038  29.403  34.663  1.00  0.00     0.034 A 
BRANCH  54  68
ATOM     68  C   UNL A   1      40.733  27.774  29.164  1.00  0.00     0.023 A 
ATOM     69  C   UNL A   1      39.869  26.663  29.080  1.00  0.00     0.012 A 
ATOM     70  C   UNL A   1      41.620  28.040  28.103  1.00  0.00     0.148 A 
ATOM     71  C   UNL A   1      39.915  25.807  27.980  1.00  0.00     0.002 A 
ATOM     72  C   UNL A   1      41.627  27.210  26.987  1.00  0.00     0.091 A 
ATOM     73  F   UNL A   1      42.445  29.092  28.206  1.00  0.00    -0.205 F 
ATOM     74  C   UNL A   1      40.785  26.086  26.930  1.00  0.00     0.022 A 
BRANCH  72  75
ATOM     75  S   UNL A   1      42.650  27.528  25.545  1.00  0.00     0.127 S 
ATOM     76  O   UNL A   1      42.372  26.351  24.722  1.00  0.00    -0.237 OA
ATOM     77  O   UNL A   1      42.084  28.777  25.036  1.00  0.00    -0.237 OA
ATOM     78  O   UNL A   1      44.017  27.636  26.039  1.00  0.00    -0.744 OA
ENDBRANCH  72  75
ENDBRANCH  54  68
BRANCH  55  79
ATOM     79  C   UNL A   1      39.573  33.762  37.053  1.00  0.00     0.023 A 
ATOM     80  C   UNL A   1      40.023  35.096  37.046  1.00  0.00     0.012 A 
ATOM     81  C   UNL A   1      38.920  33.264  38.197  1.00  0.00     0.148 A 
ATOM     82  C   UNL A   1      39.859  35.909  38.168  1.00  0.00     0.002 A 
ATOM     83  C   UNL A   1      38.707  34.096  39.290  1.00  0.00     0.091 A 
ATOM     84  F   UNL A   1      38.509  31.989  38.188  1.00  0.00    -0.205 F 
ATOM     85  C   UNL A   1      39.192  35.414  39.285  1.00  0.00     0.022 A 
BRANCH  83  86
ATOM     86  S   UNL A   1      37.741  33.586  40.716  1.00  0.00     0.127 S 
ATOM     87  O   UNL A   1      38.635  32.623  41.354  1.00  0.00    -0.237 OA
ATOM     88  O   UNL A   1      37.580  34.850  41.436  1.00  0.00    -0.237 OA
ATOM     89  O   UNL A   1      36.502  33.040  40.178  1.00  0.00    -0.744 OA
ENDBRANCH  83  86
ENDBRANCH  55  79
BRANCH  67  90
ATOM     90  C   UNL A   1      44.240  28.842  35.380  1.00  0.00     0.023 A 
ATOM     91  C   UNL A   1      45.518  29.388  35.149  1.00  0.00     0.012 A 
ATOM     92  C   UNL A   1      44.090  27.815  36.333  1.00  0.00     0.148 A 
ATOM     93  C   UNL A   1      46.633  28.897  35.830  1.00  0.00     0.002 A 
ATOM     94  C   UNL A   1      45.197  27.367  37.046  1.00  0.00     0.091 A 
ATOM     95  F   UNL A   1      42.869  27.295  36.526  1.00  0.00    -0.205 F 
ATOM     96  C   UNL A   1      46.470  27.897  36.785  1.00  0.00     0.022 A 
BRANCH  94  97
ATOM     97  S   UNL A   1      45.068  26.153  38.362  1.00  0.00     0.127 S 
ATOM     98  O   UNL A   1      44.651  24.959  37.627  1.00  0.00    -0.237 OA
ATOM     99  O   UNL A   1      46.437  26.105  38.876  1.00  0.00    -0.237 OA
ATOM    100  O   UNL A   1      44.088  26.679  39.303  1.00  0.00    -0.744 OA
ENDBRANCH  94  97
ENDBRANCH  67  90
ENDBRANCH  41  42
ENDBRANCH  33  36
ENDBRANCH  31  32
ENDBRANCH  30  31
ENDBRANCH   1  30
TORSDOF 20
ENDMDL
MODEL 2
REMARK VINA RESULT:     -11.7      1.778      2.722
REMARK SMILES CCN(CC)c1ccc(NC(=O)c2ccc(OC)cc2)cc1C(=O)NCCCCNC(=O)c1ccc(-c2c3nc(c(-c4cccc(S(=O)(=O)[O-])c4F)c4ccc([nH]4)c(-c4cccc(S(=O)(=O)[O-])c4F)c4nc(c(-c5cccc(S(=O)(=O)[O-])c5F)c5ccc2[nH]5)C=C4)C=C3)cc1
REMARK SMILES IDX 27 1 26 2 25 3 23 4 24 5 22 7 6 8 7 9 8 10 21 11 9 12 3 13
REMARK SMILES IDX 2 14 1 15 4 16 5 17 10 18 11 19 12 21 13 22 14 23 20 24
REMARK SMILES IDX 15 25 19 26 16 27 17 28 18 29 28 30 29 31 30 32 31 33 32 35
REMARK SMILES IDX 33 36 34 37 95 38 35 39 94 40 36 41 37 42 38 43 88 44 39 45
REMARK SMILES IDX 93 46 87 47 89 48 40 49 92 50 86 51 85 52 41 54 73 55 53 56
REMARK SMILES IDX 72 57 54 58 57 59 71 60 90 61 55 62 56 63 70 65 91 66 58 67
REMARK SMILES IDX 42 68 43 69 51 70 44 71 46 72 52 73 45 74 47 75 48 76 49 77
REMARK SMILES IDX 50 78 74 79 75 80 83 81 76 82 78 83 84 84 77 85 79 86 80 87
REMARK SMILES IDX 81 88 82 89 59 90 60 91 68 92 61 93 63 94 69 95 62 96 64 97
REMARK SMILES IDX 65 98 66 99 67 100
REMARK H PARENT 25 6 10 20 30 34 89 53 57 64
REMARK Flexibility Score: inf
ROOT
ATOM      1  C   UNL A   1      31.414  30.548  26.014  1.00  0.00     0.023 C 
ENDROOT
BRANCH   1   2
ATOM      2  C   UNL A   1      31.832  29.482  27.017  1.00  0.00     0.116 C 
BRANCH   2   3
ATOM      3  N   UNL A   1      33.027  28.710  26.792  1.00  0.00    -0.352 N 
ATOM      4  C   UNL A   1      33.164  27.602  25.964  1.00  0.00     0.253 C 
ATOM      5  O   UNL A   1      34.292  27.125  25.826  1.00  0.00    -0.269 OA
ATOM      6  H   UNL A   1      33.833  28.997  27.278  1.00  0.00     0.163 HD
BRANCH   4   7
ATOM      7  C   UNL A   1      31.998  26.888  25.315  1.00  0.00     0.065 A 
ATOM      8  C   UNL A   1      31.554  27.016  23.978  1.00  0.00     0.050 A 
ATOM      9  C   UNL A   1      30.242  26.600  23.739  1.00  0.00     0.029 A 
ATOM     10  C   UNL A   1      29.463  25.965  24.689  1.00  0.00     0.028 A 
ATOM     11  C   UNL A   1      31.269  26.034  26.203  1.00  0.00     0.042 A 
ATOM     12  C   UNL A   1      30.035  25.484  25.840  1.00  0.00     0.042 A 
BRANCH   8  13
ATOM     13  N   UNL A   1      32.281  27.488  22.890  1.00  0.00    -0.371 N 
BRANCH  13  14
ATOM     14  C   UNL A   1      32.595  28.926  22.751  1.00  0.00     0.113 C 
ATOM     15  C   UNL A   1      34.039  29.324  23.023  1.00  0.00     0.027 C 
ENDBRANCH  13  14
BRANCH  13  16
ATOM     16  C   UNL A   1      33.062  26.532  22.068  1.00  0.00     0.113 C 
ATOM     17  C   UNL A   1      33.398  25.203  22.718  1.00  0.00     0.027 C 
ENDBRANCH  13  16
ENDBRANCH   8  13
BRANCH  12  18
ATOM     18  N   UNL A   1      29.432  24.469  26.619  1.00  0.00    -0.322 N 
ATOM     19  C   UNL A   1      29.882  23.199  26.974  1.00  0.00     0.255 C 
ATOM     20  H   UNL A   1      28.542  24.700  26.970  1.00  0.00     0.170 HD
ATOM     21  O   UNL A   1      29.152  22.436  27.607  1.00  0.00    -0.269 OA
BRANCH  19  22
ATOM     22  C   UNL A   1      31.235  22.711  26.603  1.00  0.00     0.040 A 
ATOM     23  C   UNL A   1      32.241  22.752  27.574  1.00  0.00     0.017 A 
ATOM     24  C   UNL A   1      31.483  22.091  25.369  1.00  0.00     0.017 A 
ATOM     25  C   UNL A   1      33.438  22.059  27.360  1.00  0.00     0.047 A 
ATOM     26  C   UNL A   1      32.675  21.377  25.173  1.00  0.00     0.047 A 
ATOM     27  C   UNL A   1      33.634  21.322  26.188  1.00  0.00     0.118 A 
BRANCH  27  28
ATOM     28  O   UNL A   1      34.792  20.594  26.144  1.00  0.00    -0.497 OA
ATOM     29  C   UNL A   1      35.579  20.744  24.966  1.00  0.00     0.278 C 
ENDBRANCH  27  28
ENDBRANCH  19  22
ENDBRANCH  12  18
ENDBRANCH   4   7
ENDBRANCH   2   3
ENDBRANCH   1   2
BRANCH   1  30
ATOM     30  C   UNL A   1      31.204  31.962  26.563  1.00  0.00     0.023 C 
BRANCH  30  31
ATOM     31  C   UNL A   1      32.376  32.946  26.507  1.00  0.00     0.116 C 
BRANCH  31  32
ATOM     32  N   UNL A   1      32.272  34.098  27.395  1.00  0.00    -0.352 N 
ATOM     33  C   UNL A   1      33.083  34.514  28.428  1.00  0.00     0.251 C 
ATOM     34  H   UNL A   1      31.491  34.673  27.229  1.00  0.00     0.163 HD
ATOM     35  O   UNL A   1      32.790  35.535  29.050  1.00  0.00    -0.269 OA
BRANCH  33  36
ATOM     36  C   UNL A   1      34.270  33.726  28.836  1.00  0.00     0.039 A 
ATOM     37  C   UNL A   1      35.528  34.336  28.780  1.00  0.00     0.014 A 
ATOM     38  C   UNL A   1      34.162  32.411  29.288  1.00  0.00     0.014 A 
ATOM     39  C   UNL A   1      36.651  33.670  29.282  1.00  0.00     0.010 A 
ATOM     40  C   UNL A   1      35.265  31.782  29.868  1.00  0.00     0.010 A 
ATOM     41  C   UNL A   1      36.520  32.409  29.888  1.00  0.00    -0.014 A 
BRANCH  41  42
ATOM     42  C   UNL A   1      37.667  31.764  30.587  1.00  0.00     0.031 A 
ATOM     43  C   UNL A   1      38.486  30.696  29.911  1.00  0.00     0.074 A 
ATOM     44  C   UNL A   1      37.920  32.076  31.877  1.00  0.00     0.049 A 
ATOM     45  N   UNL A   1      39.482  29.994  30.389  1.00  0.00    -0.248 NA
ATOM     46  C   UNL A   1      38.123  30.352  28.527  1.00  0.00     0.031 C 
ATOM     47  C   UNL A   1      37.153  33.028  32.683  1.00  0.00     0.029 A 
ATOM     48  N   UNL A   1      38.874  31.603  32.747  1.00  0.00    -0.354 N 
ATOM     49  C   UNL A   1      39.844  29.107  29.382  1.00  0.00     0.074 A 
ATOM     50  C   UNL A   1      38.935  29.336  28.279  1.00  0.00     0.031 C 
ATOM     51  C   UNL A   1      37.667  33.074  33.922  1.00  0.00     0.029 A 
ATOM     52  C   UNL A   1      38.776  32.130  34.015  1.00  0.00     0.049 A 
ATOM     53  H   UNL A   1      39.562  30.949  32.487  1.00  0.00     0.167 HD
ATOM     54  C   UNL A   1      40.855  28.205  29.361  1.00  0.00     0.034 A 
ATOM     55  C   UNL A   1      39.487  31.878  35.132  1.00  0.00     0.034 A 
ATOM     56  C   UNL A   1      41.778  27.997  30.446  1.00  0.00     0.049 A 
ATOM     57  C   UNL A   1      40.625  30.894  35.073  1.00  0.00     0.074 A 
ATOM     58  C   UNL A   1      42.885  27.167  30.484  1.00  0.00     0.029 A 
ATOM     59  N   UNL A   1      41.698  28.612  31.684  1.00  0.00    -0.354 N 
ATOM     60  N   UNL A   1      41.051  30.184  34.058  1.00  0.00    -0.248 NA
ATOM     61  C   UNL A   1      41.405  30.705  36.306  1.00  0.00     0.031 C 
ATOM     62  C   UNL A   1      43.456  27.257  31.758  1.00  0.00     0.029 A 
ATOM     63  C   UNL A   1      42.728  28.172  32.500  1.00  0.00     0.049 A 
ATOM     64  H   UNL A   1      41.011  29.266  31.947  1.00  0.00     0.167 HD
ATOM     65  C   UNL A   1      42.167  29.494  34.515  1.00  0.00     0.074 A 
ATOM     66  C   UNL A   1      42.365  29.888  35.895  1.00  0.00     0.031 C 
ATOM     67  C   UNL A   1      42.950  28.605  33.856  1.00  0.00     0.034 A 
BRANCH  54  68
ATOM     68  C   UNL A   1      41.048  27.400  28.100  1.00  0.00     0.023 A 
ATOM     69  C   UNL A   1      41.601  28.018  26.959  1.00  0.00     0.012 A 
ATOM     70  C   UNL A   1      40.742  26.026  28.059  1.00  0.00     0.148 A 
ATOM     71  C   UNL A   1      41.807  27.293  25.785  1.00  0.00     0.002 A 
ATOM     72  C   UNL A   1      40.995  25.298  26.901  1.00  0.00     0.091 A 
ATOM     73  F   UNL A   1      40.203  25.458  29.148  1.00  0.00    -0.205 F 
ATOM     74  C   UNL A   1      41.513  25.932  25.760  1.00  0.00     0.022 A 
BRANCH  72  75
ATOM     75  S   UNL A   1      40.731  23.525  26.792  1.00  0.00     0.127 S 
ATOM     76  O   UNL A   1      41.671  23.152  25.736  1.00  0.00    -0.237 OA
ATOM     77  O   UNL A   1      41.107  23.074  28.131  1.00  0.00    -0.237 OA
ATOM     78  O   UNL A   1      39.322  23.348  26.464  1.00  0.00    -0.744 OA
ENDBRANCH  72  75
ENDBRANCH  54  68
BRANCH  55  79
ATOM     79  C   UNL A   1      39.177  32.610  36.394  1.00  0.00     0.023 A 
ATOM     80  C   UNL A   1      39.752  33.876  36.621  1.00  0.00     0.012 A 
ATOM     81  C   UNL A   1      38.304  32.069  37.357  1.00  0.00     0.148 A 
ATOM     82  C   UNL A   1      39.490  34.574  37.801  1.00  0.00     0.002 A 
ATOM     83  C   UNL A   1      38.001  32.795  38.502  1.00  0.00     0.091 A 
ATOM     84  F   UNL A   1      37.776  30.859  37.126  1.00  0.00    -0.205 F 
ATOM     85  C   UNL A   1      38.608  34.040  38.735  1.00  0.00     0.022 A 
BRANCH  83  86
ATOM     86  S   UNL A   1      36.774  32.248  39.695  1.00  0.00     0.127 S 
ATOM     87  O   UNL A   1      35.541  32.343  38.920  1.00  0.00    -0.237 OA
ATOM     88  O   UNL A   1      37.221  30.885  39.981  1.00  0.00    -0.237 OA
ATOM     89  O   UNL A   1      36.886  33.164  40.822  1.00  0.00    -0.744 OA
ENDBRANCH  83  86
ENDBRANCH  55  79
BRANCH  67  90
ATOM     90  C   UNL A   1      44.128  28.022  34.596  1.00  0.00     0.023 A 
ATOM     91  C   UNL A   1      45.364  28.700  34.600  1.00  0.00     0.012 A 
ATOM     92  C   UNL A   1      43.989  26.835  35.342  1.00  0.00     0.148 A 
ATOM     93  C   UNL A   1      46.451  28.186  35.307  1.00  0.00     0.002 A 
ATOM     94  C   UNL A   1      45.061  26.357  36.086  1.00  0.00     0.091 A 
ATOM     95  F   UNL A   1      42.811  26.194  35.311  1.00  0.00    -0.205 F 
ATOM     96  C   UNL A   1      46.296  27.023  36.058  1.00  0.00     0.022 A 
BRANCH  94  97
ATOM     97  S   UNL A   1      44.927  24.924  37.159  1.00  0.00     0.127 S 
ATOM     98  O   UNL A   1      43.869  25.338  38.080  1.00  0.00    -0.237 OA
ATOM     99  O   UNL A   1      44.540  23.870  36.221  1.00  0.00    -0.237 OA
ATOM    100  O   UNL A   1      46.241  24.745  37.760  1.00  0.00    -0.744 OA
ENDBRANCH  94  97
ENDBRANCH  67  90
ENDBRANCH  41  42
ENDBRANCH  33  36
ENDBRANCH  31  32
ENDBRANCH  30  31
ENDBRANCH   1  30
TORSDOF 20
ENDMDL
MODEL 3
REMARK VINA RESULT:     -11.3      2.654      7.994
REMARK SMILES CCN(CC)c1ccc(NC(=O)c2ccc(OC)cc2)cc1C(=O)NCCCCNC(=O)c1ccc(-c2c3nc(c(-c4cccc(S(=O)(=O)[O-])c4F)c4ccc([nH]4)c(-c4cccc(S(=O)(=O)[O-])c4F)c4nc(c(-c5cccc(S(=O)(=O)[O-])c5F)c5ccc2[nH]5)C=C4)C=C3)cc1
REMARK SMILES IDX 27 1 26 2 25 3 23 4 24 5 22 7 6 8 7 9 8 10 21 11 9 12 3 13
REMARK SMILES IDX 2 14 1 15 4 16 5 17 10 18 11 19 12 21 13 22 14 23 20 24
REMARK SMILES IDX 15 25 19 26 16 27 17 28 18 29 28 30 29 31 30 32 31 33 32 35
REMARK SMILES IDX 33 36 34 37 95 38 35 39 94 40 36 41 37 42 38 43 88 44 39 45
REMARK SMILES IDX 93 46 87 47 89 48 40 49 92 50 86 51 85 52 41 54 73 55 53 56
REMARK SMILES IDX 72 57 54 58 57 59 71 60 90 61 55 62 56 63 70 65 91 66 58 67
REMARK SMILES IDX 42 68 43 69 51 70 44 71 46 72 52 73 45 74 47 75 48 76 49 77
REMARK SMILES IDX 50 78 74 79 75 80 83 81 76 82 78 83 84 84 77 85 79 86 80 87
REMARK SMILES IDX 81 88 82 89 59 90 60 91 68 92 61 93 63 94 69 95 62 96 64 97
REMARK SMILES IDX 65 98 66 99 67 100
REMARK H PARENT 25 6 10 20 30 34 89 53 57 64
REMARK Flexibility Score: inf
ROOT
ATOM      1  C   UNL A   1      32.403  27.347  26.746  1.00  0.00     0.023 C 
ENDROOT
BRANCH   1   2
ATOM      2  C   UNL A   1      31.498  26.181  26.376  1.00  0.00     0.116 C 
BRANCH   2   3
ATOM      3  N   UNL A   1      30.567  26.309  25.285  1.00  0.00    -0.352 N 
ATOM      4  C   UNL A   1      30.479  25.496  24.161  1.00  0.00     0.253 C 
ATOM      5  O   UNL A   1      29.554  25.704  23.373  1.00  0.00    -0.269 OA
ATOM      6  H   UNL A   1      29.925  27.052  25.341  1.00  0.00     0.163 HD
BRANCH   4   7
ATOM      7  C   UNL A   1      31.511  24.450  23.797  1.00  0.00     0.065 A 
ATOM      8  C   UNL A   1      32.634  24.616  22.951  1.00  0.00     0.050 A 
ATOM      9  C   UNL A   1      33.178  23.436  22.439  1.00  0.00     0.029 A 
ATOM     10  C   UNL A   1      32.765  22.177  22.834  1.00  0.00     0.028 A 
ATOM     11  C   UNL A   1      31.258  23.159  24.357  1.00  0.00     0.042 A 
ATOM     12  C   UNL A   1      31.969  22.028  23.942  1.00  0.00     0.042 A 
BRANCH   8  13
ATOM     13  N   UNL A   1      33.254  25.810  22.596  1.00  0.00    -0.371 N 
BRANCH  13  14
ATOM     14  C   UNL A   1      32.954  26.468  21.307  1.00  0.00     0.113 C 
ATOM     15  C   UNL A   1      32.152  25.648  20.308  1.00  0.00     0.027 C 
ENDBRANCH  13  14
BRANCH  13  16
ATOM     16  C   UNL A   1      33.920  26.622  23.643  1.00  0.00     0.113 C 
ATOM     17  C   UNL A   1      33.897  28.126  23.446  1.00  0.00     0.027 C 
ENDBRANCH  13  16
ENDBRANCH   8  13
BRANCH  12  18
ATOM     18  N   UNL A   1      31.877  20.808  24.651  1.00  0.00    -0.322 N 
ATOM     19  C   UNL A   1      32.814  20.129  25.427  1.00  0.00     0.255 C 
ATOM     20  H   UNL A   1      31.002  20.362  24.584  1.00  0.00     0.170 HD
ATOM     21  O   UNL A   1      32.545  19.025  25.901  1.00  0.00    -0.269 OA
BRANCH  19  22
ATOM     22  C   UNL A   1      34.160  20.690  25.707  1.00  0.00     0.040 A 
ATOM     23  C   UNL A   1      35.252  20.175  25.000  1.00  0.00     0.017 A 
ATOM     24  C   UNL A   1      34.335  21.802  26.546  1.00  0.00     0.017 A 
ATOM     25  C   UNL A   1      36.476  20.852  25.029  1.00  0.00     0.047 A 
ATOM     26  C   UNL A   1      35.560  22.489  26.548  1.00  0.00     0.047 A 
ATOM     27  C   UNL A   1      36.616  22.040  25.752  1.00  0.00     0.118 A 
BRANCH  27  28
ATOM     28  O   UNL A   1      37.824  22.670  25.610  1.00  0.00    -0.497 OA
ATOM     29  C   UNL A   1      37.898  23.999  26.117  1.00  0.00     0.278 C 
ENDBRANCH  27  28
ENDBRANCH  19  22
ENDBRANCH  12  18
ENDBRANCH   4   7
ENDBRANCH   2   3
ENDBRANCH   1   2
BRANCH   1  30
ATOM     30  C   UNL A   1      31.762  28.737  26.757  1.00  0.00     0.023 C 
BRANCH  30  31
ATOM     31  C   UNL A   1      32.436  29.856  25.957  1.00  0.00     0.116 C 
BRANCH  31  32
ATOM     32  N   UNL A   1      32.274  31.200  26.500  1.00  0.00    -0.352 N 
ATOM     33  C   UNL A   1      33.117  31.963  27.279  1.00  0.00     0.251 C 
ATOM     34  H   UNL A   1      31.421  31.634  26.272  1.00  0.00     0.163 HD
ATOM     35  O   UNL A   1      32.761  33.090  27.625  1.00  0.00    -0.269 OA
BRANCH  33  36
ATOM     36  C   UNL A   1      34.418  31.431  27.750  1.00  0.00     0.039 A 
ATOM     37  C   UNL A   1      35.457  32.334  28.003  1.00  0.00     0.014 A 
ATOM     38  C   UNL A   1      34.623  30.068  27.962  1.00  0.00     0.014 A 
ATOM     39  C   UNL A   1      36.651  31.882  28.574  1.00  0.00     0.010 A 
ATOM     40  C   UNL A   1      35.779  29.631  28.612  1.00  0.00     0.010 A 
ATOM     41  C   UNL A   1      36.801  30.535  28.942  1.00  0.00    -0.014 A 
BRANCH  41  42
ATOM     42  C   UNL A   1      37.989  30.070  29.712  1.00  0.00     0.031 A 
ATOM     43  C   UNL A   1      38.249  30.566  31.110  1.00  0.00     0.074 A 
ATOM     44  C   UNL A   1      38.894  29.264  29.116  1.00  0.00     0.049 A 
ATOM     45  N   UNL A   1      39.258  30.308  31.902  1.00  0.00    -0.248 NA
ATOM     46  C   UNL A   1      37.261  31.493  31.685  1.00  0.00     0.031 C 
ATOM     47  C   UNL A   1      38.813  28.777  27.737  1.00  0.00     0.029 A 
ATOM     48  N   UNL A   1      40.074  28.736  29.582  1.00  0.00    -0.354 N 
ATOM     49  C   UNL A   1      39.047  31.061  33.051  1.00  0.00     0.074 A 
ATOM     50  C   UNL A   1      37.830  31.814  32.838  1.00  0.00     0.031 C 
ATOM     51  C   UNL A   1      39.890  28.021  27.471  1.00  0.00     0.029 A 
ATOM     52  C   UNL A   1      40.758  27.996  28.644  1.00  0.00     0.049 A 
ATOM     53  H   UNL A   1      40.401  28.875  30.500  1.00  0.00     0.167 HD
ATOM     54  C   UNL A   1      39.778  31.103  34.191  1.00  0.00     0.034 A 
ATOM     55  C   UNL A   1      41.952  27.375  28.711  1.00  0.00     0.034 A 
ATOM     56  C   UNL A   1      40.972  30.331  34.418  1.00  0.00     0.049 A 
ATOM     57  C   UNL A   1      42.730  27.412  29.999  1.00  0.00     0.074 A 
ATOM     58  C   UNL A   1      41.732  30.244  35.571  1.00  0.00     0.029 A 
ATOM     59  N   UNL A   1      41.588  29.526  33.473  1.00  0.00    -0.354 N 
ATOM     60  N   UNL A   1      42.427  28.000  31.129  1.00  0.00    -0.248 NA
ATOM     61  C   UNL A   1      43.996  26.665  30.033  1.00  0.00     0.031 C 
ATOM     62  C   UNL A   1      42.825  29.409  35.313  1.00  0.00     0.029 A 
ATOM     63  C   UNL A   1      42.725  28.947  34.011  1.00  0.00     0.049 A 
ATOM     64  H   UNL A   1      41.264  29.386  32.553  1.00  0.00     0.167 HD
ATOM     65  C   UNL A   1      43.442  27.666  32.018  1.00  0.00     0.074 A 
ATOM     66  C   UNL A   1      44.359  26.805  31.301  1.00  0.00     0.031 C 
ATOM     67  C   UNL A   1      43.607  28.050  33.308  1.00  0.00     0.034 A 
BRANCH  54  68
ATOM     68  C   UNL A   1      39.279  31.983  35.310  1.00  0.00     0.023 A 
ATOM     69  C   UNL A   1      38.309  31.487  36.206  1.00  0.00     0.012 A 
ATOM     70  C   UNL A   1      39.809  33.273  35.513  1.00  0.00     0.148 A 
ATOM     71  C   UNL A   1      37.844  32.273  37.259  1.00  0.00     0.002 A 
ATOM     72  C   UNL A   1      39.375  34.033  36.593  1.00  0.00     0.091 A 
ATOM     73  F   UNL A   1      40.718  33.735  34.643  1.00  0.00    -0.205 F 
ATOM     74  C   UNL A   1      38.384  33.541  37.458  1.00  0.00     0.022 A 
BRANCH  72  75
ATOM     75  S   UNL A   1      40.065  35.643  36.988  1.00  0.00     0.127 S 
ATOM     76  O   UNL A   1      41.496  35.345  37.043  1.00  0.00    -0.237 OA
ATOM     77  O   UNL A   1      39.654  36.445  35.836  1.00  0.00    -0.237 OA
ATOM     78  O   UNL A   1      39.461  36.041  38.253  1.00  0.00    -0.744 OA
ENDBRANCH  72  75
ENDBRANCH  54  68
BRANCH  55  79
ATOM     79  C   UNL A   1      42.465  26.617  27.533  1.00  0.00     0.023 A 
ATOM     80  C   UNL A   1      43.252  27.279  26.571  1.00  0.00     0.012 A 
ATOM     81  C   UNL A   1      42.196  25.245  27.372  1.00  0.00     0.148 A 
ATOM     82  C   UNL A   1      43.731  26.597  25.451  1.00  0.00     0.002 A 
ATOM     83  C   UNL A   1      42.724  24.557  26.286  1.00  0.00     0.091 A 
ATOM     84  F   UNL A   1      41.436  24.636  28.294  1.00  0.00    -0.205 F 
ATOM     85  C   UNL A   1      43.477  25.235  25.314  1.00  0.00     0.022 A 
BRANCH  83  86
ATOM     86  S   UNL A   1      42.562  22.778  26.099  1.00  0.00     0.127 S 
ATOM     87  O   UNL A   1      41.116  22.598  26.199  1.00  0.00    -0.237 OA
ATOM     88  O   UNL A   1      43.120  22.565  24.764  1.00  0.00    -0.237 OA
ATOM     89  O   UNL A   1      43.349  22.196  27.178  1.00  0.00    -0.744 OA
ENDBRANCH  83  86
ENDBRANCH  55  79
BRANCH  67  90
ATOM     90  C   UNL A   1      44.799  27.508  34.055  1.00  0.00     0.023 A 
ATOM     91  C   UNL A   1      44.698  26.292  34.761  1.00  0.00     0.012 A 
ATOM     92  C   UNL A   1      46.041  28.174  34.002  1.00  0.00     0.148 A 
ATOM     93  C   UNL A   1      45.803  25.766  35.429  1.00  0.00     0.002 A 
ATOM     94  C   UNL A   1      47.150  27.616  34.627  1.00  0.00     0.091 A 
ATOM     95  F   UNL A   1      46.114  29.339  33.342  1.00  0.00    -0.205 F 
ATOM     96  C   UNL A   1      47.029  26.421  35.352  1.00  0.00     0.022 A 
BRANCH  94  97
ATOM     97  S   UNL A   1      48.790  28.337  34.500  1.00  0.00     0.127 S 
ATOM     98  O   UNL A   1      49.588  27.406  35.297  1.00  0.00    -0.237 OA
ATOM     99  O   UNL A   1      49.043  28.280  33.060  1.00  0.00    -0.237 OA
ATOM    100  O   UNL A   1      48.681  29.685  35.041  1.00  0.00    -0.744 OA
ENDBRANCH  94  97
ENDBRANCH  67  90
ENDBRANCH  41  42
ENDBRANCH  33  36
ENDBRANCH  31  32
ENDBRANCH  30  31
ENDBRANCH   1  30
TORSDOF 20
ENDMDL
