MODEL 1
REMARK VINA RESULT:     -12.0      0.000      0.000
REMARK SMILES O=C(NCCCCNC(=O)[C@H](Cc1ccc(O)cc1)NC(=O)c1ccc(Cl)s1)c1ccc(-c2c3nc(c(-c4cccc(S(=O)(=O)[O-])c4F)c4ccc([nH]4)c(-c4cccc(S(=O)(=O)[O-])c4F)c4nc(c(-c5cccc(S(=O)(=O)[O-])c5F)c5ccc2[nH]5)C=C4)C=C3)cc1
REMARK SMILES IDX 5 1 4 2 3 3 1 4 2 5 29 7 30 8 91 9 31 10 90 11 32 12 33 13
REMARK SMILES IDX 34 14 84 15 35 16 89 17 83 18 85 19 36 20 88 21 82 22 81 23
REMARK SMILES IDX 37 25 69 26 49 27 68 28 50 29 53 30 67 31 86 32 51 33 52 34
REMARK SMILES IDX 66 36 87 37 54 38 38 39 39 40 47 41 40 42 42 43 48 44 41 45
REMARK SMILES IDX 43 46 44 47 45 48 46 49 70 50 71 51 79 52 72 53 74 54 80 55
REMARK SMILES IDX 73 56 75 57 76 58 77 59 78 60 55 61 56 62 64 63 57 64 59 65
REMARK SMILES IDX 65 66 58 67 60 68 61 69 62 70 63 71 6 72 7 73 8 74 9 75
REMARK SMILES IDX 10 77 11 78 20 79 21 80 22 82 23 83 24 84 28 85 25 86 26 87
REMARK SMILES IDX 27 88 12 89 13 90 14 91 19 92 15 93 18 94 16 95 17 96
REMARK H PARENT 3 6 85 24 53 35 8 76 20 81 17 97
REMARK Flexibility Score: inf
ROOT
ATOM      1  C   UNL A   1      31.771  29.062  26.395  1.00  0.00     0.023 C 
ENDROOT
BRANCH   1   2
ATOM      2  C   UNL A   1      32.911  30.026  26.090  1.00  0.00     0.116 C 
BRANCH   2   3
ATOM      3  N   UNL A   1      32.612  31.402  26.477  1.00  0.00    -0.352 N 
ATOM      4  O   UNL A   1      32.857  33.299  27.687  1.00  0.00    -0.269 OA
ATOM      5  C   UNL A   1      33.305  32.213  27.346  1.00  0.00     0.251 C 
ATOM      6  H   UNL A   1      31.812  31.800  26.063  1.00  0.00     0.163 HD
BRANCH   5   7
ATOM      7  C   UNL A   1      34.593  31.714  27.861  1.00  0.00     0.039 A 
ATOM      8  C   UNL A   1      34.647  30.422  28.386  1.00  0.00     0.014 A 
ATOM      9  C   UNL A   1      35.690  32.571  27.942  1.00  0.00     0.014 A 
ATOM     10  C   UNL A   1      35.731  30.056  29.164  1.00  0.00     0.010 A 
ATOM     11  C   UNL A   1      36.835  32.145  28.619  1.00  0.00     0.010 A 
ATOM     12  C   UNL A   1      36.850  30.899  29.266  1.00  0.00    -0.014 A 
BRANCH  12  13
ATOM     13  C   UNL A   1      38.055  30.400  29.974  1.00  0.00     0.031 A 
ATOM     14  C   UNL A   1      38.392  30.832  31.373  1.00  0.00     0.074 A 
ATOM     15  C   UNL A   1      38.849  29.531  29.317  1.00  0.00     0.049 A 
ATOM     16  N   UNL A   1      39.414  30.485  32.111  1.00  0.00    -0.248 NA
ATOM     17  C   UNL A   1      37.474  31.778  32.029  1.00  0.00     0.031 C 
ATOM     18  C   UNL A   1      38.630  29.067  27.944  1.00  0.00     0.029 A 
ATOM     19  N   UNL A   1      39.989  28.881  29.706  1.00  0.00    -0.354 N 
ATOM     20  C   UNL A   1      39.292  31.197  33.299  1.00  0.00     0.074 A 
ATOM     21  C   UNL A   1      38.094  32.001  33.183  1.00  0.00     0.031 C 
ATOM     22  C   UNL A   1      39.580  28.182  27.618  1.00  0.00     0.029 A 
ATOM     23  C   UNL A   1      40.522  28.081  28.724  1.00  0.00     0.049 A 
ATOM     24  H   UNL A   1      40.389  28.978  30.602  1.00  0.00     0.167 HD
ATOM     25  C   UNL A   1      40.100  31.171  34.386  1.00  0.00     0.034 A 
ATOM     26  C   UNL A   1      41.662  27.369  28.695  1.00  0.00     0.034 A 
ATOM     27  C   UNL A   1      41.280  30.350  34.494  1.00  0.00     0.049 A 
ATOM     28  C   UNL A   1      42.540  27.372  29.909  1.00  0.00     0.074 A 
ATOM     29  C   UNL A   1      42.138  30.214  35.571  1.00  0.00     0.029 A 
ATOM     30  N   UNL A   1      41.776  29.535  33.486  1.00  0.00    -0.354 N 
ATOM     31  N   UNL A   1      42.353  27.972  31.059  1.00  0.00    -0.248 NA
ATOM     32  C   UNL A   1      43.775  26.583  29.831  1.00  0.00     0.031 C 
ATOM     33  C   UNL A   1      43.173  29.347  35.202  1.00  0.00     0.029 A 
ATOM     34  C   UNL A   1      42.936  28.908  33.910  1.00  0.00     0.049 A 
ATOM     35  H   UNL A   1      41.364  29.420  32.600  1.00  0.00     0.167 HD
ATOM     36  C   UNL A   1      43.431  27.609  31.855  1.00  0.00     0.074 A 
ATOM     37  C   UNL A   1      44.252  26.717  31.060  1.00  0.00     0.031 C 
ATOM     38  C   UNL A   1      43.721  27.991  33.122  1.00  0.00     0.034 A 
BRANCH  25  39
ATOM     39  C   UNL A   1      39.736  32.044  35.562  1.00  0.00     0.023 A 
ATOM     40  C   UNL A   1      40.262  33.347  35.660  1.00  0.00     0.012 A 
ATOM     41  C   UNL A   1      38.813  31.601  36.532  1.00  0.00     0.148 A 
ATOM     42  C   UNL A   1      39.905  34.183  36.718  1.00  0.00     0.002 A 
ATOM     43  C   UNL A   1      38.425  32.455  37.558  1.00  0.00     0.091 A 
ATOM     44  F   UNL A   1      38.332  30.353  36.433  1.00  0.00    -0.205 F 
ATOM     45  C   UNL A   1      38.979  33.741  37.659  1.00  0.00     0.022 A 
BRANCH  43  46
ATOM     46  S   UNL A   1      37.181  32.011  38.776  1.00  0.00     0.127 S 
ATOM     47  O   UNL A   1      37.841  32.393  40.024  1.00  0.00    -0.237 OA
ATOM     48  O   UNL A   1      36.058  32.868  38.394  1.00  0.00    -0.237 OA
ATOM     49  O   UNL A   1      36.943  30.584  38.608  1.00  0.00    -0.744 OA
ENDBRANCH  43  46
ENDBRANCH  25  39
BRANCH  26  50
ATOM     50  C   UNL A   1      42.013  26.587  27.479  1.00  0.00     0.023 A 
ATOM     51  C   UNL A   1      42.626  27.234  26.390  1.00  0.00     0.012 A 
ATOM     52  C   UNL A   1      41.788  25.197  27.418  1.00  0.00     0.148 A 
ATOM     53  C   UNL A   1      42.982  26.515  25.248  1.00  0.00     0.002 A 
ATOM     54  C   UNL A   1      42.202  24.478  26.305  1.00  0.00     0.091 A 
ATOM     55  F   UNL A   1      41.200  24.602  28.466  1.00  0.00    -0.205 F 
ATOM     56  C   UNL A   1      42.781  25.138  25.211  1.00  0.00     0.022 A 
BRANCH  54  57
ATOM     57  S   UNL A   1      42.115  22.686  26.231  1.00  0.00     0.127 S 
ATOM     58  O   UNL A   1      40.676  22.455  26.323  1.00  0.00    -0.237 OA
ATOM     59  O   UNL A   1      42.702  22.410  24.920  1.00  0.00    -0.237 OA
ATOM     60  O   UNL A   1      42.905  22.206  27.356  1.00  0.00    -0.744 OA
ENDBRANCH  54  57
ENDBRANCH  26  50
BRANCH  38  61
ATOM     61  C   UNL A   1      44.961  27.410  33.748  1.00  0.00     0.023 A 
ATOM     62  C   UNL A   1      46.194  28.083  33.629  1.00  0.00     0.012 A 
ATOM     63  C   UNL A   1      44.891  26.223  34.502  1.00  0.00     0.148 A 
ATOM     64  C   UNL A   1      47.344  27.563  34.220  1.00  0.00     0.002 A 
ATOM     65  C   UNL A   1      46.029  25.739  35.133  1.00  0.00     0.091 A 
ATOM     66  F   UNL A   1      43.712  25.588  34.585  1.00  0.00    -0.205 F 
ATOM     67  C   UNL A   1      47.260  26.399  34.981  1.00  0.00     0.022 A 
BRANCH  65  68
ATOM     68  S   UNL A   1      45.997  24.305  36.212  1.00  0.00     0.127 S 
ATOM     69  O   UNL A   1      47.422  24.063  36.429  1.00  0.00    -0.237 OA
ATOM     70  O   UNL A   1      45.279  24.815  37.381  1.00  0.00    -0.237 OA
ATOM     71  O   UNL A   1      45.294  23.262  35.478  1.00  0.00    -0.744 OA
ENDBRANCH  65  68
ENDBRANCH  38  61
ENDBRANCH  12  13
ENDBRANCH   5   7
ENDBRANCH   2   3
ENDBRANCH   1   2
BRANCH   1  72
ATOM     72  C   UNL A   1      32.153  27.907  27.311  1.00  0.00     0.023 C 
BRANCH  72  73
ATOM     73  C   UNL A   1      32.321  26.593  26.573  1.00  0.00     0.116 C 
BRANCH  73  74
ATOM     74  N   UNL A   1      31.413  25.558  27.033  1.00  0.00    -0.354 N 
ATOM     75  C   UNL A   1      30.943  24.473  26.347  1.00  0.00     0.242 C 
ATOM     76  H   UNL A   1      31.096  25.648  27.961  1.00  0.00     0.163 HD
ATOM     77  O   UNL A   1      30.357  23.581  26.965  1.00  0.00    -0.273 OA
BRANCH  75  78
ATOM     78  C   UNL A   1      31.121  24.380  24.819  1.00  0.00     0.176 C 
BRANCH  78  79
ATOM     79  N   UNL A   1      31.255  22.933  24.570  1.00  0.00    -0.339 N 
ATOM     80  C   UNL A   1      32.341  22.103  24.638  1.00  0.00     0.262 C 
ATOM     81  H   UNL A   1      30.417  22.486  24.309  1.00  0.00     0.164 HD
ATOM     82  O   UNL A   1      32.107  20.898  24.710  1.00  0.00    -0.268 OA
BRANCH  80  83
ATOM     83  C   UNL A   1      33.671  22.652  24.520  1.00  0.00     0.093 A 
ATOM     84  C   UNL A   1      34.433  22.983  23.415  1.00  0.00     0.027 A 
ATOM     85  S   UNL A   1      34.500  23.005  25.984  1.00  0.00    -0.118 S 
ATOM     86  C   UNL A   1      35.741  23.428  23.781  1.00  0.00     0.033 A 
ATOM     87  C   UNL A   1      35.886  23.472  25.142  1.00  0.00     0.094 A 
ATOM     88  Cl  UNL A   1      37.287  23.940  26.016  1.00  0.00    -0.072 Cl
ENDBRANCH  80  83
ENDBRANCH  78  79
BRANCH  78  89
ATOM     89  C   UNL A   1      30.064  25.083  23.919  1.00  0.00     0.070 C 
BRANCH  89  90
ATOM     90  C   UNL A   1      30.287  26.529  23.514  1.00  0.00    -0.045 A 
ATOM     91  C   UNL A   1      31.586  26.978  23.209  1.00  0.00     0.007 A 
ATOM     92  C   UNL A   1      29.219  27.426  23.360  1.00  0.00     0.007 A 
ATOM     93  C   UNL A   1      31.791  28.230  22.622  1.00  0.00     0.046 A 
ATOM     94  C   UNL A   1      29.423  28.671  22.761  1.00  0.00     0.046 A 
ATOM     95  C   UNL A   1      30.700  29.049  22.365  1.00  0.00     0.115 A 
BRANCH  95  96
ATOM     96  O   UNL A   1      30.833  30.233  21.703  1.00  0.00    -0.508 OA
ATOM     97  H   UNL A   1      30.353  30.986  21.989  1.00  0.00     0.293 HD
ENDBRANCH  95  96
ENDBRANCH  89  90
ENDBRANCH  78  89
ENDBRANCH  75  78
ENDBRANCH  73  74
ENDBRANCH  72  73
ENDBRANCH   1  72
TORSDOF 19
ENDMDL
MODEL 2
REMARK VINA RESULT:     -12.0      1.962      8.074
REMARK SMILES O=C(NCCCCNC(=O)[C@H](Cc1ccc(O)cc1)NC(=O)c1ccc(Cl)s1)c1ccc(-c2c3nc(c(-c4cccc(S(=O)(=O)[O-])c4F)c4ccc([nH]4)c(-c4cccc(S(=O)(=O)[O-])c4F)c4nc(c(-c5cccc(S(=O)(=O)[O-])c5F)c5ccc2[nH]5)C=C4)C=C3)cc1
REMARK SMILES IDX 5 1 4 2 3 3 1 4 2 5 29 7 30 8 91 9 31 10 90 11 32 12 33 13
REMARK SMILES IDX 34 14 84 15 35 16 89 17 83 18 85 19 36 20 88 21 82 22 81 23
REMARK SMILES IDX 37 25 69 26 49 27 68 28 50 29 53 30 67 31 86 32 51 33 52 34
REMARK SMILES IDX 66 36 87 37 54 38 38 39 39 40 47 41 40 42 42 43 48 44 41 45
REMARK SMILES IDX 43 46 44 47 45 48 46 49 70 50 71 51 79 52 72 53 74 54 80 55
REMARK SMILES IDX 73 56 75 57 76 58 77 59 78 60 55 61 56 62 64 63 57 64 59 65
REMARK SMILES IDX 65 66 58 67 60 68 61 69 62 70 63 71 6 72 7 73 8 74 9 75
REMARK SMILES IDX 10 77 11 78 20 79 21 80 22 82 23 83 24 84 28 85 25 86 26 87
REMARK SMILES IDX 27 88 12 89 13 90 14 91 19 92 15 93 18 94 16 95 17 96
REMARK H PARENT 3 6 85 24 53 35 8 76 20 81 17 97
REMARK Flexibility Score: inf
ROOT
ATOM      1  C   UNL A   1      31.775  31.475  26.550  1.00  0.00     0.023 C 
ENDROOT
BRANCH   1   2
ATOM      2  C   UNL A   1      32.921  32.198  27.246  1.00  0.00     0.116 C 
BRANCH   2   3
ATOM      3  N   UNL A   1      32.619  33.597  27.535  1.00  0.00    -0.352 N 
ATOM      4  O   UNL A   1      32.724  35.523  28.719  1.00  0.00    -0.269 OA
ATOM      5  C   UNL A   1      33.177  34.409  28.496  1.00  0.00     0.251 C 
ATOM      6  H   UNL A   1      31.928  34.013  26.970  1.00  0.00     0.163 HD
BRANCH   5   7
ATOM      7  C   UNL A   1      34.324  33.877  29.253  1.00  0.00     0.039 A 
ATOM      8  C   UNL A   1      35.613  34.152  28.794  1.00  0.00     0.014 A 
ATOM      9  C   UNL A   1      34.110  33.006  30.320  1.00  0.00     0.014 A 
ATOM     10  C   UNL A   1      36.674  33.406  29.277  1.00  0.00     0.010 A 
ATOM     11  C   UNL A   1      35.204  32.353  30.892  1.00  0.00     0.010 A 
ATOM     12  C   UNL A   1      36.489  32.520  30.351  1.00  0.00    -0.014 A 
BRANCH  12  13
ATOM     13  C   UNL A   1      37.679  31.863  30.946  1.00  0.00     0.031 A 
ATOM     14  C   UNL A   1      38.490  30.850  30.188  1.00  0.00     0.074 A 
ATOM     15  C   UNL A   1      38.020  32.210  32.202  1.00  0.00     0.049 A 
ATOM     16  N   UNL A   1      39.549  30.191  30.583  1.00  0.00    -0.248 NA
ATOM     17  C   UNL A   1      38.061  30.527  28.817  1.00  0.00     0.031 C 
ATOM     18  C   UNL A   1      37.285  33.163  33.040  1.00  0.00     0.029 A 
ATOM     19  N   UNL A   1      39.063  31.813  32.995  1.00  0.00    -0.354 N 
ATOM     20  C   UNL A   1      39.889  29.345  29.534  1.00  0.00     0.074 A 
ATOM     21  C   UNL A   1      38.921  29.572  28.482  1.00  0.00     0.031 C 
ATOM     22  C   UNL A   1      37.916  33.304  34.211  1.00  0.00     0.029 A 
ATOM     23  C   UNL A   1      39.051  32.392  34.241  1.00  0.00     0.049 A 
ATOM     24  H   UNL A   1      39.755  31.175  32.701  1.00  0.00     0.167 HD
ATOM     25  C   UNL A   1      40.921  28.469  29.456  1.00  0.00     0.034 A 
ATOM     26  C   UNL A   1      39.840  32.188  35.311  1.00  0.00     0.034 A 
ATOM     27  C   UNL A   1      41.888  28.268  30.505  1.00  0.00     0.049 A 
ATOM     28  C   UNL A   1      40.963  31.204  35.196  1.00  0.00     0.074 A 
ATOM     29  C   UNL A   1      42.998  27.442  30.506  1.00  0.00     0.029 A 
ATOM     30  N   UNL A   1      41.855  28.889  31.746  1.00  0.00    -0.354 N 
ATOM     31  N   UNL A   1      41.329  30.489  34.160  1.00  0.00    -0.248 NA
ATOM     32  C   UNL A   1      41.797  31.013  36.389  1.00  0.00     0.031 C 
ATOM     33  C   UNL A   1      43.615  27.534  31.758  1.00  0.00     0.029 A 
ATOM     34  C   UNL A   1      42.915  28.451  32.525  1.00  0.00     0.049 A 
ATOM     35  H   UNL A   1      41.178  29.543  32.031  1.00  0.00     0.167 HD
ATOM     36  C   UNL A   1      42.455  29.786  34.565  1.00  0.00     0.074 A 
ATOM     37  C   UNL A   1      42.723  30.181  35.934  1.00  0.00     0.031 C 
ATOM     38  C   UNL A   1      43.191  28.884  33.872  1.00  0.00     0.034 A 
BRANCH  25  39
ATOM     39  C   UNL A   1      41.075  27.666  28.188  1.00  0.00     0.023 A 
ATOM     40  C   UNL A   1      41.649  28.260  27.046  1.00  0.00     0.012 A 
ATOM     41  C   UNL A   1      40.721  26.302  28.148  1.00  0.00     0.148 A 
ATOM     42  C   UNL A   1      41.838  27.522  25.878  1.00  0.00     0.002 A 
ATOM     43  C   UNL A   1      40.953  25.560  26.995  1.00  0.00     0.091 A 
ATOM     44  F   UNL A   1      40.162  25.755  29.238  1.00  0.00    -0.205 F 
ATOM     45  C   UNL A   1      41.500  26.171  25.856  1.00  0.00     0.022 A 
BRANCH  43  46
ATOM     46  S   UNL A   1      40.628  23.796  26.891  1.00  0.00     0.127 S 
ATOM     47  O   UNL A   1      41.376  23.429  25.690  1.00  0.00    -0.237 OA
ATOM     48  O   UNL A   1      41.205  23.303  28.142  1.00  0.00    -0.237 OA
ATOM     49  O   UNL A   1      39.182  23.658  26.792  1.00  0.00    -0.744 OA
ENDBRANCH  43  46
ENDBRANCH  25  39
BRANCH  26  50
ATOM     50  C   UNL A   1      39.595  32.951  36.565  1.00  0.00     0.023 A 
ATOM     51  C   UNL A   1      40.185  34.216  36.735  1.00  0.00     0.012 A 
ATOM     52  C   UNL A   1      38.738  32.448  37.566  1.00  0.00     0.148 A 
ATOM     53  C   UNL A   1      39.952  34.956  37.895  1.00  0.00     0.002 A 
ATOM     54  C   UNL A   1      38.461  33.217  38.688  1.00  0.00     0.091 A 
ATOM     55  F   UNL A   1      38.189  31.239  37.384  1.00  0.00    -0.205 F 
ATOM     56  C   UNL A   1      39.083  34.462  38.864  1.00  0.00     0.022 A 
BRANCH  54  57
ATOM     57  S   UNL A   1      37.245  32.725  39.914  1.00  0.00     0.127 S 
ATOM     58  O   UNL A   1      37.813  31.475  40.411  1.00  0.00    -0.237 OA
ATOM     59  O   UNL A   1      37.296  33.844  40.855  1.00  0.00    -0.237 OA
ATOM     60  O   UNL A   1      35.985  32.603  39.194  1.00  0.00    -0.744 OA
ENDBRANCH  54  57
ENDBRANCH  26  50
BRANCH  38  61
ATOM     61  C   UNL A   1      44.388  28.292  34.567  1.00  0.00     0.023 A 
ATOM     62  C   UNL A   1      45.640  28.935  34.489  1.00  0.00     0.012 A 
ATOM     63  C   UNL A   1      44.256  27.125  35.345  1.00  0.00     0.148 A 
ATOM     64  C   UNL A   1      46.750  28.404  35.144  1.00  0.00     0.002 A 
ATOM     65  C   UNL A   1      45.354  26.632  36.038  1.00  0.00     0.091 A 
ATOM     66  F   UNL A   1      43.061  26.519  35.388  1.00  0.00    -0.205 F 
ATOM     67  C   UNL A   1      46.605  27.261  35.927  1.00  0.00     0.022 A 
BRANCH  65  68
ATOM     68  S   UNL A   1      45.240  25.225  37.147  1.00  0.00     0.127 S 
ATOM     69  O   UNL A   1      44.927  24.139  36.219  1.00  0.00    -0.237 OA
ATOM     70  O   UNL A   1      46.586  25.172  37.717  1.00  0.00    -0.237 OA
ATOM     71  O   UNL A   1      44.190  25.547  38.104  1.00  0.00    -0.744 OA
ENDBRANCH  65  68
ENDBRANCH  38  61
ENDBRANCH  12  13
ENDBRANCH   5   7
ENDBRANCH   2   3
ENDBRANCH   1   2
BRANCH   1  72
ATOM     72  C   UNL A   1      31.837  29.956  26.649  1.00  0.00     0.023 C 
BRANCH  72  73
ATOM     73  C   UNL A   1      31.765  29.268  25.299  1.00  0.00     0.116 C 
BRANCH  73  74
ATOM     74  N   UNL A   1      32.900  29.562  24.445  1.00  0.00    -0.354 N 
ATOM     75  C   UNL A   1      33.583  28.715  23.616  1.00  0.00     0.242 C 
ATOM     76  H   UNL A   1      33.220  30.494  24.463  1.00  0.00     0.163 HD
ATOM     77  O   UNL A   1      34.378  29.188  22.800  1.00  0.00    -0.273 OA
BRANCH  75  78
ATOM     78  C   UNL A   1      33.379  27.192  23.720  1.00  0.00     0.176 C 
BRANCH  78  79
ATOM     79  N   UNL A   1      33.595  26.716  22.341  1.00  0.00    -0.339 N 
ATOM     80  C   UNL A   1      32.993  25.713  21.629  1.00  0.00     0.262 C 
ATOM     81  H   UNL A   1      34.293  27.204  21.846  1.00  0.00     0.164 HD
ATOM     82  O   UNL A   1      33.127  25.752  20.407  1.00  0.00    -0.268 OA
BRANCH  80  83
ATOM     83  C   UNL A   1      32.341  24.631  22.327  1.00  0.00     0.093 A 
ATOM     84  C   UNL A   1      31.085  24.529  22.896  1.00  0.00     0.027 A 
ATOM     85  S   UNL A   1      33.225  23.166  22.493  1.00  0.00    -0.118 S 
ATOM     86  C   UNL A   1      30.897  23.278  23.559  1.00  0.00     0.033 A 
ATOM     87  C   UNL A   1      31.993  22.469  23.410  1.00  0.00     0.094 A 
ATOM     88  Cl  UNL A   1      32.202  20.888  24.043  1.00  0.00    -0.072 Cl
ENDBRANCH  80  83
ENDBRANCH  78  79
BRANCH  78  89
ATOM     89  C   UNL A   1      34.199  26.419  24.792  1.00  0.00     0.070 C 
BRANCH  89  90
ATOM     90  C   UNL A   1      33.482  25.438  25.702  1.00  0.00    -0.045 A 
ATOM     91  C   UNL A   1      32.173  25.720  26.141  1.00  0.00     0.007 A 
ATOM     92  C   UNL A   1      34.056  24.211  26.066  1.00  0.00     0.007 A 
ATOM     93  C   UNL A   1      31.410  24.743  26.789  1.00  0.00     0.046 A 
ATOM     94  C   UNL A   1      33.289  23.232  26.702  1.00  0.00     0.046 A 
ATOM     95  C   UNL A   1      31.964  23.492  27.026  1.00  0.00     0.115 A 
BRANCH  95  96
ATOM     96  O   UNL A   1      31.231  22.475  27.561  1.00  0.00    -0.508 OA
ATOM     97  H   UNL A   1      31.654  21.809  28.067  1.00  0.00     0.293 HD
ENDBRANCH  95  96
ENDBRANCH  89  90
ENDBRANCH  78  89
ENDBRANCH  75  78
ENDBRANCH  73  74
ENDBRANCH  72  73
ENDBRANCH   1  72
TORSDOF 19
ENDMDL
MODEL 3
REMARK VINA RESULT:     -11.8      5.165      7.578
REMARK SMILES O=C(NCCCCNC(=O)[C@H](Cc1ccc(O)cc1)NC(=O)c1ccc(Cl)s1)c1ccc(-c2c3nc(c(-c4cccc(S(=O)(=O)[O-])c4F)c4ccc([nH]4)c(-c4cccc(S(=O)(=O)[O-])c4F)c4nc(c(-c5cccc(S(=O)(=O)[O-])c5F)c5ccc2[nH]5)C=C4)C=C3)cc1
REMARK SMILES IDX 5 1 4 2 3 3 1 4 2 5 29 7 30 8 91 9 31 10 90 11 32 12 33 13
REMARK SMILES IDX 34 14 84 15 35 16 89 17 83 18 85 19 36 20 88 21 82 22 81 23
REMARK SMILES IDX 37 25 69 26 49 27 68 28 50 29 53 30 67 31 86 32 51 33 52 34
REMARK SMILES IDX 66 36 87 37 54 38 38 39 39 40 47 41 40 42 42 43 48 44 41 45
REMARK SMILES IDX 43 46 44 47 45 48 46 49 70 50 71 51 79 52 72 53 74 54 80 55
REMARK SMILES IDX 73 56 75 57 76 58 77 59 78 60 55 61 56 62 64 63 57 64 59 65
REMARK SMILES IDX 65 66 58 67 60 68 61 69 62 70 63 71 6 72 7 73 8 74 9 75
REMARK SMILES IDX 10 77 11 78 20 79 21 80 22 82 23 83 24 84 28 85 25 86 26 87
REMARK SMILES IDX 27 88 12 89 13 90 14 91 19 92 15 93 18 94 16 95 17 96
REMARK H PARENT 3 6 85 24 53 35 8 76 20 81 17 97
REMARK Flexibility Score: inf
ROOT
ATOM      1  C   UNL A   1      35.198  21.467  25.373  1.00  0.00     0.023 C 
ENDROOT
BRANCH   1   2
ATOM      2  C   UNL A   1      36.627  21.951  25.589  1.00  0.00     0.116 C 
BRANCH   2   3
ATOM      3  N   UNL A   1      37.597  20.860  25.626  1.00  0.00    -0.352 N 
ATOM      4  O   UNL A   1      39.659  19.946  25.812  1.00  0.00    -0.269 OA
ATOM      5  C   UNL A   1      38.930  20.916  25.965  1.00  0.00     0.251 C 
ATOM      6  H   UNL A   1      37.254  19.972  25.376  1.00  0.00     0.163 HD
BRANCH   5   7
ATOM      7  C   UNL A   1      39.443  22.191  26.498  1.00  0.00     0.039 A 
ATOM      8  C   UNL A   1      39.020  23.381  25.905  1.00  0.00     0.014 A 
ATOM      9  C   UNL A   1      40.432  22.187  27.481  1.00  0.00     0.014 A 
ATOM     10  C   UNL A   1      39.724  24.546  26.156  1.00  0.00     0.010 A 
ATOM     11  C   UNL A   1      41.051  23.390  27.825  1.00  0.00     0.010 A 
ATOM     12  C   UNL A   1      40.727  24.573  27.139  1.00  0.00    -0.014 A 
BRANCH  12  13
ATOM     13  C   UNL A   1      41.344  25.875  27.492  1.00  0.00     0.031 A 
ATOM     14  C   UNL A   1      40.621  26.899  28.321  1.00  0.00     0.074 A 
ATOM     15  C   UNL A   1      42.593  26.115  27.046  1.00  0.00     0.049 A 
ATOM     16  N   UNL A   1      41.033  28.081  28.701  1.00  0.00    -0.248 NA
ATOM     17  C   UNL A   1      39.264  26.563  28.780  1.00  0.00     0.031 C 
ATOM     18  C   UNL A   1      43.376  25.200  26.208  1.00  0.00     0.029 A 
ATOM     19  N   UNL A   1      43.425  27.186  27.229  1.00  0.00    -0.354 N 
ATOM     20  C   UNL A   1      39.977  28.650  29.403  1.00  0.00     0.074 A 
ATOM     21  C   UNL A   1      38.901  27.682  29.395  1.00  0.00     0.031 C 
ATOM     22  C   UNL A   1      44.583  25.731  25.981  1.00  0.00     0.029 A 
ATOM     23  C   UNL A   1      44.631  27.056  26.582  1.00  0.00     0.049 A 
ATOM     24  H   UNL A   1      43.183  27.973  27.771  1.00  0.00     0.167 HD
ATOM     25  C   UNL A   1      39.919  29.863  30.004  1.00  0.00     0.034 A 
ATOM     26  C   UNL A   1      45.654  27.919  26.451  1.00  0.00     0.034 A 
ATOM     27  C   UNL A   1      41.007  30.808  30.019  1.00  0.00     0.049 A 
ATOM     28  C   UNL A   1      45.552  29.257  27.118  1.00  0.00     0.074 A 
ATOM     29  C   UNL A   1      41.067  32.042  30.642  1.00  0.00     0.029 A 
ATOM     30  N   UNL A   1      42.222  30.631  29.371  1.00  0.00    -0.354 N 
ATOM     31  N   UNL A   1      44.586  29.735  27.863  1.00  0.00    -0.248 NA
ATOM     32  C   UNL A   1      46.692  30.166  26.947  1.00  0.00     0.031 C 
ATOM     33  C   UNL A   1      42.301  32.628  30.341  1.00  0.00     0.029 A 
ATOM     34  C   UNL A   1      43.030  31.740  29.566  1.00  0.00     0.049 A 
ATOM     35  H   UNL A   1      42.472  29.835  28.849  1.00  0.00     0.167 HD
ATOM     36  C   UNL A   1      45.011  30.989  28.275  1.00  0.00     0.074 A 
ATOM     37  C   UNL A   1      46.335  31.185  27.716  1.00  0.00     0.031 C 
ATOM     38  C   UNL A   1      44.361  31.903  29.036  1.00  0.00     0.034 A 
BRANCH  25  39
ATOM     39  C   UNL A   1      38.643  30.242  30.715  1.00  0.00     0.023 A 
ATOM     40  C   UNL A   1      38.463  29.892  32.068  1.00  0.00     0.012 A 
ATOM     41  C   UNL A   1      37.654  31.009  30.066  1.00  0.00     0.148 A 
ATOM     42  C   UNL A   1      37.308  30.269  32.754  1.00  0.00     0.002 A 
ATOM     43  C   UNL A   1      36.527  31.421  30.768  1.00  0.00     0.091 A 
ATOM     44  F   UNL A   1      37.834  31.321  28.774  1.00  0.00    -0.205 F 
ATOM     45  C   UNL A   1      36.347  31.041  32.108  1.00  0.00     0.022 A 
BRANCH  43  46
ATOM     46  S   UNL A   1      35.269  32.484  30.050  1.00  0.00     0.127 S 
ATOM     47  O   UNL A   1      34.367  32.680  31.185  1.00  0.00    -0.237 OA
ATOM     48  O   UNL A   1      36.044  33.667  29.676  1.00  0.00    -0.237 OA
ATOM     49  O   UNL A   1      34.707  31.744  28.929  1.00  0.00    -0.744 OA
ENDBRANCH  43  46
ENDBRANCH  25  39
BRANCH  26  50
ATOM     50  C   UNL A   1      46.858  27.523  25.673  1.00  0.00     0.023 A 
ATOM     51  C   UNL A   1      46.913  27.794  24.293  1.00  0.00     0.012 A 
ATOM     52  C   UNL A   1      47.968  26.927  26.304  1.00  0.00     0.148 A 
ATOM     53  C   UNL A   1      48.041  27.450  23.548  1.00  0.00     0.002 A 
ATOM     54  C   UNL A   1      49.112  26.644  25.568  1.00  0.00     0.091 A 
ATOM     55  F   UNL A   1      47.893  26.675  27.618  1.00  0.00    -0.205 F 
ATOM     56  C   UNL A   1      49.143  26.886  24.186  1.00  0.00     0.022 A 
BRANCH  54  57
ATOM     57  S   UNL A   1      50.625  26.054  26.333  1.00  0.00     0.127 S 
ATOM     58  O   UNL A   1      51.502  25.898  25.176  1.00  0.00    -0.237 OA
ATOM     59  O   UNL A   1      50.967  27.165  27.221  1.00  0.00    -0.237 OA
ATOM     60  O   UNL A   1      50.265  24.823  27.023  1.00  0.00    -0.744 OA
ENDBRANCH  54  57
ENDBRANCH  26  50
BRANCH  38  61
ATOM     61  C   UNL A   1      45.088  33.184  29.346  1.00  0.00     0.023 A 
ATOM     62  C   UNL A   1      45.881  33.282  30.507  1.00  0.00     0.012 A 
ATOM     63  C   UNL A   1      45.028  34.273  28.455  1.00  0.00     0.148 A 
ATOM     64  C   UNL A   1      46.572  34.458  30.795  1.00  0.00     0.002 A 
ATOM     65  C   UNL A   1      45.762  35.422  28.720  1.00  0.00     0.091 A 
ATOM     66  F   UNL A   1      44.251  34.165  27.367  1.00  0.00    -0.205 F 
ATOM     67  C   UNL A   1      46.523  35.522  29.897  1.00  0.00     0.022 A 
BRANCH  65  68
ATOM     68  S   UNL A   1      45.837  36.802  27.576  1.00  0.00     0.127 S 
ATOM     69  O   UNL A   1      44.442  37.238  27.543  1.00  0.00    -0.237 OA
ATOM     70  O   UNL A   1      46.748  37.720  28.260  1.00  0.00    -0.237 OA
ATOM     71  O   UNL A   1      46.349  36.263  26.324  1.00  0.00    -0.744 OA
ENDBRANCH  65  68
ENDBRANCH  38  61
ENDBRANCH  12  13
ENDBRANCH   5   7
ENDBRANCH   2   3
ENDBRANCH   1   2
BRANCH   1  72
ATOM     72  C   UNL A   1      34.342  21.454  26.633  1.00  0.00     0.023 C 
BRANCH  72  73
ATOM     73  C   UNL A   1      33.691  22.792  26.925  1.00  0.00     0.116 C 
BRANCH  73  74
ATOM     74  N   UNL A   1      32.355  22.671  27.477  1.00  0.00    -0.354 N 
ATOM     75  C   UNL A   1      31.215  23.323  27.095  1.00  0.00     0.242 C 
ATOM     76  H   UNL A   1      32.256  22.036  28.223  1.00  0.00     0.163 HD
ATOM     77  O   UNL A   1      30.128  22.932  27.529  1.00  0.00    -0.273 OA
BRANCH  75  78
ATOM     78  C   UNL A   1      31.292  24.542  26.156  1.00  0.00     0.176 C 
BRANCH  78  79
ATOM     79  N   UNL A   1      30.574  24.098  24.947  1.00  0.00    -0.339 N 
ATOM     80  C   UNL A   1      30.686  24.485  23.639  1.00  0.00     0.262 C 
ATOM     81  H   UNL A   1      29.896  23.401  25.109  1.00  0.00     0.164 HD
ATOM     82  O   UNL A   1      30.212  23.723  22.798  1.00  0.00    -0.268 OA
BRANCH  80  83
ATOM     83  C   UNL A   1      31.242  25.779  23.320  1.00  0.00     0.093 A 
ATOM     84  C   UNL A   1      30.678  27.041  23.298  1.00  0.00     0.027 A 
ATOM     85  S   UNL A   1      32.911  25.829  22.911  1.00  0.00    -0.118 S 
ATOM     86  C   UNL A   1      31.600  28.031  22.840  1.00  0.00     0.033 A 
ATOM     87  C   UNL A   1      32.833  27.485  22.597  1.00  0.00     0.094 A 
ATOM     88  Cl  UNL A   1      34.231  28.303  22.031  1.00  0.00    -0.072 Cl
ENDBRANCH  80  83
ENDBRANCH  78  79
BRANCH  78  89
ATOM     89  C   UNL A   1      30.813  25.916  26.707  1.00  0.00     0.070 C 
BRANCH  89  90
ATOM     90  C   UNL A   1      31.813  27.052  26.820  1.00  0.00    -0.045 A 
ATOM     91  C   UNL A   1      33.123  26.883  26.329  1.00  0.00     0.007 A 
ATOM     92  C   UNL A   1      31.452  28.306  27.335  1.00  0.00     0.007 A 
ATOM     93  C   UNL A   1      33.990  27.974  26.216  1.00  0.00     0.046 A 
ATOM     94  C   UNL A   1      32.315  29.398  27.209  1.00  0.00     0.046 A 
ATOM     95  C   UNL A   1      33.562  29.231  26.620  1.00  0.00     0.115 A 
BRANCH  95  96
ATOM     96  O   UNL A   1      34.329  30.342  26.436  1.00  0.00    -0.508 OA
ATOM     97  H   UNL A   1      34.968  30.581  27.079  1.00  0.00     0.293 HD
ENDBRANCH  95  96
ENDBRANCH  89  90
ENDBRANCH  78  89
ENDBRANCH  75  78
ENDBRANCH  73  74
ENDBRANCH  72  73
ENDBRANCH   1  72
TORSDOF 19
ENDMDL
