MODEL 1
REMARK VINA RESULT:     -12.1      0.000      0.000
REMARK SMILES C[C@@H]1C[C@](Nc2ccccc2F)(C(=O)NCCCCNC(=O)c2ccc(-c3c4nc(c(-c5cccc(S(=O)(=O)[O-])c5F)c5ccc([nH]5)c(-c5cccc(S(=O)(=O)[O-])c5F)c5nc(c(-c6cccc(S(=O)(=O)[O-])c6F)c6ccc3[nH]6)C=C5)C=C4)cc2)CS1
REMARK SMILES IDX 18 1 17 2 16 3 15 4 13 5 14 6 4 8 1 9 2 10 3 11 87 12 86 13
REMARK SMILES IDX 5 14 6 16 7 17 11 18 8 19 10 20 12 21 9 22 19 23 20 24 21 25
REMARK SMILES IDX 22 27 23 28 24 29 85 30 25 31 84 32 26 33 27 34 28 35 78 36
REMARK SMILES IDX 29 37 83 38 77 39 79 40 30 41 82 42 76 43 75 44 31 46 63 47
REMARK SMILES IDX 43 48 62 49 44 50 47 51 61 52 80 53 45 54 46 55 60 57 81 58
REMARK SMILES IDX 48 59 32 60 33 61 41 62 34 63 36 64 42 65 35 66 37 67 38 68
REMARK SMILES IDX 39 69 40 70 64 71 65 72 73 73 66 74 68 75 74 76 67 77 69 78
REMARK SMILES IDX 70 79 71 80 72 81 49 82 50 83 58 84 51 85 53 86 59 87 52 88
REMARK SMILES IDX 54 89 55 90 56 91 57 92
REMARK H PARENT 15 7 5 15 20 26 79 45 47 56
REMARK Flexibility Score: inf
ROOT
ATOM      1  C   UNL A   1      31.614  29.416  24.898  1.00  0.00     0.023 C 
ENDROOT
BRANCH   1   2
ATOM      2  C   UNL A   1      32.119  28.900  23.553  1.00  0.00     0.023 C 
BRANCH   2   3
ATOM      3  C   UNL A   1      31.248  27.809  22.925  1.00  0.00     0.116 C 
BRANCH   3   4
ATOM      4  N   UNL A   1      31.940  27.149  21.833  1.00  0.00    -0.354 N 
ATOM      5  C   UNL A   1      32.621  25.967  21.785  1.00  0.00     0.246 C 
ATOM      6  O   UNL A   1      33.225  25.724  20.731  1.00  0.00    -0.272 OA
ATOM      7  H   UNL A   1      31.914  27.638  20.979  1.00  0.00     0.163 HD
BRANCH   5   8
ATOM      8  C   UNL A   1      32.666  24.933  22.979  1.00  0.00     0.127 C 
ATOM      9  C   UNL A   1      32.515  26.330  26.475  1.00  0.00     0.019 C 
ATOM     10  C   UNL A   1      32.638  25.159  25.502  1.00  0.00     0.046 C 
ATOM     11  C   UNL A   1      33.330  25.576  24.208  1.00  0.00     0.053 C 
ATOM     12  S   UNL A   1      30.987  24.536  25.092  1.00  0.00    -0.156 SA
ATOM     13  C   UNL A   1      31.222  24.514  23.291  1.00  0.00     0.108 C 
BRANCH   8  14
ATOM     14  N   UNL A   1      33.474  23.783  22.475  1.00  0.00    -0.368 N 
ATOM     15  H   UNL A   1      33.451  23.609  21.507  1.00  0.00     0.161 HD
BRANCH  14  16
ATOM     16  C   UNL A   1      34.250  22.944  23.251  1.00  0.00     0.071 A 
ATOM     17  C   UNL A   1      35.636  23.150  23.304  1.00  0.00     0.029 A 
ATOM     18  C   UNL A   1      33.725  21.890  24.010  1.00  0.00     0.146 A 
ATOM     19  C   UNL A   1      36.459  22.350  24.102  1.00  0.00     0.002 A 
ATOM     20  C   UNL A   1      34.540  21.076  24.797  1.00  0.00     0.041 A 
ATOM     21  F   UNL A   1      32.418  21.597  23.957  1.00  0.00    -0.205 F 
ATOM     22  C   UNL A   1      35.910  21.311  24.849  1.00  0.00     0.003 A 
ENDBRANCH  14  16
ENDBRANCH   8  14
ENDBRANCH   5   8
ENDBRANCH   3   4
ENDBRANCH   2   3
ENDBRANCH   1   2
BRANCH   1  23
ATOM     23  C   UNL A   1      32.695  29.957  25.824  1.00  0.00     0.116 C 
BRANCH  23  24
ATOM     24  N   UNL A   1      32.418  31.298  26.318  1.00  0.00    -0.352 N 
ATOM     25  C   UNL A   1      33.159  32.049  27.205  1.00  0.00     0.251 C 
ATOM     26  H   UNL A   1      31.599  31.723  25.974  1.00  0.00     0.163 HD
ATOM     27  O   UNL A   1      32.747  33.125  27.606  1.00  0.00    -0.269 OA
BRANCH  25  28
ATOM     28  C   UNL A   1      34.442  31.501  27.691  1.00  0.00     0.039 A 
ATOM     29  C   UNL A   1      35.508  32.375  27.912  1.00  0.00     0.014 A 
ATOM     30  C   UNL A   1      34.558  30.142  27.997  1.00  0.00     0.014 A 
ATOM     31  C   UNL A   1      36.671  31.896  28.516  1.00  0.00     0.010 A 
ATOM     32  C   UNL A   1      35.688  29.685  28.664  1.00  0.00     0.010 A 
ATOM     33  C   UNL A   1      36.754  30.557  28.934  1.00  0.00    -0.014 A 
BRANCH  33  34
ATOM     34  C   UNL A   1      37.930  30.053  29.685  1.00  0.00     0.031 A 
ATOM     35  C   UNL A   1      38.190  30.529  31.087  1.00  0.00     0.074 A 
ATOM     36  C   UNL A   1      38.814  29.244  29.069  1.00  0.00     0.049 A 
ATOM     37  N   UNL A   1      39.198  30.256  31.872  1.00  0.00    -0.248 NA
ATOM     38  C   UNL A   1      37.206  31.455  31.673  1.00  0.00     0.031 C 
ATOM     39  C   UNL A   1      38.714  28.782  27.682  1.00  0.00     0.029 A 
ATOM     40  N   UNL A   1      39.985  28.687  29.519  1.00  0.00    -0.354 N 
ATOM     41  C   UNL A   1      38.990  30.998  33.027  1.00  0.00     0.074 A 
ATOM     42  C   UNL A   1      37.778  31.762  32.829  1.00  0.00     0.031 C 
ATOM     43  C   UNL A   1      39.771  28.005  27.399  1.00  0.00     0.029 A 
ATOM     44  C   UNL A   1      40.639  27.934  28.570  1.00  0.00     0.049 A 
ATOM     45  H   UNL A   1      40.326  28.814  30.434  1.00  0.00     0.167 HD
ATOM     46  C   UNL A   1      39.723  31.016  34.165  1.00  0.00     0.034 A 
ATOM     47  C   UNL A   1      41.805  27.261  28.637  1.00  0.00     0.034 A 
ATOM     48  C   UNL A   1      40.893  30.211  34.378  1.00  0.00     0.049 A 
ATOM     49  C   UNL A   1      42.572  27.252  29.932  1.00  0.00     0.074 A 
ATOM     50  C   UNL A   1      41.651  30.089  35.530  1.00  0.00     0.029 A 
ATOM     51  N   UNL A   1      41.474  29.388  33.427  1.00  0.00    -0.354 N 
ATOM     52  N   UNL A   1      42.277  27.840  31.066  1.00  0.00    -0.248 NA
ATOM     53  C   UNL A   1      43.811  26.462  29.972  1.00  0.00     0.031 C 
ATOM     54  C   UNL A   1      42.699  29.202  35.271  1.00  0.00     0.029 A 
ATOM     55  C   UNL A   1      42.583  28.757  33.963  1.00  0.00     0.049 A 
ATOM     56  H   UNL A   1      41.147  29.270  32.506  1.00  0.00     0.167 HD
ATOM     57  C   UNL A   1      43.273  27.468  31.961  1.00  0.00     0.074 A 
ATOM     58  C   UNL A   1      44.172  26.588  31.242  1.00  0.00     0.031 C 
ATOM     59  C   UNL A   1      43.436  27.837  33.255  1.00  0.00     0.034 A 
BRANCH  46  60
ATOM     60  C   UNL A   1      39.241  31.878  35.300  1.00  0.00     0.023 A 
ATOM     61  C   UNL A   1      38.369  31.326  36.261  1.00  0.00     0.012 A 
ATOM     62  C   UNL A   1      39.714  33.193  35.470  1.00  0.00     0.148 A 
ATOM     63  C   UNL A   1      37.956  32.076  37.360  1.00  0.00     0.002 A 
ATOM     64  C   UNL A   1      39.332  33.921  36.591  1.00  0.00     0.091 A 
ATOM     65  F   UNL A   1      40.525  33.706  34.534  1.00  0.00    -0.205 F 
ATOM     66  C   UNL A   1      38.447  33.367  37.532  1.00  0.00     0.022 A 
BRANCH  64  67
ATOM     67  S   UNL A   1      39.971  35.561  36.948  1.00  0.00     0.127 S 
ATOM     68  O   UNL A   1      39.317  35.862  38.220  1.00  0.00    -0.237 OA
ATOM     69  O   UNL A   1      41.410  35.316  37.045  1.00  0.00    -0.237 OA
ATOM     70  O   UNL A   1      39.572  36.401  35.827  1.00  0.00    -0.744 OA
ENDBRANCH  64  67
ENDBRANCH  46  60
BRANCH  47  71
ATOM     71  C   UNL A   1      42.261  26.465  27.462  1.00  0.00     0.023 A 
ATOM     72  C   UNL A   1      43.093  27.074  26.503  1.00  0.00     0.012 A 
ATOM     73  C   UNL A   1      41.939  25.101  27.325  1.00  0.00     0.148 A 
ATOM     74  C   UNL A   1      43.581  26.346  25.417  1.00  0.00     0.002 A 
ATOM     75  C   UNL A   1      42.473  24.366  26.271  1.00  0.00     0.091 A 
ATOM     76  F   UNL A   1      41.137  24.542  28.243  1.00  0.00    -0.205 F 
ATOM     77  C   UNL A   1      43.282  24.990  25.309  1.00  0.00     0.022 A 
BRANCH  75  78
ATOM     78  S   UNL A   1      42.262  22.588  26.131  1.00  0.00     0.127 S 
ATOM     79  O   UNL A   1      42.962  22.301  24.882  1.00  0.00    -0.237 OA
ATOM     80  O   UNL A   1      42.932  22.107  27.339  1.00  0.00    -0.237 OA
ATOM     81  O   UNL A   1      40.822  22.363  26.116  1.00  0.00    -0.744 OA
ENDBRANCH  75  78
ENDBRANCH  47  71
BRANCH  59  82
ATOM     82  C   UNL A   1      44.617  27.284  34.007  1.00  0.00     0.023 A 
ATOM     83  C   UNL A   1      45.815  28.024  34.058  1.00  0.00     0.012 A 
ATOM     84  C   UNL A   1      44.498  26.102  34.765  1.00  0.00     0.148 A 
ATOM     85  C   UNL A   1      46.882  27.588  34.841  1.00  0.00     0.002 A 
ATOM     86  C   UNL A   1      45.549  25.698  35.579  1.00  0.00     0.091 A 
ATOM     87  F   UNL A   1      43.355  25.406  34.687  1.00  0.00    -0.205 F 
ATOM     88  C   UNL A   1      46.745  26.435  35.613  1.00  0.00     0.022 A 
BRANCH  86  89
ATOM     89  S   UNL A   1      45.424  24.287  36.684  1.00  0.00     0.127 S 
ATOM     90  O   UNL A   1      46.805  24.146  37.144  1.00  0.00    -0.237 OA
ATOM     91  O   UNL A   1      44.489  24.770  37.702  1.00  0.00    -0.237 OA
ATOM     92  O   UNL A   1      44.920  23.186  35.875  1.00  0.00    -0.744 OA
ENDBRANCH  86  89
ENDBRANCH  59  82
ENDBRANCH  33  34
ENDBRANCH  25  28
ENDBRANCH  23  24
ENDBRANCH   1  23
TORSDOF 16
ENDMDL
MODEL 2
REMARK VINA RESULT:     -11.8      0.563      7.856
REMARK SMILES C[C@@H]1C[C@](Nc2ccccc2F)(C(=O)NCCCCNC(=O)c2ccc(-c3c4nc(c(-c5cccc(S(=O)(=O)[O-])c5F)c5ccc([nH]5)c(-c5cccc(S(=O)(=O)[O-])c5F)c5nc(c(-c6cccc(S(=O)(=O)[O-])c6F)c6ccc3[nH]6)C=C5)C=C4)cc2)CS1
REMARK SMILES IDX 18 1 17 2 16 3 15 4 13 5 14 6 4 8 1 9 2 10 3 11 87 12 86 13
REMARK SMILES IDX 5 14 6 16 7 17 11 18 8 19 10 20 12 21 9 22 19 23 20 24 21 25
REMARK SMILES IDX 22 27 23 28 24 29 85 30 25 31 84 32 26 33 27 34 28 35 78 36
REMARK SMILES IDX 29 37 83 38 77 39 79 40 30 41 82 42 76 43 75 44 31 46 63 47
REMARK SMILES IDX 43 48 62 49 44 50 47 51 61 52 80 53 45 54 46 55 60 57 81 58
REMARK SMILES IDX 48 59 32 60 33 61 41 62 34 63 36 64 42 65 35 66 37 67 38 68
REMARK SMILES IDX 39 69 40 70 64 71 65 72 73 73 66 74 68 75 74 76 67 77 69 78
REMARK SMILES IDX 70 79 71 80 72 81 49 82 50 83 58 84 51 85 53 86 59 87 52 88
REMARK SMILES IDX 54 89 55 90 56 91 57 92
REMARK H PARENT 15 7 5 15 20 26 79 45 47 56
REMARK Flexibility Score: inf
ROOT
ATOM      1  C   UNL A   1      32.942  29.102  24.122  1.00  0.00     0.023 C 
ENDROOT
BRANCH   1   2
ATOM      2  C   UNL A   1      31.621  29.034  23.358  1.00  0.00     0.023 C 
BRANCH   2   3
ATOM      3  C   UNL A   1      31.149  27.614  23.037  1.00  0.00     0.116 C 
BRANCH   3   4
ATOM      4  N   UNL A   1      31.907  27.045  21.937  1.00  0.00    -0.354 N 
ATOM      5  C   UNL A   1      32.609  25.879  21.839  1.00  0.00     0.246 C 
ATOM      6  O   UNL A   1      33.271  25.722  20.803  1.00  0.00    -0.272 OA
ATOM      7  H   UNL A   1      31.918  27.596  21.121  1.00  0.00     0.163 HD
BRANCH   5   8
ATOM      8  C   UNL A   1      32.608  24.760  22.954  1.00  0.00     0.127 C 
ATOM      9  C   UNL A   1      32.151  25.883  26.522  1.00  0.00     0.019 C 
ATOM     10  C   UNL A   1      32.390  24.793  25.478  1.00  0.00     0.046 C 
ATOM     11  C   UNL A   1      33.156  25.331  24.273  1.00  0.00     0.053 C 
ATOM     12  S   UNL A   1      30.798  24.147  24.901  1.00  0.00    -0.156 SA
ATOM     13  C   UNL A   1      31.163  24.270  23.126  1.00  0.00     0.108 C 
BRANCH   8  14
ATOM     14  N   UNL A   1      33.495  23.679  22.430  1.00  0.00    -0.368 N 
ATOM     15  H   UNL A   1      33.452  23.493  21.464  1.00  0.00     0.161 HD
BRANCH  14  16
ATOM     16  C   UNL A   1      34.369  22.919  23.183  1.00  0.00     0.071 A 
ATOM     17  C   UNL A   1      35.735  23.236  23.171  1.00  0.00     0.029 A 
ATOM     18  C   UNL A   1      33.964  21.840  23.980  1.00  0.00     0.146 A 
ATOM     19  C   UNL A   1      36.653  22.519  23.944  1.00  0.00     0.002 A 
ATOM     20  C   UNL A   1      34.875  21.109  24.742  1.00  0.00     0.041 A 
ATOM     21  F   UNL A   1      32.683  21.443  23.989  1.00  0.00    -0.205 F 
ATOM     22  C   UNL A   1      36.223  21.454  24.730  1.00  0.00     0.003 A 
ENDBRANCH  14  16
ENDBRANCH   8  14
ENDBRANCH   5   8
ENDBRANCH   3   4
ENDBRANCH   2   3
ENDBRANCH   1   2
BRANCH   1  23
ATOM     23  C   UNL A   1      32.801  29.209  25.635  1.00  0.00     0.116 C 
BRANCH  23  24
ATOM     24  N   UNL A   1      32.366  30.523  26.086  1.00  0.00    -0.352 N 
ATOM     25  C   UNL A   1      32.998  31.374  26.967  1.00  0.00     0.251 C 
ATOM     26  H   UNL A   1      31.512  30.844  25.715  1.00  0.00     0.163 HD
ATOM     27  O   UNL A   1      32.459  32.406  27.331  1.00  0.00    -0.269 OA
BRANCH  25  28
ATOM     28  C   UNL A   1      34.323  30.985  27.492  1.00  0.00     0.039 A 
ATOM     29  C   UNL A   1      35.306  31.967  27.636  1.00  0.00     0.014 A 
ATOM     30  C   UNL A   1      34.560  29.672  27.909  1.00  0.00     0.014 A 
ATOM     31  C   UNL A   1      36.505  31.646  28.274  1.00  0.00     0.010 A 
ATOM     32  C   UNL A   1      35.723  29.375  28.609  1.00  0.00     0.010 A 
ATOM     33  C   UNL A   1      36.705  30.358  28.802  1.00  0.00    -0.014 A 
BRANCH  33  34
ATOM     34  C   UNL A   1      37.919  30.026  29.587  1.00  0.00     0.031 A 
ATOM     35  C   UNL A   1      38.930  29.059  29.040  1.00  0.00     0.074 A 
ATOM     36  C   UNL A   1      38.059  30.521  30.833  1.00  0.00     0.049 A 
ATOM     37  N   UNL A   1      40.013  28.596  29.606  1.00  0.00    -0.248 NA
ATOM     38  C   UNL A   1      38.679  28.519  27.692  1.00  0.00     0.031 C 
ATOM     39  C   UNL A   1      37.101  31.401  31.506  1.00  0.00     0.029 A 
ATOM     40  N   UNL A   1      39.048  30.333  31.767  1.00  0.00    -0.354 N 
ATOM     41  C   UNL A   1      40.553  27.688  28.704  1.00  0.00     0.074 A 
ATOM     42  C   UNL A   1      39.662  27.638  27.566  1.00  0.00     0.031 C 
ATOM     43  C   UNL A   1      37.554  31.685  32.737  1.00  0.00     0.029 A 
ATOM     44  C   UNL A   1      38.818  30.988  32.955  1.00  0.00     0.049 A 
ATOM     45  H   UNL A   1      39.847  29.781  31.602  1.00  0.00     0.167 HD
ATOM     46  C   UNL A   1      41.707  26.986  28.799  1.00  0.00     0.034 A 
ATOM     47  C   UNL A   1      39.543  31.025  34.090  1.00  0.00     0.034 A 
ATOM     48  C   UNL A   1      42.617  27.084  29.905  1.00  0.00     0.049 A 
ATOM     49  C   UNL A   1      40.849  30.279  34.148  1.00  0.00     0.074 A 
ATOM     50  C   UNL A   1      43.855  26.483  30.051  1.00  0.00     0.029 A 
ATOM     51  N   UNL A   1      42.396  27.830  31.051  1.00  0.00    -0.354 N 
ATOM     52  N   UNL A   1      41.419  29.546  33.223  1.00  0.00    -0.248 NA
ATOM     53  C   UNL A   1      41.630  30.391  35.389  1.00  0.00     0.031 C 
ATOM     54  C   UNL A   1      44.377  26.856  31.292  1.00  0.00     0.029 A 
ATOM     55  C   UNL A   1      43.472  27.704  31.911  1.00  0.00     0.049 A 
ATOM     56  H   UNL A   1      41.591  28.370  31.228  1.00  0.00     0.167 HD
ATOM     57  C   UNL A   1      42.636  29.135  33.755  1.00  0.00     0.074 A 
ATOM     58  C   UNL A   1      42.729  29.716  35.079  1.00  0.00     0.031 C 
ATOM     59  C   UNL A   1      43.579  28.335  33.202  1.00  0.00     0.034 A 
BRANCH  46  60
ATOM     60  C   UNL A   1      42.091  26.104  27.642  1.00  0.00     0.023 A 
ATOM     61  C   UNL A   1      42.943  26.614  26.641  1.00  0.00     0.012 A 
ATOM     62  C   UNL A   1      41.690  24.755  27.587  1.00  0.00     0.148 A 
ATOM     63  C   UNL A   1      43.372  25.804  25.592  1.00  0.00     0.002 A 
ATOM     64  C   UNL A   1      42.156  23.941  26.561  1.00  0.00     0.091 A 
ATOM     65  F   UNL A   1      40.861  24.296  28.536  1.00  0.00    -0.205 F 
ATOM     66  C   UNL A   1      42.989  24.466  25.558  1.00  0.00     0.022 A 
BRANCH  64  67
ATOM     67  S   UNL A   1      41.788  22.186  26.471  1.00  0.00     0.127 S 
ATOM     68  O   UNL A   1      42.644  21.761  25.365  1.00  0.00    -0.237 OA
ATOM     69  O   UNL A   1      42.214  21.714  27.788  1.00  0.00    -0.237 OA
ATOM     70  O   UNL A   1      40.355  22.087  26.225  1.00  0.00    -0.744 OA
ENDBRANCH  64  67
ENDBRANCH  46  60
BRANCH  47  71
ATOM     71  C   UNL A   1      39.087  31.875  35.226  1.00  0.00     0.023 A 
ATOM     72  C   UNL A   1      38.187  31.338  36.166  1.00  0.00     0.012 A 
ATOM     73  C   UNL A   1      39.587  33.178  35.420  1.00  0.00     0.148 A 
ATOM     74  C   UNL A   1      37.778  32.087  37.270  1.00  0.00     0.002 A 
ATOM     75  C   UNL A   1      39.218  33.899  36.551  1.00  0.00     0.091 A 
ATOM     76  F   UNL A   1      40.433  33.676  34.507  1.00  0.00    -0.205 F 
ATOM     77  C   UNL A   1      38.303  33.361  37.469  1.00  0.00     0.022 A 
BRANCH  75  78
ATOM     78  S   UNL A   1      39.952  35.485  36.965  1.00  0.00     0.127 S 
ATOM     79  O   UNL A   1      39.280  35.808  38.220  1.00  0.00    -0.237 OA
ATOM     80  O   UNL A   1      41.368  35.139  37.093  1.00  0.00    -0.237 OA
ATOM     81  O   UNL A   1      39.651  36.363  35.841  1.00  0.00    -0.744 OA
ENDBRANCH  75  78
ENDBRANCH  47  71
BRANCH  59  82
ATOM     82  C   UNL A   1      44.819  28.042  34.004  1.00  0.00     0.023 A 
ATOM     83  C   UNL A   1      45.908  28.935  33.950  1.00  0.00     0.012 A 
ATOM     84  C   UNL A   1      44.855  26.960  34.906  1.00  0.00     0.148 A 
ATOM     85  C   UNL A   1      47.019  28.747  34.769  1.00  0.00     0.002 A 
ATOM     86  C   UNL A   1      45.945  26.805  35.752  1.00  0.00     0.091 A 
ATOM     87  F   UNL A   1      43.815  26.113  34.929  1.00  0.00    -0.205 F 
ATOM     88  C   UNL A   1      47.032  27.692  35.681  1.00  0.00     0.022 A 
BRANCH  86  89
ATOM     89  S   UNL A   1      46.002  25.540  37.028  1.00  0.00     0.127 S 
ATOM     90  O   UNL A   1      47.296  25.808  37.654  1.00  0.00    -0.237 OA
ATOM     91  O   UNL A   1      44.843  25.878  37.855  1.00  0.00    -0.237 OA
ATOM     92  O   UNL A   1      45.897  24.264  36.333  1.00  0.00    -0.744 OA
ENDBRANCH  86  89
ENDBRANCH  59  82
ENDBRANCH  33  34
ENDBRANCH  25  28
ENDBRANCH  23  24
ENDBRANCH   1  23
TORSDOF 16
ENDMDL
MODEL 3
REMARK VINA RESULT:     -11.7      1.268      1.615
REMARK SMILES C[C@@H]1C[C@](Nc2ccccc2F)(C(=O)NCCCCNC(=O)c2ccc(-c3c4nc(c(-c5cccc(S(=O)(=O)[O-])c5F)c5ccc([nH]5)c(-c5cccc(S(=O)(=O)[O-])c5F)c5nc(c(-c6cccc(S(=O)(=O)[O-])c6F)c6ccc3[nH]6)C=C5)C=C4)cc2)CS1
REMARK SMILES IDX 18 1 17 2 16 3 15 4 13 5 14 6 4 8 1 9 2 10 3 11 87 12 86 13
REMARK SMILES IDX 5 14 6 16 7 17 11 18 8 19 10 20 12 21 9 22 19 23 20 24 21 25
REMARK SMILES IDX 22 27 23 28 24 29 85 30 25 31 84 32 26 33 27 34 28 35 78 36
REMARK SMILES IDX 29 37 83 38 77 39 79 40 30 41 82 42 76 43 75 44 31 46 63 47
REMARK SMILES IDX 43 48 62 49 44 50 47 51 61 52 80 53 45 54 46 55 60 57 81 58
REMARK SMILES IDX 48 59 32 60 33 61 41 62 34 63 36 64 42 65 35 66 37 67 38 68
REMARK SMILES IDX 39 69 40 70 64 71 65 72 73 73 66 74 68 75 74 76 67 77 69 78
REMARK SMILES IDX 70 79 71 80 72 81 49 82 50 83 58 84 51 85 53 86 59 87 52 88
REMARK SMILES IDX 54 89 55 90 56 91 57 92
REMARK H PARENT 15 7 5 15 20 26 79 45 47 56
REMARK Flexibility Score: inf
ROOT
ATOM      1  C   UNL A   1      32.051  29.243  25.263  1.00  0.00     0.023 C 
ENDROOT
BRANCH   1   2
ATOM      2  C   UNL A   1      32.316  28.965  23.784  1.00  0.00     0.023 C 
BRANCH   2   3
ATOM      3  C   UNL A   1      31.479  27.827  23.195  1.00  0.00     0.116 C 
BRANCH   3   4
ATOM      4  N   UNL A   1      32.156  27.205  22.071  1.00  0.00    -0.354 N 
ATOM      5  C   UNL A   1      32.738  25.978  21.942  1.00  0.00     0.246 C 
ATOM      6  O   UNL A   1      33.361  25.774  20.890  1.00  0.00    -0.272 OA
ATOM      7  H   UNL A   1      32.204  27.765  21.263  1.00  0.00     0.163 HD
BRANCH   5   8
ATOM      8  C   UNL A   1      32.651  24.846  23.040  1.00  0.00     0.127 C 
ATOM      9  C   UNL A   1      32.173  25.947  26.612  1.00  0.00     0.019 C 
ATOM     10  C   UNL A   1      32.377  24.859  25.559  1.00  0.00     0.046 C 
ATOM     11  C   UNL A   1      33.199  25.369  24.379  1.00  0.00     0.053 C 
ATOM     12  S   UNL A   1      30.766  24.308  24.938  1.00  0.00    -0.156 SA
ATOM     13  C   UNL A   1      31.178  24.433  23.173  1.00  0.00     0.108 C 
BRANCH   8  14
ATOM     14  N   UNL A   1      33.490  23.726  22.521  1.00  0.00    -0.368 N 
ATOM     15  H   UNL A   1      33.435  23.533  21.557  1.00  0.00     0.161 HD
BRANCH  14  16
ATOM     16  C   UNL A   1      34.335  22.936  23.276  1.00  0.00     0.071 A 
ATOM     17  C   UNL A   1      35.711  23.204  23.266  1.00  0.00     0.029 A 
ATOM     18  C   UNL A   1      33.891  21.873  24.075  1.00  0.00     0.146 A 
ATOM     19  C   UNL A   1      36.603  22.456  24.041  1.00  0.00     0.002 A 
ATOM     20  C   UNL A   1      34.774  21.112  24.839  1.00  0.00     0.041 A 
ATOM     21  F   UNL A   1      32.597  21.522  24.083  1.00  0.00    -0.205 F 
ATOM     22  C   UNL A   1      36.133  21.407  24.828  1.00  0.00     0.003 A 
ENDBRANCH  14  16
ENDBRANCH   8  14
ENDBRANCH   5   8
ENDBRANCH   3   4
ENDBRANCH   2   3
ENDBRANCH   1   2
BRANCH   1  23
ATOM     23  C   UNL A   1      33.239  29.806  26.031  1.00  0.00     0.116 C 
BRANCH  23  24
ATOM     24  N   UNL A   1      32.979  31.110  26.626  1.00  0.00    -0.352 N 
ATOM     25  C   UNL A   1      33.741  31.791  27.551  1.00  0.00     0.251 C 
ATOM     26  H   UNL A   1      32.155  31.561  26.331  1.00  0.00     0.163 HD
ATOM     27  O   UNL A   1      33.342  32.836  28.038  1.00  0.00    -0.269 OA
BRANCH  25  28
ATOM     28  C   UNL A   1      35.032  31.204  27.968  1.00  0.00     0.039 A 
ATOM     29  C   UNL A   1      36.164  32.020  28.000  1.00  0.00     0.014 A 
ATOM     30  C   UNL A   1      35.097  29.876  28.398  1.00  0.00     0.014 A 
ATOM     31  C   UNL A   1      37.351  31.522  28.539  1.00  0.00     0.010 A 
ATOM     32  C   UNL A   1      36.258  29.408  29.001  1.00  0.00     0.010 A 
ATOM     33  C   UNL A   1      37.394  30.226  29.081  1.00  0.00    -0.014 A 
BRANCH  33  34
ATOM     34  C   UNL A   1      38.607  29.716  29.767  1.00  0.00     0.031 A 
ATOM     35  C   UNL A   1      39.005  30.269  31.107  1.00  0.00     0.074 A 
ATOM     36  C   UNL A   1      39.401  28.828  29.138  1.00  0.00     0.049 A 
ATOM     37  N   UNL A   1      40.062  29.999  31.824  1.00  0.00    -0.248 NA
ATOM     38  C   UNL A   1      38.113  31.277  31.706  1.00  0.00     0.031 C 
ATOM     39  C   UNL A   1      39.165  28.282  27.799  1.00  0.00     0.029 A 
ATOM     40  N   UNL A   1      40.582  28.245  29.528  1.00  0.00    -0.354 N 
ATOM     41  C   UNL A   1      39.984  30.824  32.939  1.00  0.00     0.074 A 
ATOM     42  C   UNL A   1      38.793  31.630  32.788  1.00  0.00     0.031 C 
ATOM     43  C   UNL A   1      40.161  27.439  27.485  1.00  0.00     0.029 A 
ATOM     44  C   UNL A   1      41.121  27.402  28.584  1.00  0.00     0.049 A 
ATOM     45  H   UNL A   1      41.003  28.415  30.402  1.00  0.00     0.167 HD
ATOM     46  C   UNL A   1      40.811  30.880  34.010  1.00  0.00     0.034 A 
ATOM     47  C   UNL A   1      42.258  26.680  28.602  1.00  0.00     0.034 A 
ATOM     48  C   UNL A   1      41.959  30.035  34.182  1.00  0.00     0.049 A 
ATOM     49  C   UNL A   1      43.130  26.718  29.827  1.00  0.00     0.074 A 
ATOM     50  C   UNL A   1      42.805  29.952  35.274  1.00  0.00     0.029 A 
ATOM     51  N   UNL A   1      42.422  29.126  33.246  1.00  0.00    -0.354 N 
ATOM     52  N   UNL A   1      42.957  27.392  30.939  1.00  0.00    -0.248 NA
ATOM     53  C   UNL A   1      44.334  25.873  29.821  1.00  0.00     0.031 C 
ATOM     54  C   UNL A   1      43.789  29.001  34.992  1.00  0.00     0.029 A 
ATOM     55  C   UNL A   1      43.545  28.479  33.732  1.00  0.00     0.049 A 
ATOM     56  H   UNL A   1      42.015  28.964  32.364  1.00  0.00     0.167 HD
ATOM     57  C   UNL A   1      44.008  27.031  31.773  1.00  0.00     0.074 A 
ATOM     58  C   UNL A   1      44.806  26.064  31.046  1.00  0.00     0.031 C 
ATOM     59  C   UNL A   1      44.295  27.475  33.021  1.00  0.00     0.034 A 
BRANCH  46  60
ATOM     60  C   UNL A   1      40.463  31.836  35.119  1.00  0.00     0.023 A 
ATOM     61  C   UNL A   1      41.183  33.042  35.239  1.00  0.00     0.012 A 
ATOM     62  C   UNL A   1      39.376  31.589  35.980  1.00  0.00     0.148 A 
ATOM     63  C   UNL A   1      40.842  33.978  36.214  1.00  0.00     0.002 A 
ATOM     64  C   UNL A   1      39.016  32.546  36.922  1.00  0.00     0.091 A 
ATOM     65  F   UNL A   1      38.719  30.426  35.864  1.00  0.00    -0.205 F 
ATOM     66  C   UNL A   1      39.752  33.736  37.045  1.00  0.00     0.022 A 
BRANCH  64  67
ATOM     67  S   UNL A   1      37.580  32.369  37.986  1.00  0.00     0.127 S 
ATOM     68  O   UNL A   1      36.543  33.031  37.195  1.00  0.00    -0.237 OA
ATOM     69  O   UNL A   1      37.442  30.916  38.077  1.00  0.00    -0.237 OA
ATOM     70  O   UNL A   1      37.924  33.027  39.239  1.00  0.00    -0.744 OA
ENDBRANCH  64  67
ENDBRANCH  46  60
BRANCH  47  71
ATOM     71  C   UNL A   1      42.580  25.788  27.451  1.00  0.00     0.023 A 
ATOM     72  C   UNL A   1      43.417  26.268  26.425  1.00  0.00     0.012 A 
ATOM     73  C   UNL A   1      42.125  24.456  27.400  1.00  0.00     0.148 A 
ATOM     74  C   UNL A   1      43.781  25.445  25.359  1.00  0.00     0.002 A 
ATOM     75  C   UNL A   1      42.536  23.624  26.363  1.00  0.00     0.091 A 
ATOM     76  F   UNL A   1      41.320  24.021  28.380  1.00  0.00    -0.205 F 
ATOM     77  C   UNL A   1      43.352  24.121  25.335  1.00  0.00     0.022 A 
BRANCH  75  78
ATOM     78  S   UNL A   1      42.153  21.869  26.325  1.00  0.00     0.127 S 
ATOM     79  O   UNL A   1      42.484  21.462  27.687  1.00  0.00    -0.237 OA
ATOM     80  O   UNL A   1      40.724  21.879  26.014  1.00  0.00    -0.237 OA
ATOM     81  O   UNL A   1      42.991  21.306  25.273  1.00  0.00    -0.744 OA
ENDBRANCH  75  78
ENDBRANCH  47  71
BRANCH  59  82
ATOM     82  C   UNL A   1      45.511  26.915  33.711  1.00  0.00     0.023 A 
ATOM     83  C   UNL A   1      46.734  27.610  33.632  1.00  0.00     0.012 A 
ATOM     84  C   UNL A   1      45.410  25.780  34.539  1.00  0.00     0.148 A 
ATOM     85  C   UNL A   1      47.843  27.173  34.355  1.00  0.00     0.002 A 
ATOM     86  C   UNL A   1      46.506  25.378  35.292  1.00  0.00     0.091 A 
ATOM     87  F   UNL A   1      44.241  25.125  34.586  1.00  0.00    -0.205 F 
ATOM     88  C   UNL A   1      47.726  26.068  35.196  1.00  0.00     0.022 A 
BRANCH  86  89
ATOM     89  S   UNL A   1      46.417  24.031  36.479  1.00  0.00     0.127 S 
ATOM     90  O   UNL A   1      46.215  22.877  35.605  1.00  0.00    -0.237 OA
ATOM     91  O   UNL A   1      47.733  24.090  37.116  1.00  0.00    -0.237 OA
ATOM     92  O   UNL A   1      45.304  24.348  37.363  1.00  0.00    -0.744 OA
ENDBRANCH  86  89
ENDBRANCH  59  82
ENDBRANCH  33  34
ENDBRANCH  25  28
ENDBRANCH  23  24
ENDBRANCH   1  23
TORSDOF 16
ENDMDL
