MODEL 1
REMARK VINA RESULT:     -10.3      0.000      0.000
REMARK SMILES C[C@H](NC(N)=O)C(=O)N[C@@H](CO)C(=O)NCCCCNC(=O)c1ccc(-c2c3nc(c(-c4cccc(S(=O)(=O)[O-])c4F)c4ccc([nH]4)c(-c4cccc(S(=O)(=O)[O-])c4F)c4nc(c(-c5cccc(S(=O)(=O)[O-])c5F)c5ccc2[nH]5)C=C4)C=C3)cc1
REMARK SMILES IDX 17 1 16 2 15 3 13 4 14 5 10 7 9 8 7 9 8 10 2 12 1 13 3 14
REMARK SMILES IDX 4 15 5 17 6 18 11 21 12 22 18 24 19 25 20 26 21 27 22 29
REMARK SMILES IDX 23 30 24 31 85 32 25 33 84 34 26 35 27 36 28 37 78 38 29 39
REMARK SMILES IDX 83 40 77 41 79 42 30 43 82 44 76 45 75 46 31 48 63 49 43 50
REMARK SMILES IDX 62 51 44 52 47 53 61 54 80 55 45 56 46 57 60 59 81 60 48 61
REMARK SMILES IDX 32 62 33 63 41 64 34 65 36 66 42 67 35 68 37 69 38 70 39 71
REMARK SMILES IDX 40 72 64 73 65 74 73 75 66 76 68 77 74 78 67 79 69 80 70 81
REMARK SMILES IDX 71 82 72 83 49 84 50 85 58 86 51 87 53 88 59 89 52 90 54 91
REMARK SMILES IDX 55 92 56 93 57 94
REMARK H PARENT 15 6 9 11 3 16 5 19 5 20 12 23 20 28 79 47 47 58
REMARK Flexibility Score: inf
ROOT
ATOM      1  C   UNL A   1      32.249  27.157  26.334  1.00  0.00     0.023 C 
ENDROOT
BRANCH   1   2
ATOM      2  C   UNL A   1      32.145  25.727  25.815  1.00  0.00     0.116 C 
BRANCH   2   3
ATOM      3  N   UNL A   1      32.438  24.745  26.841  1.00  0.00    -0.354 N 
ATOM      4  C   UNL A   1      32.172  23.413  26.911  1.00  0.00     0.244 C 
ATOM      5  O   UNL A   1      32.752  22.769  27.792  1.00  0.00    -0.273 OA
ATOM      6  H   UNL A   1      32.914  25.106  27.623  1.00  0.00     0.163 HD
BRANCH   4   7
ATOM      7  C   UNL A   1      31.285  22.669  25.890  1.00  0.00     0.197 C 
BRANCH   7   8
ATOM      8  N   UNL A   1      31.941  21.517  25.260  1.00  0.00    -0.340 N 
ATOM      9  C   UNL A   1      33.036  21.450  24.453  1.00  0.00     0.243 C 
ATOM     10  O   UNL A   1      33.558  20.338  24.325  1.00  0.00    -0.273 OA
ATOM     11  H   UNL A   1      31.519  20.649  25.453  1.00  0.00     0.164 HD
BRANCH   9  12
ATOM     12  C   UNL A   1      33.634  22.687  23.761  1.00  0.00     0.170 C 
ATOM     13  C   UNL A   1      33.080  22.879  22.353  1.00  0.00     0.041 C 
BRANCH  12  14
ATOM     14  N   UNL A   1      35.094  22.651  23.788  1.00  0.00    -0.327 N 
ATOM     15  C   UNL A   1      35.807  23.458  24.616  1.00  0.00     0.312 C 
ATOM     16  H   UNL A   1      35.572  22.029  23.193  1.00  0.00     0.166 HD
ATOM     17  N   UNL A   1      37.142  23.288  24.509  1.00  0.00    -0.352 N 
ATOM     18  O   UNL A   1      35.330  24.269  25.402  1.00  0.00    -0.249 OA
ATOM     19  H   UNL A   1      37.505  22.631  23.871  1.00  0.00     0.161 HD
ATOM     20  H   UNL A   1      37.753  23.821  25.067  1.00  0.00     0.161 HD
ENDBRANCH  12  14
ENDBRANCH   9  12
ENDBRANCH   7   8
BRANCH   7  21
ATOM     21  C   UNL A   1      29.910  22.326  26.484  1.00  0.00     0.191 C 
BRANCH  21  22
ATOM     22  O   UNL A   1      29.649  22.970  27.728  1.00  0.00    -0.394 OA
ATOM     23  H   UNL A   1      29.637  23.931  27.599  1.00  0.00     0.210 HD
ENDBRANCH  21  22
ENDBRANCH   7  21
ENDBRANCH   4   7
ENDBRANCH   2   3
ENDBRANCH   1   2
BRANCH   1  24
ATOM     24  C   UNL A   1      32.015  28.245  25.284  1.00  0.00     0.023 C 
BRANCH  24  25
ATOM     25  C   UNL A   1      33.056  29.360  25.246  1.00  0.00     0.116 C 
BRANCH  25  26
ATOM     26  N   UNL A   1      32.577  30.614  25.807  1.00  0.00    -0.352 N 
ATOM     27  C   UNL A   1      33.071  31.338  26.865  1.00  0.00     0.251 C 
ATOM     28  H   UNL A   1      31.785  30.999  25.366  1.00  0.00     0.163 HD
ATOM     29  O   UNL A   1      32.457  32.325  27.264  1.00  0.00    -0.269 OA
BRANCH  27  30
ATOM     30  C   UNL A   1      34.321  30.920  27.536  1.00  0.00     0.039 A 
ATOM     31  C   UNL A   1      35.338  31.861  27.711  1.00  0.00     0.014 A 
ATOM     32  C   UNL A   1      34.495  29.610  27.988  1.00  0.00     0.014 A 
ATOM     33  C   UNL A   1      36.510  31.500  28.380  1.00  0.00     0.010 A 
ATOM     34  C   UNL A   1      35.626  29.275  28.729  1.00  0.00     0.010 A 
ATOM     35  C   UNL A   1      36.655  30.209  28.916  1.00  0.00    -0.014 A 
BRANCH  35  36
ATOM     36  C   UNL A   1      37.884  29.821  29.654  1.00  0.00     0.031 A 
ATOM     37  C   UNL A   1      38.163  30.390  31.019  1.00  0.00     0.074 A 
ATOM     38  C   UNL A   1      38.785  29.008  29.068  1.00  0.00     0.049 A 
ATOM     39  N   UNL A   1      39.183  30.176  31.809  1.00  0.00    -0.248 NA
ATOM     40  C   UNL A   1      37.184  31.350  31.555  1.00  0.00     0.031 C 
ATOM     41  C   UNL A   1      38.684  28.473  27.709  1.00  0.00     0.029 A 
ATOM     42  N   UNL A   1      39.975  28.509  29.533  1.00  0.00    -0.354 N 
ATOM     43  C   UNL A   1      38.984  30.993  32.916  1.00  0.00     0.074 A 
ATOM     44  C   UNL A   1      37.774  31.746  32.672  1.00  0.00     0.031 C 
ATOM     45  C   UNL A   1      39.764  27.717  27.452  1.00  0.00     0.029 A 
ATOM     46  C   UNL A   1      40.641  27.726  28.620  1.00  0.00     0.049 A 
ATOM     47  H   UNL A   1      40.321  28.694  30.437  1.00  0.00     0.167 HD
ATOM     48  C   UNL A   1      39.717  31.080  34.053  1.00  0.00     0.034 A 
ATOM     49  C   UNL A   1      41.822  27.084  28.713  1.00  0.00     0.034 A 
ATOM     50  C   UNL A   1      40.896  30.299  34.311  1.00  0.00     0.049 A 
ATOM     51  C   UNL A   1      42.578  27.131  30.012  1.00  0.00     0.074 A 
ATOM     52  C   UNL A   1      41.666  30.253  35.459  1.00  0.00     0.029 A 
ATOM     53  N   UNL A   1      41.476  29.424  33.406  1.00  0.00    -0.354 N 
ATOM     54  N   UNL A   1      42.286  27.781  31.114  1.00  0.00    -0.248 NA
ATOM     55  C   UNL A   1      43.800  26.320  30.101  1.00  0.00     0.031 C 
ATOM     56  C   UNL A   1      42.720  29.359  35.243  1.00  0.00     0.029 A 
ATOM     57  C   UNL A   1      42.593  28.830  33.968  1.00  0.00     0.049 A 
ATOM     58  H   UNL A   1      41.143  29.251  32.496  1.00  0.00     0.167 HD
ATOM     59  C   UNL A   1      43.266  27.431  32.035  1.00  0.00     0.074 A 
ATOM     60  C   UNL A   1      44.146  26.492  31.370  1.00  0.00     0.031 C 
ATOM     61  C   UNL A   1      43.430  27.859  33.312  1.00  0.00     0.034 A 
BRANCH  48  62
ATOM     62  C   UNL A   1      39.214  32.010  35.129  1.00  0.00     0.023 A 
ATOM     63  C   UNL A   1      38.187  31.576  35.994  1.00  0.00     0.012 A 
ATOM     64  C   UNL A   1      39.770  33.292  35.309  1.00  0.00     0.148 A 
ATOM     65  C   UNL A   1      37.688  32.417  36.986  1.00  0.00     0.002 A 
ATOM     66  C   UNL A   1      39.299  34.107  36.333  1.00  0.00     0.091 A 
ATOM     67  F   UNL A   1      40.730  33.698  34.467  1.00  0.00    -0.205 F 
ATOM     68  C   UNL A   1      38.249  33.678  37.162  1.00  0.00     0.022 A 
BRANCH  66  69
ATOM     69  S   UNL A   1      40.011  35.717  36.691  1.00  0.00     0.127 S 
ATOM     70  O   UNL A   1      39.265  36.111  37.885  1.00  0.00    -0.237 OA
ATOM     71  O   UNL A   1      41.416  35.387  36.933  1.00  0.00    -0.237 OA
ATOM     72  O   UNL A   1      39.776  36.530  35.506  1.00  0.00    -0.744 OA
ENDBRANCH  66  69
ENDBRANCH  48  62
BRANCH  49  73
ATOM     73  C   UNL A   1      42.311  26.270  27.563  1.00  0.00     0.023 A 
ATOM     74  C   UNL A   1      43.209  26.841  26.640  1.00  0.00     0.012 A 
ATOM     75  C   UNL A   1      41.930  24.923  27.410  1.00  0.00     0.148 A 
ATOM     76  C   UNL A   1      43.694  26.095  25.567  1.00  0.00     0.002 A 
ATOM     77  C   UNL A   1      42.461  24.169  26.370  1.00  0.00     0.091 A 
ATOM     78  F   UNL A   1      41.069  24.402  28.294  1.00  0.00    -0.205 F 
ATOM     79  C   UNL A   1      43.330  24.757  25.438  1.00  0.00     0.022 A 
BRANCH  77  80
ATOM     80  S   UNL A   1      42.156  22.406  26.206  1.00  0.00     0.127 S 
ATOM     81  O   UNL A   1      40.706  22.368  26.039  1.00  0.00    -0.237 OA
ATOM     82  O   UNL A   1      42.925  22.079  25.004  1.00  0.00    -0.237 OA
ATOM     83  O   UNL A   1      42.669  21.803  27.428  1.00  0.00    -0.744 OA
ENDBRANCH  77  80
ENDBRANCH  49  73
BRANCH  61  84
ATOM     84  C   UNL A   1      44.588  27.291  34.092  1.00  0.00     0.023 A 
ATOM     85  C   UNL A   1      45.839  27.938  34.061  1.00  0.00     0.012 A 
ATOM     86  C   UNL A   1      44.417  26.154  34.905  1.00  0.00     0.148 A 
ATOM     87  C   UNL A   1      46.913  27.438  34.798  1.00  0.00     0.002 A 
ATOM     88  C   UNL A   1      45.479  25.691  35.674  1.00  0.00     0.091 A 
ATOM     89  F   UNL A   1      43.226  25.538  34.906  1.00  0.00    -0.205 F 
ATOM     90  C   UNL A   1      46.730  26.323  35.611  1.00  0.00     0.022 A 
BRANCH  88  91
ATOM     91  S   UNL A   1      45.302  24.320  36.821  1.00  0.00     0.127 S 
ATOM     92  O   UNL A   1      44.232  24.798  37.696  1.00  0.00    -0.237 OA
ATOM     93  O   UNL A   1      44.920  23.218  35.938  1.00  0.00    -0.237 OA
ATOM     94  O   UNL A   1      46.606  24.160  37.452  1.00  0.00    -0.744 OA
ENDBRANCH  88  91
ENDBRANCH  61  84
ENDBRANCH  35  36
ENDBRANCH  27  30
ENDBRANCH  25  26
ENDBRANCH  24  25
ENDBRANCH   1  24
TORSDOF 19
ENDMDL
MODEL 2
REMARK VINA RESULT:     -10.1      1.324      2.014
REMARK SMILES C[C@H](NC(N)=O)C(=O)N[C@@H](CO)C(=O)NCCCCNC(=O)c1ccc(-c2c3nc(c(-c4cccc(S(=O)(=O)[O-])c4F)c4ccc([nH]4)c(-c4cccc(S(=O)(=O)[O-])c4F)c4nc(c(-c5cccc(S(=O)(=O)[O-])c5F)c5ccc2[nH]5)C=C4)C=C3)cc1
REMARK SMILES IDX 17 1 16 2 15 3 13 4 14 5 10 7 9 8 7 9 8 10 2 12 1 13 3 14
REMARK SMILES IDX 4 15 5 17 6 18 11 21 12 22 18 24 19 25 20 26 21 27 22 29
REMARK SMILES IDX 23 30 24 31 85 32 25 33 84 34 26 35 27 36 28 37 78 38 29 39
REMARK SMILES IDX 83 40 77 41 79 42 30 43 82 44 76 45 75 46 31 48 63 49 43 50
REMARK SMILES IDX 62 51 44 52 47 53 61 54 80 55 45 56 46 57 60 59 81 60 48 61
REMARK SMILES IDX 32 62 33 63 41 64 34 65 36 66 42 67 35 68 37 69 38 70 39 71
REMARK SMILES IDX 40 72 64 73 65 74 73 75 66 76 68 77 74 78 67 79 69 80 70 81
REMARK SMILES IDX 71 82 72 83 49 84 50 85 58 86 51 87 53 88 59 89 52 90 54 91
REMARK SMILES IDX 55 92 56 93 57 94
REMARK H PARENT 15 6 9 11 3 16 5 19 5 20 12 23 20 28 79 47 47 58
REMARK Flexibility Score: inf
ROOT
ATOM      1  C   UNL A   1      33.835  28.191  25.225  1.00  0.00     0.023 C 
ENDROOT
BRANCH   1   2
ATOM      2  C   UNL A   1      33.620  26.728  24.849  1.00  0.00     0.116 C 
BRANCH   2   3
ATOM      3  N   UNL A   1      32.269  26.468  24.393  1.00  0.00    -0.354 N 
ATOM      4  C   UNL A   1      31.798  25.702  23.372  1.00  0.00     0.244 C 
ATOM      5  O   UNL A   1      30.585  25.464  23.360  1.00  0.00    -0.273 OA
ATOM      6  H   UNL A   1      31.570  26.924  24.913  1.00  0.00     0.163 HD
BRANCH   4   7
ATOM      7  C   UNL A   1      32.709  25.039  22.317  1.00  0.00     0.197 C 
BRANCH   7   8
ATOM      8  N   UNL A   1      32.590  23.577  22.263  1.00  0.00    -0.340 N 
ATOM      9  C   UNL A   1      33.040  22.617  23.117  1.00  0.00     0.243 C 
ATOM     10  O   UNL A   1      32.532  21.497  23.003  1.00  0.00    -0.273 OA
ATOM     11  H   UNL A   1      32.106  23.234  21.478  1.00  0.00     0.164 HD
BRANCH   9  12
ATOM     12  C   UNL A   1      34.092  22.899  24.205  1.00  0.00     0.170 C 
ATOM     13  C   UNL A   1      35.507  22.921  23.638  1.00  0.00     0.041 C 
BRANCH  12  14
ATOM     14  N   UNL A   1      33.951  21.974  25.326  1.00  0.00    -0.327 N 
ATOM     15  C   UNL A   1      33.356  22.354  26.487  1.00  0.00     0.312 C 
ATOM     16  H   UNL A   1      34.295  21.056  25.240  1.00  0.00     0.166 HD
ATOM     17  N   UNL A   1      33.312  21.371  27.411  1.00  0.00    -0.352 N 
ATOM     18  O   UNL A   1      32.887  23.463  26.714  1.00  0.00    -0.249 OA
ATOM     19  H   UNL A   1      33.694  20.486  27.207  1.00  0.00     0.161 HD
ATOM     20  H   UNL A   1      32.898  21.538  28.288  1.00  0.00     0.161 HD
ENDBRANCH  12  14
ENDBRANCH   9  12
ENDBRANCH   7   8
BRANCH   7  21
ATOM     21  C   UNL A   1      32.554  25.705  20.941  1.00  0.00     0.191 C 
BRANCH  21  22
ATOM     22  O   UNL A   1      31.429  26.575  20.851  1.00  0.00    -0.394 OA
ATOM     23  H   UNL A   1      30.833  26.263  20.152  1.00  0.00     0.210 HD
ENDBRANCH  21  22
ENDBRANCH   7  21
ENDBRANCH   4   7
ENDBRANCH   2   3
ENDBRANCH   1   2
BRANCH   1  24
ATOM     24  C   UNL A   1      32.561  29.034  25.295  1.00  0.00     0.023 C 
BRANCH  24  25
ATOM     25  C   UNL A   1      32.227  29.610  26.668  1.00  0.00     0.116 C 
BRANCH  25  26
ATOM     26  N   UNL A   1      32.182  31.064  26.687  1.00  0.00    -0.352 N 
ATOM     27  C   UNL A   1      33.063  31.954  27.253  1.00  0.00     0.251 C 
ATOM     28  H   UNL A   1      31.410  31.469  26.230  1.00  0.00     0.163 HD
ATOM     29  O   UNL A   1      32.794  33.152  27.261  1.00  0.00    -0.269 OA
BRANCH  27  30
ATOM     30  C   UNL A   1      34.317  31.470  27.871  1.00  0.00     0.039 A 
ATOM     31  C   UNL A   1      35.388  32.358  28.003  1.00  0.00     0.014 A 
ATOM     32  C   UNL A   1      34.444  30.152  28.314  1.00  0.00     0.014 A 
ATOM     33  C   UNL A   1      36.566  31.936  28.623  1.00  0.00     0.010 A 
ATOM     34  C   UNL A   1      35.587  29.757  29.005  1.00  0.00     0.010 A 
ATOM     35  C   UNL A   1      36.668  30.638  29.150  1.00  0.00    -0.014 A 
BRANCH  35  36
ATOM     36  C   UNL A   1      37.906  30.185  29.835  1.00  0.00     0.031 A 
ATOM     37  C   UNL A   1      38.232  30.679  31.220  1.00  0.00     0.074 A 
ATOM     38  C   UNL A   1      38.773  29.384  29.186  1.00  0.00     0.049 A 
ATOM     39  N   UNL A   1      39.266  30.402  31.971  1.00  0.00    -0.248 NA
ATOM     40  C   UNL A   1      37.290  31.632  31.829  1.00  0.00     0.031 C 
ATOM     41  C   UNL A   1      38.625  28.920  27.805  1.00  0.00     0.029 A 
ATOM     42  N   UNL A   1      39.962  28.835  29.595  1.00  0.00    -0.354 N 
ATOM     43  C   UNL A   1      39.114  31.165  33.123  1.00  0.00     0.074 A 
ATOM     44  C   UNL A   1      37.917  31.956  32.949  1.00  0.00     0.031 C 
ATOM     45  C   UNL A   1      39.681  28.156  27.483  1.00  0.00     0.029 A 
ATOM     46  C   UNL A   1      40.587  28.085  28.626  1.00  0.00     0.049 A 
ATOM     47  H   UNL A   1      40.334  28.967  30.497  1.00  0.00     0.167 HD
ATOM     48  C   UNL A   1      39.877  31.179  34.243  1.00  0.00     0.034 A 
ATOM     49  C   UNL A   1      41.754  27.413  28.656  1.00  0.00     0.034 A 
ATOM     50  C   UNL A   1      41.043  30.359  34.431  1.00  0.00     0.049 A 
ATOM     51  C   UNL A   1      42.544  27.378  29.935  1.00  0.00     0.074 A 
ATOM     52  C   UNL A   1      41.841  30.238  35.554  1.00  0.00     0.029 A 
ATOM     53  N   UNL A   1      41.580  29.519  33.468  1.00  0.00    -0.354 N 
ATOM     54  N   UNL A   1      42.294  27.977  31.076  1.00  0.00    -0.248 NA
ATOM     55  C   UNL A   1      43.748  26.537  29.952  1.00  0.00     0.031 C 
ATOM     56  C   UNL A   1      42.867  29.333  35.266  1.00  0.00     0.029 A 
ATOM     57  C   UNL A   1      42.696  28.872  33.971  1.00  0.00     0.049 A 
ATOM     58  H   UNL A   1      41.221  29.400  32.559  1.00  0.00     0.167 HD
ATOM     59  C   UNL A   1      43.288  27.559  31.952  1.00  0.00     0.074 A 
ATOM     60  C   UNL A   1      44.129  26.636  31.218  1.00  0.00     0.031 C 
ATOM     61  C   UNL A   1      43.494  27.917  33.245  1.00  0.00     0.034 A 
BRANCH  48  62
ATOM     62  C   UNL A   1      39.423  32.064  35.377  1.00  0.00     0.023 A 
ATOM     63  C   UNL A   1      38.524  31.551  36.336  1.00  0.00     0.012 A 
ATOM     64  C   UNL A   1      39.902  33.381  35.517  1.00  0.00     0.148 A 
ATOM     65  C   UNL A   1      38.071  32.348  37.386  1.00  0.00     0.002 A 
ATOM     66  C   UNL A   1      39.483  34.154  36.594  1.00  0.00     0.091 A 
ATOM     67  F   UNL A   1      40.739  33.860  34.586  1.00  0.00    -0.205 F 
ATOM     68  C   UNL A   1      38.557  33.645  37.520  1.00  0.00     0.022 A 
BRANCH  66  69
ATOM     69  S   UNL A   1      40.112  35.808  36.899  1.00  0.00     0.127 S 
ATOM     70  O   UNL A   1      39.639  36.527  35.717  1.00  0.00    -0.237 OA
ATOM     71  O   UNL A   1      39.434  36.173  38.144  1.00  0.00    -0.237 OA
ATOM     72  O   UNL A   1      41.557  35.671  37.015  1.00  0.00    -0.744 OA
ENDBRANCH  66  69
ENDBRANCH  48  62
BRANCH  49  73
ATOM     73  C   UNL A   1      42.195  26.648  27.455  1.00  0.00     0.023 A 
ATOM     74  C   UNL A   1      42.930  27.302  26.446  1.00  0.00     0.012 A 
ATOM     75  C   UNL A   1      41.933  25.270  27.331  1.00  0.00     0.148 A 
ATOM     76  C   UNL A   1      43.369  26.604  25.321  1.00  0.00     0.002 A 
ATOM     77  C   UNL A   1      42.421  24.569  26.236  1.00  0.00     0.091 A 
ATOM     78  F   UNL A   1      41.226  24.670  28.298  1.00  0.00    -0.205 F 
ATOM     79  C   UNL A   1      43.125  25.237  25.221  1.00  0.00     0.022 A 
BRANCH  77  80
ATOM     80  S   UNL A   1      42.274  22.785  26.090  1.00  0.00     0.127 S 
ATOM     81  O   UNL A   1      42.867  22.541  24.779  1.00  0.00    -0.237 OA
ATOM     82  O   UNL A   1      43.074  22.323  27.225  1.00  0.00    -0.237 OA
ATOM     83  O   UNL A   1      40.850  22.497  26.205  1.00  0.00    -0.744 OA
ENDBRANCH  77  80
ENDBRANCH  49  73
BRANCH  61  84
ATOM     84  C   UNL A   1      44.657  27.286  33.965  1.00  0.00     0.023 A 
ATOM     85  C   UNL A   1      45.941  27.858  33.863  1.00  0.00     0.012 A 
ATOM     86  C   UNL A   1      44.465  26.162  34.792  1.00  0.00     0.148 A 
ATOM     87  C   UNL A   1      47.021  27.299  34.544  1.00  0.00     0.002 A 
ATOM     88  C   UNL A   1      45.538  25.640  35.506  1.00  0.00     0.091 A 
ATOM     89  F   UNL A   1      43.242  25.617  34.861  1.00  0.00    -0.205 F 
ATOM     90  C   UNL A   1      46.818  26.198  35.373  1.00  0.00     0.022 A 
BRANCH  88  91
ATOM     91  S   UNL A   1      45.343  24.285  36.669  1.00  0.00     0.127 S 
ATOM     92  O   UNL A   1      44.944  23.189  35.788  1.00  0.00    -0.237 OA
ATOM     93  O   UNL A   1      46.688  24.157  37.230  1.00  0.00    -0.237 OA
ATOM     94  O   UNL A   1      44.334  24.724  37.624  1.00  0.00    -0.744 OA
ENDBRANCH  88  91
ENDBRANCH  61  84
ENDBRANCH  35  36
ENDBRANCH  27  30
ENDBRANCH  25  26
ENDBRANCH  24  25
ENDBRANCH   1  24
TORSDOF 19
ENDMDL
MODEL 3
REMARK VINA RESULT:     -10.1      2.182      3.272
REMARK SMILES C[C@H](NC(N)=O)C(=O)N[C@@H](CO)C(=O)NCCCCNC(=O)c1ccc(-c2c3nc(c(-c4cccc(S(=O)(=O)[O-])c4F)c4ccc([nH]4)c(-c4cccc(S(=O)(=O)[O-])c4F)c4nc(c(-c5cccc(S(=O)(=O)[O-])c5F)c5ccc2[nH]5)C=C4)C=C3)cc1
REMARK SMILES IDX 17 1 16 2 15 3 13 4 14 5 10 7 9 8 7 9 8 10 2 12 1 13 3 14
REMARK SMILES IDX 4 15 5 17 6 18 11 21 12 22 18 24 19 25 20 26 21 27 22 29
REMARK SMILES IDX 23 30 24 31 85 32 25 33 84 34 26 35 27 36 28 37 78 38 29 39
REMARK SMILES IDX 83 40 77 41 79 42 30 43 82 44 76 45 75 46 31 48 63 49 43 50
REMARK SMILES IDX 62 51 44 52 47 53 61 54 80 55 45 56 46 57 60 59 81 60 48 61
REMARK SMILES IDX 32 62 33 63 41 64 34 65 36 66 42 67 35 68 37 69 38 70 39 71
REMARK SMILES IDX 40 72 64 73 65 74 73 75 66 76 68 77 74 78 67 79 69 80 70 81
REMARK SMILES IDX 71 82 72 83 49 84 50 85 58 86 51 87 53 88 59 89 52 90 54 91
REMARK SMILES IDX 55 92 56 93 57 94
REMARK H PARENT 15 6 9 11 3 16 5 19 5 20 12 23 20 28 79 47 47 58
REMARK Flexibility Score: inf
ROOT
ATOM      1  C   UNL A   1      33.237  28.944  24.695  1.00  0.00     0.023 C 
ENDROOT
BRANCH   1   2
ATOM      2  C   UNL A   1      32.310  28.031  23.898  1.00  0.00     0.116 C 
BRANCH   2   3
ATOM      3  N   UNL A   1      32.970  27.440  22.751  1.00  0.00    -0.354 N 
ATOM      4  C   UNL A   1      33.290  26.149  22.465  1.00  0.00     0.244 C 
ATOM      5  O   UNL A   1      33.631  25.898  21.304  1.00  0.00    -0.273 OA
ATOM      6  H   UNL A   1      33.232  28.086  22.056  1.00  0.00     0.163 HD
BRANCH   4   7
ATOM      7  C   UNL A   1      33.140  24.993  23.476  1.00  0.00     0.197 C 
BRANCH   7   8
ATOM      8  N   UNL A   1      32.773  23.711  22.864  1.00  0.00    -0.340 N 
ATOM      9  C   UNL A   1      32.130  22.629  23.385  1.00  0.00     0.243 C 
ATOM     10  O   UNL A   1      31.669  21.820  22.574  1.00  0.00    -0.273 OA
ATOM     11  H   UNL A   1      33.035  23.617  21.920  1.00  0.00     0.164 HD
BRANCH   9  12
ATOM     12  C   UNL A   1      31.938  22.427  24.898  1.00  0.00     0.170 C 
ATOM     13  C   UNL A   1      32.046  20.959  25.297  1.00  0.00     0.041 C 
BRANCH  12  14
ATOM     14  N   UNL A   1      30.697  23.044  25.359  1.00  0.00    -0.327 N 
ATOM     15  C   UNL A   1      30.651  23.770  26.506  1.00  0.00     0.312 C 
ATOM     16  H   UNL A   1      29.877  22.930  24.827  1.00  0.00     0.166 HD
ATOM     17  N   UNL A   1      29.423  24.266  26.774  1.00  0.00    -0.352 N 
ATOM     18  O   UNL A   1      31.600  23.984  27.249  1.00  0.00    -0.249 OA
ATOM     19  H   UNL A   1      28.674  24.082  26.163  1.00  0.00     0.161 HD
ATOM     20  H   UNL A   1      29.278  24.810  27.581  1.00  0.00     0.161 HD
ENDBRANCH  12  14
ENDBRANCH   9  12
ENDBRANCH   7   8
BRANCH   7  21
ATOM     21  C   UNL A   1      34.364  24.889  24.398  1.00  0.00     0.191 C 
BRANCH  21  22
ATOM     22  O   UNL A   1      34.037  24.890  25.785  1.00  0.00    -0.394 OA
ATOM     23  H   UNL A   1      33.715  24.012  26.042  1.00  0.00     0.210 HD
ENDBRANCH  21  22
ENDBRANCH   7  21
ENDBRANCH   4   7
ENDBRANCH   2   3
ENDBRANCH   1   2
BRANCH   1  24
ATOM     24  C   UNL A   1      33.829  28.319  25.960  1.00  0.00     0.023 C 
BRANCH  24  25
ATOM     25  C   UNL A   1      33.403  28.964  27.275  1.00  0.00     0.116 C 
BRANCH  25  26
ATOM     26  N   UNL A   1      33.565  30.410  27.287  1.00  0.00    -0.352 N 
ATOM     27  C   UNL A   1      34.613  31.164  27.758  1.00  0.00     0.251 C 
ATOM     28  H   UNL A   1      32.817  30.922  26.903  1.00  0.00     0.163 HD
ATOM     29  O   UNL A   1      34.516  32.388  27.782  1.00  0.00    -0.269 OA
BRANCH  27  30
ATOM     30  C   UNL A   1      35.840  30.505  28.256  1.00  0.00     0.039 A 
ATOM     31  C   UNL A   1      37.018  30.628  27.515  1.00  0.00     0.014 A 
ATOM     32  C   UNL A   1      35.835  29.768  29.443  1.00  0.00     0.014 A 
ATOM     33  C   UNL A   1      38.199  30.051  27.988  1.00  0.00     0.010 A 
ATOM     34  C   UNL A   1      37.029  29.266  29.955  1.00  0.00     0.010 A 
ATOM     35  C   UNL A   1      38.220  29.384  29.225  1.00  0.00    -0.014 A 
BRANCH  35  36
ATOM     36  C   UNL A   1      39.475  28.790  29.752  1.00  0.00     0.031 A 
ATOM     37  C   UNL A   1      40.140  29.376  30.969  1.00  0.00     0.074 A 
ATOM     38  C   UNL A   1      40.055  27.765  29.097  1.00  0.00     0.049 A 
ATOM     39  N   UNL A   1      41.240  29.000  31.568  1.00  0.00    -0.248 NA
ATOM     40  C   UNL A   1      39.504  30.558  31.574  1.00  0.00     0.031 C 
ATOM     41  C   UNL A   1      39.568  27.175  27.849  1.00  0.00     0.029 A 
ATOM     42  N   UNL A   1      41.194  27.054  29.379  1.00  0.00    -0.354 N 
ATOM     43  C   UNL A   1      41.442  29.912  32.598  1.00  0.00     0.074 A 
ATOM     44  C   UNL A   1      40.381  30.890  32.509  1.00  0.00     0.031 C 
ATOM     45  C   UNL A   1      40.400  26.189  27.475  1.00  0.00     0.029 A 
ATOM     46  C   UNL A   1      41.486  26.086  28.445  1.00  0.00     0.049 A 
ATOM     47  H   UNL A   1      41.750  27.220  30.174  1.00  0.00     0.167 HD
ATOM     48  C   UNL A   1      42.399  29.915  33.557  1.00  0.00     0.034 A 
ATOM     49  C   UNL A   1      42.509  25.213  28.381  1.00  0.00     0.034 A 
ATOM     50  C   UNL A   1      43.428  28.917  33.669  1.00  0.00     0.049 A 
ATOM     51  C   UNL A   1      43.515  25.183  29.499  1.00  0.00     0.074 A 
ATOM     52  C   UNL A   1      44.397  28.783  34.647  1.00  0.00     0.029 A 
ATOM     53  N   UNL A   1      43.622  27.879  32.771  1.00  0.00    -0.354 N 
ATOM     54  N   UNL A   1      43.594  25.952  30.559  1.00  0.00    -0.248 NA
ATOM     55  C   UNL A   1      44.543  24.135  29.441  1.00  0.00     0.031 C 
ATOM     56  C   UNL A   1      45.185  27.671  34.333  1.00  0.00     0.029 A 
ATOM     57  C   UNL A   1      44.692  27.098  33.171  1.00  0.00     0.049 A 
ATOM     58  H   UNL A   1      43.078  27.722  31.965  1.00  0.00     0.167 HD
ATOM     59  C   UNL A   1      44.656  25.461  31.309  1.00  0.00     0.074 A 
ATOM     60  C   UNL A   1      45.174  24.313  30.594  1.00  0.00     0.031 C 
ATOM     61  C   UNL A   1      45.165  25.927  32.477  1.00  0.00     0.034 A 
BRANCH  48  62
ATOM     62  C   UNL A   1      42.327  31.001  34.602  1.00  0.00     0.023 A 
ATOM     63  C   UNL A   1      41.624  30.760  35.802  1.00  0.00     0.012 A 
ATOM     64  C   UNL A   1      42.971  32.240  34.418  1.00  0.00     0.148 A 
ATOM     65  C   UNL A   1      41.523  31.748  36.779  1.00  0.00     0.002 A 
ATOM     66  C   UNL A   1      42.906  33.203  35.419  1.00  0.00     0.091 A 
ATOM     67  F   UNL A   1      43.616  32.462  33.265  1.00  0.00    -0.205 F 
ATOM     68  C   UNL A   1      42.171  32.965  36.592  1.00  0.00     0.022 A 
BRANCH  66  69
ATOM     69  S   UNL A   1      43.772  34.773  35.307  1.00  0.00     0.127 S 
ATOM     70  O   UNL A   1      45.169  34.341  35.329  1.00  0.00    -0.237 OA
ATOM     71  O   UNL A   1      43.314  35.287  34.016  1.00  0.00    -0.237 OA
ATOM     72  O   UNL A   1      43.337  35.553  36.457  1.00  0.00    -0.744 OA
ENDBRANCH  66  69
ENDBRANCH  48  62
BRANCH  49  73
ATOM     73  C   UNL A   1      42.576  24.238  27.255  1.00  0.00     0.023 A 
ATOM     74  C   UNL A   1      43.289  24.573  26.088  1.00  0.00     0.012 A 
ATOM     75  C   UNL A   1      41.980  22.966  27.355  1.00  0.00     0.148 A 
ATOM     76  C   UNL A   1      43.382  23.672  25.027  1.00  0.00     0.002 A 
ATOM     77  C   UNL A   1      42.123  22.053  26.319  1.00  0.00     0.091 A 
ATOM     78  F   UNL A   1      41.300  22.671  28.471  1.00  0.00    -0.205 F 
ATOM     79  C   UNL A   1      42.809  22.408  25.147  1.00  0.00     0.022 A 
BRANCH  77  80
ATOM     80  S   UNL A   1      41.538  20.358  26.440  1.00  0.00     0.127 S 
ATOM     81  O   UNL A   1      40.108  20.517  26.193  1.00  0.00    -0.237 OA
ATOM     82  O   UNL A   1      42.281  19.704  25.363  1.00  0.00    -0.237 OA
ATOM     83  O   UNL A   1      41.904  19.911  27.778  1.00  0.00    -0.744 OA
ENDBRANCH  77  80
ENDBRANCH  49  73
BRANCH  61  84
ATOM     84  C   UNL A   1      46.325  25.177  33.079  1.00  0.00     0.023 A 
ATOM     85  C   UNL A   1      47.642  25.619  32.848  1.00  0.00     0.012 A 
ATOM     86  C   UNL A   1      46.104  24.073  33.924  1.00  0.00     0.148 A 
ATOM     87  C   UNL A   1      48.724  24.950  33.419  1.00  0.00     0.002 A 
ATOM     88  C   UNL A   1      47.185  23.440  34.528  1.00  0.00     0.091 A 
ATOM     89  F   UNL A   1      44.845  23.652  34.116  1.00  0.00    -0.205 F 
ATOM     90  C   UNL A   1      48.495  23.869  34.266  1.00  0.00     0.022 A 
BRANCH  88  91
ATOM     91  S   UNL A   1      46.973  22.103  35.709  1.00  0.00     0.127 S 
ATOM     92  O   UNL A   1      48.354  21.834  36.107  1.00  0.00    -0.237 OA
ATOM     93  O   UNL A   1      46.150  22.726  36.745  1.00  0.00    -0.237 OA
ATOM     94  O   UNL A   1      46.308  21.031  34.978  1.00  0.00    -0.744 OA
ENDBRANCH  88  91
ENDBRANCH  61  84
ENDBRANCH  35  36
ENDBRANCH  27  30
ENDBRANCH  25  26
ENDBRANCH  24  25
ENDBRANCH   1  24
TORSDOF 19
ENDMDL
