MODEL 1
REMARK VINA RESULT:     -10.1      0.000      0.000
REMARK SMILES C=CCN(CC(=O)NCCCCNC(=O)c1ccc(-c2c3nc(c(-c4cccc(S(=O)(=O)[O-])c4F)c4ccc([nH]4)c(-c4cccc(S(=O)(=O)[O-])c4F)c4nc(c(-c5cccc(S(=O)(=O)[O-])c5F)c5ccc2[nH]5)C=C4)C=C3)cc1)C(=O)NCC(C)C
REMARK SMILES IDX 10 1 9 2 8 3 6 4 7 5 5 7 4 8 3 9 2 10 1 11 79 12 80 13 81 14
REMARK SMILES IDX 82 16 83 17 84 18 85 19 11 20 12 21 13 22 14 23 15 25 16 26
REMARK SMILES IDX 17 27 78 28 18 29 77 30 19 31 20 32 21 33 71 34 22 35 76 36
REMARK SMILES IDX 70 37 72 38 23 39 75 40 69 41 68 42 24 44 56 45 36 46 55 47
REMARK SMILES IDX 37 48 40 49 54 50 73 51 38 52 39 53 53 55 74 56 41 57 25 58
REMARK SMILES IDX 26 59 34 60 27 61 29 62 35 63 28 64 30 65 31 66 32 67 33 68
REMARK SMILES IDX 57 69 58 70 66 71 59 72 61 73 67 74 60 75 62 76 63 77 64 78
REMARK SMILES IDX 65 79 42 80 43 81 51 82 44 83 46 84 52 85 45 86 47 87 48 88
REMARK SMILES IDX 49 89 50 90
REMARK H PARENT 8 6 81 15 13 24 72 43 40 54
REMARK Flexibility Score: inf
ROOT
ATOM      1  C   UNL A   1      32.309  30.150  26.364  1.00  0.00     0.023 C 
ENDROOT
BRANCH   1   2
ATOM      2  C   UNL A   1      32.314  28.995  27.359  1.00  0.00     0.116 C 
BRANCH   2   3
ATOM      3  N   UNL A   1      31.357  27.956  27.054  1.00  0.00    -0.355 N 
ATOM      4  C   UNL A   1      31.485  26.901  26.201  1.00  0.00     0.239 C 
ATOM      5  O   UNL A   1      30.797  25.902  26.437  1.00  0.00    -0.273 OA
ATOM      6  H   UNL A   1      30.496  28.018  27.526  1.00  0.00     0.163 HD
BRANCH   4   7
ATOM      7  C   UNL A   1      32.558  26.853  25.097  1.00  0.00     0.221 C 
BRANCH   7   8
ATOM      8  N   UNL A   1      32.130  27.238  23.755  1.00  0.00    -0.312 N 
BRANCH   8   9
ATOM      9  C   UNL A   1      31.552  26.178  22.927  1.00  0.00     0.149 C 
BRANCH   9  10
ATOM     10  C   UNL A   1      32.305  26.017  21.639  1.00  0.00    -0.013 C 
ATOM     11  C   UNL A   1      32.785  24.836  21.221  1.00  0.00     0.006 C 
ENDBRANCH   9  10
ENDBRANCH   8   9
BRANCH   8  12
ATOM     12  C   UNL A   1      32.198  28.484  23.201  1.00  0.00     0.318 C 
ATOM     13  O   UNL A   1      33.237  28.893  22.665  1.00  0.00    -0.249 OA
ATOM     14  N   UNL A   1      31.189  29.366  23.180  1.00  0.00    -0.338 N 
ATOM     15  H   UNL A   1      31.477  30.199  22.740  1.00  0.00     0.165 HD
BRANCH  14  16
ATOM     16  C   UNL A   1      29.797  29.482  23.603  1.00  0.00     0.120 C 
BRANCH  16  17
ATOM     17  C   UNL A   1      28.832  29.411  22.406  1.00  0.00     0.002 C 
ATOM     18  C   UNL A   1      27.380  29.245  22.867  1.00  0.00     0.009 C 
ATOM     19  C   UNL A   1      28.939  30.673  21.544  1.00  0.00     0.009 C 
ENDBRANCH  16  17
ENDBRANCH  14  16
ENDBRANCH   8  12
ENDBRANCH   7   8
ENDBRANCH   4   7
ENDBRANCH   2   3
ENDBRANCH   1   2
BRANCH   1  20
ATOM     20  C   UNL A   1      31.908  31.511  26.936  1.00  0.00     0.023 C 
BRANCH  20  21
ATOM     21  C   UNL A   1      33.054  32.466  27.251  1.00  0.00     0.116 C 
BRANCH  21  22
ATOM     22  N   UNL A   1      32.616  33.802  27.628  1.00  0.00    -0.352 N 
ATOM     23  C   UNL A   1      33.110  34.624  28.613  1.00  0.00     0.251 C 
ATOM     24  H   UNL A   1      31.865  34.167  27.106  1.00  0.00     0.163 HD
ATOM     25  O   UNL A   1      32.567  35.702  28.842  1.00  0.00    -0.269 OA
BRANCH  23  26
ATOM     26  C   UNL A   1      34.268  34.186  29.422  1.00  0.00     0.039 A 
ATOM     27  C   UNL A   1      34.035  33.420  30.567  1.00  0.00     0.014 A 
ATOM     28  C   UNL A   1      35.574  34.500  29.038  1.00  0.00     0.014 A 
ATOM     29  C   UNL A   1      35.117  32.908  31.288  1.00  0.00     0.010 A 
ATOM     30  C   UNL A   1      36.649  33.934  29.719  1.00  0.00     0.010 A 
ATOM     31  C   UNL A   1      36.432  33.132  30.850  1.00  0.00    -0.014 A 
BRANCH  31  32
ATOM     32  C   UNL A   1      37.595  32.528  31.551  1.00  0.00     0.031 A 
ATOM     33  C   UNL A   1      38.330  31.369  30.932  1.00  0.00     0.074 A 
ATOM     34  C   UNL A   1      37.937  32.970  32.778  1.00  0.00     0.049 A 
ATOM     35  N   UNL A   1      39.316  30.663  31.421  1.00  0.00    -0.248 NA
ATOM     36  C   UNL A   1      37.883  30.930  29.600  1.00  0.00     0.031 C 
ATOM     37  C   UNL A   1      37.260  34.040  33.515  1.00  0.00     0.029 A 
ATOM     38  N   UNL A   1      38.926  32.554  33.636  1.00  0.00    -0.354 N 
ATOM     39  C   UNL A   1      39.591  29.686  30.473  1.00  0.00     0.074 A 
ATOM     40  C   UNL A   1      38.640  29.862  29.397  1.00  0.00     0.031 C 
ATOM     41  C   UNL A   1      37.855  34.199  34.709  1.00  0.00     0.029 A 
ATOM     42  C   UNL A   1      38.937  33.228  34.836  1.00  0.00     0.049 A 
ATOM     43  H   UNL A   1      39.567  31.841  33.413  1.00  0.00     0.167 HD
ATOM     44  C   UNL A   1      40.569  28.750  30.476  1.00  0.00     0.034 A 
ATOM     45  C   UNL A   1      39.729  33.077  35.916  1.00  0.00     0.034 A 
ATOM     46  C   UNL A   1      41.542  28.603  31.525  1.00  0.00     0.049 A 
ATOM     47  C   UNL A   1      40.825  32.044  35.879  1.00  0.00     0.074 A 
ATOM     48  C   UNL A   1      42.602  27.718  31.599  1.00  0.00     0.029 A 
ATOM     49  N   UNL A   1      41.577  29.366  32.681  1.00  0.00    -0.354 N 
ATOM     50  N   UNL A   1      41.153  31.222  34.912  1.00  0.00    -0.248 NA
ATOM     51  C   UNL A   1      41.686  31.946  37.067  1.00  0.00     0.031 C 
ATOM     52  C   UNL A   1      43.279  27.944  32.802  1.00  0.00     0.029 A 
ATOM     53  C   UNL A   1      42.646  28.979  33.471  1.00  0.00     0.049 A 
ATOM     54  H   UNL A   1      40.936  30.079  32.908  1.00  0.00     0.167 HD
ATOM     55  C   UNL A   1      42.281  30.542  35.357  1.00  0.00     0.074 A 
ATOM     56  C   UNL A   1      42.592  31.064  36.672  1.00  0.00     0.031 C 
ATOM     57  C   UNL A   1      42.986  29.561  34.743  1.00  0.00     0.034 A 
BRANCH  44  58
ATOM     58  C   UNL A   1      40.689  27.858  29.268  1.00  0.00     0.023 A 
ATOM     59  C   UNL A   1      39.858  26.723  29.170  1.00  0.00     0.012 A 
ATOM     60  C   UNL A   1      41.559  28.172  28.206  1.00  0.00     0.148 A 
ATOM     61  C   UNL A   1      39.912  25.896  28.049  1.00  0.00     0.002 A 
ATOM     62  C   UNL A   1      41.576  27.366  27.073  1.00  0.00     0.091 A 
ATOM     63  F   UNL A   1      42.353  29.245  28.324  1.00  0.00    -0.205 F 
ATOM     64  C   UNL A   1      40.762  26.223  26.998  1.00  0.00     0.022 A 
BRANCH  62  65
ATOM     65  S   UNL A   1      42.580  27.737  25.629  1.00  0.00     0.127 S 
ATOM     66  O   UNL A   1      43.907  27.887  26.223  1.00  0.00    -0.237 OA
ATOM     67  O   UNL A   1      42.408  26.532  24.817  1.00  0.00    -0.237 OA
ATOM     68  O   UNL A   1      42.016  28.948  25.047  1.00  0.00    -0.744 OA
ENDBRANCH  62  65
ENDBRANCH  44  58
BRANCH  45  69
ATOM     69  C   UNL A   1      39.572  33.972  37.098  1.00  0.00     0.023 A 
ATOM     70  C   UNL A   1      40.054  35.294  37.027  1.00  0.00     0.012 A 
ATOM     71  C   UNL A   1      38.962  33.529  38.287  1.00  0.00     0.148 A 
ATOM     72  C   UNL A   1      39.970  36.144  38.131  1.00  0.00     0.002 A 
ATOM     73  C   UNL A   1      38.832  34.398  39.365  1.00  0.00     0.091 A 
ATOM     74  F   UNL A   1      38.525  32.262  38.345  1.00  0.00    -0.205 F 
ATOM     75  C   UNL A   1      39.352  35.700  39.296  1.00  0.00     0.022 A 
BRANCH  73  76
ATOM     76  S   UNL A   1      37.937  33.941  40.854  1.00  0.00     0.127 S 
ATOM     77  O   UNL A   1      38.895  33.063  41.521  1.00  0.00    -0.237 OA
ATOM     78  O   UNL A   1      37.734  35.237  41.502  1.00  0.00    -0.237 OA
ATOM     79  O   UNL A   1      36.710  33.311  40.385  1.00  0.00    -0.744 OA
ENDBRANCH  73  76
ENDBRANCH  45  69
BRANCH  57  80
ATOM     80  C   UNL A   1      44.197  29.019  35.455  1.00  0.00     0.023 A 
ATOM     81  C   UNL A   1      45.457  29.608  35.239  1.00  0.00     0.012 A 
ATOM     82  C   UNL A   1      44.071  27.974  36.391  1.00  0.00     0.148 A 
ATOM     83  C   UNL A   1      46.582  29.145  35.921  1.00  0.00     0.002 A 
ATOM     84  C   UNL A   1      45.187  27.549  37.102  1.00  0.00     0.091 A 
ATOM     85  F   UNL A   1      42.866  27.414  36.567  1.00  0.00    -0.205 F 
ATOM     86  C   UNL A   1      46.445  28.125  36.859  1.00  0.00     0.022 A 
BRANCH  84  87
ATOM     87  S   UNL A   1      45.086  26.308  38.397  1.00  0.00     0.127 S 
ATOM     88  O   UNL A   1      45.109  25.068  37.623  1.00  0.00    -0.237 OA
ATOM     89  O   UNL A   1      46.300  26.566  39.172  1.00  0.00    -0.237 OA
ATOM     90  O   UNL A   1      43.846  26.578  39.113  1.00  0.00    -0.744 OA
ENDBRANCH  84  87
ENDBRANCH  57  80
ENDBRANCH  31  32
ENDBRANCH  23  26
ENDBRANCH  21  22
ENDBRANCH  20  21
ENDBRANCH   1  20
TORSDOF 20
ENDMDL
MODEL 2
REMARK VINA RESULT:     -10.1      2.849      8.569
REMARK SMILES C=CCN(CC(=O)NCCCCNC(=O)c1ccc(-c2c3nc(c(-c4cccc(S(=O)(=O)[O-])c4F)c4ccc([nH]4)c(-c4cccc(S(=O)(=O)[O-])c4F)c4nc(c(-c5cccc(S(=O)(=O)[O-])c5F)c5ccc2[nH]5)C=C4)C=C3)cc1)C(=O)NCC(C)C
REMARK SMILES IDX 10 1 9 2 8 3 6 4 7 5 5 7 4 8 3 9 2 10 1 11 79 12 80 13 81 14
REMARK SMILES IDX 82 16 83 17 84 18 85 19 11 20 12 21 13 22 14 23 15 25 16 26
REMARK SMILES IDX 17 27 78 28 18 29 77 30 19 31 20 32 21 33 71 34 22 35 76 36
REMARK SMILES IDX 70 37 72 38 23 39 75 40 69 41 68 42 24 44 56 45 36 46 55 47
REMARK SMILES IDX 37 48 40 49 54 50 73 51 38 52 39 53 53 55 74 56 41 57 25 58
REMARK SMILES IDX 26 59 34 60 27 61 29 62 35 63 28 64 30 65 31 66 32 67 33 68
REMARK SMILES IDX 57 69 58 70 66 71 59 72 61 73 67 74 60 75 62 76 63 77 64 78
REMARK SMILES IDX 65 79 42 80 43 81 51 82 44 83 46 84 52 85 45 86 47 87 48 88
REMARK SMILES IDX 49 89 50 90
REMARK H PARENT 8 6 81 15 13 24 72 43 40 54
REMARK Flexibility Score: inf
ROOT
ATOM      1  C   UNL A   1      31.821  28.011  27.290  1.00  0.00     0.023 C 
ENDROOT
BRANCH   1   2
ATOM      2  C   UNL A   1      32.189  26.745  26.525  1.00  0.00     0.116 C 
BRANCH   2   3
ATOM      3  N   UNL A   1      31.293  25.636  26.764  1.00  0.00    -0.355 N 
ATOM      4  C   UNL A   1      31.498  24.308  26.536  1.00  0.00     0.239 C 
ATOM      5  O   UNL A   1      30.852  23.514  27.228  1.00  0.00    -0.273 OA
ATOM      6  H   UNL A   1      30.416  25.872  27.143  1.00  0.00     0.163 HD
BRANCH   4   7
ATOM      7  C   UNL A   1      32.604  23.789  25.600  1.00  0.00     0.221 C 
BRANCH   7   8
ATOM      8  N   UNL A   1      32.253  23.650  24.190  1.00  0.00    -0.312 N 
BRANCH   8   9
ATOM      9  C   UNL A   1      30.930  24.140  23.798  1.00  0.00     0.149 C 
BRANCH   9  10
ATOM     10  C   UNL A   1      31.033  25.259  22.803  1.00  0.00    -0.013 C 
ATOM     11  C   UNL A   1      31.509  26.472  23.123  1.00  0.00     0.006 C 
ENDBRANCH   9  10
ENDBRANCH   8   9
BRANCH   8  12
ATOM     12  C   UNL A   1      33.033  23.125  23.199  1.00  0.00     0.318 C 
ATOM     13  O   UNL A   1      33.914  23.800  22.651  1.00  0.00    -0.249 OA
ATOM     14  N   UNL A   1      32.931  21.873  22.730  1.00  0.00    -0.338 N 
ATOM     15  H   UNL A   1      33.588  21.728  22.010  1.00  0.00     0.165 HD
BRANCH  14  16
ATOM     16  C   UNL A   1      32.154  20.658  22.949  1.00  0.00     0.120 C 
BRANCH  16  17
ATOM     17  C   UNL A   1      32.926  19.638  23.807  1.00  0.00     0.002 C 
ATOM     18  C   UNL A   1      32.700  19.882  25.303  1.00  0.00     0.009 C 
ATOM     19  C   UNL A   1      32.501  18.207  23.466  1.00  0.00     0.009 C 
ENDBRANCH  16  17
ENDBRANCH  14  16
ENDBRANCH   8  12
ENDBRANCH   7   8
ENDBRANCH   4   7
ENDBRANCH   2   3
ENDBRANCH   1   2
BRANCH   1  20
ATOM     20  C   UNL A   1      31.499  29.232  26.426  1.00  0.00     0.023 C 
BRANCH  20  21
ATOM     21  C   UNL A   1      32.680  30.130  26.075  1.00  0.00     0.116 C 
BRANCH  21  22
ATOM     22  N   UNL A   1      32.507  31.515  26.493  1.00  0.00    -0.352 N 
ATOM     23  C   UNL A   1      33.302  32.269  27.322  1.00  0.00     0.251 C 
ATOM     24  H   UNL A   1      31.714  31.973  26.131  1.00  0.00     0.163 HD
ATOM     25  O   UNL A   1      32.964  33.410  27.626  1.00  0.00    -0.269 OA
BRANCH  23  26
ATOM     26  C   UNL A   1      34.542  31.685  27.879  1.00  0.00     0.039 A 
ATOM     27  C   UNL A   1      35.669  32.502  28.008  1.00  0.00     0.014 A 
ATOM     28  C   UNL A   1      34.586  30.354  28.298  1.00  0.00     0.014 A 
ATOM     29  C   UNL A   1      36.818  32.002  28.625  1.00  0.00     0.010 A 
ATOM     30  C   UNL A   1      35.708  29.879  28.973  1.00  0.00     0.010 A 
ATOM     31  C   UNL A   1      36.835  30.697  29.144  1.00  0.00    -0.014 A 
BRANCH  31  32
ATOM     32  C   UNL A   1      38.015  30.172  29.880  1.00  0.00     0.031 A 
ATOM     33  C   UNL A   1      38.316  30.664  31.270  1.00  0.00     0.074 A 
ATOM     34  C   UNL A   1      38.857  29.317  29.266  1.00  0.00     0.049 A 
ATOM     35  N   UNL A   1      39.334  30.382  32.041  1.00  0.00    -0.248 NA
ATOM     36  C   UNL A   1      37.361  31.615  31.864  1.00  0.00     0.031 C 
ATOM     37  C   UNL A   1      38.713  28.819  27.896  1.00  0.00     0.029 A 
ATOM     38  N   UNL A   1      40.019  28.734  29.708  1.00  0.00    -0.354 N 
ATOM     39  C   UNL A   1      39.158  31.135  33.195  1.00  0.00     0.074 A 
ATOM     40  C   UNL A   1      37.956  31.919  33.008  1.00  0.00     0.031 C 
ATOM     41  C   UNL A   1      39.742  28.004  27.612  1.00  0.00     0.029 A 
ATOM     42  C   UNL A   1      40.632  27.940  28.765  1.00  0.00     0.049 A 
ATOM     43  H   UNL A   1      40.380  28.870  30.614  1.00  0.00     0.167 HD
ATOM     44  C   UNL A   1      39.904  31.147  34.325  1.00  0.00     0.034 A 
ATOM     45  C   UNL A   1      41.784  27.242  28.826  1.00  0.00     0.034 A 
ATOM     46  C   UNL A   1      41.074  30.336  34.527  1.00  0.00     0.049 A 
ATOM     47  C   UNL A   1      42.579  27.255  30.106  1.00  0.00     0.074 A 
ATOM     48  C   UNL A   1      41.871  30.240  35.654  1.00  0.00     0.029 A 
ATOM     49  N   UNL A   1      41.611  29.475  33.583  1.00  0.00    -0.354 N 
ATOM     50  N   UNL A   1      42.318  27.869  31.234  1.00  0.00    -0.248 NA
ATOM     51  C   UNL A   1      43.808  26.446  30.132  1.00  0.00     0.031 C 
ATOM     52  C   UNL A   1      42.892  29.321  35.391  1.00  0.00     0.029 A 
ATOM     53  C   UNL A   1      42.723  28.836  34.104  1.00  0.00     0.049 A 
ATOM     54  H   UNL A   1      41.254  29.337  32.676  1.00  0.00     0.167 HD
ATOM     55  C   UNL A   1      43.323  27.486  32.116  1.00  0.00     0.074 A 
ATOM     56  C   UNL A   1      44.185  26.572  31.396  1.00  0.00     0.031 C 
ATOM     57  C   UNL A   1      43.525  27.871  33.399  1.00  0.00     0.034 A 
BRANCH  44  58
ATOM     58  C   UNL A   1      39.433  32.010  35.466  1.00  0.00     0.023 A 
ATOM     59  C   UNL A   1      38.566  31.457  36.430  1.00  0.00     0.012 A 
ATOM     60  C   UNL A   1      39.894  33.332  35.627  1.00  0.00     0.148 A 
ATOM     61  C   UNL A   1      38.140  32.212  37.522  1.00  0.00     0.002 A 
ATOM     62  C   UNL A   1      39.498  34.065  36.741  1.00  0.00     0.091 A 
ATOM     63  F   UNL A   1      40.704  33.847  34.691  1.00  0.00    -0.205 F 
ATOM     64  C   UNL A   1      38.614  33.510  37.682  1.00  0.00     0.022 A 
BRANCH  62  65
ATOM     65  S   UNL A   1      40.107  35.720  37.083  1.00  0.00     0.127 S 
ATOM     66  O   UNL A   1      39.662  36.450  35.898  1.00  0.00    -0.237 OA
ATOM     67  O   UNL A   1      39.392  36.062  38.314  1.00  0.00    -0.237 OA
ATOM     68  O   UNL A   1      41.551  35.595  37.233  1.00  0.00    -0.744 OA
ENDBRANCH  62  65
ENDBRANCH  44  58
BRANCH  45  69
ATOM     69  C   UNL A   1      42.224  26.408  27.670  1.00  0.00     0.023 A 
ATOM     70  C   UNL A   1      43.036  26.987  26.675  1.00  0.00     0.012 A 
ATOM     71  C   UNL A   1      41.842  25.059  27.543  1.00  0.00     0.148 A 
ATOM     72  C   UNL A   1      43.425  26.252  25.555  1.00  0.00     0.002 A 
ATOM     73  C   UNL A   1      42.278  24.316  26.451  1.00  0.00     0.091 A 
ATOM     74  F   UNL A   1      41.054  24.527  28.489  1.00  0.00    -0.205 F 
ATOM     75  C   UNL A   1      43.053  24.915  25.446  1.00  0.00     0.022 A 
BRANCH  73  76
ATOM     76  S   UNL A   1      41.947  22.556  26.304  1.00  0.00     0.127 S 
ATOM     77  O   UNL A   1      40.488  22.529  26.249  1.00  0.00    -0.237 OA
ATOM     78  O   UNL A   1      42.617  22.220  25.047  1.00  0.00    -0.237 OA
ATOM     79  O   UNL A   1      42.555  21.952  27.483  1.00  0.00    -0.744 OA
ENDBRANCH  73  76
ENDBRANCH  45  69
BRANCH  57  80
ATOM     80  C   UNL A   1      44.693  27.268  34.134  1.00  0.00     0.023 A 
ATOM     81  C   UNL A   1      45.952  27.898  34.084  1.00  0.00     0.012 A 
ATOM     82  C   UNL A   1      44.524  26.120  34.932  1.00  0.00     0.148 A 
ATOM     83  C   UNL A   1      47.033  27.376  34.792  1.00  0.00     0.002 A 
ATOM     84  C   UNL A   1      45.594  25.633  35.673  1.00  0.00     0.091 A 
ATOM     85  F   UNL A   1      43.323  25.524  34.950  1.00  0.00    -0.205 F 
ATOM     86  C   UNL A   1      46.853  26.252  35.594  1.00  0.00     0.022 A 
BRANCH  84  87
ATOM     87  S   UNL A   1      45.428  24.247  36.805  1.00  0.00     0.127 S 
ATOM     88  O   UNL A   1      46.794  24.106  37.305  1.00  0.00    -0.237 OA
ATOM     89  O   UNL A   1      44.469  24.760  37.786  1.00  0.00    -0.237 OA
ATOM     90  O   UNL A   1      44.934  23.135  36.005  1.00  0.00    -0.744 OA
ENDBRANCH  84  87
ENDBRANCH  57  80
ENDBRANCH  31  32
ENDBRANCH  23  26
ENDBRANCH  21  22
ENDBRANCH  20  21
ENDBRANCH   1  20
TORSDOF 20
ENDMDL
MODEL 3
REMARK VINA RESULT:     -10.0      5.974      8.979
REMARK SMILES C=CCN(CC(=O)NCCCCNC(=O)c1ccc(-c2c3nc(c(-c4cccc(S(=O)(=O)[O-])c4F)c4ccc([nH]4)c(-c4cccc(S(=O)(=O)[O-])c4F)c4nc(c(-c5cccc(S(=O)(=O)[O-])c5F)c5ccc2[nH]5)C=C4)C=C3)cc1)C(=O)NCC(C)C
REMARK SMILES IDX 10 1 9 2 8 3 6 4 7 5 5 7 4 8 3 9 2 10 1 11 79 12 80 13 81 14
REMARK SMILES IDX 82 16 83 17 84 18 85 19 11 20 12 21 13 22 14 23 15 25 16 26
REMARK SMILES IDX 17 27 78 28 18 29 77 30 19 31 20 32 21 33 71 34 22 35 76 36
REMARK SMILES IDX 70 37 72 38 23 39 75 40 69 41 68 42 24 44 56 45 36 46 55 47
REMARK SMILES IDX 37 48 40 49 54 50 73 51 38 52 39 53 53 55 74 56 41 57 25 58
REMARK SMILES IDX 26 59 34 60 27 61 29 62 35 63 28 64 30 65 31 66 32 67 33 68
REMARK SMILES IDX 57 69 58 70 66 71 59 72 61 73 67 74 60 75 62 76 63 77 64 78
REMARK SMILES IDX 65 79 42 80 43 81 51 82 44 83 46 84 52 85 45 86 47 87 48 88
REMARK SMILES IDX 49 89 50 90
REMARK H PARENT 8 6 81 15 13 24 72 43 40 54
REMARK Flexibility Score: inf
ROOT
ATOM      1  C   UNL A   1      34.544  22.005  25.928  1.00  0.00     0.023 C 
ENDROOT
BRANCH   1   2
ATOM      2  C   UNL A   1      33.141  21.875  25.346  1.00  0.00     0.116 C 
BRANCH   2   3
ATOM      3  N   UNL A   1      32.089  21.942  26.335  1.00  0.00    -0.355 N 
ATOM      4  C   UNL A   1      31.583  23.037  26.969  1.00  0.00     0.239 C 
ATOM      5  O   UNL A   1      30.420  22.959  27.381  1.00  0.00    -0.273 OA
ATOM      6  H   UNL A   1      31.684  21.081  26.584  1.00  0.00     0.163 HD
BRANCH   4   7
ATOM      7  C   UNL A   1      32.329  24.382  27.025  1.00  0.00     0.221 C 
BRANCH   7   8
ATOM      8  N   UNL A   1      32.098  25.302  25.914  1.00  0.00    -0.312 N 
BRANCH   8   9
ATOM      9  C   UNL A   1      33.272  26.013  25.404  1.00  0.00     0.149 C 
BRANCH   9  10
ATOM     10  C   UNL A   1      33.128  27.497  25.568  1.00  0.00    -0.013 C 
ATOM     11  C   UNL A   1      33.611  28.160  26.630  1.00  0.00     0.006 C 
ENDBRANCH   9  10
ENDBRANCH   8   9
BRANCH   8  12
ATOM     12  C   UNL A   1      30.907  25.555  25.295  1.00  0.00     0.318 C 
ATOM     13  O   UNL A   1      29.929  25.971  25.929  1.00  0.00    -0.249 OA
ATOM     14  N   UNL A   1      30.678  25.385  23.985  1.00  0.00    -0.338 N 
ATOM     15  H   UNL A   1      29.745  25.619  23.772  1.00  0.00     0.165 HD
BRANCH  14  16
ATOM     16  C   UNL A   1      31.374  24.963  22.774  1.00  0.00     0.120 C 
BRANCH  16  17
ATOM     17  C   UNL A   1      31.739  26.163  21.881  1.00  0.00     0.002 C 
ATOM     18  C   UNL A   1      31.083  27.454  22.384  1.00  0.00     0.009 C 
ATOM     19  C   UNL A   1      33.256  26.363  21.830  1.00  0.00     0.009 C 
ENDBRANCH  16  17
ENDBRANCH  14  16
ENDBRANCH   8  12
ENDBRANCH   7   8
ENDBRANCH   4   7
ENDBRANCH   2   3
ENDBRANCH   1   2
BRANCH   1  20
ATOM     20  C   UNL A   1      35.598  21.080  25.317  1.00  0.00     0.023 C 
BRANCH  20  21
ATOM     21  C   UNL A   1      37.019  21.629  25.265  1.00  0.00     0.116 C 
BRANCH  21  22
ATOM     22  N   UNL A   1      38.045  20.628  25.523  1.00  0.00    -0.352 N 
ATOM     23  C   UNL A   1      39.298  20.799  26.060  1.00  0.00     0.251 C 
ATOM     24  H   UNL A   1      37.808  19.704  25.282  1.00  0.00     0.163 HD
ATOM     25  O   UNL A   1      40.067  19.844  26.141  1.00  0.00    -0.269 OA
BRANCH  23  26
ATOM     26  C   UNL A   1      39.731  22.144  26.499  1.00  0.00     0.039 A 
ATOM     27  C   UNL A   1      40.654  22.243  27.544  1.00  0.00     0.014 A 
ATOM     28  C   UNL A   1      39.256  23.295  25.867  1.00  0.00     0.014 A 
ATOM     29  C   UNL A   1      41.155  23.497  27.906  1.00  0.00     0.010 A 
ATOM     30  C   UNL A   1      39.806  24.534  26.184  1.00  0.00     0.010 A 
ATOM     31  C   UNL A   1      40.761  24.648  27.206  1.00  0.00    -0.014 A 
BRANCH  31  32
ATOM     32  C   UNL A   1      41.344  25.980  27.516  1.00  0.00     0.031 A 
ATOM     33  C   UNL A   1      42.755  26.300  27.102  1.00  0.00     0.074 A 
ATOM     34  C   UNL A   1      40.632  26.867  28.240  1.00  0.00     0.049 A 
ATOM     35  N   UNL A   1      43.462  27.373  27.346  1.00  0.00    -0.248 NA
ATOM     36  C   UNL A   1      43.475  25.271  26.334  1.00  0.00     0.031 C 
ATOM     37  C   UNL A   1      39.280  26.648  28.761  1.00  0.00     0.029 A 
ATOM     38  N   UNL A   1      40.958  28.123  28.688  1.00  0.00    -0.354 N 
ATOM     39  C   UNL A   1      44.711  27.141  26.786  1.00  0.00     0.074 A 
ATOM     40  C   UNL A   1      44.682  25.808  26.225  1.00  0.00     0.031 C 
ATOM     41  C   UNL A   1      38.892  27.734  29.450  1.00  0.00     0.029 A 
ATOM     42  C   UNL A   1      39.972  28.714  29.446  1.00  0.00     0.049 A 
ATOM     43  H   UNL A   1      41.816  28.562  28.485  1.00  0.00     0.167 HD
ATOM     44  C   UNL A   1      45.777  27.974  26.709  1.00  0.00     0.034 A 
ATOM     45  C   UNL A   1      39.946  29.910  30.068  1.00  0.00     0.034 A 
ATOM     46  C   UNL A   1      45.791  29.315  27.228  1.00  0.00     0.049 A 
ATOM     47  C   UNL A   1      41.137  30.824  29.942  1.00  0.00     0.074 A 
ATOM     48  C   UNL A   1      46.804  30.255  27.158  1.00  0.00     0.029 A 
ATOM     49  N   UNL A   1      44.740  29.910  27.907  1.00  0.00    -0.354 N 
ATOM     50  N   UNL A   1      42.257  30.636  29.290  1.00  0.00    -0.248 NA
ATOM     51  C   UNL A   1      41.042  32.132  30.608  1.00  0.00     0.031 C 
ATOM     52  C   UNL A   1      46.366  31.419  27.797  1.00  0.00     0.029 A 
ATOM     53  C   UNL A   1      45.075  31.208  28.254  1.00  0.00     0.049 A 
ATOM     54  H   UNL A   1      43.881  29.474  28.114  1.00  0.00     0.167 HD
ATOM     55  C   UNL A   1      42.981  31.816  29.428  1.00  0.00     0.074 A 
ATOM     56  C   UNL A   1      42.162  32.719  30.210  1.00  0.00     0.031 C 
ATOM     57  C   UNL A   1      44.218  32.119  28.967  1.00  0.00     0.034 A 
BRANCH  44  58
ATOM     58  C   UNL A   1      46.994  27.487  25.967  1.00  0.00     0.023 A 
ATOM     59  C   UNL A   1      47.923  26.666  26.639  1.00  0.00     0.012 A 
ATOM     60  C   UNL A   1      47.187  27.776  24.602  1.00  0.00     0.148 A 
ATOM     61  C   UNL A   1      49.040  26.164  25.974  1.00  0.00     0.002 A 
ATOM     62  C   UNL A   1      48.281  27.236  23.935  1.00  0.00     0.091 A 
ATOM     63  F   UNL A   1      46.302  28.572  23.984  1.00  0.00    -0.205 F 
ATOM     64  C   UNL A   1      49.213  26.440  24.622  1.00  0.00     0.022 A 
BRANCH  62  65
ATOM     65  S   UNL A   1      48.559  27.468  22.175  1.00  0.00     0.127 S 
ATOM     66  O   UNL A   1      49.823  28.203  22.170  1.00  0.00    -0.237 OA
ATOM     67  O   UNL A   1      48.655  26.089  21.694  1.00  0.00    -0.237 OA
ATOM     68  O   UNL A   1      47.407  28.207  21.678  1.00  0.00    -0.744 OA
ENDBRANCH  62  65
ENDBRANCH  44  58
BRANCH  45  69
ATOM     69  C   UNL A   1      38.727  30.351  30.803  1.00  0.00     0.023 A 
ATOM     70  C   UNL A   1      38.589  30.022  32.166  1.00  0.00     0.012 A 
ATOM     71  C   UNL A   1      37.704  31.083  30.169  1.00  0.00     0.148 A 
ATOM     72  C   UNL A   1      37.439  30.375  32.873  1.00  0.00     0.002 A 
ATOM     73  C   UNL A   1      36.585  31.480  30.894  1.00  0.00     0.091 A 
ATOM     74  F   UNL A   1      37.841  31.373  28.867  1.00  0.00    -0.205 F 
ATOM     75  C   UNL A   1      36.441  31.110  32.240  1.00  0.00     0.022 A 
BRANCH  73  76
ATOM     76  S   UNL A   1      35.316  32.535  30.184  1.00  0.00     0.127 S 
ATOM     77  O   UNL A   1      34.803  31.701  29.101  1.00  0.00    -0.237 OA
ATOM     78  O   UNL A   1      34.400  32.716  31.310  1.00  0.00    -0.237 OA
ATOM     79  O   UNL A   1      36.011  33.751  29.781  1.00  0.00    -0.744 OA
ENDBRANCH  73  76
ENDBRANCH  45  69
BRANCH  57  80
ATOM     80  C   UNL A   1      44.750  33.500  29.244  1.00  0.00     0.023 A 
ATOM     81  C   UNL A   1      45.408  33.764  30.461  1.00  0.00     0.012 A 
ATOM     82  C   UNL A   1      44.661  34.513  28.270  1.00  0.00     0.148 A 
ATOM     83  C   UNL A   1      45.942  35.027  30.717  1.00  0.00     0.002 A 
ATOM     84  C   UNL A   1      45.237  35.754  28.512  1.00  0.00     0.091 A 
ATOM     85  F   UNL A   1      44.013  34.246  27.126  1.00  0.00    -0.205 F 
ATOM     86  C   UNL A   1      45.867  36.017  29.740  1.00  0.00     0.022 A 
BRANCH  84  87
ATOM     87  S   UNL A   1      45.271  37.056  27.274  1.00  0.00     0.127 S 
ATOM     88  O   UNL A   1      46.054  36.433  26.209  1.00  0.00    -0.237 OA
ATOM     89  O   UNL A   1      43.851  37.229  26.966  1.00  0.00    -0.237 OA
ATOM     90  O   UNL A   1      45.892  38.204  27.920  1.00  0.00    -0.744 OA
ENDBRANCH  84  87
ENDBRANCH  57  80
ENDBRANCH  31  32
ENDBRANCH  23  26
ENDBRANCH  21  22
ENDBRANCH  20  21
ENDBRANCH   1  20
TORSDOF 20
ENDMDL
