MODEL 1
REMARK VINA RESULT:     -10.8      0.000      0.000
REMARK SMILES CC[C@H](C)N(CC)c1cc(C)c(N)c(C(=O)NCCCCNC(=O)c2ccc(-c3c4nc(c(-c5cccc(S(=O)(=O)[O-])c5F)c5ccc([nH]5)c(-c5cccc(S(=O)(=O)[O-])c5F)c5nc(c(-c6cccc(S(=O)(=O)[O-])c6F)c6ccc3[nH]6)C=C5)C=C4)cc2)c1
REMARK SMILES IDX 19 1 18 2 17 3 15 4 16 5 14 7 8 8 9 9 88 10 10 11 11 12
REMARK SMILES IDX 12 13 5 14 3 15 4 16 2 17 1 18 6 19 7 20 13 21 20 24 21 25
REMARK SMILES IDX 22 26 23 27 24 29 25 30 26 31 87 32 27 33 86 34 28 35 29 36
REMARK SMILES IDX 30 37 80 38 31 39 85 40 79 41 81 42 32 43 84 44 78 45 77 46
REMARK SMILES IDX 33 48 65 49 45 50 64 51 46 52 49 53 63 54 82 55 47 56 48 57
REMARK SMILES IDX 62 59 83 60 50 61 34 62 35 63 43 64 36 65 38 66 44 67 37 68
REMARK SMILES IDX 39 69 40 70 41 71 42 72 66 73 67 74 75 75 68 76 70 77 76 78
REMARK SMILES IDX 69 79 71 80 72 81 73 82 74 83 51 84 52 85 60 86 53 87 55 88
REMARK SMILES IDX 61 89 54 90 56 91 57 92 58 93 59 94
REMARK H PARENT 17 6 13 22 13 23 22 28 81 47 49 58
REMARK Flexibility Score: inf
ROOT
ATOM      1  C   UNL A   1      34.893  30.874  28.020  1.00  0.00     0.023 C 
ENDROOT
BRANCH   1   2
ATOM      2  C   UNL A   1      34.742  29.423  27.555  1.00  0.00     0.116 C 
BRANCH   2   3
ATOM      3  N   UNL A   1      33.385  28.961  27.754  1.00  0.00    -0.352 N 
ATOM      4  C   UNL A   1      32.556  28.119  27.054  1.00  0.00     0.253 C 
ATOM      5  O   UNL A   1      31.451  27.928  27.572  1.00  0.00    -0.269 OA
ATOM      6  H   UNL A   1      32.966  29.330  28.564  1.00  0.00     0.163 HD
BRANCH   4   7
ATOM      7  C   UNL A   1      32.919  27.407  25.774  1.00  0.00     0.065 A 
ATOM      8  C   UNL A   1      33.349  25.335  24.505  1.00  0.00     0.038 A 
ATOM      9  C   UNL A   1      33.547  26.110  23.365  1.00  0.00     0.031 A 
ATOM     10  C   UNL A   1      33.056  26.010  25.697  1.00  0.00     0.042 A 
ATOM     11  C   UNL A   1      33.526  27.513  23.408  1.00  0.00    -0.025 A 
ATOM     12  C   UNL A   1      33.925  28.278  22.175  1.00  0.00     0.046 C 
ATOM     13  C   UNL A   1      33.180  28.173  24.605  1.00  0.00     0.047 A 
BRANCH   8  14
ATOM     14  N   UNL A   1      33.467  23.954  24.487  1.00  0.00    -0.369 N 
BRANCH  14  15
ATOM     15  C   UNL A   1      34.508  23.210  25.226  1.00  0.00     0.078 C 
ATOM     16  C   UNL A   1      34.885  21.880  24.574  1.00  0.00     0.031 C 
BRANCH  15  17
ATOM     17  C   UNL A   1      35.727  24.064  25.621  1.00  0.00     0.021 C 
ATOM     18  C   UNL A   1      37.091  23.626  25.110  1.00  0.00     0.006 C 
ENDBRANCH  15  17
ENDBRANCH  14  15
BRANCH  14  19
ATOM     19  C   UNL A   1      32.625  23.207  23.541  1.00  0.00     0.113 C 
ATOM     20  C   UNL A   1      31.148  23.303  23.888  1.00  0.00     0.027 C 
ENDBRANCH  14  19
ENDBRANCH   8  14
BRANCH  13  21
ATOM     21  N   UNL A   1      33.210  29.568  24.636  1.00  0.00    -0.398 N 
ATOM     22  H   UNL A   1      32.492  30.086  24.206  1.00  0.00     0.156 HD
ATOM     23  H   UNL A   1      33.950  30.035  25.089  1.00  0.00     0.156 HD
ENDBRANCH  13  21
ENDBRANCH   4   7
ENDBRANCH   2   3
ENDBRANCH   1   2
BRANCH   1  24
ATOM     24  C   UNL A   1      34.063  31.876  27.209  1.00  0.00     0.023 C 
BRANCH  24  25
ATOM     25  C   UNL A   1      32.829  32.414  27.927  1.00  0.00     0.116 C 
BRANCH  25  26
ATOM     26  N   UNL A   1      32.698  33.862  27.849  1.00  0.00    -0.352 N 
ATOM     27  C   UNL A   1      33.453  34.818  28.494  1.00  0.00     0.251 C 
ATOM     28  H   UNL A   1      31.983  34.200  27.263  1.00  0.00     0.163 HD
ATOM     29  O   UNL A   1      33.168  36.000  28.406  1.00  0.00    -0.269 OA
BRANCH  27  30
ATOM     30  C   UNL A   1      34.586  34.374  29.333  1.00  0.00     0.039 A 
ATOM     31  C   UNL A   1      34.316  33.734  30.545  1.00  0.00     0.014 A 
ATOM     32  C   UNL A   1      35.901  34.531  28.890  1.00  0.00     0.014 A 
ATOM     33  C   UNL A   1      35.368  33.188  31.282  1.00  0.00     0.010 A 
ATOM     34  C   UNL A   1      36.939  33.927  29.591  1.00  0.00     0.010 A 
ATOM     35  C   UNL A   1      36.684  33.248  30.792  1.00  0.00    -0.014 A 
BRANCH  35  36
ATOM     36  C   UNL A   1      37.806  32.588  31.506  1.00  0.00     0.031 A 
ATOM     37  C   UNL A   1      38.525  31.427  30.877  1.00  0.00     0.074 A 
ATOM     38  C   UNL A   1      38.107  32.968  32.765  1.00  0.00     0.049 A 
ATOM     39  N   UNL A   1      39.481  30.685  31.371  1.00  0.00    -0.248 NA
ATOM     40  C   UNL A   1      38.092  31.027  29.527  1.00  0.00     0.031 C 
ATOM     41  C   UNL A   1      37.419  34.019  33.519  1.00  0.00     0.029 A 
ATOM     42  N   UNL A   1      39.048  32.493  33.643  1.00  0.00    -0.354 N 
ATOM     43  C   UNL A   1      39.737  29.710  30.415  1.00  0.00     0.074 A 
ATOM     44  C   UNL A   1      38.813  29.933  29.325  1.00  0.00     0.031 C 
ATOM     45  C   UNL A   1      37.961  34.108  34.744  1.00  0.00     0.029 A 
ATOM     46  C   UNL A   1      39.019  33.110  34.872  1.00  0.00     0.049 A 
ATOM     47  H   UNL A   1      39.684  31.777  33.415  1.00  0.00     0.167 HD
ATOM     48  C   UNL A   1      40.677  28.735  30.428  1.00  0.00     0.034 A 
ATOM     49  C   UNL A   1      39.758  32.894  35.978  1.00  0.00     0.034 A 
ATOM     50  C   UNL A   1      41.631  28.552  31.488  1.00  0.00     0.049 A 
ATOM     51  C   UNL A   1      40.839  31.849  35.941  1.00  0.00     0.074 A 
ATOM     52  C   UNL A   1      42.690  27.664  31.548  1.00  0.00     0.029 A 
ATOM     53  N   UNL A   1      41.642  29.269  32.675  1.00  0.00    -0.354 N 
ATOM     54  N   UNL A   1      41.183  31.053  34.957  1.00  0.00    -0.248 NA
ATOM     55  C   UNL A   1      41.661  31.696  37.150  1.00  0.00     0.031 C 
ATOM     56  C   UNL A   1      43.332  27.834  32.779  1.00  0.00     0.029 A 
ATOM     57  C   UNL A   1      42.684  28.840  33.477  1.00  0.00     0.049 A 
ATOM     58  H   UNL A   1      41.001  29.978  32.911  1.00  0.00     0.167 HD
ATOM     59  C   UNL A   1      42.280  30.333  35.414  1.00  0.00     0.074 A 
ATOM     60  C   UNL A   1      42.557  30.802  36.757  1.00  0.00     0.031 C 
ATOM     61  C   UNL A   1      42.984  29.358  34.787  1.00  0.00     0.034 A 
BRANCH  48  62
ATOM     62  C   UNL A   1      40.763  27.832  29.227  1.00  0.00     0.023 A 
ATOM     63  C   UNL A   1      39.927  26.699  29.151  1.00  0.00     0.012 A 
ATOM     64  C   UNL A   1      41.622  28.129  28.151  1.00  0.00     0.148 A 
ATOM     65  C   UNL A   1      39.969  25.856  28.043  1.00  0.00     0.002 A 
ATOM     66  C   UNL A   1      41.626  27.309  27.029  1.00  0.00     0.091 A 
ATOM     67  F   UNL A   1      42.425  29.198  28.249  1.00  0.00    -0.205 F 
ATOM     68  C   UNL A   1      40.809  26.167  26.977  1.00  0.00     0.022 A 
BRANCH  66  69
ATOM     69  S   UNL A   1      42.617  27.665  25.573  1.00  0.00     0.127 S 
ATOM     70  O   UNL A   1      43.956  27.786  26.150  1.00  0.00    -0.237 OA
ATOM     71  O   UNL A   1      42.411  26.467  24.757  1.00  0.00    -0.237 OA
ATOM     72  O   UNL A   1      42.067  28.887  25.004  1.00  0.00    -0.744 OA
ENDBRANCH  66  69
ENDBRANCH  48  62
BRANCH  49  73
ATOM     73  C   UNL A   1      39.553  33.742  37.187  1.00  0.00     0.023 A 
ATOM     74  C   UNL A   1      40.056  35.058  37.198  1.00  0.00     0.012 A 
ATOM     75  C   UNL A   1      38.842  33.269  38.307  1.00  0.00     0.148 A 
ATOM     76  C   UNL A   1      39.883  35.878  38.313  1.00  0.00     0.002 A 
ATOM     77  C   UNL A   1      38.627  34.110  39.394  1.00  0.00     0.091 A 
ATOM     78  F   UNL A   1      38.382  32.011  38.284  1.00  0.00    -0.205 F 
ATOM     79  C   UNL A   1      39.160  35.408  39.406  1.00  0.00     0.022 A 
BRANCH  77  80
ATOM     80  S   UNL A   1      37.597  33.633  40.786  1.00  0.00     0.127 S 
ATOM     81  O   UNL A   1      38.462  32.689  41.489  1.00  0.00    -0.237 OA
ATOM     82  O   UNL A   1      37.398  34.912  41.469  1.00  0.00    -0.237 OA
ATOM     83  O   UNL A   1      36.386  33.074  40.202  1.00  0.00    -0.744 OA
ENDBRANCH  77  80
ENDBRANCH  49  73
BRANCH  61  84
ATOM     84  C   UNL A   1      44.147  28.749  35.525  1.00  0.00     0.023 A 
ATOM     85  C   UNL A   1      45.436  29.297  35.370  1.00  0.00     0.012 A 
ATOM     86  C   UNL A   1      43.948  27.691  36.435  1.00  0.00     0.148 A 
ATOM     87  C   UNL A   1      46.515  28.782  36.087  1.00  0.00     0.002 A 
ATOM     88  C   UNL A   1      45.019  27.215  37.181  1.00  0.00     0.091 A 
ATOM     89  F   UNL A   1      42.718  27.171  36.553  1.00  0.00    -0.205 F 
ATOM     90  C   UNL A   1      46.304  27.752  37.001  1.00  0.00     0.022 A 
BRANCH  88  91
ATOM     91  S   UNL A   1      44.821  25.957  38.448  1.00  0.00     0.127 S 
ATOM     92  O   UNL A   1      43.865  26.593  39.352  1.00  0.00    -0.237 OA
ATOM     93  O   UNL A   1      44.281  24.829  37.686  1.00  0.00    -0.237 OA
ATOM     94  O   UNL A   1      46.150  25.730  38.997  1.00  0.00    -0.744 OA
ENDBRANCH  88  91
ENDBRANCH  61  84
ENDBRANCH  35  36
ENDBRANCH  27  30
ENDBRANCH  25  26
ENDBRANCH  24  25
ENDBRANCH   1  24
TORSDOF 19
ENDMDL
MODEL 2
REMARK VINA RESULT:     -10.8      5.650      9.013
REMARK SMILES CC[C@H](C)N(CC)c1cc(C)c(N)c(C(=O)NCCCCNC(=O)c2ccc(-c3c4nc(c(-c5cccc(S(=O)(=O)[O-])c5F)c5ccc([nH]5)c(-c5cccc(S(=O)(=O)[O-])c5F)c5nc(c(-c6cccc(S(=O)(=O)[O-])c6F)c6ccc3[nH]6)C=C5)C=C4)cc2)c1
REMARK SMILES IDX 19 1 18 2 17 3 15 4 16 5 14 7 8 8 9 9 88 10 10 11 11 12
REMARK SMILES IDX 12 13 5 14 3 15 4 16 2 17 1 18 6 19 7 20 13 21 20 24 21 25
REMARK SMILES IDX 22 26 23 27 24 29 25 30 26 31 87 32 27 33 86 34 28 35 29 36
REMARK SMILES IDX 30 37 80 38 31 39 85 40 79 41 81 42 32 43 84 44 78 45 77 46
REMARK SMILES IDX 33 48 65 49 45 50 64 51 46 52 49 53 63 54 82 55 47 56 48 57
REMARK SMILES IDX 62 59 83 60 50 61 34 62 35 63 43 64 36 65 38 66 44 67 37 68
REMARK SMILES IDX 39 69 40 70 41 71 42 72 66 73 67 74 75 75 68 76 70 77 76 78
REMARK SMILES IDX 69 79 71 80 72 81 73 82 74 83 51 84 52 85 60 86 53 87 55 88
REMARK SMILES IDX 61 89 54 90 56 91 57 92 58 93 59 94
REMARK H PARENT 17 6 13 22 13 23 22 28 81 47 49 58
REMARK Flexibility Score: inf
ROOT
ATOM      1  C   UNL A   1      34.794  22.787  26.567  1.00  0.00     0.023 C 
ENDROOT
BRANCH   1   2
ATOM      2  C   UNL A   1      33.814  22.528  27.715  1.00  0.00     0.116 C 
BRANCH   2   3
ATOM      3  N   UNL A   1      32.522  22.124  27.201  1.00  0.00    -0.352 N 
ATOM      4  C   UNL A   1      31.763  22.514  26.126  1.00  0.00     0.253 C 
ATOM      5  O   UNL A   1      30.705  21.892  25.984  1.00  0.00    -0.269 OA
ATOM      6  H   UNL A   1      32.097  21.419  27.740  1.00  0.00     0.163 HD
BRANCH   4   7
ATOM      7  C   UNL A   1      32.152  23.574  25.124  1.00  0.00     0.065 A 
ATOM      8  C   UNL A   1      32.477  25.940  24.504  1.00  0.00     0.038 A 
ATOM      9  C   UNL A   1      32.932  25.518  23.257  1.00  0.00     0.031 A 
ATOM     10  C   UNL A   1      32.077  24.948  25.409  1.00  0.00     0.042 A 
ATOM     11  C   UNL A   1      32.929  24.165  22.884  1.00  0.00    -0.025 A 
ATOM     12  C   UNL A   1      33.265  23.809  21.460  1.00  0.00     0.046 C 
ATOM     13  C   UNL A   1      32.570  23.178  23.824  1.00  0.00     0.047 A 
BRANCH   8  14
ATOM     14  N   UNL A   1      32.386  27.281  24.841  1.00  0.00    -0.369 N 
BRANCH  14  15
ATOM     15  C   UNL A   1      31.115  28.034  24.872  1.00  0.00     0.078 C 
ATOM     16  C   UNL A   1      31.306  29.549  24.944  1.00  0.00     0.031 C 
BRANCH  15  17
ATOM     17  C   UNL A   1      30.102  27.597  23.798  1.00  0.00     0.021 C 
ATOM     18  C   UNL A   1      30.274  28.159  22.394  1.00  0.00     0.006 C 
ENDBRANCH  15  17
ENDBRANCH  14  15
BRANCH  14  19
ATOM     19  C   UNL A   1      33.639  28.034  24.999  1.00  0.00     0.113 C 
ATOM     20  C   UNL A   1      34.124  28.043  26.440  1.00  0.00     0.027 C 
ENDBRANCH  14  19
ENDBRANCH   8  14
BRANCH  13  21
ATOM     21  N   UNL A   1      32.530  21.844  23.417  1.00  0.00    -0.398 N 
ATOM     22  H   UNL A   1      32.887  21.139  24.004  1.00  0.00     0.156 HD
ATOM     23  H   UNL A   1      32.144  21.607  22.543  1.00  0.00     0.156 HD
ENDBRANCH  13  21
ENDBRANCH   4   7
ENDBRANCH   2   3
ENDBRANCH   1   2
BRANCH   1  24
ATOM     24  C   UNL A   1      35.476  21.521  26.035  1.00  0.00     0.023 C 
BRANCH  24  25
ATOM     25  C   UNL A   1      36.788  21.764  25.295  1.00  0.00     0.116 C 
BRANCH  25  26
ATOM     26  N   UNL A   1      37.763  20.699  25.479  1.00  0.00    -0.352 N 
ATOM     27  C   UNL A   1      39.037  20.793  25.996  1.00  0.00     0.251 C 
ATOM     28  H   UNL A   1      37.477  19.798  25.201  1.00  0.00     0.163 HD
ATOM     29  O   UNL A   1      39.780  19.827  26.004  1.00  0.00    -0.269 OA
BRANCH  27  30
ATOM     30  C   UNL A   1      39.499  22.106  26.496  1.00  0.00     0.039 A 
ATOM     31  C   UNL A   1      40.550  22.145  27.414  1.00  0.00     0.014 A 
ATOM     32  C   UNL A   1      38.939  23.288  26.007  1.00  0.00     0.014 A 
ATOM     33  C   UNL A   1      41.088  23.376  27.791  1.00  0.00     0.010 A 
ATOM     34  C   UNL A   1      39.521  24.509  26.330  1.00  0.00     0.010 A 
ATOM     35  C   UNL A   1      40.602  24.566  27.223  1.00  0.00    -0.014 A 
BRANCH  35  36
ATOM     36  C   UNL A   1      41.223  25.879  27.531  1.00  0.00     0.031 A 
ATOM     37  C   UNL A   1      42.649  26.151  27.141  1.00  0.00     0.074 A 
ATOM     38  C   UNL A   1      40.534  26.786  28.252  1.00  0.00     0.049 A 
ATOM     39  N   UNL A   1      43.381  27.207  27.380  1.00  0.00    -0.248 NA
ATOM     40  C   UNL A   1      43.357  25.083  26.415  1.00  0.00     0.031 C 
ATOM     41  C   UNL A   1      39.176  26.602  28.770  1.00  0.00     0.029 A 
ATOM     42  N   UNL A   1      40.894  28.032  28.704  1.00  0.00    -0.354 N 
ATOM     43  C   UNL A   1      44.641  26.919  26.872  1.00  0.00     0.074 A 
ATOM     44  C   UNL A   1      44.586  25.575  26.340  1.00  0.00     0.031 C 
ATOM     45  C   UNL A   1      38.818  27.694  29.465  1.00  0.00     0.029 A 
ATOM     46  C   UNL A   1      39.926  28.645  29.463  1.00  0.00     0.049 A 
ATOM     47  H   UNL A   1      41.763  28.447  28.502  1.00  0.00     0.167 HD
ATOM     48  C   UNL A   1      45.739  27.712  26.823  1.00  0.00     0.034 A 
ATOM     49  C   UNL A   1      39.929  29.839  30.090  1.00  0.00     0.034 A 
ATOM     50  C   UNL A   1      45.773  29.067  27.301  1.00  0.00     0.049 A 
ATOM     51  C   UNL A   1      41.138  30.726  29.962  1.00  0.00     0.074 A 
ATOM     52  C   UNL A   1      46.800  29.988  27.202  1.00  0.00     0.029 A 
ATOM     53  N   UNL A   1      44.735  29.696  27.970  1.00  0.00    -0.354 N 
ATOM     54  N   UNL A   1      42.260  30.503  29.323  1.00  0.00    -0.248 NA
ATOM     55  C   UNL A   1      41.068  32.044  30.610  1.00  0.00     0.031 C 
ATOM     56  C   UNL A   1      46.388  31.170  27.825  1.00  0.00     0.029 A 
ATOM     57  C   UNL A   1      45.097  30.990  28.296  1.00  0.00     0.049 A 
ATOM     58  H   UNL A   1      43.867  29.282  28.182  1.00  0.00     0.167 HD
ATOM     59  C   UNL A   1      43.014  31.662  29.459  1.00  0.00     0.074 A 
ATOM     60  C   UNL A   1      42.211  32.594  30.225  1.00  0.00     0.031 C 
ATOM     61  C   UNL A   1      44.265  31.927  29.006  1.00  0.00     0.034 A 
BRANCH  48  62
ATOM     62  C   UNL A   1      46.974  27.154  26.169  1.00  0.00     0.023 A 
ATOM     63  C   UNL A   1      47.155  27.314  24.779  1.00  0.00     0.012 A 
ATOM     64  C   UNL A   1      47.981  26.526  26.928  1.00  0.00     0.148 A 
ATOM     65  C   UNL A   1      48.297  26.826  24.149  1.00  0.00     0.002 A 
ATOM     66  C   UNL A   1      49.138  26.081  26.299  1.00  0.00     0.091 A 
ATOM     67  F   UNL A   1      47.783  26.362  28.244  1.00  0.00    -0.205 F 
ATOM     68  C   UNL A   1      49.294  26.220  24.910  1.00  0.00     0.022 A 
BRANCH  66  69
ATOM     69  S   UNL A   1      50.512  25.356  27.202  1.00  0.00     0.127 S 
ATOM     70  O   UNL A   1      50.891  26.453  28.092  1.00  0.00    -0.237 OA
ATOM     71  O   UNL A   1      49.878  24.220  27.872  1.00  0.00    -0.237 OA
ATOM     72  O   UNL A   1      51.502  24.992  26.199  1.00  0.00    -0.744 OA
ENDBRANCH  66  69
ENDBRANCH  48  62
BRANCH  49  73
ATOM     73  C   UNL A   1      38.717  30.297  30.826  1.00  0.00     0.023 A 
ATOM     74  C   UNL A   1      38.610  30.034  32.206  1.00  0.00     0.012 A 
ATOM     75  C   UNL A   1      37.691  31.015  30.182  1.00  0.00     0.148 A 
ATOM     76  C   UNL A   1      37.489  30.448  32.926  1.00  0.00     0.002 A 
ATOM     77  C   UNL A   1      36.601  31.472  30.917  1.00  0.00     0.091 A 
ATOM     78  F   UNL A   1      37.804  31.245  28.868  1.00  0.00    -0.205 F 
ATOM     79  C   UNL A   1      36.491  31.175  32.284  1.00  0.00     0.022 A 
BRANCH  77  80
ATOM     80  S   UNL A   1      35.336  32.526  30.201  1.00  0.00     0.127 S 
ATOM     81  O   UNL A   1      34.417  32.696  31.323  1.00  0.00    -0.237 OA
ATOM     82  O   UNL A   1      36.101  33.722  29.845  1.00  0.00    -0.237 OA
ATOM     83  O   UNL A   1      34.816  31.789  29.057  1.00  0.00    -0.744 OA
ENDBRANCH  77  80
ENDBRANCH  49  73
BRANCH  61  84
ATOM     84  C   UNL A   1      44.840  33.289  29.294  1.00  0.00     0.023 A 
ATOM     85  C   UNL A   1      45.539  33.510  30.498  1.00  0.00     0.012 A 
ATOM     86  C   UNL A   1      44.761  34.321  28.339  1.00  0.00     0.148 A 
ATOM     87  C   UNL A   1      46.126  34.747  30.758  1.00  0.00     0.002 A 
ATOM     88  C   UNL A   1      45.388  35.536  28.585  1.00  0.00     0.091 A 
ATOM     89  F   UNL A   1      44.074  34.097  27.209  1.00  0.00    -0.205 F 
ATOM     90  C   UNL A   1      46.062  35.755  29.797  1.00  0.00     0.022 A 
BRANCH  88  91
ATOM     91  S   UNL A   1      45.438  36.854  27.365  1.00  0.00     0.127 S 
ATOM     92  O   UNL A   1      46.329  37.819  28.005  1.00  0.00    -0.237 OA
ATOM     93  O   UNL A   1      46.009  36.178  26.199  1.00  0.00    -0.237 OA
ATOM     94  O   UNL A   1      44.060  37.290  27.192  1.00  0.00    -0.744 OA
ENDBRANCH  88  91
ENDBRANCH  61  84
ENDBRANCH  35  36
ENDBRANCH  27  30
ENDBRANCH  25  26
ENDBRANCH  24  25
ENDBRANCH   1  24
TORSDOF 19
ENDMDL
MODEL 3
REMARK VINA RESULT:     -10.7      2.311      8.339
REMARK SMILES CC[C@H](C)N(CC)c1cc(C)c(N)c(C(=O)NCCCCNC(=O)c2ccc(-c3c4nc(c(-c5cccc(S(=O)(=O)[O-])c5F)c5ccc([nH]5)c(-c5cccc(S(=O)(=O)[O-])c5F)c5nc(c(-c6cccc(S(=O)(=O)[O-])c6F)c6ccc3[nH]6)C=C5)C=C4)cc2)c1
REMARK SMILES IDX 19 1 18 2 17 3 15 4 16 5 14 7 8 8 9 9 88 10 10 11 11 12
REMARK SMILES IDX 12 13 5 14 3 15 4 16 2 17 1 18 6 19 7 20 13 21 20 24 21 25
REMARK SMILES IDX 22 26 23 27 24 29 25 30 26 31 87 32 27 33 86 34 28 35 29 36
REMARK SMILES IDX 30 37 80 38 31 39 85 40 79 41 81 42 32 43 84 44 78 45 77 46
REMARK SMILES IDX 33 48 65 49 45 50 64 51 46 52 49 53 63 54 82 55 47 56 48 57
REMARK SMILES IDX 62 59 83 60 50 61 34 62 35 63 43 64 36 65 38 66 44 67 37 68
REMARK SMILES IDX 39 69 40 70 41 71 42 72 66 73 67 74 75 75 68 76 70 77 76 78
REMARK SMILES IDX 69 79 71 80 72 81 73 82 74 83 51 84 52 85 60 86 53 87 55 88
REMARK SMILES IDX 61 89 54 90 56 91 57 92 58 93 59 94
REMARK H PARENT 17 6 13 22 13 23 22 28 81 47 49 58
REMARK Flexibility Score: inf
ROOT
ATOM      1  C   UNL A   1      31.930  28.591  23.907  1.00  0.00     0.023 C 
ENDROOT
BRANCH   1   2
ATOM      2  C   UNL A   1      31.079  27.381  23.510  1.00  0.00     0.116 C 
BRANCH   2   3
ATOM      3  N   UNL A   1      30.458  26.788  24.676  1.00  0.00    -0.352 N 
ATOM      4  C   UNL A   1      30.609  25.588  25.325  1.00  0.00     0.253 C 
ATOM      5  O   UNL A   1      29.915  25.455  26.339  1.00  0.00    -0.269 OA
ATOM      6  H   UNL A   1      29.783  27.371  25.091  1.00  0.00     0.163 HD
BRANCH   4   7
ATOM      7  C   UNL A   1      31.565  24.493  24.919  1.00  0.00     0.065 A 
ATOM      8  C   UNL A   1      33.663  23.234  25.237  1.00  0.00     0.038 A 
ATOM      9  C   UNL A   1      33.298  22.417  24.170  1.00  0.00     0.031 A 
ATOM     10  C   UNL A   1      32.788  24.275  25.576  1.00  0.00     0.042 A 
ATOM     11  C   UNL A   1      32.140  22.655  23.414  1.00  0.00    -0.025 A 
ATOM     12  C   UNL A   1      31.910  21.839  22.171  1.00  0.00     0.046 C 
ATOM     13  C   UNL A   1      31.247  23.675  23.801  1.00  0.00     0.047 A 
BRANCH   8  14
ATOM     14  N   UNL A   1      34.855  23.062  25.923  1.00  0.00    -0.369 N 
BRANCH  14  15
ATOM     15  C   UNL A   1      36.139  22.738  25.269  1.00  0.00     0.078 C 
ATOM     16  C   UNL A   1      37.216  23.803  25.481  1.00  0.00     0.031 C 
BRANCH  15  17
ATOM     17  C   UNL A   1      36.635  21.305  25.538  1.00  0.00     0.021 C 
ATOM     18  C   UNL A   1      35.871  20.160  24.891  1.00  0.00     0.006 C 
ENDBRANCH  15  17
ENDBRANCH  14  15
BRANCH  14  19
ATOM     19  C   UNL A   1      34.798  23.022  27.392  1.00  0.00     0.113 C 
ATOM     20  C   UNL A   1      33.952  21.867  27.903  1.00  0.00     0.027 C 
ENDBRANCH  14  19
ENDBRANCH   8  14
BRANCH  13  21
ATOM     21  N   UNL A   1      30.126  23.924  23.007  1.00  0.00    -0.398 N 
ATOM     22  H   UNL A   1      30.077  23.559  22.094  1.00  0.00     0.156 HD
ATOM     23  H   UNL A   1      29.383  24.466  23.360  1.00  0.00     0.156 HD
ENDBRANCH  13  21
ENDBRANCH   4   7
ENDBRANCH   2   3
ENDBRANCH   1   2
BRANCH   1  24
ATOM     24  C   UNL A   1      31.645  29.114  25.320  1.00  0.00     0.023 C 
BRANCH  24  25
ATOM     25  C   UNL A   1      32.835  29.777  26.008  1.00  0.00     0.116 C 
BRANCH  25  26
ATOM     26  N   UNL A   1      32.559  31.132  26.465  1.00  0.00    -0.352 N 
ATOM     27  C   UNL A   1      33.310  31.909  27.319  1.00  0.00     0.251 C 
ATOM     28  H   UNL A   1      31.734  31.544  26.120  1.00  0.00     0.163 HD
ATOM     29  O   UNL A   1      32.907  32.998  27.689  1.00  0.00    -0.269 OA
BRANCH  27  30
ATOM     30  C   UNL A   1      34.596  31.371  27.815  1.00  0.00     0.039 A 
ATOM     31  C   UNL A   1      35.663  32.251  28.009  1.00  0.00     0.014 A 
ATOM     32  C   UNL A   1      34.719  30.020  28.146  1.00  0.00     0.014 A 
ATOM     33  C   UNL A   1      36.837  31.786  28.603  1.00  0.00     0.010 A 
ATOM     34  C   UNL A   1      35.862  29.575  28.800  1.00  0.00     0.010 A 
ATOM     35  C   UNL A   1      36.931  30.452  29.038  1.00  0.00    -0.014 A 
BRANCH  35  36
ATOM     36  C   UNL A   1      38.130  29.959  29.763  1.00  0.00     0.031 A 
ATOM     37  C   UNL A   1      38.440  30.465  31.144  1.00  0.00     0.074 A 
ATOM     38  C   UNL A   1      38.993  29.135  29.135  1.00  0.00     0.049 A 
ATOM     39  N   UNL A   1      39.469  30.203  31.906  1.00  0.00    -0.248 NA
ATOM     40  C   UNL A   1      37.484  31.417  31.736  1.00  0.00     0.031 C 
ATOM     41  C   UNL A   1      38.851  28.648  27.761  1.00  0.00     0.029 A 
ATOM     42  N   UNL A   1      40.177  28.587  29.560  1.00  0.00    -0.354 N 
ATOM     43  C   UNL A   1      39.307  30.982  33.044  1.00  0.00     0.074 A 
ATOM     44  C   UNL A   1      38.098  31.754  32.861  1.00  0.00     0.031 C 
ATOM     45  C   UNL A   1      39.905  27.874  27.457  1.00  0.00     0.029 A 
ATOM     46  C   UNL A   1      40.808  27.826  28.604  1.00  0.00     0.049 A 
ATOM     47  H   UNL A   1      40.541  28.724  30.464  1.00  0.00     0.167 HD
ATOM     48  C   UNL A   1      40.078  31.029  34.157  1.00  0.00     0.034 A 
ATOM     49  C   UNL A   1      41.983  27.167  28.644  1.00  0.00     0.034 A 
ATOM     50  C   UNL A   1      41.248  30.218  34.360  1.00  0.00     0.049 A 
ATOM     51  C   UNL A   1      42.786  27.183  29.916  1.00  0.00     0.074 A 
ATOM     52  C   UNL A   1      42.036  30.112  35.492  1.00  0.00     0.029 A 
ATOM     53  N   UNL A   1      41.799  29.374  33.408  1.00  0.00    -0.354 N 
ATOM     54  N   UNL A   1      42.523  27.788  31.049  1.00  0.00    -0.248 NA
ATOM     55  C   UNL A   1      44.028  26.396  29.931  1.00  0.00     0.031 C 
ATOM     56  C   UNL A   1      43.073  29.215  35.219  1.00  0.00     0.029 A 
ATOM     57  C   UNL A   1      42.920  28.749  33.923  1.00  0.00     0.049 A 
ATOM     58  H   UNL A   1      41.445  29.240  32.500  1.00  0.00     0.167 HD
ATOM     59  C   UNL A   1      43.543  27.427  31.921  1.00  0.00     0.074 A 
ATOM     60  C   UNL A   1      44.419  26.533  31.190  1.00  0.00     0.031 C 
ATOM     61  C   UNL A   1      43.748  27.815  33.204  1.00  0.00     0.034 A 
BRANCH  48  62
ATOM     62  C   UNL A   1      39.641  31.941  35.272  1.00  0.00     0.023 A 
ATOM     63  C   UNL A   1      39.986  33.308  35.223  1.00  0.00     0.012 A 
ATOM     64  C   UNL A   1      38.843  31.468  36.332  1.00  0.00     0.148 A 
ATOM     65  C   UNL A   1      39.578  34.181  36.229  1.00  0.00     0.002 A 
ATOM     66  C   UNL A   1      38.403  32.354  37.309  1.00  0.00     0.091 A 
ATOM     67  F   UNL A   1      38.542  30.162  36.374  1.00  0.00    -0.205 F 
ATOM     68  C   UNL A   1      38.778  33.707  37.265  1.00  0.00     0.022 A 
BRANCH  66  69
ATOM     69  S   UNL A   1      37.306  31.857  38.642  1.00  0.00     0.127 S 
ATOM     70  O   UNL A   1      38.163  32.040  39.813  1.00  0.00    -0.237 OA
ATOM     71  O   UNL A   1      36.218  32.830  38.525  1.00  0.00    -0.237 OA
ATOM     72  O   UNL A   1      36.923  30.483  38.353  1.00  0.00    -0.744 OA
ENDBRANCH  66  69
ENDBRANCH  48  62
BRANCH  49  73
ATOM     73  C   UNL A   1      42.430  26.368  27.467  1.00  0.00     0.023 A 
ATOM     74  C   UNL A   1      43.218  26.987  26.476  1.00  0.00     0.012 A 
ATOM     75  C   UNL A   1      42.110  25.003  27.337  1.00  0.00     0.148 A 
ATOM     76  C   UNL A   1      43.653  26.270  25.361  1.00  0.00     0.002 A 
ATOM     77  C   UNL A   1      42.592  24.281  26.250  1.00  0.00     0.091 A 
ATOM     78  F   UNL A   1      41.349  24.436  28.282  1.00  0.00    -0.205 F 
ATOM     79  C   UNL A   1      43.349  24.915  25.253  1.00  0.00     0.022 A 
BRANCH  77  80
ATOM     80  S   UNL A   1      42.359  22.506  26.099  1.00  0.00     0.127 S 
ATOM     81  O   UNL A   1      40.903  22.396  26.080  1.00  0.00    -0.237 OA
ATOM     82  O   UNL A   1      43.015  22.221  24.822  1.00  0.00    -0.237 OA
ATOM     83  O   UNL A   1      43.027  21.926  27.256  1.00  0.00    -0.744 OA
ENDBRANCH  77  80
ENDBRANCH  49  73
BRANCH  61  84
ATOM     84  C   UNL A   1      44.946  27.252  33.922  1.00  0.00     0.023 A 
ATOM     85  C   UNL A   1      46.182  27.925  33.850  1.00  0.00     0.012 A 
ATOM     86  C   UNL A   1      44.828  26.107  34.734  1.00  0.00     0.148 A 
ATOM     87  C   UNL A   1      47.289  27.451  34.552  1.00  0.00     0.002 A 
ATOM     88  C   UNL A   1      45.923  25.667  35.468  1.00  0.00     0.091 A 
ATOM     89  F   UNL A   1      43.649  25.470  34.774  1.00  0.00    -0.205 F 
ATOM     90  C   UNL A   1      47.156  26.331  35.370  1.00  0.00     0.022 A 
BRANCH  88  91
ATOM     91  S   UNL A   1      45.815  24.293  36.620  1.00  0.00     0.127 S 
ATOM     92  O   UNL A   1      44.834  24.787  37.583  1.00  0.00    -0.237 OA
ATOM     93  O   UNL A   1      45.336  23.205  35.765  1.00  0.00    -0.237 OA
ATOM     94  O   UNL A   1      47.162  24.100  37.139  1.00  0.00    -0.744 OA
ENDBRANCH  88  91
ENDBRANCH  61  84
ENDBRANCH  35  36
ENDBRANCH  27  30
ENDBRANCH  25  26
ENDBRANCH  24  25
ENDBRANCH   1  24
TORSDOF 19
ENDMDL
