MODEL 1
REMARK VINA RESULT:     -13.0      0.000      0.000
REMARK SMILES Cc1cccc(-n2ncc(C(=O)Nc3cccc(C(=O)NCCCCNC(=O)c4ccc(-c5c6nc(c(-c7cccc(S(=O)(=O)[O-])c7F)c7ccc([nH]7)c(-c7cccc(S(=O)(=O)[O-])c7F)c7nc(c(-c8cccc(S(=O)(=O)[O-])c8F)c8ccc5[nH]8)C=C7)C=C6)cc4)c3C)c2C)c1
REMARK SMILES IDX 23 1 22 2 21 3 19 4 20 5 18 7 14 8 15 9 92 10 16 11 93 12
REMARK SMILES IDX 17 13 13 14 11 15 12 16 10 18 7 19 8 20 94 21 9 22 95 23
REMARK SMILES IDX 6 24 1 25 2 26 3 27 96 28 4 29 5 30 24 31 25 32 26 33 27 34
REMARK SMILES IDX 28 36 29 37 30 38 91 39 31 40 90 41 32 42 33 43 34 44 84 45
REMARK SMILES IDX 35 46 89 47 83 48 85 49 36 50 88 51 82 52 81 53 37 55 69 56
REMARK SMILES IDX 49 57 68 58 50 59 53 60 67 61 86 62 51 63 52 64 66 66 87 67
REMARK SMILES IDX 54 68 38 69 39 70 47 71 40 72 42 73 48 74 41 75 43 76 44 77
REMARK SMILES IDX 45 78 46 79 70 80 71 81 79 82 72 83 74 84 80 85 73 86 75 87
REMARK SMILES IDX 76 88 77 89 78 90 55 91 56 92 64 93 57 94 59 95 65 96 58 97
REMARK SMILES IDX 60 98 61 99 62 100 63 101
REMARK H PARENT 21 6 13 17 26 35 85 54 53 65
REMARK Flexibility Score: inf
ROOT
ATOM      1  C   UNL A   1      32.893  29.953  25.820  1.00  0.00     0.023 C 
ENDROOT
BRANCH   1   2
ATOM      2  C   UNL A   1      33.250  29.261  24.507  1.00  0.00     0.116 C 
BRANCH   2   3
ATOM      3  N   UNL A   1      32.122  29.070  23.602  1.00  0.00    -0.352 N 
ATOM      4  C   UNL A   1      31.192  28.087  23.349  1.00  0.00     0.251 C 
ATOM      5  O   UNL A   1      30.324  28.374  22.523  1.00  0.00    -0.269 OA
ATOM      6  H   UNL A   1      31.989  29.851  23.018  1.00  0.00     0.163 HD
BRANCH   4   7
ATOM      7  C   UNL A   1      31.169  26.728  23.993  1.00  0.00     0.044 A 
ATOM      8  C   UNL A   1      31.244  24.299  23.879  1.00  0.00     0.045 A 
ATOM      9  C   UNL A   1      30.944  24.209  25.242  1.00  0.00     0.026 A 
ATOM     10  C   UNL A   1      31.516  25.549  23.272  1.00  0.00    -0.015 A 
ATOM     11  C   UNL A   1      30.630  25.352  25.946  1.00  0.00     0.003 A 
ATOM     12  C   UNL A   1      31.983  25.580  21.834  1.00  0.00     0.047 C 
ATOM     13  C   UNL A   1      30.641  26.574  25.283  1.00  0.00     0.014 A 
BRANCH   8  14
ATOM     14  N   UNL A   1      31.121  23.135  23.098  1.00  0.00    -0.322 N 
ATOM     15  C   UNL A   1      32.065  22.132  22.933  1.00  0.00     0.259 C 
ATOM     16  O   UNL A   1      31.916  21.345  21.996  1.00  0.00    -0.269 OA
ATOM     17  H   UNL A   1      30.271  23.021  22.615  1.00  0.00     0.170 HD
BRANCH  15  18
ATOM     18  C   UNL A   1      33.147  21.963  23.915  1.00  0.00     0.081 A 
ATOM     19  N   UNL A   1      35.084  22.137  25.026  1.00  0.00    -0.237 N 
ATOM     20  N   UNL A   1      34.408  21.144  25.647  1.00  0.00    -0.175 NA
ATOM     21  C   UNL A   1      34.405  22.566  23.889  1.00  0.00     0.054 A 
ATOM     22  C   UNL A   1      33.260  21.050  24.987  1.00  0.00     0.149 A 
ATOM     23  C   UNL A   1      35.014  23.377  22.800  1.00  0.00     0.068 C 
BRANCH  19  24
ATOM     24  C   UNL A   1      36.346  22.537  25.544  1.00  0.00     0.065 A 
ATOM     25  C   UNL A   1      39.799  20.975  25.955  1.00  0.00     0.044 C 
ATOM     26  C   UNL A   1      38.668  21.959  26.006  1.00  0.00    -0.049 A 
ATOM     27  C   UNL A   1      38.895  23.276  26.421  1.00  0.00     0.003 A 
ATOM     28  C   UNL A   1      37.380  21.588  25.599  1.00  0.00     0.031 A 
ATOM     29  C   UNL A   1      37.854  24.206  26.430  1.00  0.00     0.002 A 
ATOM     30  C   UNL A   1      36.580  23.842  25.988  1.00  0.00     0.028 A 
ENDBRANCH  19  24
ENDBRANCH  15  18
ENDBRANCH   8  14
ENDBRANCH   4   7
ENDBRANCH   2   3
ENDBRANCH   1   2
BRANCH   1  31
ATOM     31  C   UNL A   1      33.679  29.481  27.040  1.00  0.00     0.023 C 
BRANCH  31  32
ATOM     32  C   UNL A   1      34.619  30.518  27.645  1.00  0.00     0.116 C 
BRANCH  32  33
ATOM     33  N   UNL A   1      34.029  31.829  27.861  1.00  0.00    -0.352 N 
ATOM     34  C   UNL A   1      34.361  32.802  28.790  1.00  0.00     0.251 C 
ATOM     35  H   UNL A   1      33.284  32.059  27.260  1.00  0.00     0.163 HD
ATOM     36  O   UNL A   1      33.588  33.750  28.940  1.00  0.00    -0.269 OA
BRANCH  34  37
ATOM     37  C   UNL A   1      35.677  32.778  29.484  1.00  0.00     0.039 A 
ATOM     38  C   UNL A   1      36.805  33.222  28.777  1.00  0.00     0.014 A 
ATOM     39  C   UNL A   1      35.846  32.141  30.709  1.00  0.00     0.014 A 
ATOM     40  C   UNL A   1      38.076  32.784  29.149  1.00  0.00     0.010 A 
ATOM     41  C   UNL A   1      37.084  31.631  31.032  1.00  0.00     0.010 A 
ATOM     42  C   UNL A   1      38.181  31.887  30.203  1.00  0.00    -0.014 A 
BRANCH  42  43
ATOM     43  C   UNL A   1      39.341  31.061  30.482  1.00  0.00     0.031 A 
ATOM     44  C   UNL A   1      39.430  29.685  29.974  1.00  0.00     0.074 A 
ATOM     45  C   UNL A   1      40.450  31.679  30.955  1.00  0.00     0.049 A 
ATOM     46  N   UNL A   1      40.389  28.887  30.294  1.00  0.00    -0.248 NA
ATOM     47  C   UNL A   1      38.442  29.077  29.085  1.00  0.00     0.031 C 
ATOM     48  C   UNL A   1      41.836  31.238  30.840  1.00  0.00     0.029 A 
ATOM     49  N   UNL A   1      40.512  32.753  31.848  1.00  0.00    -0.354 N 
ATOM     50  C   UNL A   1      40.364  27.866  29.381  1.00  0.00     0.074 A 
ATOM     51  C   UNL A   1      39.053  27.924  28.785  1.00  0.00     0.031 C 
ATOM     52  C   UNL A   1      42.554  31.813  31.815  1.00  0.00     0.029 A 
ATOM     53  C   UNL A   1      41.612  32.488  32.688  1.00  0.00     0.049 A 
ATOM     54  H   UNL A   1      39.913  33.534  31.881  1.00  0.00     0.167 HD
ATOM     55  C   UNL A   1      41.523  27.206  29.118  1.00  0.00     0.034 A 
ATOM     56  C   UNL A   1      41.494  32.288  34.034  1.00  0.00     0.034 A 
ATOM     57  C   UNL A   1      42.567  27.504  30.110  1.00  0.00     0.049 A 
ATOM     58  C   UNL A   1      41.991  30.919  34.491  1.00  0.00     0.074 A 
ATOM     59  C   UNL A   1      43.813  28.103  30.103  1.00  0.00     0.029 A 
ATOM     60  N   UNL A   1      42.255  27.311  31.445  1.00  0.00    -0.354 N 
ATOM     61  N   UNL A   1      42.633  30.061  33.745  1.00  0.00    -0.248 NA
ATOM     62  C   UNL A   1      41.699  30.373  35.818  1.00  0.00     0.031 C 
ATOM     63  C   UNL A   1      44.215  28.307  31.464  1.00  0.00     0.029 A 
ATOM     64  C   UNL A   1      43.238  27.784  32.292  1.00  0.00     0.049 A 
ATOM     65  H   UNL A   1      41.424  26.884  31.757  1.00  0.00     0.167 HD
ATOM     66  C   UNL A   1      42.644  28.833  34.364  1.00  0.00     0.074 A 
ATOM     67  C   UNL A   1      42.100  29.098  35.685  1.00  0.00     0.031 C 
ATOM     68  C   UNL A   1      42.999  27.671  33.726  1.00  0.00     0.034 A 
BRANCH  55  69
ATOM     69  C   UNL A   1      41.758  26.350  27.896  1.00  0.00     0.023 A 
ATOM     70  C   UNL A   1      41.369  26.878  26.646  1.00  0.00     0.012 A 
ATOM     71  C   UNL A   1      42.256  25.024  27.892  1.00  0.00     0.148 A 
ATOM     72  C   UNL A   1      41.479  26.141  25.461  1.00  0.00     0.002 A 
ATOM     73  C   UNL A   1      42.448  24.323  26.698  1.00  0.00     0.091 A 
ATOM     74  F   UNL A   1      42.448  24.373  29.045  1.00  0.00    -0.205 F 
ATOM     75  C   UNL A   1      42.045  24.874  25.481  1.00  0.00     0.022 A 
BRANCH  73  76
ATOM     76  S   UNL A   1      43.265  22.718  26.668  1.00  0.00     0.127 S 
ATOM     77  O   UNL A   1      42.516  21.969  27.677  1.00  0.00    -0.237 OA
ATOM     78  O   UNL A   1      43.045  22.269  25.293  1.00  0.00    -0.237 OA
ATOM     79  O   UNL A   1      44.663  22.982  26.989  1.00  0.00    -0.744 OA
ENDBRANCH  73  76
ENDBRANCH  55  69
BRANCH  56  80
ATOM     80  C   UNL A   1      40.350  33.046  34.630  1.00  0.00     0.023 A 
ATOM     81  C   UNL A   1      39.068  32.456  34.514  1.00  0.00     0.012 A 
ATOM     82  C   UNL A   1      40.551  34.042  35.602  1.00  0.00     0.148 A 
ATOM     83  C   UNL A   1      38.057  32.749  35.432  1.00  0.00     0.002 A 
ATOM     84  C   UNL A   1      39.532  34.337  36.507  1.00  0.00     0.091 A 
ATOM     85  F   UNL A   1      41.755  34.619  35.693  1.00  0.00    -0.205 F 
ATOM     86  C   UNL A   1      38.302  33.665  36.449  1.00  0.00     0.022 A 
BRANCH  84  87
ATOM     87  S   UNL A   1      39.793  35.491  37.861  1.00  0.00     0.127 S 
ATOM     88  O   UNL A   1      38.652  35.192  38.720  1.00  0.00    -0.237 OA
ATOM     89  O   UNL A   1      41.091  35.068  38.387  1.00  0.00    -0.237 OA
ATOM     90  O   UNL A   1      39.806  36.804  37.234  1.00  0.00    -0.744 OA
ENDBRANCH  84  87
ENDBRANCH  56  80
BRANCH  68  91
ATOM     91  C   UNL A   1      43.052  26.303  34.400  1.00  0.00     0.023 A 
ATOM     92  C   UNL A   1      41.901  25.739  34.987  1.00  0.00     0.012 A 
ATOM     93  C   UNL A   1      44.266  25.581  34.580  1.00  0.00     0.148 A 
ATOM     94  C   UNL A   1      41.927  24.492  35.626  1.00  0.00     0.002 A 
ATOM     95  C   UNL A   1      44.301  24.371  35.268  1.00  0.00     0.091 A 
ATOM     96  F   UNL A   1      45.410  26.063  34.089  1.00  0.00    -0.205 F 
ATOM     97  C   UNL A   1      43.126  23.807  35.766  1.00  0.00     0.022 A 
BRANCH  95  98
ATOM     98  S   UNL A   1      45.837  23.494  35.615  1.00  0.00     0.127 S 
ATOM     99  O   UNL A   1      46.367  23.289  34.266  1.00  0.00    -0.237 OA
ATOM    100  O   UNL A   1      46.569  24.476  36.415  1.00  0.00    -0.237 OA
ATOM    101  O   UNL A   1      45.468  22.277  36.323  1.00  0.00    -0.744 OA
ENDBRANCH  95  98
ENDBRANCH  68  91
ENDBRANCH  42  43
ENDBRANCH  34  37
ENDBRANCH  32  33
ENDBRANCH  31  32
ENDBRANCH   1  31
TORSDOF 17
ENDMDL
MODEL 2
REMARK VINA RESULT:     -12.7      4.075      9.649
REMARK SMILES Cc1cccc(-n2ncc(C(=O)Nc3cccc(C(=O)NCCCCNC(=O)c4ccc(-c5c6nc(c(-c7cccc(S(=O)(=O)[O-])c7F)c7ccc([nH]7)c(-c7cccc(S(=O)(=O)[O-])c7F)c7nc(c(-c8cccc(S(=O)(=O)[O-])c8F)c8ccc5[nH]8)C=C7)C=C6)cc4)c3C)c2C)c1
REMARK SMILES IDX 23 1 22 2 21 3 19 4 20 5 18 7 14 8 15 9 92 10 16 11 93 12
REMARK SMILES IDX 17 13 13 14 11 15 12 16 10 18 7 19 8 20 94 21 9 22 95 23
REMARK SMILES IDX 6 24 1 25 2 26 3 27 96 28 4 29 5 30 24 31 25 32 26 33 27 34
REMARK SMILES IDX 28 36 29 37 30 38 91 39 31 40 90 41 32 42 33 43 34 44 84 45
REMARK SMILES IDX 35 46 89 47 83 48 85 49 36 50 88 51 82 52 81 53 37 55 69 56
REMARK SMILES IDX 49 57 68 58 50 59 53 60 67 61 86 62 51 63 52 64 66 66 87 67
REMARK SMILES IDX 54 68 38 69 39 70 47 71 40 72 42 73 48 74 41 75 43 76 44 77
REMARK SMILES IDX 45 78 46 79 70 80 71 81 79 82 72 83 74 84 80 85 73 86 75 87
REMARK SMILES IDX 76 88 77 89 78 90 55 91 56 92 64 93 57 94 59 95 65 96 58 97
REMARK SMILES IDX 60 98 61 99 62 100 63 101
REMARK H PARENT 21 6 13 17 26 35 85 54 53 65
REMARK Flexibility Score: inf
ROOT
ATOM      1  C   UNL A   1      37.748  20.533  25.044  1.00  0.00     0.023 C 
ENDROOT
BRANCH   1   2
ATOM      2  C   UNL A   1      36.244  20.697  25.249  1.00  0.00     0.116 C 
BRANCH   2   3
ATOM      3  N   UNL A   1      35.863  21.909  25.967  1.00  0.00    -0.352 N 
ATOM      4  C   UNL A   1      34.826  22.813  25.933  1.00  0.00     0.251 C 
ATOM      5  O   UNL A   1      34.849  23.683  26.805  1.00  0.00    -0.269 OA
ATOM      6  H   UNL A   1      36.522  22.141  26.661  1.00  0.00     0.163 HD
BRANCH   4   7
ATOM      7  C   UNL A   1      33.703  22.808  24.932  1.00  0.00     0.044 A 
ATOM      8  C   UNL A   1      32.818  23.203  22.701  1.00  0.00     0.045 A 
ATOM      9  C   UNL A   1      31.521  22.939  23.151  1.00  0.00     0.026 A 
ATOM     10  C   UNL A   1      33.939  22.989  23.538  1.00  0.00    -0.015 A 
ATOM     11  C   UNL A   1      31.294  22.742  24.496  1.00  0.00     0.003 A 
ATOM     12  C   UNL A   1      35.328  23.143  22.959  1.00  0.00     0.047 C 
ATOM     13  C   UNL A   1      32.372  22.789  25.374  1.00  0.00     0.014 A 
BRANCH   8  14
ATOM     14  N   UNL A   1      32.968  23.828  21.450  1.00  0.00    -0.322 N 
ATOM     15  C   UNL A   1      32.919  25.188  21.179  1.00  0.00     0.259 C 
ATOM     16  O   UNL A   1      32.775  25.541  20.007  1.00  0.00    -0.269 OA
ATOM     17  H   UNL A   1      33.123  23.234  20.680  1.00  0.00     0.170 HD
BRANCH  15  18
ATOM     18  C   UNL A   1      33.140  26.166  22.255  1.00  0.00     0.081 A 
ATOM     19  N   UNL A   1      32.871  27.487  24.043  1.00  0.00    -0.237 N 
ATOM     20  N   UNL A   1      34.071  27.833  23.527  1.00  0.00    -0.175 NA
ATOM     21  C   UNL A   1      32.218  26.572  23.222  1.00  0.00     0.054 A 
ATOM     22  C   UNL A   1      34.227  27.042  22.471  1.00  0.00     0.149 A 
ATOM     23  C   UNL A   1      30.767  26.254  23.299  1.00  0.00     0.068 C 
BRANCH  19  24
ATOM     24  C   UNL A   1      32.433  28.113  25.243  1.00  0.00     0.065 A 
ATOM     25  C   UNL A   1      31.333  31.604  26.310  1.00  0.00     0.044 C 
ATOM     26  C   UNL A   1      31.681  30.145  26.358  1.00  0.00    -0.049 A 
ATOM     27  C   UNL A   1      31.443  29.400  27.518  1.00  0.00     0.003 A 
ATOM     28  C   UNL A   1      32.208  29.500  25.233  1.00  0.00     0.031 A 
ATOM     29  C   UNL A   1      31.727  28.034  27.554  1.00  0.00     0.002 A 
ATOM     30  C   UNL A   1      32.218  27.386  26.418  1.00  0.00     0.028 A 
ENDBRANCH  19  24
ENDBRANCH  15  18
ENDBRANCH   8  14
ENDBRANCH   4   7
ENDBRANCH   2   3
ENDBRANCH   1   2
BRANCH   1  31
ATOM     31  C   UNL A   1      38.589  21.760  25.385  1.00  0.00     0.023 C 
BRANCH  31  32
ATOM     32  C   UNL A   1      39.506  21.601  26.593  1.00  0.00     0.116 C 
BRANCH  32  33
ATOM     33  N   UNL A   1      40.902  21.920  26.350  1.00  0.00    -0.352 N 
ATOM     34  C   UNL A   1      41.515  23.156  26.223  1.00  0.00     0.251 C 
ATOM     35  H   UNL A   1      41.501  21.144  26.262  1.00  0.00     0.163 HD
ATOM     36  O   UNL A   1      42.672  23.192  25.802  1.00  0.00    -0.269 OA
BRANCH  34  37
ATOM     37  C   UNL A   1      40.846  24.393  26.711  1.00  0.00     0.039 A 
ATOM     38  C   UNL A   1      41.000  25.568  25.960  1.00  0.00     0.014 A 
ATOM     39  C   UNL A   1      40.268  24.461  27.975  1.00  0.00     0.014 A 
ATOM     40  C   UNL A   1      40.844  26.812  26.572  1.00  0.00     0.010 A 
ATOM     41  C   UNL A   1      40.198  25.681  28.612  1.00  0.00     0.010 A 
ATOM     42  C   UNL A   1      40.567  26.845  27.932  1.00  0.00    -0.014 A 
BRANCH  42  43
ATOM     43  C   UNL A   1      40.734  28.004  28.788  1.00  0.00     0.031 A 
ATOM     44  C   UNL A   1      39.816  29.149  28.700  1.00  0.00     0.074 A 
ATOM     45  C   UNL A   1      41.556  27.880  29.858  1.00  0.00     0.049 A 
ATOM     46  N   UNL A   1      39.998  30.238  29.363  1.00  0.00    -0.248 NA
ATOM     47  C   UNL A   1      38.630  29.180  27.848  1.00  0.00     0.031 C 
ATOM     48  C   UNL A   1      41.521  28.637  31.105  1.00  0.00     0.029 A 
ATOM     49  N   UNL A   1      42.755  27.164  29.933  1.00  0.00    -0.354 N 
ATOM     50  C   UNL A   1      38.805  30.910  29.340  1.00  0.00     0.074 A 
ATOM     51  C   UNL A   1      38.062  30.323  28.252  1.00  0.00     0.031 C 
ATOM     52  C   UNL A   1      42.734  28.584  31.675  1.00  0.00     0.029 A 
ATOM     53  C   UNL A   1      43.621  27.950  30.718  1.00  0.00     0.049 A 
ATOM     54  H   UNL A   1      42.952  26.290  29.524  1.00  0.00     0.167 HD
ATOM     55  C   UNL A   1      38.523  31.763  30.359  1.00  0.00     0.034 A 
ATOM     56  C   UNL A   1      44.786  28.483  30.242  1.00  0.00     0.034 A 
ATOM     57  C   UNL A   1      39.710  32.061  31.176  1.00  0.00     0.049 A 
ATOM     58  C   UNL A   1      44.831  30.007  30.312  1.00  0.00     0.074 A 
ATOM     59  C   UNL A   1      40.101  31.855  32.485  1.00  0.00     0.029 A 
ATOM     60  N   UNL A   1      40.836  32.529  30.520  1.00  0.00    -0.354 N 
ATOM     61  N   UNL A   1      43.952  30.762  30.916  1.00  0.00    -0.248 NA
ATOM     62  C   UNL A   1      45.835  30.803  29.602  1.00  0.00     0.031 C 
ATOM     63  C   UNL A   1      41.498  32.165  32.585  1.00  0.00     0.029 A 
ATOM     64  C   UNL A   1      41.936  32.608  31.350  1.00  0.00     0.049 A 
ATOM     65  H   UNL A   1      40.851  32.779  29.567  1.00  0.00     0.167 HD
ATOM     66  C   UNL A   1      44.118  32.067  30.516  1.00  0.00     0.074 A 
ATOM     67  C   UNL A   1      45.348  32.047  29.742  1.00  0.00     0.031 C 
ATOM     68  C   UNL A   1      43.193  33.051  30.757  1.00  0.00     0.034 A 
BRANCH  55  69
ATOM     69  C   UNL A   1      37.138  32.267  30.692  1.00  0.00     0.023 A 
ATOM     70  C   UNL A   1      36.634  31.985  31.979  1.00  0.00     0.012 A 
ATOM     71  C   UNL A   1      36.257  32.927  29.800  1.00  0.00     0.148 A 
ATOM     72  C   UNL A   1      35.337  32.346  32.364  1.00  0.00     0.002 A 
ATOM     73  C   UNL A   1      34.997  33.365  30.214  1.00  0.00     0.091 A 
ATOM     74  F   UNL A   1      36.573  33.044  28.505  1.00  0.00    -0.205 F 
ATOM     75  C   UNL A   1      34.527  33.061  31.493  1.00  0.00     0.022 A 
BRANCH  73  76
ATOM     76  S   UNL A   1      33.953  34.377  29.151  1.00  0.00     0.127 S 
ATOM     77  O   UNL A   1      32.923  34.843  30.078  1.00  0.00    -0.237 OA
ATOM     78  O   UNL A   1      34.873  35.419  28.692  1.00  0.00    -0.237 OA
ATOM     79  O   UNL A   1      33.491  33.487  28.091  1.00  0.00    -0.744 OA
ENDBRANCH  73  76
ENDBRANCH  55  69
BRANCH  56  80
ATOM     80  C   UNL A   1      45.412  27.638  29.178  1.00  0.00     0.023 A 
ATOM     81  C   UNL A   1      45.895  26.368  29.576  1.00  0.00     0.012 A 
ATOM     82  C   UNL A   1      45.169  27.870  27.812  1.00  0.00     0.148 A 
ATOM     83  C   UNL A   1      45.998  25.319  28.661  1.00  0.00     0.002 A 
ATOM     84  C   UNL A   1      45.286  26.821  26.903  1.00  0.00     0.091 A 
ATOM     85  F   UNL A   1      44.740  29.080  27.432  1.00  0.00    -0.205 F 
ATOM     86  C   UNL A   1      45.660  25.538  27.330  1.00  0.00     0.022 A 
BRANCH  84  87
ATOM     87  S   UNL A   1      44.839  27.030  25.174  1.00  0.00     0.127 S 
ATOM     88  O   UNL A   1      44.677  25.645  24.746  1.00  0.00    -0.237 OA
ATOM     89  O   UNL A   1      43.598  27.799  25.262  1.00  0.00    -0.237 OA
ATOM     90  O   UNL A   1      45.952  27.763  24.589  1.00  0.00    -0.744 OA
ENDBRANCH  84  87
ENDBRANCH  56  80
BRANCH  68  91
ATOM     91  C   UNL A   1      43.370  34.513  30.355  1.00  0.00     0.023 A 
ATOM     92  C   UNL A   1      43.571  35.512  31.329  1.00  0.00     0.012 A 
ATOM     93  C   UNL A   1      43.223  34.965  29.014  1.00  0.00     0.148 A 
ATOM     94  C   UNL A   1      43.720  36.864  30.988  1.00  0.00     0.002 A 
ATOM     95  C   UNL A   1      43.310  36.315  28.683  1.00  0.00     0.091 A 
ATOM     96  F   UNL A   1      42.991  34.088  28.033  1.00  0.00    -0.205 F 
ATOM     97  C   UNL A   1      43.590  37.266  29.666  1.00  0.00     0.022 A 
BRANCH  95  98
ATOM     98  S   UNL A   1      43.012  36.930  27.016  1.00  0.00     0.127 S 
ATOM     99  O   UNL A   1      44.146  37.837  26.832  1.00  0.00    -0.237 OA
ATOM    100  O   UNL A   1      43.081  35.700  26.226  1.00  0.00    -0.237 OA
ATOM    101  O   UNL A   1      41.707  37.572  27.039  1.00  0.00    -0.744 OA
ENDBRANCH  95  98
ENDBRANCH  68  91
ENDBRANCH  42  43
ENDBRANCH  34  37
ENDBRANCH  32  33
ENDBRANCH  31  32
ENDBRANCH   1  31
TORSDOF 17
ENDMDL
MODEL 3
REMARK VINA RESULT:     -12.6      1.409      1.924
REMARK SMILES Cc1cccc(-n2ncc(C(=O)Nc3cccc(C(=O)NCCCCNC(=O)c4ccc(-c5c6nc(c(-c7cccc(S(=O)(=O)[O-])c7F)c7ccc([nH]7)c(-c7cccc(S(=O)(=O)[O-])c7F)c7nc(c(-c8cccc(S(=O)(=O)[O-])c8F)c8ccc5[nH]8)C=C7)C=C6)cc4)c3C)c2C)c1
REMARK SMILES IDX 23 1 22 2 21 3 19 4 20 5 18 7 14 8 15 9 92 10 16 11 93 12
REMARK SMILES IDX 17 13 13 14 11 15 12 16 10 18 7 19 8 20 94 21 9 22 95 23
REMARK SMILES IDX 6 24 1 25 2 26 3 27 96 28 4 29 5 30 24 31 25 32 26 33 27 34
REMARK SMILES IDX 28 36 29 37 30 38 91 39 31 40 90 41 32 42 33 43 34 44 84 45
REMARK SMILES IDX 35 46 89 47 83 48 85 49 36 50 88 51 82 52 81 53 37 55 69 56
REMARK SMILES IDX 49 57 68 58 50 59 53 60 67 61 86 62 51 63 52 64 66 66 87 67
REMARK SMILES IDX 54 68 38 69 39 70 47 71 40 72 42 73 48 74 41 75 43 76 44 77
REMARK SMILES IDX 45 78 46 79 70 80 71 81 79 82 72 83 74 84 80 85 73 86 75 87
REMARK SMILES IDX 76 88 77 89 78 90 55 91 56 92 64 93 57 94 59 95 65 96 58 97
REMARK SMILES IDX 60 98 61 99 62 100 63 101
REMARK H PARENT 21 6 13 17 26 35 85 54 53 65
REMARK Flexibility Score: inf
ROOT
ATOM      1  C   UNL A   1      32.728  29.710  26.075  1.00  0.00     0.023 C 
ENDROOT
BRANCH   1   2
ATOM      2  C   UNL A   1      32.806  29.526  24.561  1.00  0.00     0.116 C 
BRANCH   2   3
ATOM      3  N   UNL A   1      31.548  29.127  23.939  1.00  0.00    -0.352 N 
ATOM      4  C   UNL A   1      30.739  28.014  23.933  1.00  0.00     0.251 C 
ATOM      5  O   UNL A   1      29.679  28.128  23.315  1.00  0.00    -0.269 OA
ATOM      6  H   UNL A   1      31.179  29.845  23.375  1.00  0.00     0.163 HD
BRANCH   4   7
ATOM      7  C   UNL A   1      31.054  26.709  24.611  1.00  0.00     0.044 A 
ATOM      8  C   UNL A   1      31.392  24.300  24.573  1.00  0.00     0.045 A 
ATOM      9  C   UNL A   1      31.479  24.273  25.967  1.00  0.00     0.026 A 
ATOM     10  C   UNL A   1      31.338  25.526  23.867  1.00  0.00    -0.015 A 
ATOM     11  C   UNL A   1      31.227  25.422  26.687  1.00  0.00     0.003 A 
ATOM     12  C   UNL A   1      31.397  25.507  22.356  1.00  0.00     0.047 C 
ATOM     13  C   UNL A   1      30.912  26.589  26.001  1.00  0.00     0.014 A 
BRANCH   8  14
ATOM     14  N   UNL A   1      31.208  23.078  23.900  1.00  0.00    -0.322 N 
ATOM     15  C   UNL A   1      32.142  22.391  23.136  1.00  0.00     0.259 C 
ATOM     16  O   UNL A   1      31.735  21.503  22.385  1.00  0.00    -0.269 OA
ATOM     17  H   UNL A   1      30.318  22.665  23.979  1.00  0.00     0.170 HD
BRANCH  15  18
ATOM     18  C   UNL A   1      33.578  22.657  23.307  1.00  0.00     0.081 A 
ATOM     19  N   UNL A   1      35.664  22.737  24.118  1.00  0.00    -0.237 N 
ATOM     20  N   UNL A   1      35.687  23.508  23.008  1.00  0.00    -0.175 NA
ATOM     21  C   UNL A   1      34.370  22.312  24.404  1.00  0.00     0.054 A 
ATOM     22  C   UNL A   1      34.450  23.451  22.530  1.00  0.00     0.149 A 
ATOM     23  C   UNL A   1      33.935  21.757  25.714  1.00  0.00     0.068 C 
BRANCH  19  24
ATOM     24  C   UNL A   1      36.874  22.532  24.837  1.00  0.00     0.065 A 
ATOM     25  C   UNL A   1      38.928  24.447  27.415  1.00  0.00     0.044 C 
ATOM     26  C   UNL A   1      38.484  23.380  26.458  1.00  0.00    -0.049 A 
ATOM     27  C   UNL A   1      39.170  22.163  26.388  1.00  0.00     0.003 A 
ATOM     28  C   UNL A   1      37.354  23.570  25.653  1.00  0.00     0.031 A 
ATOM     29  C   UNL A   1      38.735  21.153  25.528  1.00  0.00     0.002 A 
ATOM     30  C   UNL A   1      37.586  21.332  24.755  1.00  0.00     0.028 A 
ENDBRANCH  19  24
ENDBRANCH  15  18
ENDBRANCH   8  14
ENDBRANCH   4   7
ENDBRANCH   2   3
ENDBRANCH   1   2
BRANCH   1  31
ATOM     31  C   UNL A   1      33.917  29.160  26.859  1.00  0.00     0.023 C 
BRANCH  31  32
ATOM     32  C   UNL A   1      34.855  30.214  27.436  1.00  0.00     0.116 C 
BRANCH  32  33
ATOM     33  N   UNL A   1      34.272  31.536  27.592  1.00  0.00    -0.352 N 
ATOM     34  C   UNL A   1      34.539  32.511  28.539  1.00  0.00     0.251 C 
ATOM     35  H   UNL A   1      33.585  31.773  26.928  1.00  0.00     0.163 HD
ATOM     36  O   UNL A   1      33.773  33.473  28.616  1.00  0.00    -0.269 OA
BRANCH  34  37
ATOM     37  C   UNL A   1      35.791  32.471  29.345  1.00  0.00     0.039 A 
ATOM     38  C   UNL A   1      36.923  33.127  28.839  1.00  0.00     0.014 A 
ATOM     39  C   UNL A   1      35.920  31.638  30.452  1.00  0.00     0.014 A 
ATOM     40  C   UNL A   1      38.197  32.735  29.253  1.00  0.00     0.010 A 
ATOM     41  C   UNL A   1      37.173  31.182  30.801  1.00  0.00     0.010 A 
ATOM     42  C   UNL A   1      38.303  31.673  30.140  1.00  0.00    -0.014 A 
BRANCH  42  43
ATOM     43  C   UNL A   1      39.512  30.910  30.385  1.00  0.00     0.031 A 
ATOM     44  C   UNL A   1      39.636  29.521  29.920  1.00  0.00     0.074 A 
ATOM     45  C   UNL A   1      40.615  31.592  30.776  1.00  0.00     0.049 A 
ATOM     46  N   UNL A   1      40.646  28.777  30.216  1.00  0.00    -0.248 NA
ATOM     47  C   UNL A   1      38.632  28.839  29.107  1.00  0.00     0.031 C 
ATOM     48  C   UNL A   1      42.012  31.207  30.601  1.00  0.00     0.029 A 
ATOM     49  N   UNL A   1      40.675  32.700  31.626  1.00  0.00    -0.354 N 
ATOM     50  C   UNL A   1      40.620  27.724  29.341  1.00  0.00     0.074 A 
ATOM     51  C   UNL A   1      39.278  27.703  28.814  1.00  0.00     0.031 C 
ATOM     52  C   UNL A   1      42.753  31.849  31.516  1.00  0.00     0.029 A 
ATOM     53  C   UNL A   1      41.828  32.514  32.415  1.00  0.00     0.049 A 
ATOM     54  H   UNL A   1      40.044  33.454  31.665  1.00  0.00     0.167 HD
ATOM     55  C   UNL A   1      41.791  27.105  29.038  1.00  0.00     0.034 A 
ATOM     56  C   UNL A   1      41.790  32.358  33.771  1.00  0.00     0.034 A 
ATOM     57  C   UNL A   1      42.872  27.484  29.961  1.00  0.00     0.049 A 
ATOM     58  C   UNL A   1      42.372  31.029  34.247  1.00  0.00     0.074 A 
ATOM     59  C   UNL A   1      44.087  28.136  29.866  1.00  0.00     0.029 A 
ATOM     60  N   UNL A   1      42.639  27.327  31.317  1.00  0.00    -0.354 N 
ATOM     61  N   UNL A   1      43.012  30.173  33.498  1.00  0.00    -0.248 NA
ATOM     62  C   UNL A   1      42.174  30.520  35.607  1.00  0.00     0.031 C 
ATOM     63  C   UNL A   1      44.550  28.407  31.196  1.00  0.00     0.029 A 
ATOM     64  C   UNL A   1      43.643  27.873  32.093  1.00  0.00     0.049 A 
ATOM     65  H   UNL A   1      41.846  26.876  31.688  1.00  0.00     0.167 HD
ATOM     66  C   UNL A   1      43.111  28.970  34.157  1.00  0.00     0.074 A 
ATOM     67  C   UNL A   1      42.625  29.260  35.496  1.00  0.00     0.031 C 
ATOM     68  C   UNL A   1      43.484  27.803  33.541  1.00  0.00     0.034 A 
BRANCH  55  69
ATOM     69  C   UNL A   1      42.001  26.216  27.835  1.00  0.00     0.023 A 
ATOM     70  C   UNL A   1      41.700  26.755  26.566  1.00  0.00     0.012 A 
ATOM     71  C   UNL A   1      42.392  24.855  27.864  1.00  0.00     0.148 A 
ATOM     72  C   UNL A   1      41.792  25.995  25.394  1.00  0.00     0.002 A 
ATOM     73  C   UNL A   1      42.569  24.124  26.687  1.00  0.00     0.091 A 
ATOM     74  F   UNL A   1      42.490  24.208  29.031  1.00  0.00    -0.205 F 
ATOM     75  C   UNL A   1      42.254  24.687  25.449  1.00  0.00     0.022 A 
BRANCH  73  76
ATOM     76  S   UNL A   1      43.256  22.459  26.705  1.00  0.00     0.127 S 
ATOM     77  O   UNL A   1      44.647  22.700  27.083  1.00  0.00    -0.237 OA
ATOM     78  O   UNL A   1      42.456  21.790  27.731  1.00  0.00    -0.237 OA
ATOM     79  O   UNL A   1      43.050  21.934  25.359  1.00  0.00    -0.744 OA
ENDBRANCH  73  76
ENDBRANCH  55  69
BRANCH  56  80
ATOM     80  C   UNL A   1      40.646  33.087  34.402  1.00  0.00     0.023 A 
ATOM     81  C   UNL A   1      40.862  34.448  34.729  1.00  0.00     0.012 A 
ATOM     82  C   UNL A   1      39.324  32.619  34.297  1.00  0.00     0.148 A 
ATOM     83  C   UNL A   1      39.796  35.346  34.809  1.00  0.00     0.002 A 
ATOM     84  C   UNL A   1      38.265  33.520  34.391  1.00  0.00     0.091 A 
ATOM     85  F   UNL A   1      39.120  31.326  34.016  1.00  0.00    -0.205 F 
ATOM     86  C   UNL A   1      38.500  34.886  34.606  1.00  0.00     0.022 A 
BRANCH  84  87
ATOM     87  S   UNL A   1      36.568  32.995  34.111  1.00  0.00     0.127 S 
ATOM     88  O   UNL A   1      35.921  33.435  35.343  1.00  0.00    -0.237 OA
ATOM     89  O   UNL A   1      36.198  33.752  32.916  1.00  0.00    -0.237 OA
ATOM     90  O   UNL A   1      36.653  31.558  33.901  1.00  0.00    -0.744 OA
ENDBRANCH  84  87
ENDBRANCH  56  80
BRANCH  68  91
ATOM     91  C   UNL A   1      43.635  26.463  34.258  1.00  0.00     0.023 A 
ATOM     92  C   UNL A   1      42.513  25.799  34.794  1.00  0.00     0.012 A 
ATOM     93  C   UNL A   1      44.901  25.875  34.529  1.00  0.00     0.148 A 
ATOM     94  C   UNL A   1      42.625  24.577  35.470  1.00  0.00     0.002 A 
ATOM     95  C   UNL A   1      45.017  24.691  35.254  1.00  0.00     0.091 A 
ATOM     96  F   UNL A   1      46.019  26.460  34.091  1.00  0.00    -0.205 F 
ATOM     97  C   UNL A   1      43.877  24.021  35.700  1.00  0.00     0.022 A 
BRANCH  95  98
ATOM     98  S   UNL A   1      46.609  23.985  35.716  1.00  0.00     0.127 S 
ATOM     99  O   UNL A   1      46.197  22.836  36.523  1.00  0.00    -0.237 OA
ATOM    100  O   UNL A   1      47.176  23.642  34.411  1.00  0.00    -0.237 OA
ATOM    101  O   UNL A   1      47.327  25.023  36.442  1.00  0.00    -0.744 OA
ENDBRANCH  95  98
ENDBRANCH  68  91
ENDBRANCH  42  43
ENDBRANCH  34  37
ENDBRANCH  32  33
ENDBRANCH  31  32
ENDBRANCH   1  31
TORSDOF 17
ENDMDL
