MODEL 1
REMARK VINA RESULT:     -12.3      0.000      0.000
REMARK SMILES O=C(NCCCCNC(=O)c1cccc(NC(=S)N/N=C\c2c[nH]c3ccccc23)c1)c1ccc(-c2c3nc(c(-c4cccc(S(=O)(=O)[O-])c4F)c4ccc([nH]4)c(-c4cccc(S(=O)(=O)[O-])c4F)c4nc(c(-c5cccc(S(=O)(=O)[O-])c5F)c5ccc2[nH]5)C=C4)C=C3)cc1
REMARK SMILES IDX 6 1 5 2 4 3 3 4 1 5 2 6 32 8 33 9 94 10 34 11 93 12 35 13
REMARK SMILES IDX 36 14 37 15 87 16 38 17 92 18 86 19 88 20 39 21 91 22 85 23
REMARK SMILES IDX 84 24 40 26 72 27 52 28 71 29 53 30 56 31 70 32 89 33 54 34
REMARK SMILES IDX 55 35 69 37 90 38 57 39 41 40 42 41 50 42 43 43 45 44 51 45
REMARK SMILES IDX 44 46 46 47 47 48 48 49 49 50 73 51 74 52 82 53 75 54 77 55
REMARK SMILES IDX 83 56 76 57 78 58 79 59 80 60 81 61 58 62 59 63 67 64 60 65
REMARK SMILES IDX 62 66 68 67 61 68 63 69 64 70 65 71 66 72 7 73 8 74 9 75
REMARK SMILES IDX 10 77 11 78 12 79 31 80 13 81 15 82 14 83 16 84 17 86 18 87
REMARK SMILES IDX 19 88 20 90 21 91 22 92 23 93 30 94 24 95 25 96 29 97 26 99
REMARK SMILES IDX 28 100 27 101
REMARK H PARENT 3 7 88 25 56 36 8 76 16 85 19 89 24 98
REMARK Flexibility Score: inf
ROOT
ATOM      1  C   UNL A   1      31.611  31.163  26.044  1.00  0.00     0.023 C 
ENDROOT
BRANCH   1   2
ATOM      2  C   UNL A   1      31.630  32.028  27.293  1.00  0.00     0.023 C 
BRANCH   2   3
ATOM      3  C   UNL A   1      32.885  32.866  27.480  1.00  0.00     0.116 C 
BRANCH   3   4
ATOM      4  N   UNL A   1      32.619  34.274  27.745  1.00  0.00    -0.352 N 
ATOM      5  O   UNL A   1      32.813  36.237  28.850  1.00  0.00    -0.269 OA
ATOM      6  C   UNL A   1      33.211  35.089  28.687  1.00  0.00     0.251 C 
ATOM      7  H   UNL A   1      31.931  34.696  27.182  1.00  0.00     0.163 HD
BRANCH   6   8
ATOM      8  C   UNL A   1      34.297  34.536  29.523  1.00  0.00     0.039 A 
ATOM      9  C   UNL A   1      35.619  34.613  29.085  1.00  0.00     0.014 A 
ATOM     10  C   UNL A   1      33.981  33.854  30.702  1.00  0.00     0.014 A 
ATOM     11  C   UNL A   1      36.592  33.850  29.714  1.00  0.00     0.010 A 
ATOM     12  C   UNL A   1      34.988  33.177  31.397  1.00  0.00     0.010 A 
ATOM     13  C   UNL A   1      36.293  33.129  30.884  1.00  0.00    -0.014 A 
BRANCH  13  14
ATOM     14  C   UNL A   1      37.389  32.396  31.569  1.00  0.00     0.031 A 
ATOM     15  C   UNL A   1      38.122  31.261  30.906  1.00  0.00     0.074 A 
ATOM     16  C   UNL A   1      37.749  32.803  32.802  1.00  0.00     0.049 A 
ATOM     17  N   UNL A   1      39.142  30.573  31.354  1.00  0.00    -0.248 NA
ATOM     18  C   UNL A   1      37.655  30.833  29.578  1.00  0.00     0.031 C 
ATOM     19  C   UNL A   1      37.074  33.858  33.566  1.00  0.00     0.029 A 
ATOM     20  N   UNL A   1      38.767  32.400  33.625  1.00  0.00    -0.354 N 
ATOM     21  C   UNL A   1      39.418  29.614  30.386  1.00  0.00     0.074 A 
ATOM     22  C   UNL A   1      38.449  29.799  29.327  1.00  0.00     0.031 C 
ATOM     23  C   UNL A   1      37.722  34.047  34.723  1.00  0.00     0.029 A 
ATOM     24  C   UNL A   1      38.820  33.093  34.811  1.00  0.00     0.049 A 
ATOM     25  H   UNL A   1      39.400  31.683  33.390  1.00  0.00     0.167 HD
ATOM     26  C   UNL A   1      40.401  28.681  30.372  1.00  0.00     0.034 A 
ATOM     27  C   UNL A   1      39.651  32.972  35.863  1.00  0.00     0.034 A 
ATOM     28  C   UNL A   1      41.384  28.525  31.414  1.00  0.00     0.049 A 
ATOM     29  C   UNL A   1      40.759  31.964  35.794  1.00  0.00     0.074 A 
ATOM     30  C   UNL A   1      42.438  27.629  31.476  1.00  0.00     0.029 A 
ATOM     31  N   UNL A   1      41.440  29.285  32.573  1.00  0.00    -0.354 N 
ATOM     32  N   UNL A   1      41.067  31.144  34.819  1.00  0.00    -0.248 NA
ATOM     33  C   UNL A   1      41.654  31.883  36.956  1.00  0.00     0.031 C 
ATOM     34  C   UNL A   1      43.127  27.845  32.675  1.00  0.00     0.029 A 
ATOM     35  C   UNL A   1      42.511  28.882  33.353  1.00  0.00     0.049 A 
ATOM     36  H   UNL A   1      40.810  30.005  32.806  1.00  0.00     0.167 HD
ATOM     37  C   UNL A   1      42.196  30.456  35.244  1.00  0.00     0.074 A 
ATOM     38  C   UNL A   1      42.543  30.989  36.547  1.00  0.00     0.031 C 
ATOM     39  C   UNL A   1      42.868  29.454  34.627  1.00  0.00     0.034 A 
BRANCH  26  40
ATOM     40  C   UNL A   1      40.507  27.783  29.165  1.00  0.00     0.023 A 
ATOM     41  C   UNL A   1      39.617  26.696  29.037  1.00  0.00     0.012 A 
ATOM     42  C   UNL A   1      41.414  28.058  28.122  1.00  0.00     0.148 A 
ATOM     43  C   UNL A   1      39.645  25.884  27.903  1.00  0.00     0.002 A 
ATOM     44  C   UNL A   1      41.410  27.265  26.979  1.00  0.00     0.091 A 
ATOM     45  F   UNL A   1      42.264  29.083  28.269  1.00  0.00    -0.205 F 
ATOM     46  C   UNL A   1      40.532  26.175  26.871  1.00  0.00     0.022 A 
BRANCH  44  47
ATOM     47  S   UNL A   1      42.465  27.599  25.562  1.00  0.00     0.127 S 
ATOM     48  O   UNL A   1      43.789  27.633  26.182  1.00  0.00    -0.237 OA
ATOM     49  O   UNL A   1      42.222  26.433  24.713  1.00  0.00    -0.237 OA
ATOM     50  O   UNL A   1      42.002  28.862  25.006  1.00  0.00    -0.744 OA
ENDBRANCH  44  47
ENDBRANCH  26  40
BRANCH  27  51
ATOM     51  C   UNL A   1      39.481  33.868  37.040  1.00  0.00     0.023 A 
ATOM     52  C   UNL A   1      39.842  35.225  36.942  1.00  0.00     0.012 A 
ATOM     53  C   UNL A   1      38.906  33.395  38.235  1.00  0.00     0.148 A 
ATOM     54  C   UNL A   1      39.653  36.089  38.022  1.00  0.00     0.002 A 
ATOM     55  C   UNL A   1      38.660  34.274  39.282  1.00  0.00     0.091 A 
ATOM     56  F   UNL A   1      38.587  32.095  38.319  1.00  0.00    -0.205 F 
ATOM     57  C   UNL A   1      39.048  35.618  39.185  1.00  0.00     0.022 A 
BRANCH  55  58
ATOM     58  S   UNL A   1      37.735  33.765  40.736  1.00  0.00     0.127 S 
ATOM     59  O   UNL A   1      38.664  32.838  41.374  1.00  0.00    -0.237 OA
ATOM     60  O   UNL A   1      37.544  35.033  41.443  1.00  0.00    -0.237 OA
ATOM     61  O   UNL A   1      36.503  33.188  40.216  1.00  0.00    -0.744 OA
ENDBRANCH  55  58
ENDBRANCH  27  51
BRANCH  39  62
ATOM     62  C   UNL A   1      44.050  28.875  35.354  1.00  0.00     0.023 A 
ATOM     63  C   UNL A   1      45.338  29.393  35.106  1.00  0.00     0.012 A 
ATOM     64  C   UNL A   1      43.886  27.852  36.308  1.00  0.00     0.148 A 
ATOM     65  C   UNL A   1      46.449  28.877  35.771  1.00  0.00     0.002 A 
ATOM     66  C   UNL A   1      44.994  27.372  36.997  1.00  0.00     0.091 A 
ATOM     67  F   UNL A   1      42.657  27.356  36.513  1.00  0.00    -0.205 F 
ATOM     68  C   UNL A   1      46.277  27.874  36.721  1.00  0.00     0.022 A 
BRANCH  66  69
ATOM     69  S   UNL A   1      44.848  26.140  38.296  1.00  0.00     0.127 S 
ATOM     70  O   UNL A   1      44.352  24.983  37.555  1.00  0.00    -0.237 OA
ATOM     71  O   UNL A   1      46.228  26.016  38.769  1.00  0.00    -0.237 OA
ATOM     72  O   UNL A   1      43.928  26.705  39.274  1.00  0.00    -0.744 OA
ENDBRANCH  66  69
ENDBRANCH  39  62
ENDBRANCH  13  14
ENDBRANCH   6   8
ENDBRANCH   3   4
ENDBRANCH   2   3
ENDBRANCH   1   2
BRANCH   1  73
ATOM     73  C   UNL A   1      32.599  30.005  26.046  1.00  0.00     0.116 C 
BRANCH  73  74
ATOM     74  N   UNL A   1      33.139  29.682  24.732  1.00  0.00    -0.352 N 
ATOM     75  C   UNL A   1      32.665  28.866  23.726  1.00  0.00     0.251 C 
ATOM     76  H   UNL A   1      33.993  30.126  24.525  1.00  0.00     0.163 HD
ATOM     77  O   UNL A   1      33.332  28.677  22.722  1.00  0.00    -0.269 OA
BRANCH  75  78
ATOM     78  C   UNL A   1      31.361  28.180  23.877  1.00  0.00     0.041 A 
ATOM     79  C   UNL A   1      30.241  28.687  23.213  1.00  0.00     0.014 A 
ATOM     80  C   UNL A   1      31.258  27.007  24.615  1.00  0.00     0.040 A 
ATOM     81  C   UNL A   1      29.041  27.971  23.237  1.00  0.00     0.003 A 
ATOM     82  C   UNL A   1      30.106  26.234  24.526  1.00  0.00     0.041 A 
ATOM     83  C   UNL A   1      28.977  26.732  23.879  1.00  0.00     0.026 A 
BRANCH  82  84
ATOM     84  N   UNL A   1      30.223  24.885  24.879  1.00  0.00    -0.331 N 
ATOM     85  H   UNL A   1      29.376  24.387  24.943  1.00  0.00     0.169 HD
BRANCH  84  86
ATOM     86  C   UNL A   1      31.344  24.170  25.146  1.00  0.00     0.191 C 
ATOM     87  S   UNL A   1      31.704  23.787  26.737  1.00  0.00    -0.039 S 
BRANCH  86  88
ATOM     88  N   UNL A   1      32.081  23.637  24.125  1.00  0.00    -0.254 N 
ATOM     89  H   UNL A   1      32.927  24.086  23.902  1.00  0.00     0.193 HD
BRANCH  88  90
ATOM     90  N   UNL A   1      31.745  22.525  23.374  1.00  0.00    -0.181 NA
ATOM     91  C   UNL A   1      32.475  21.443  23.483  1.00  0.00     0.143 C 
BRANCH  91  92
ATOM     92  C   UNL A   1      33.584  21.322  24.404  1.00  0.00     0.020 A 
ATOM     93  C   UNL A   1      33.563  20.572  25.564  1.00  0.00     0.093 A 
ATOM     94  C   UNL A   1      34.837  21.993  24.408  1.00  0.00     0.008 A 
ATOM     95  N   UNL A   1      34.389  21.218  26.442  1.00  0.00    -0.361 N 
ATOM     96  C   UNL A   1      35.162  22.125  25.759  1.00  0.00     0.046 A 
ATOM     97  C   UNL A   1      35.659  22.625  23.457  1.00  0.00     0.011 A 
ATOM     98  H   UNL A   1      34.424  21.058  27.414  1.00  0.00     0.166 HD
ATOM     99  C   UNL A   1      36.101  23.043  26.225  1.00  0.00     0.027 A 
ATOM    100  C   UNL A   1      36.722  23.418  23.907  1.00  0.00     0.001 A 
ATOM    101  C   UNL A   1      36.889  23.681  25.266  1.00  0.00     0.002 A 
ENDBRANCH  91  92
ENDBRANCH  88  90
ENDBRANCH  86  88
ENDBRANCH  84  86
ENDBRANCH  82  84
ENDBRANCH  75  78
ENDBRANCH  73  74
ENDBRANCH   1  73
TORSDOF 19
ENDMDL
MODEL 2
REMARK VINA RESULT:     -12.0      5.595     11.858
REMARK SMILES O=C(NCCCCNC(=O)c1cccc(NC(=S)N/N=C\c2c[nH]c3ccccc23)c1)c1ccc(-c2c3nc(c(-c4cccc(S(=O)(=O)[O-])c4F)c4ccc([nH]4)c(-c4cccc(S(=O)(=O)[O-])c4F)c4nc(c(-c5cccc(S(=O)(=O)[O-])c5F)c5ccc2[nH]5)C=C4)C=C3)cc1
REMARK SMILES IDX 6 1 5 2 4 3 3 4 1 5 2 6 32 8 33 9 94 10 34 11 93 12 35 13
REMARK SMILES IDX 36 14 37 15 87 16 38 17 92 18 86 19 88 20 39 21 91 22 85 23
REMARK SMILES IDX 84 24 40 26 72 27 52 28 71 29 53 30 56 31 70 32 89 33 54 34
REMARK SMILES IDX 55 35 69 37 90 38 57 39 41 40 42 41 50 42 43 43 45 44 51 45
REMARK SMILES IDX 44 46 46 47 47 48 48 49 49 50 73 51 74 52 82 53 75 54 77 55
REMARK SMILES IDX 83 56 76 57 78 58 79 59 80 60 81 61 58 62 59 63 67 64 60 65
REMARK SMILES IDX 62 66 68 67 61 68 63 69 64 70 65 71 66 72 7 73 8 74 9 75
REMARK SMILES IDX 10 77 11 78 12 79 31 80 13 81 15 82 14 83 16 84 17 86 18 87
REMARK SMILES IDX 19 88 20 90 21 91 22 92 23 93 30 94 24 95 25 96 29 97 26 99
REMARK SMILES IDX 28 100 27 101
REMARK H PARENT 3 7 88 25 56 36 8 76 16 85 19 89 24 98
REMARK Flexibility Score: inf
ROOT
ATOM      1  C   UNL A   1      37.039  19.951  24.937  1.00  0.00     0.023 C 
ENDROOT
BRANCH   1   2
ATOM      2  C   UNL A   1      38.352  19.192  25.042  1.00  0.00     0.023 C 
BRANCH   2   3
ATOM      3  C   UNL A   1      39.410  19.849  25.914  1.00  0.00     0.116 C 
BRANCH   3   4
ATOM      4  N   UNL A   1      40.620  19.053  26.073  1.00  0.00    -0.352 N 
ATOM      5  O   UNL A   1      42.834  18.700  26.368  1.00  0.00    -0.269 OA
ATOM      6  C   UNL A   1      41.897  19.491  26.354  1.00  0.00     0.251 C 
ATOM      7  H   UNL A   1      40.513  18.080  25.966  1.00  0.00     0.163 HD
BRANCH   6   8
ATOM      8  C   UNL A   1      42.117  20.933  26.589  1.00  0.00     0.039 A 
ATOM      9  C   UNL A   1      42.248  21.802  25.505  1.00  0.00     0.014 A 
ATOM     10  C   UNL A   1      42.288  21.401  27.895  1.00  0.00     0.014 A 
ATOM     11  C   UNL A   1      42.737  23.083  25.713  1.00  0.00     0.010 A 
ATOM     12  C   UNL A   1      42.675  22.728  28.107  1.00  0.00     0.010 A 
ATOM     13  C   UNL A   1      42.949  23.568  27.017  1.00  0.00    -0.014 A 
BRANCH  13  14
ATOM     14  C   UNL A   1      43.393  24.975  27.190  1.00  0.00     0.031 A 
ATOM     15  C   UNL A   1      42.465  26.045  27.700  1.00  0.00     0.074 A 
ATOM     16  C   UNL A   1      44.679  25.271  26.917  1.00  0.00     0.049 A 
ATOM     17  N   UNL A   1      42.730  27.300  27.965  1.00  0.00    -0.248 NA
ATOM     18  C   UNL A   1      41.062  25.671  27.938  1.00  0.00     0.031 C 
ATOM     19  C   UNL A   1      45.657  24.328  26.366  1.00  0.00     0.029 A 
ATOM     20  N   UNL A   1      45.392  26.431  27.074  1.00  0.00    -0.354 N 
ATOM     21  C   UNL A   1      41.528  27.873  28.366  1.00  0.00     0.074 A 
ATOM     22  C   UNL A   1      40.526  26.830  28.300  1.00  0.00     0.031 C 
ATOM     23  C   UNL A   1      46.849  24.931  26.272  1.00  0.00     0.029 A 
ATOM     24  C   UNL A   1      46.710  26.318  26.700  1.00  0.00     0.049 A 
ATOM     25  H   UNL A   1      44.998  27.264  27.420  1.00  0.00     0.167 HD
ATOM     26  C   UNL A   1      41.288  29.143  28.773  1.00  0.00     0.034 A 
ATOM     27  C   UNL A   1      47.701  27.229  26.691  1.00  0.00     0.034 A 
ATOM     28  C   UNL A   1      42.298  30.167  28.870  1.00  0.00     0.049 A 
ATOM     29  C   UNL A   1      47.415  28.612  27.195  1.00  0.00     0.074 A 
ATOM     30  C   UNL A   1      42.159  31.475  29.301  1.00  0.00     0.029 A 
ATOM     31  N   UNL A   1      43.634  29.997  28.538  1.00  0.00    -0.354 N 
ATOM     32  N   UNL A   1      46.296  29.098  27.674  1.00  0.00    -0.248 NA
ATOM     33  C   UNL A   1      48.533  29.564  27.186  1.00  0.00     0.031 C 
ATOM     34  C   UNL A   1      43.410  32.098  29.224  1.00  0.00     0.029 A 
ATOM     35  C   UNL A   1      44.331  31.174  28.758  1.00  0.00     0.049 A 
ATOM     36  H   UNL A   1      44.029  29.163  28.196  1.00  0.00     0.167 HD
ATOM     37  C   UNL A   1      46.576  30.410  28.033  1.00  0.00     0.074 A 
ATOM     38  C   UNL A   1      47.982  30.627  27.757  1.00  0.00     0.031 C 
ATOM     39  C   UNL A   1      45.739  31.358  28.520  1.00  0.00     0.034 A 
BRANCH  26  40
ATOM     40  C   UNL A   1      39.886  29.495  29.203  1.00  0.00     0.023 A 
ATOM     41  C   UNL A   1      38.913  29.765  28.218  1.00  0.00     0.012 A 
ATOM     42  C   UNL A   1      39.507  29.474  30.560  1.00  0.00     0.148 A 
ATOM     43  C   UNL A   1      37.592  30.031  28.578  1.00  0.00     0.002 A 
ATOM     44  C   UNL A   1      38.180  29.704  30.907  1.00  0.00     0.091 A 
ATOM     45  F   UNL A   1      40.448  29.233  31.483  1.00  0.00    -0.205 F 
ATOM     46  C   UNL A   1      37.223  29.990  29.919  1.00  0.00     0.022 A 
BRANCH  44  47
ATOM     47  S   UNL A   1      37.588  29.603  32.602  1.00  0.00     0.127 S 
ATOM     48  O   UNL A   1      38.601  30.380  33.315  1.00  0.00    -0.237 OA
ATOM     49  O   UNL A   1      36.279  30.249  32.513  1.00  0.00    -0.237 OA
ATOM     50  O   UNL A   1      37.544  28.184  32.928  1.00  0.00    -0.744 OA
ENDBRANCH  44  47
ENDBRANCH  26  40
BRANCH  27  51
ATOM     51  C   UNL A   1      49.060  26.830  26.230  1.00  0.00     0.023 A 
ATOM     52  C   UNL A   1      49.833  25.951  27.011  1.00  0.00     0.012 A 
ATOM     53  C   UNL A   1      49.562  27.270  24.990  1.00  0.00     0.148 A 
ATOM     54  C   UNL A   1      51.092  25.536  26.576  1.00  0.00     0.002 A 
ATOM     55  C   UNL A   1      50.787  26.801  24.532  1.00  0.00     0.091 A 
ATOM     56  F   UNL A   1      48.823  28.124  24.267  1.00  0.00    -0.205 F 
ATOM     57  C   UNL A   1      51.562  25.948  25.330  1.00  0.00     0.022 A 
BRANCH  55  58
ATOM     58  S   UNL A   1      51.368  27.161  22.870  1.00  0.00     0.127 S 
ATOM     59  O   UNL A   1      52.553  26.315  22.775  1.00  0.00    -0.237 OA
ATOM     60  O   UNL A   1      50.236  26.732  22.045  1.00  0.00    -0.237 OA
ATOM     61  O   UNL A   1      51.598  28.599  22.854  1.00  0.00    -0.744 OA
ENDBRANCH  55  58
ENDBRANCH  27  51
BRANCH  39  62
ATOM     62  C   UNL A   1      46.329  32.716  28.789  1.00  0.00     0.023 A 
ATOM     63  C   UNL A   1      46.890  32.989  30.053  1.00  0.00     0.012 A 
ATOM     64  C   UNL A   1      46.366  33.704  27.785  1.00  0.00     0.148 A 
ATOM     65  C   UNL A   1      47.447  34.238  30.326  1.00  0.00     0.002 A 
ATOM     66  C   UNL A   1      46.961  34.932  28.053  1.00  0.00     0.091 A 
ATOM     67  F   UNL A   1      45.806  33.433  26.597  1.00  0.00    -0.205 F 
ATOM     68  C   UNL A   1      47.490  35.204  29.325  1.00  0.00     0.022 A 
BRANCH  66  69
ATOM     69  S   UNL A   1      47.133  36.201  26.794  1.00  0.00     0.127 S 
ATOM     70  O   UNL A   1      45.739  36.549  26.529  1.00  0.00    -0.237 OA
ATOM     71  O   UNL A   1      47.898  37.236  27.493  1.00  0.00    -0.237 OA
ATOM     72  O   UNL A   1      47.846  35.570  25.692  1.00  0.00    -0.744 OA
ENDBRANCH  66  69
ENDBRANCH  39  62
ENDBRANCH  13  14
ENDBRANCH   6   8
ENDBRANCH   3   4
ENDBRANCH   2   3
ENDBRANCH   1   2
BRANCH   1  73
ATOM     73  C   UNL A   1      37.156  21.463  25.072  1.00  0.00     0.116 C 
BRANCH  73  74
ATOM     74  N   UNL A   1      36.317  22.033  26.118  1.00  0.00    -0.352 N 
ATOM     75  C   UNL A   1      34.952  22.221  26.191  1.00  0.00     0.251 C 
ATOM     76  H   UNL A   1      36.811  22.335  26.914  1.00  0.00     0.163 HD
ATOM     77  O   UNL A   1      34.462  22.800  27.146  1.00  0.00    -0.269 OA
BRANCH  75  78
ATOM     78  C   UNL A   1      34.078  21.760  25.088  1.00  0.00     0.041 A 
ATOM     79  C   UNL A   1      33.474  20.503  25.176  1.00  0.00     0.014 A 
ATOM     80  C   UNL A   1      33.802  22.588  24.006  1.00  0.00     0.040 A 
ATOM     81  C   UNL A   1      32.541  20.117  24.210  1.00  0.00     0.003 A 
ATOM     82  C   UNL A   1      32.779  22.256  23.126  1.00  0.00     0.041 A 
ATOM     83  C   UNL A   1      32.178  21.002  23.192  1.00  0.00     0.026 A 
BRANCH  82  84
ATOM     84  N   UNL A   1      32.233  23.302  22.372  1.00  0.00    -0.331 N 
ATOM     85  H   UNL A   1      31.899  23.053  21.480  1.00  0.00     0.169 HD
BRANCH  84  86
ATOM     86  C   UNL A   1      32.101  24.610  22.703  1.00  0.00     0.191 C 
ATOM     87  S   UNL A   1      33.204  25.716  22.096  1.00  0.00    -0.039 S 
BRANCH  86  88
ATOM     88  N   UNL A   1      30.999  25.040  23.388  1.00  0.00    -0.254 N 
ATOM     89  H   UNL A   1      30.193  25.238  22.860  1.00  0.00     0.193 HD
BRANCH  88  90
ATOM     90  N   UNL A   1      30.913  25.224  24.756  1.00  0.00    -0.181 NA
ATOM     91  C   UNL A   1      30.896  26.445  25.231  1.00  0.00     0.143 C 
BRANCH  91  92
ATOM     92  C   UNL A   1      30.894  27.625  24.392  1.00  0.00     0.020 A 
ATOM     93  C   UNL A   1      31.982  28.454  24.199  1.00  0.00     0.093 A 
ATOM     94  C   UNL A   1      29.816  28.247  23.706  1.00  0.00     0.008 A 
ATOM     95  N   UNL A   1      31.469  29.705  23.997  1.00  0.00    -0.361 N 
ATOM     96  C   UNL A   1      30.126  29.608  23.724  1.00  0.00     0.046 A 
ATOM     97  C   UNL A   1      28.563  27.852  23.204  1.00  0.00     0.011 A 
ATOM     98  H   UNL A   1      31.982  30.545  24.040  1.00  0.00     0.166 HD
ATOM     99  C   UNL A   1      29.176  30.603  23.504  1.00  0.00     0.027 A 
ATOM    100  C   UNL A   1      27.652  28.842  22.812  1.00  0.00     0.001 A 
ATOM    101  C   UNL A   1      27.928  30.191  23.033  1.00  0.00     0.002 A 
ENDBRANCH  91  92
ENDBRANCH  88  90
ENDBRANCH  86  88
ENDBRANCH  84  86
ENDBRANCH  82  84
ENDBRANCH  75  78
ENDBRANCH  73  74
ENDBRANCH   1  73
TORSDOF 19
ENDMDL
MODEL 3
REMARK VINA RESULT:     -11.9      5.896     11.420
REMARK SMILES O=C(NCCCCNC(=O)c1cccc(NC(=S)N/N=C\c2c[nH]c3ccccc23)c1)c1ccc(-c2c3nc(c(-c4cccc(S(=O)(=O)[O-])c4F)c4ccc([nH]4)c(-c4cccc(S(=O)(=O)[O-])c4F)c4nc(c(-c5cccc(S(=O)(=O)[O-])c5F)c5ccc2[nH]5)C=C4)C=C3)cc1
REMARK SMILES IDX 6 1 5 2 4 3 3 4 1 5 2 6 32 8 33 9 94 10 34 11 93 12 35 13
REMARK SMILES IDX 36 14 37 15 87 16 38 17 92 18 86 19 88 20 39 21 91 22 85 23
REMARK SMILES IDX 84 24 40 26 72 27 52 28 71 29 53 30 56 31 70 32 89 33 54 34
REMARK SMILES IDX 55 35 69 37 90 38 57 39 41 40 42 41 50 42 43 43 45 44 51 45
REMARK SMILES IDX 44 46 46 47 47 48 48 49 49 50 73 51 74 52 82 53 75 54 77 55
REMARK SMILES IDX 83 56 76 57 78 58 79 59 80 60 81 61 58 62 59 63 67 64 60 65
REMARK SMILES IDX 62 66 68 67 61 68 63 69 64 70 65 71 66 72 7 73 8 74 9 75
REMARK SMILES IDX 10 77 11 78 12 79 31 80 13 81 15 82 14 83 16 84 17 86 18 87
REMARK SMILES IDX 19 88 20 90 21 91 22 92 23 93 30 94 24 95 25 96 29 97 26 99
REMARK SMILES IDX 28 100 27 101
REMARK H PARENT 3 7 88 25 56 36 8 76 16 85 19 89 24 98
REMARK Flexibility Score: inf
ROOT
ATOM      1  C   UNL A   1      36.323  20.059  24.917  1.00  0.00     0.023 C 
ENDROOT
BRANCH   1   2
ATOM      2  C   UNL A   1      37.663  19.342  24.898  1.00  0.00     0.023 C 
BRANCH   2   3
ATOM      3  C   UNL A   1      38.819  20.116  25.512  1.00  0.00     0.116 C 
BRANCH   3   4
ATOM      4  N   UNL A   1      39.948  19.281  25.899  1.00  0.00    -0.352 N 
ATOM      5  O   UNL A   1      42.039  18.854  26.648  1.00  0.00    -0.269 OA
ATOM      6  C   UNL A   1      41.145  19.673  26.460  1.00  0.00     0.251 C 
ATOM      7  H   UNL A   1      39.844  18.315  25.739  1.00  0.00     0.163 HD
BRANCH   6   8
ATOM      8  C   UNL A   1      41.342  21.101  26.785  1.00  0.00     0.039 A 
ATOM      9  C   UNL A   1      41.136  22.071  25.804  1.00  0.00     0.014 A 
ATOM     10  C   UNL A   1      41.828  21.461  28.045  1.00  0.00     0.014 A 
ATOM     11  C   UNL A   1      41.594  23.364  26.016  1.00  0.00     0.010 A 
ATOM     12  C   UNL A   1      42.186  22.790  28.291  1.00  0.00     0.010 A 
ATOM     13  C   UNL A   1      42.117  23.744  27.265  1.00  0.00    -0.014 A 
BRANCH  13  14
ATOM     14  C   UNL A   1      42.516  25.161  27.468  1.00  0.00     0.031 A 
ATOM     15  C   UNL A   1      41.615  26.150  28.159  1.00  0.00     0.074 A 
ATOM     16  C   UNL A   1      43.740  25.540  27.052  1.00  0.00     0.049 A 
ATOM     17  N   UNL A   1      41.855  27.399  28.467  1.00  0.00    -0.248 NA
ATOM     18  C   UNL A   1      40.274  25.688  28.552  1.00  0.00     0.031 C 
ATOM     19  C   UNL A   1      44.679  24.683  26.321  1.00  0.00     0.029 A 
ATOM     20  N   UNL A   1      44.413  26.725  27.188  1.00  0.00    -0.354 N 
ATOM     21  C   UNL A   1      40.692  27.884  29.054  1.00  0.00     0.074 A 
ATOM     22  C   UNL A   1      39.737  26.795  29.051  1.00  0.00     0.031 C 
ATOM     23  C   UNL A   1      45.819  25.353  26.114  1.00  0.00     0.029 A 
ATOM     24  C   UNL A   1      45.675  26.704  26.642  1.00  0.00     0.049 A 
ATOM     25  H   UNL A   1      44.031  27.516  27.634  1.00  0.00     0.167 HD
ATOM     26  C   UNL A   1      40.450  29.115  29.568  1.00  0.00     0.034 A 
ATOM     27  C   UNL A   1      46.614  27.665  26.564  1.00  0.00     0.034 A 
ATOM     28  C   UNL A   1      41.416  30.183  29.599  1.00  0.00     0.049 A 
ATOM     29  C   UNL A   1      46.334  29.001  27.186  1.00  0.00     0.074 A 
ATOM     30  C   UNL A   1      41.276  31.456  30.126  1.00  0.00     0.029 A 
ATOM     31  N   UNL A   1      42.703  30.104  29.088  1.00  0.00    -0.354 N 
ATOM     32  N   UNL A   1      45.266  29.398  27.835  1.00  0.00    -0.248 NA
ATOM     33  C   UNL A   1      47.396  30.010  27.094  1.00  0.00     0.031 C 
ATOM     34  C   UNL A   1      42.477  32.147  29.929  1.00  0.00     0.029 A 
ATOM     35  C   UNL A   1      43.369  31.302  29.291  1.00  0.00     0.049 A 
ATOM     36  H   UNL A   1      43.087  29.313  28.647  1.00  0.00     0.167 HD
ATOM     37  C   UNL A   1      45.531  30.700  28.237  1.00  0.00     0.074 A 
ATOM     38  C   UNL A   1      46.878  31.008  27.797  1.00  0.00     0.031 C 
ATOM     39  C   UNL A   1      44.724  31.574  28.886  1.00  0.00     0.034 A 
BRANCH  26  40
ATOM     40  C   UNL A   1      39.102  29.366  30.196  1.00  0.00     0.023 A 
ATOM     41  C   UNL A   1      38.785  28.739  31.418  1.00  0.00     0.012 A 
ATOM     42  C   UNL A   1      38.188  30.279  29.632  1.00  0.00     0.148 A 
ATOM     43  C   UNL A   1      37.573  28.999  32.059  1.00  0.00     0.002 A 
ATOM     44  C   UNL A   1      36.998  30.560  30.295  1.00  0.00     0.091 A 
ATOM     45  F   UNL A   1      38.498  30.851  28.460  1.00  0.00    -0.205 F 
ATOM     46  C   UNL A   1      36.686  29.916  31.503  1.00  0.00     0.022 A 
BRANCH  44  47
ATOM     47  S   UNL A   1      35.819  31.780  29.699  1.00  0.00     0.127 S 
ATOM     48  O   UNL A   1      36.701  32.884  29.325  1.00  0.00    -0.237 OA
ATOM     49  O   UNL A   1      35.200  31.086  28.569  1.00  0.00    -0.237 OA
ATOM     50  O   UNL A   1      34.920  32.046  30.813  1.00  0.00    -0.744 OA
ENDBRANCH  44  47
ENDBRANCH  26  40
BRANCH  27  51
ATOM     51  C   UNL A   1      47.917  27.367  25.907  1.00  0.00     0.023 A 
ATOM     52  C   UNL A   1      48.971  26.820  26.664  1.00  0.00     0.012 A 
ATOM     53  C   UNL A   1      48.095  27.564  24.524  1.00  0.00     0.148 A 
ATOM     54  C   UNL A   1      50.185  26.497  26.057  1.00  0.00     0.002 A 
ATOM     55  C   UNL A   1      49.283  27.179  23.916  1.00  0.00     0.091 A 
ATOM     56  F   UNL A   1      47.089  28.105  23.822  1.00  0.00    -0.205 F 
ATOM     57  C   UNL A   1      50.336  26.662  24.682  1.00  0.00     0.022 A 
BRANCH  55  58
ATOM     58  S   UNL A   1      49.474  27.211  22.130  1.00  0.00     0.127 S 
ATOM     59  O   UNL A   1      48.408  26.312  21.697  1.00  0.00    -0.237 OA
ATOM     60  O   UNL A   1      49.254  28.625  21.817  1.00  0.00    -0.237 OA
ATOM     61  O   UNL A   1      50.837  26.758  21.888  1.00  0.00    -0.744 OA
ENDBRANCH  55  58
ENDBRANCH  27  51
BRANCH  39  62
ATOM     62  C   UNL A   1      45.282  32.944  29.162  1.00  0.00     0.023 A 
ATOM     63  C   UNL A   1      46.085  33.147  30.303  1.00  0.00     0.012 A 
ATOM     64  C   UNL A   1      45.048  34.015  28.278  1.00  0.00     0.148 A 
ATOM     65  C   UNL A   1      46.617  34.406  30.579  1.00  0.00     0.002 A 
ATOM     66  C   UNL A   1      45.618  35.256  28.539  1.00  0.00     0.091 A 
ATOM     67  F   UNL A   1      44.263  33.808  27.212  1.00  0.00    -0.205 F 
ATOM     68  C   UNL A   1      46.392  35.456  29.694  1.00  0.00     0.022 A 
BRANCH  66  69
ATOM     69  S   UNL A   1      45.446  36.640  27.407  1.00  0.00     0.127 S 
ATOM     70  O   UNL A   1      46.138  36.142  26.220  1.00  0.00    -0.237 OA
ATOM     71  O   UNL A   1      43.993  36.752  27.265  1.00  0.00    -0.237 OA
ATOM     72  O   UNL A   1      46.071  37.775  28.072  1.00  0.00    -0.744 OA
ENDBRANCH  66  69
ENDBRANCH  39  62
ENDBRANCH  13  14
ENDBRANCH   6   8
ENDBRANCH   3   4
ENDBRANCH   2   3
ENDBRANCH   1   2
BRANCH   1  73
ATOM     73  C   UNL A   1      36.322  21.405  25.629  1.00  0.00     0.116 C 
BRANCH  73  74
ATOM     74  N   UNL A   1      35.203  21.593  26.543  1.00  0.00    -0.352 N 
ATOM     75  C   UNL A   1      33.859  21.803  26.308  1.00  0.00     0.251 C 
ATOM     76  H   UNL A   1      35.448  21.563  27.495  1.00  0.00     0.163 HD
ATOM     77  O   UNL A   1      33.100  22.016  27.238  1.00  0.00    -0.269 OA
BRANCH  75  78
ATOM     78  C   UNL A   1      33.339  21.814  24.922  1.00  0.00     0.041 A 
ATOM     79  C   UNL A   1      32.827  20.634  24.375  1.00  0.00     0.014 A 
ATOM     80  C   UNL A   1      33.294  22.994  24.189  1.00  0.00     0.040 A 
ATOM     81  C   UNL A   1      32.210  20.665  23.122  1.00  0.00     0.003 A 
ATOM     82  C   UNL A   1      32.563  23.047  23.008  1.00  0.00     0.041 A 
ATOM     83  C   UNL A   1      32.060  21.877  22.444  1.00  0.00     0.026 A 
BRANCH  82  84
ATOM     84  N   UNL A   1      32.157  24.314  22.574  1.00  0.00    -0.331 N 
ATOM     85  H   UNL A   1      31.252  24.587  22.848  1.00  0.00     0.169 HD
BRANCH  84  86
ATOM     86  C   UNL A   1      32.840  25.217  21.829  1.00  0.00     0.191 C 
ATOM     87  S   UNL A   1      32.552  25.294  20.180  1.00  0.00    -0.039 S 
BRANCH  86  88
ATOM     88  N   UNL A   1      33.632  26.153  22.434  1.00  0.00    -0.254 N 
ATOM     89  H   UNL A   1      33.895  25.981  23.367  1.00  0.00     0.193 HD
BRANCH  88  90
ATOM     90  N   UNL A   1      34.096  27.321  21.858  1.00  0.00    -0.181 NA
ATOM     91  C   UNL A   1      33.569  28.463  22.225  1.00  0.00     0.143 C 
BRANCH  91  92
ATOM     92  C   UNL A   1      32.565  28.578  23.261  1.00  0.00     0.020 A 
ATOM     93  C   UNL A   1      31.239  28.893  23.037  1.00  0.00     0.093 A 
ATOM     94  C   UNL A   1      32.709  28.521  24.674  1.00  0.00     0.008 A 
ATOM     95  N   UNL A   1      30.823  29.573  24.148  1.00  0.00    -0.361 N 
ATOM     96  C   UNL A   1      31.730  29.388  25.162  1.00  0.00     0.046 A 
ATOM     97  C   UNL A   1      33.625  27.964  25.584  1.00  0.00     0.011 A 
ATOM     98  H   UNL A   1      30.001  30.111  24.211  1.00  0.00     0.166 HD
ATOM     99  C   UNL A   1      31.765  29.919  26.451  1.00  0.00     0.027 A 
ATOM    100  C   UNL A   1      33.564  28.357  26.927  1.00  0.00     0.001 A 
ATOM    101  C   UNL A   1      32.699  29.374  27.333  1.00  0.00     0.002 A 
ENDBRANCH  91  92
ENDBRANCH  88  90
ENDBRANCH  86  88
ENDBRANCH  84  86
ENDBRANCH  82  84
ENDBRANCH  75  78
ENDBRANCH  73  74
ENDBRANCH   1  73
TORSDOF 19
ENDMDL
