MODEL 1
REMARK VINA RESULT:     -13.2      0.000      0.000
REMARK SMILES C[C@]1(C(=O)NCCCCNC(=O)c2ccc(-c3c4nc(c(-c5cccc(S(=O)(=O)[O-])c5F)c5ccc([nH]5)c(-c5cccc(S(=O)(=O)[O-])c5F)c5nc(c(-c6cccc(S(=O)(=O)[O-])c6F)c6ccc3[nH]6)C=C5)C=C4)cc2)[NH2+]C2(C(=O)c3ccccc3C2=O)[C@@H]2C(=O)N(c3ccccc3)C(=O)[C@H]21
REMARK SMILES IDX 8 1 7 2 6 3 5 4 3 5 4 6 2 8 1 9 76 10 100 11 77 12 88 15
REMARK SMILES IDX 98 16 78 17 86 18 89 19 91 20 99 21 79 22 80 23 85 24 87 25
REMARK SMILES IDX 90 26 81 27 84 28 82 29 83 30 92 31 93 32 97 33 94 34 96 35
REMARK SMILES IDX 95 36 9 37 10 38 11 39 12 41 13 42 14 43 75 44 15 45 74 46
REMARK SMILES IDX 16 47 17 48 18 49 68 50 19 51 73 52 67 53 69 54 20 55 72 56
REMARK SMILES IDX 66 57 65 58 21 60 53 61 33 62 52 63 34 64 37 65 51 66 70 67
REMARK SMILES IDX 35 68 36 69 50 71 71 72 38 73 22 74 23 75 31 76 24 77 26 78
REMARK SMILES IDX 32 79 25 80 27 81 28 82 29 83 30 84 54 85 55 86 63 87 56 88
REMARK SMILES IDX 58 89 64 90 57 91 59 92 60 93 61 94 62 95 39 96 40 97 48 98
REMARK SMILES IDX 41 99 43 100 49 101 42 102 44 103 45 104 46 105 47 106
REMARK H PARENT 5 7 76 13 76 14 10 40 69 59 37 70
REMARK Flexibility Score: inf
ROOT
ATOM      1  C   UNL A   1      34.996  32.614  28.039  1.00  0.00     0.023 C 
ENDROOT
BRANCH   1   2
ATOM      2  C   UNL A   1      33.629  31.973  28.102  1.00  0.00     0.023 C 
BRANCH   2   3
ATOM      3  C   UNL A   1      33.448  30.706  27.281  1.00  0.00     0.116 C 
BRANCH   3   4
ATOM      4  N   UNL A   1      32.736  29.604  27.847  1.00  0.00    -0.351 N 
ATOM      5  C   UNL A   1      32.604  28.317  27.408  1.00  0.00     0.281 C 
ATOM      6  O   UNL A   1      31.930  27.605  28.168  1.00  0.00    -0.268 OA
ATOM      7  H   UNL A   1      32.263  29.804  28.687  1.00  0.00     0.163 HD
BRANCH   5   8
ATOM      8  C   UNL A   1      33.226  27.682  26.075  1.00  0.00     0.186 C 
ATOM      9  C   UNL A   1      34.587  28.404  25.884  1.00  0.00     0.091 C 
ATOM     10  N   UNL A   1      33.504  26.192  26.151  1.00  0.00    -0.314 N 
ATOM     11  C   UNL A   1      32.478  27.756  24.775  1.00  0.00     0.170 C 
ATOM     12  C   UNL A   1      32.565  25.447  25.205  1.00  0.00     0.236 C 
ATOM     13  H   UNL A   1      33.352  25.867  27.106  1.00  0.00     0.348 HD
ATOM     14  H   UNL A   1      34.471  26.013  25.879  1.00  0.00     0.348 HD
ATOM     15  C   UNL A   1      31.613  26.512  24.717  1.00  0.00     0.177 C 
ATOM     16  C   UNL A   1      31.519  28.810  24.363  1.00  0.00     0.244 C 
ATOM     17  C   UNL A   1      33.280  24.670  24.091  1.00  0.00     0.232 C 
ATOM     18  C   UNL A   1      31.964  24.283  26.028  1.00  0.00     0.232 C 
ATOM     19  C   UNL A   1      30.912  26.779  23.419  1.00  0.00     0.245 C 
ATOM     20  N   UNL A   1      30.713  28.167  23.422  1.00  0.00    -0.250 N 
ATOM     21  O   UNL A   1      31.520  29.961  24.742  1.00  0.00    -0.273 OA
ATOM     22  O   UNL A   1      34.049  25.131  23.267  1.00  0.00    -0.286 OA
ATOM     23  C   UNL A   1      32.911  23.242  24.195  1.00  0.00     0.036 A 
ATOM     24  C   UNL A   1      32.120  23.045  25.311  1.00  0.00     0.036 A 
ATOM     25  O   UNL A   1      31.529  24.252  27.164  1.00  0.00    -0.286 OA
ATOM     26  O   UNL A   1      30.490  25.921  22.666  1.00  0.00    -0.273 OA
ATOM     27  C   UNL A   1      33.268  22.157  23.418  1.00  0.00     0.013 A 
ATOM     28  C   UNL A   1      31.650  21.807  25.721  1.00  0.00     0.013 A 
ATOM     29  C   UNL A   1      32.801  20.885  23.802  1.00  0.00     0.001 A 
ATOM     30  C   UNL A   1      31.996  20.711  24.945  1.00  0.00     0.001 A 
BRANCH  20  31
ATOM     31  C   UNL A   1      29.692  28.861  22.747  1.00  0.00     0.052 A 
ATOM     32  C   UNL A   1      30.020  29.873  21.834  1.00  0.00     0.027 A 
ATOM     33  C   UNL A   1      28.355  28.674  23.115  1.00  0.00     0.027 A 
ATOM     34  C   UNL A   1      29.022  30.680  21.284  1.00  0.00     0.002 A 
ATOM     35  C   UNL A   1      27.366  29.522  22.605  1.00  0.00     0.002 A 
ATOM     36  C   UNL A   1      27.699  30.518  21.686  1.00  0.00     0.000 A 
ENDBRANCH  20  31
ENDBRANCH   5   8
ENDBRANCH   3   4
ENDBRANCH   2   3
ENDBRANCH   1   2
BRANCH   1  37
ATOM     37  C   UNL A   1      34.991  34.138  28.033  1.00  0.00     0.116 C 
BRANCH  37  38
ATOM     38  N   UNL A   1      33.779  34.769  28.565  1.00  0.00    -0.352 N 
ATOM     39  C   UNL A   1      33.392  34.967  29.879  1.00  0.00     0.251 C 
ATOM     40  H   UNL A   1      33.147  35.101  27.887  1.00  0.00     0.163 HD
ATOM     41  O   UNL A   1      32.322  35.506  30.141  1.00  0.00    -0.269 OA
BRANCH  39  42
ATOM     42  C   UNL A   1      34.263  34.455  30.959  1.00  0.00     0.039 A 
ATOM     43  C   UNL A   1      35.467  35.097  31.215  1.00  0.00     0.014 A 
ATOM     44  C   UNL A   1      33.973  33.230  31.563  1.00  0.00     0.014 A 
ATOM     45  C   UNL A   1      36.500  34.360  31.772  1.00  0.00     0.010 A 
ATOM     46  C   UNL A   1      34.971  32.570  32.291  1.00  0.00     0.010 A 
ATOM     47  C   UNL A   1      36.276  33.081  32.316  1.00  0.00    -0.014 A 
BRANCH  47  48
ATOM     48  C   UNL A   1      37.438  32.330  32.876  1.00  0.00     0.031 A 
ATOM     49  C   UNL A   1      38.159  31.263  32.085  1.00  0.00     0.074 A 
ATOM     50  C   UNL A   1      37.908  32.690  34.090  1.00  0.00     0.049 A 
ATOM     51  N   UNL A   1      39.225  30.580  32.422  1.00  0.00    -0.248 NA
ATOM     52  C   UNL A   1      37.626  30.902  30.760  1.00  0.00     0.031 C 
ATOM     53  C   UNL A   1      37.289  33.688  34.967  1.00  0.00     0.029 A 
ATOM     54  N   UNL A   1      39.028  32.300  34.779  1.00  0.00    -0.354 N 
ATOM     55  C   UNL A   1      39.450  29.675  31.389  1.00  0.00     0.074 A 
ATOM     56  C   UNL A   1      38.416  29.895  30.405  1.00  0.00     0.031 C 
ATOM     57  C   UNL A   1      38.083  33.904  36.022  1.00  0.00     0.029 A 
ATOM     58  C   UNL A   1      39.216  32.992  35.952  1.00  0.00     0.049 A 
ATOM     59  H   UNL A   1      39.638  31.594  34.464  1.00  0.00     0.167 HD
ATOM     60  C   UNL A   1      40.439  28.758  31.264  1.00  0.00     0.034 A 
ATOM     61  C   UNL A   1      40.181  32.904  36.887  1.00  0.00     0.034 A 
ATOM     62  C   UNL A   1      41.515  28.595  32.205  1.00  0.00     0.049 A 
ATOM     63  C   UNL A   1      41.280  31.904  36.709  1.00  0.00     0.074 A 
ATOM     64  C   UNL A   1      42.592  27.729  32.127  1.00  0.00     0.029 A 
ATOM     65  N   UNL A   1      41.657  29.311  33.381  1.00  0.00    -0.354 N 
ATOM     66  N   UNL A   1      41.499  31.104  35.695  1.00  0.00    -0.248 NA
ATOM     67  C   UNL A   1      42.264  31.789  37.794  1.00  0.00     0.031 C 
ATOM     68  C   UNL A   1      43.383  27.915  33.263  1.00  0.00     0.029 A 
ATOM     69  C   UNL A   1      42.804  28.905  34.040  1.00  0.00     0.049 A 
ATOM     70  H   UNL A   1      41.037  30.006  33.699  1.00  0.00     0.167 HD
ATOM     71  C   UNL A   1      42.647  30.395  36.014  1.00  0.00     0.074 A 
ATOM     72  C   UNL A   1      43.092  30.872  37.308  1.00  0.00     0.031 C 
ATOM     73  C   UNL A   1      43.262  29.422  35.303  1.00  0.00     0.034 A 
BRANCH  60  74
ATOM     74  C   UNL A   1      40.457  27.875  30.044  1.00  0.00     0.023 A 
ATOM     75  C   UNL A   1      39.536  26.814  29.945  1.00  0.00     0.012 A 
ATOM     76  C   UNL A   1      41.283  28.183  28.945  1.00  0.00     0.148 A 
ATOM     77  C   UNL A   1      39.441  26.068  28.771  1.00  0.00     0.002 A 
ATOM     78  C   UNL A   1      41.163  27.454  27.768  1.00  0.00     0.091 A 
ATOM     79  F   UNL A   1      42.154  29.196  29.066  1.00  0.00    -0.205 F 
ATOM     80  C   UNL A   1      40.245  26.394  27.681  1.00  0.00     0.022 A 
BRANCH  78  81
ATOM     81  S   UNL A   1      42.105  27.829  26.284  1.00  0.00     0.127 S 
ATOM     82  O   UNL A   1      43.473  27.574  26.733  1.00  0.00    -0.237 OA
ATOM     83  O   UNL A   1      41.583  26.849  25.333  1.00  0.00    -0.237 OA
ATOM     84  O   UNL A   1      41.811  29.217  25.958  1.00  0.00    -0.744 OA
ENDBRANCH  78  81
ENDBRANCH  60  74
BRANCH  61  85
ATOM     85  C   UNL A   1      40.138  33.823  38.057  1.00  0.00     0.023 A 
ATOM     86  C   UNL A   1      40.803  35.060  37.988  1.00  0.00     0.012 A 
ATOM     87  C   UNL A   1      39.345  33.524  39.182  1.00  0.00     0.148 A 
ATOM     88  C   UNL A   1      40.678  35.989  39.022  1.00  0.00     0.002 A 
ATOM     89  C   UNL A   1      39.185  34.472  40.184  1.00  0.00     0.091 A 
ATOM     90  F   UNL A   1      38.724  32.337  39.220  1.00  0.00    -0.205 F 
ATOM     91  C   UNL A   1      39.859  35.701  40.112  1.00  0.00     0.022 A 
BRANCH  89  92
ATOM     92  S   UNL A   1      38.047  34.243  41.555  1.00  0.00     0.127 S 
ATOM     93  O   UNL A   1      38.841  33.422  42.466  1.00  0.00    -0.237 OA
ATOM     94  O   UNL A   1      37.832  35.621  41.997  1.00  0.00    -0.237 OA
ATOM     95  O   UNL A   1      36.871  33.596  40.992  1.00  0.00    -0.744 OA
ENDBRANCH  89  92
ENDBRANCH  61  85
BRANCH  73  96
ATOM     96  C   UNL A   1      44.499  28.795  35.878  1.00  0.00     0.023 A 
ATOM     97  C   UNL A   1      45.754  29.353  35.577  1.00  0.00     0.012 A 
ATOM     98  C   UNL A   1      44.397  27.771  36.839  1.00  0.00     0.148 A 
ATOM     99  C   UNL A   1      46.898  28.904  36.234  1.00  0.00     0.002 A 
ATOM    100  C   UNL A   1      45.536  27.351  37.512  1.00  0.00     0.091 A 
ATOM    101  F   UNL A   1      43.185  27.260  37.100  1.00  0.00    -0.205 F 
ATOM    102  C   UNL A   1      46.788  27.914  37.210  1.00  0.00     0.022 A 
BRANCH 100 103
ATOM    103  S   UNL A   1      45.488  26.141  38.838  1.00  0.00     0.127 S 
ATOM    104  O   UNL A   1      46.879  26.140  39.291  1.00  0.00    -0.237 OA
ATOM    105  O   UNL A   1      44.541  26.748  39.773  1.00  0.00    -0.237 OA
ATOM    106  O   UNL A   1      45.039  24.894  38.233  1.00  0.00    -0.744 OA
ENDBRANCH 100 103
ENDBRANCH  73  96
ENDBRANCH  47  48
ENDBRANCH  39  42
ENDBRANCH  37  38
ENDBRANCH   1  37
TORSDOF 15
ENDMDL
MODEL 2
REMARK VINA RESULT:     -13.1      2.942      8.894
REMARK SMILES C[C@]1(C(=O)NCCCCNC(=O)c2ccc(-c3c4nc(c(-c5cccc(S(=O)(=O)[O-])c5F)c5ccc([nH]5)c(-c5cccc(S(=O)(=O)[O-])c5F)c5nc(c(-c6cccc(S(=O)(=O)[O-])c6F)c6ccc3[nH]6)C=C5)C=C4)cc2)[NH2+]C2(C(=O)c3ccccc3C2=O)[C@@H]2C(=O)N(c3ccccc3)C(=O)[C@H]21
REMARK SMILES IDX 8 1 7 2 6 3 5 4 3 5 4 6 2 8 1 9 76 10 100 11 77 12 88 15
REMARK SMILES IDX 98 16 78 17 86 18 89 19 91 20 99 21 79 22 80 23 85 24 87 25
REMARK SMILES IDX 90 26 81 27 84 28 82 29 83 30 92 31 93 32 97 33 94 34 96 35
REMARK SMILES IDX 95 36 9 37 10 38 11 39 12 41 13 42 14 43 75 44 15 45 74 46
REMARK SMILES IDX 16 47 17 48 18 49 68 50 19 51 73 52 67 53 69 54 20 55 72 56
REMARK SMILES IDX 66 57 65 58 21 60 53 61 33 62 52 63 34 64 37 65 51 66 70 67
REMARK SMILES IDX 35 68 36 69 50 71 71 72 38 73 22 74 23 75 31 76 24 77 26 78
REMARK SMILES IDX 32 79 25 80 27 81 28 82 29 83 30 84 54 85 55 86 63 87 56 88
REMARK SMILES IDX 58 89 64 90 57 91 59 92 60 93 61 94 62 95 39 96 40 97 48 98
REMARK SMILES IDX 41 99 43 100 49 101 42 102 44 103 45 104 46 105 47 106
REMARK H PARENT 5 7 76 13 76 14 10 40 69 59 37 70
REMARK Flexibility Score: inf
ROOT
ATOM      1  C   UNL A   1      40.617  21.769  27.388  1.00  0.00     0.023 C 
ENDROOT
BRANCH   1   2
ATOM      2  C   UNL A   1      40.075  21.463  26.011  1.00  0.00     0.023 C 
BRANCH   2   3
ATOM      3  C   UNL A   1      38.591  21.721  25.806  1.00  0.00     0.116 C 
BRANCH   3   4
ATOM      4  N   UNL A   1      38.152  22.338  24.594  1.00  0.00    -0.351 N 
ATOM      5  C   UNL A   1      36.995  23.007  24.311  1.00  0.00     0.281 C 
ATOM      6  O   UNL A   1      36.952  23.445  23.151  1.00  0.00    -0.268 OA
ATOM      7  H   UNL A   1      38.784  22.270  23.842  1.00  0.00     0.163 HD
BRANCH   5   8
ATOM      8  C   UNL A   1      35.764  23.270  25.301  1.00  0.00     0.186 C 
ATOM      9  C   UNL A   1      36.410  23.473  26.699  1.00  0.00     0.091 C 
ATOM     10  N   UNL A   1      34.950  24.512  24.988  1.00  0.00    -0.314 N 
ATOM     11  C   UNL A   1      34.668  22.253  25.442  1.00  0.00     0.170 C 
ATOM     12  C   UNL A   1      33.554  24.107  24.522  1.00  0.00     0.236 C 
ATOM     13  H   UNL A   1      35.413  25.043  24.251  1.00  0.00     0.348 HD
ATOM     14  H   UNL A   1      34.874  25.088  25.827  1.00  0.00     0.348 HD
ATOM     15  C   UNL A   1      33.632  22.604  24.394  1.00  0.00     0.177 C 
ATOM     16  C   UNL A   1      34.793  20.785  25.265  1.00  0.00     0.244 C 
ATOM     17  C   UNL A   1      32.418  24.613  25.421  1.00  0.00     0.232 C 
ATOM     18  C   UNL A   1      33.282  24.914  23.231  1.00  0.00     0.232 C 
ATOM     19  C   UNL A   1      32.670  21.479  24.634  1.00  0.00     0.245 C 
ATOM     20  N   UNL A   1      33.496  20.386  24.933  1.00  0.00    -0.250 N 
ATOM     21  O   UNL A   1      35.797  20.130  25.440  1.00  0.00    -0.273 OA
ATOM     22  O   UNL A   1      32.288  24.397  26.613  1.00  0.00    -0.286 OA
ATOM     23  C   UNL A   1      31.506  25.448  24.610  1.00  0.00     0.036 A 
ATOM     24  C   UNL A   1      32.013  25.585  23.331  1.00  0.00     0.036 A 
ATOM     25  O   UNL A   1      33.994  25.148  22.273  1.00  0.00    -0.286 OA
ATOM     26  O   UNL A   1      31.472  21.531  24.428  1.00  0.00    -0.273 OA
ATOM     27  C   UNL A   1      30.338  26.103  24.949  1.00  0.00     0.013 A 
ATOM     28  C   UNL A   1      31.421  26.351  22.340  1.00  0.00     0.013 A 
ATOM     29  C   UNL A   1      29.707  26.885  23.963  1.00  0.00     0.001 A 
ATOM     30  C   UNL A   1      30.244  27.007  22.666  1.00  0.00     0.001 A 
BRANCH  20  31
ATOM     31  C   UNL A   1      33.186  19.030  24.729  1.00  0.00     0.052 A 
ATOM     32  C   UNL A   1      32.747  18.245  25.804  1.00  0.00     0.027 A 
ATOM     33  C   UNL A   1      33.486  18.417  23.508  1.00  0.00     0.027 A 
ATOM     34  C   UNL A   1      32.595  16.864  25.656  1.00  0.00     0.002 A 
ATOM     35  C   UNL A   1      33.387  17.028  23.382  1.00  0.00     0.002 A 
ATOM     36  C   UNL A   1      32.935  16.254  24.451  1.00  0.00     0.000 A 
ENDBRANCH  20  31
ENDBRANCH   5   8
ENDBRANCH   3   4
ENDBRANCH   2   3
ENDBRANCH   1   2
BRANCH   1  37
ATOM     37  C   UNL A   1      42.098  22.122  27.432  1.00  0.00     0.116 C 
BRANCH  37  38
ATOM     38  N   UNL A   1      42.738  22.334  26.130  1.00  0.00    -0.352 N 
ATOM     39  C   UNL A   1      42.980  23.515  25.449  1.00  0.00     0.251 C 
ATOM     40  H   UNL A   1      43.040  21.517  25.673  1.00  0.00     0.163 HD
ATOM     41  O   UNL A   1      43.519  23.501  24.347  1.00  0.00    -0.269 OA
BRANCH  39  42
ATOM     42  C   UNL A   1      42.514  24.785  26.045  1.00  0.00     0.039 A 
ATOM     43  C   UNL A   1      43.451  25.671  26.560  1.00  0.00     0.014 A 
ATOM     44  C   UNL A   1      41.151  24.988  26.271  1.00  0.00     0.014 A 
ATOM     45  C   UNL A   1      43.058  26.529  27.575  1.00  0.00     0.010 A 
ATOM     46  C   UNL A   1      40.745  25.990  27.161  1.00  0.00     0.010 A 
ATOM     47  C   UNL A   1      41.699  26.703  27.900  1.00  0.00    -0.014 A 
BRANCH  47  48
ATOM     48  C   UNL A   1      41.346  27.622  29.021  1.00  0.00     0.031 A 
ATOM     49  C   UNL A   1      40.096  28.473  28.996  1.00  0.00     0.074 A 
ATOM     50  C   UNL A   1      42.123  27.614  30.125  1.00  0.00     0.049 A 
ATOM     51  N   UNL A   1      39.632  29.264  29.931  1.00  0.00    -0.248 NA
ATOM     52  C   UNL A   1      39.266  28.450  27.780  1.00  0.00     0.031 C 
ATOM     53  C   UNL A   1      43.370  26.858  30.268  1.00  0.00     0.029 A 
ATOM     54  N   UNL A   1      41.967  28.218  31.348  1.00  0.00    -0.354 N 
ATOM     55  C   UNL A   1      38.500  29.874  29.398  1.00  0.00     0.074 A 
ATOM     56  C   UNL A   1      38.339  29.360  28.057  1.00  0.00     0.031 C 
ATOM     57  C   UNL A   1      43.809  26.959  31.528  1.00  0.00     0.029 A 
ATOM     58  C   UNL A   1      42.935  27.866  32.258  1.00  0.00     0.049 A 
ATOM     59  H   UNL A   1      41.232  28.841  31.552  1.00  0.00     0.167 HD
ATOM     60  C   UNL A   1      37.663  30.766  29.979  1.00  0.00     0.034 A 
ATOM     61  C   UNL A   1      43.122  28.238  33.539  1.00  0.00     0.034 A 
ATOM     62  C   UNL A   1      37.777  31.215  31.340  1.00  0.00     0.049 A 
ATOM     63  C   UNL A   1      42.163  29.200  34.167  1.00  0.00     0.074 A 
ATOM     64  C   UNL A   1      36.937  32.074  32.029  1.00  0.00     0.029 A 
ATOM     65  N   UNL A   1      38.778  30.840  32.219  1.00  0.00    -0.354 N 
ATOM     66  N   UNL A   1      41.072  29.713  33.657  1.00  0.00    -0.248 NA
ATOM     67  C   UNL A   1      42.455  29.637  35.539  1.00  0.00     0.031 C 
ATOM     68  C   UNL A   1      37.437  32.226  33.324  1.00  0.00     0.029 A 
ATOM     69  C   UNL A   1      38.580  31.453  33.443  1.00  0.00     0.049 A 
ATOM     70  H   UNL A   1      39.519  30.228  32.006  1.00  0.00     0.167 HD
ATOM     71  C   UNL A   1      40.540  30.529  34.645  1.00  0.00     0.074 A 
ATOM     72  C   UNL A   1      41.419  30.428  35.793  1.00  0.00     0.031 C 
ATOM     73  C   UNL A   1      39.433  31.305  34.594  1.00  0.00     0.034 A 
BRANCH  60  74
ATOM     74  C   UNL A   1      36.503  31.297  29.177  1.00  0.00     0.023 A 
ATOM     75  C   UNL A   1      36.442  32.671  28.877  1.00  0.00     0.012 A 
ATOM     76  C   UNL A   1      35.559  30.419  28.608  1.00  0.00     0.148 A 
ATOM     77  C   UNL A   1      35.455  33.166  28.026  1.00  0.00     0.002 A 
ATOM     78  C   UNL A   1      34.595  30.914  27.738  1.00  0.00     0.091 A 
ATOM     79  F   UNL A   1      35.636  29.115  28.913  1.00  0.00    -0.205 F 
ATOM     80  C   UNL A   1      34.540  32.288  27.448  1.00  0.00     0.022 A 
BRANCH  78  81
ATOM     81  S   UNL A   1      33.408  29.863  26.892  1.00  0.00     0.127 S 
ATOM     82  O   UNL A   1      32.570  30.852  26.215  1.00  0.00    -0.237 OA
ATOM     83  O   UNL A   1      34.268  29.081  26.004  1.00  0.00    -0.237 OA
ATOM     84  O   UNL A   1      32.738  29.093  27.931  1.00  0.00    -0.744 OA
ENDBRANCH  78  81
ENDBRANCH  60  74
BRANCH  61  85
ATOM     85  C   UNL A   1      44.262  27.657  34.299  1.00  0.00     0.023 A 
ATOM     86  C   UNL A   1      45.476  28.363  34.370  1.00  0.00     0.012 A 
ATOM     87  C   UNL A   1      44.104  26.471  35.043  1.00  0.00     0.148 A 
ATOM     88  C   UNL A   1      46.518  27.898  35.174  1.00  0.00     0.002 A 
ATOM     89  C   UNL A   1      45.127  26.041  35.880  1.00  0.00     0.091 A 
ATOM     90  F   UNL A   1      42.936  25.820  34.955  1.00  0.00    -0.205 F 
ATOM     91  C   UNL A   1      46.338  26.746  35.938  1.00  0.00     0.022 A 
BRANCH  89  92
ATOM     92  S   UNL A   1      44.935  24.649  36.999  1.00  0.00     0.127 S 
ATOM     93  O   UNL A   1      46.211  24.662  37.710  1.00  0.00    -0.237 OA
ATOM     94  O   UNL A   1      43.781  25.065  37.796  1.00  0.00    -0.237 OA
ATOM     95  O   UNL A   1      44.699  23.488  36.153  1.00  0.00    -0.744 OA
ENDBRANCH  89  92
ENDBRANCH  61  85
BRANCH  73  96
ATOM     96  C   UNL A   1      39.073  32.111  35.807  1.00  0.00     0.023 A 
ATOM     97  C   UNL A   1      39.375  33.485  35.832  1.00  0.00     0.012 A 
ATOM     98  C   UNL A   1      38.292  31.545  36.833  1.00  0.00     0.148 A 
ATOM     99  C   UNL A   1      38.897  34.290  36.864  1.00  0.00     0.002 A 
ATOM    100  C   UNL A   1      37.792  32.360  37.839  1.00  0.00     0.091 A 
ATOM    101  F   UNL A   1      38.024  30.232  36.778  1.00  0.00    -0.205 F 
ATOM    102  C   UNL A   1      38.095  33.731  37.858  1.00  0.00     0.022 A 
BRANCH 100 103
ATOM    103  S   UNL A   1      36.687  31.754  39.119  1.00  0.00     0.127 S 
ATOM    104  O   UNL A   1      35.464  32.504  38.837  1.00  0.00    -0.237 OA
ATOM    105  O   UNL A   1      36.615  30.326  38.810  1.00  0.00    -0.237 OA
ATOM    106  O   UNL A   1      37.325  32.074  40.390  1.00  0.00    -0.744 OA
ENDBRANCH 100 103
ENDBRANCH  73  96
ENDBRANCH  47  48
ENDBRANCH  39  42
ENDBRANCH  37  38
ENDBRANCH   1  37
TORSDOF 15
ENDMDL
MODEL 3
REMARK VINA RESULT:     -13.1      0.364      7.312
REMARK SMILES C[C@]1(C(=O)NCCCCNC(=O)c2ccc(-c3c4nc(c(-c5cccc(S(=O)(=O)[O-])c5F)c5ccc([nH]5)c(-c5cccc(S(=O)(=O)[O-])c5F)c5nc(c(-c6cccc(S(=O)(=O)[O-])c6F)c6ccc3[nH]6)C=C5)C=C4)cc2)[NH2+]C2(C(=O)c3ccccc3C2=O)[C@@H]2C(=O)N(c3ccccc3)C(=O)[C@H]21
REMARK SMILES IDX 8 1 7 2 6 3 5 4 3 5 4 6 2 8 1 9 76 10 100 11 77 12 88 15
REMARK SMILES IDX 98 16 78 17 86 18 89 19 91 20 99 21 79 22 80 23 85 24 87 25
REMARK SMILES IDX 90 26 81 27 84 28 82 29 83 30 92 31 93 32 97 33 94 34 96 35
REMARK SMILES IDX 95 36 9 37 10 38 11 39 12 41 13 42 14 43 75 44 15 45 74 46
REMARK SMILES IDX 16 47 17 48 18 49 68 50 19 51 73 52 67 53 69 54 20 55 72 56
REMARK SMILES IDX 66 57 65 58 21 60 53 61 33 62 52 63 34 64 37 65 51 66 70 67
REMARK SMILES IDX 35 68 36 69 50 71 71 72 38 73 22 74 23 75 31 76 24 77 26 78
REMARK SMILES IDX 32 79 25 80 27 81 28 82 29 83 30 84 54 85 55 86 63 87 56 88
REMARK SMILES IDX 58 89 64 90 57 91 59 92 60 93 61 94 62 95 39 96 40 97 48 98
REMARK SMILES IDX 41 99 43 100 49 101 42 102 44 103 45 104 46 105 47 106
REMARK H PARENT 5 7 76 13 76 14 10 40 69 59 37 70
REMARK Flexibility Score: inf
ROOT
ATOM      1  C   UNL A   1      34.995  32.872  28.001  1.00  0.00     0.023 C 
ENDROOT
BRANCH   1   2
ATOM      2  C   UNL A   1      33.676  32.139  28.083  1.00  0.00     0.023 C 
BRANCH   2   3
ATOM      3  C   UNL A   1      33.593  30.827  27.319  1.00  0.00     0.116 C 
BRANCH   3   4
ATOM      4  N   UNL A   1      32.804  29.761  27.850  1.00  0.00    -0.351 N 
ATOM      5  C   UNL A   1      32.606  28.492  27.385  1.00  0.00     0.281 C 
ATOM      6  O   UNL A   1      31.873  27.809  28.117  1.00  0.00    -0.268 OA
ATOM      7  H   UNL A   1      32.325  29.974  28.683  1.00  0.00     0.163 HD
BRANCH   5   8
ATOM      8  C   UNL A   1      33.218  27.843  26.054  1.00  0.00     0.186 C 
ATOM      9  C   UNL A   1      34.576  28.566  25.845  1.00  0.00     0.091 C 
ATOM     10  N   UNL A   1      33.499  26.355  26.144  1.00  0.00    -0.314 N 
ATOM     11  C   UNL A   1      32.460  27.902  24.759  1.00  0.00     0.170 C 
ATOM     12  C   UNL A   1      32.555  25.597  25.214  1.00  0.00     0.236 C 
ATOM     13  H   UNL A   1      33.355  26.040  27.103  1.00  0.00     0.348 HD
ATOM     14  H   UNL A   1      34.464  26.175  25.867  1.00  0.00     0.348 HD
ATOM     15  C   UNL A   1      31.597  26.656  24.722  1.00  0.00     0.177 C 
ATOM     16  C   UNL A   1      31.496  28.950  24.343  1.00  0.00     0.244 C 
ATOM     17  C   UNL A   1      33.262  24.810  24.102  1.00  0.00     0.232 C 
ATOM     18  C   UNL A   1      31.962  24.442  26.053  1.00  0.00     0.232 C 
ATOM     19  C   UNL A   1      30.886  26.907  23.426  1.00  0.00     0.245 C 
ATOM     20  N   UNL A   1      30.683  28.295  23.415  1.00  0.00    -0.250 N 
ATOM     21  O   UNL A   1      31.498  30.105  24.710  1.00  0.00    -0.273 OA
ATOM     22  O   UNL A   1      34.025  25.263  23.267  1.00  0.00    -0.286 OA
ATOM     23  C   UNL A   1      32.897  23.382  24.225  1.00  0.00     0.036 A 
ATOM     24  C   UNL A   1      32.115  23.196  25.350  1.00  0.00     0.036 A 
ATOM     25  O   UNL A   1      31.536  24.422  27.193  1.00  0.00    -0.286 OA
ATOM     26  O   UNL A   1      30.459  26.040  22.686  1.00  0.00    -0.273 OA
ATOM     27  C   UNL A   1      33.250  22.289  23.458  1.00  0.00     0.013 A 
ATOM     28  C   UNL A   1      31.650  21.962  25.776  1.00  0.00     0.013 A 
ATOM     29  C   UNL A   1      32.788  21.021  23.859  1.00  0.00     0.001 A 
ATOM     30  C   UNL A   1      31.992  20.858  25.009  1.00  0.00     0.001 A 
BRANCH  20  31
ATOM     31  C   UNL A   1      29.657  28.979  22.741  1.00  0.00     0.052 A 
ATOM     32  C   UNL A   1      29.976  29.979  21.811  1.00  0.00     0.027 A 
ATOM     33  C   UNL A   1      28.324  28.798  23.124  1.00  0.00     0.027 A 
ATOM     34  C   UNL A   1      28.972  30.779  21.260  1.00  0.00     0.002 A 
ATOM     35  C   UNL A   1      27.330  29.639  22.613  1.00  0.00     0.002 A 
ATOM     36  C   UNL A   1      27.653  30.622  21.676  1.00  0.00     0.000 A 
ENDBRANCH  20  31
ENDBRANCH   5   8
ENDBRANCH   3   4
ENDBRANCH   2   3
ENDBRANCH   1   2
BRANCH   1  37
ATOM     37  C   UNL A   1      34.911  34.374  28.239  1.00  0.00     0.116 C 
BRANCH  37  38
ATOM     38  N   UNL A   1      33.666  34.851  28.848  1.00  0.00    -0.352 N 
ATOM     39  C   UNL A   1      33.311  34.925  30.184  1.00  0.00     0.251 C 
ATOM     40  H   UNL A   1      32.982  35.165  28.215  1.00  0.00     0.163 HD
ATOM     41  O   UNL A   1      32.205  35.340  30.515  1.00  0.00    -0.269 OA
BRANCH  39  42
ATOM     42  C   UNL A   1      34.264  34.428  31.199  1.00  0.00     0.039 A 
ATOM     43  C   UNL A   1      35.349  35.221  31.550  1.00  0.00     0.014 A 
ATOM     44  C   UNL A   1      34.185  33.105  31.638  1.00  0.00     0.014 A 
ATOM     45  C   UNL A   1      36.494  34.598  32.020  1.00  0.00     0.010 A 
ATOM     46  C   UNL A   1      35.285  32.529  32.287  1.00  0.00     0.010 A 
ATOM     47  C   UNL A   1      36.489  33.241  32.393  1.00  0.00    -0.014 A 
BRANCH  47  48
ATOM     48  C   UNL A   1      37.763  32.625  32.866  1.00  0.00     0.031 A 
ATOM     49  C   UNL A   1      38.365  32.962  34.211  1.00  0.00     0.074 A 
ATOM     50  C   UNL A   1      38.336  31.671  32.100  1.00  0.00     0.049 A 
ATOM     51  N   UNL A   1      39.431  32.451  34.776  1.00  0.00    -0.248 NA
ATOM     52  C   UNL A   1      37.710  34.001  35.024  1.00  0.00     0.031 C 
ATOM     53  C   UNL A   1      37.870  31.270  30.770  1.00  0.00     0.029 A 
ATOM     54  N   UNL A   1      39.398  30.835  32.339  1.00  0.00    -0.354 N 
ATOM     55  C   UNL A   1      39.607  33.143  35.971  1.00  0.00     0.074 A 
ATOM     56  C   UNL A   1      38.535  34.109  36.058  1.00  0.00     0.031 C 
ATOM     57  C   UNL A   1      38.570  30.208  30.356  1.00  0.00     0.029 A 
ATOM     58  C   UNL A   1      39.601  29.912  31.341  1.00  0.00     0.049 A 
ATOM     59  H   UNL A   1      39.958  30.891  33.147  1.00  0.00     0.167 HD
ATOM     60  C   UNL A   1      40.561  32.976  36.917  1.00  0.00     0.034 A 
ATOM     61  C   UNL A   1      40.522  28.938  31.210  1.00  0.00     0.034 A 
ATOM     62  C   UNL A   1      41.578  31.961  36.869  1.00  0.00     0.049 A 
ATOM     63  C   UNL A   1      41.546  28.754  32.286  1.00  0.00     0.074 A 
ATOM     64  C   UNL A   1      42.551  31.681  37.814  1.00  0.00     0.029 A 
ATOM     65  N   UNL A   1      41.750  31.056  35.835  1.00  0.00    -0.354 N 
ATOM     66  N   UNL A   1      41.650  29.383  33.429  1.00  0.00    -0.248 NA
ATOM     67  C   UNL A   1      42.577  27.732  32.060  1.00  0.00     0.031 C 
ATOM     68  C   UNL A   1      43.319  30.613  37.346  1.00  0.00     0.029 A 
ATOM     69  C   UNL A   1      42.816  30.220  36.116  1.00  0.00     0.049 A 
ATOM     70  H   UNL A   1      41.196  31.014  35.022  1.00  0.00     0.167 HD
ATOM     71  C   UNL A   1      42.754  28.832  34.065  1.00  0.00     0.074 A 
ATOM     72  C   UNL A   1      43.275  27.802  33.188  1.00  0.00     0.031 C 
ATOM     73  C   UNL A   1      43.293  29.167  35.259  1.00  0.00     0.034 A 
BRANCH  60  74
ATOM     74  C   UNL A   1      40.544  33.871  38.128  1.00  0.00     0.023 A 
ATOM     75  C   UNL A   1      41.299  35.059  38.120  1.00  0.00     0.012 A 
ATOM     76  C   UNL A   1      39.676  33.606  39.207  1.00  0.00     0.148 A 
ATOM     77  C   UNL A   1      41.195  35.970  39.171  1.00  0.00     0.002 A 
ATOM     78  C   UNL A   1      39.556  34.532  40.237  1.00  0.00     0.091 A 
ATOM     79  F   UNL A   1      38.971  32.465  39.193  1.00  0.00    -0.205 F 
ATOM     80  C   UNL A   1      40.317  35.712  40.221  1.00  0.00     0.022 A 
BRANCH  78  81
ATOM     81  S   UNL A   1      38.410  34.328  41.606  1.00  0.00     0.127 S 
ATOM     82  O   UNL A   1      37.218  33.831  40.920  1.00  0.00    -0.237 OA
ATOM     83  O   UNL A   1      39.095  33.337  42.435  1.00  0.00    -0.237 OA
ATOM     84  O   UNL A   1      38.270  35.644  42.215  1.00  0.00    -0.744 OA
ENDBRANCH  78  81
ENDBRANCH  60  74
BRANCH  61  85
ATOM     85  C   UNL A   1      40.474  28.057  30.012  1.00  0.00     0.023 A 
ATOM     86  C   UNL A   1      39.479  27.068  29.921  1.00  0.00     0.012 A 
ATOM     87  C   UNL A   1      41.334  28.278  28.918  1.00  0.00     0.148 A 
ATOM     88  C   UNL A   1      39.339  26.310  28.757  1.00  0.00     0.002 A 
ATOM     89  C   UNL A   1      41.158  27.556  27.745  1.00  0.00     0.091 A 
ATOM     90  F   UNL A   1      42.273  29.228  29.034  1.00  0.00    -0.205 F 
ATOM     91  C   UNL A   1      40.168  26.564  27.666  1.00  0.00     0.022 A 
BRANCH  89  92
ATOM     92  S   UNL A   1      42.087  27.906  26.248  1.00  0.00     0.127 S 
ATOM     93  O   UNL A   1      41.529  26.928  25.317  1.00  0.00    -0.237 OA
ATOM     94  O   UNL A   1      41.711  29.295  25.983  1.00  0.00    -0.237 OA
ATOM     95  O   UNL A   1      43.487  27.714  26.596  1.00  0.00    -0.744 OA
ENDBRANCH  89  92
ENDBRANCH  61  85
BRANCH  73  96
ATOM     96  C   UNL A   1      44.508  28.419  35.725  1.00  0.00     0.023 A 
ATOM     97  C   UNL A   1      45.783  28.959  35.478  1.00  0.00     0.012 A 
ATOM     98  C   UNL A   1      44.374  27.283  36.547  1.00  0.00     0.148 A 
ATOM     99  C   UNL A   1      46.914  28.380  36.050  1.00  0.00     0.002 A 
ATOM    100  C   UNL A   1      45.501  26.732  37.139  1.00  0.00     0.091 A 
ATOM    101  F   UNL A   1      43.144  26.793  36.760  1.00  0.00    -0.205 F 
ATOM    102  C   UNL A   1      46.772  27.276  36.890  1.00  0.00     0.022 A 
BRANCH 100 103
ATOM    103  S   UNL A   1      45.416  25.361  38.297  1.00  0.00     0.127 S 
ATOM    104  O   UNL A   1      46.795  25.294  38.780  1.00  0.00    -0.237 OA
ATOM    105  O   UNL A   1      44.448  25.849  39.278  1.00  0.00    -0.237 OA
ATOM    106  O   UNL A   1      44.979  24.205  37.526  1.00  0.00    -0.744 OA
ENDBRANCH 100 103
ENDBRANCH  73  96
ENDBRANCH  47  48
ENDBRANCH  39  42
ENDBRANCH  37  38
ENDBRANCH   1  37
TORSDOF 15
ENDMDL
