MODEL 1
REMARK VINA RESULT:     -11.4      0.000      0.000
REMARK SMILES O=C(NCCCCNC(=O)[C@@]12CCC[C@@H](C[NH2+]1)C2)c1ccc(-c2c3nc(c(-c4cccc(S(=O)(=O)[O-])c4F)c4ccc([nH]4)c(-c4cccc(S(=O)(=O)[O-])c4F)c4nc(c(-c5cccc(S(=O)(=O)[O-])c5F)c5ccc2[nH]5)C=C4)C=C3)cc1
REMARK SMILES IDX 4 1 3 2 1 3 2 4 19 6 20 7 81 8 21 9 80 10 22 11 23 12 24 13
REMARK SMILES IDX 74 14 25 15 79 16 73 17 75 18 26 19 78 20 72 21 71 22 27 24
REMARK SMILES IDX 59 25 39 26 58 27 40 28 43 29 57 30 76 31 41 32 42 33 56 35
REMARK SMILES IDX 77 36 44 37 28 38 29 39 37 40 30 41 32 42 38 43 31 44 33 45
REMARK SMILES IDX 34 46 35 47 36 48 60 49 61 50 69 51 62 52 64 53 70 54 63 55
REMARK SMILES IDX 65 56 66 57 67 58 68 59 45 60 46 61 54 62 47 63 49 64 55 65
REMARK SMILES IDX 48 66 50 67 51 68 52 69 53 70 5 71 6 72 7 73 8 74 9 75 10 77
REMARK SMILES IDX 11 78 12 79 17 80 18 81 13 82 16 83 15 86 14 87
REMARK H PARENT 3 5 75 23 43 34 8 76 17 84 17 85
REMARK Flexibility Score: inf
ROOT
ATOM      1  C   UNL A   1      32.619  32.474  26.948  1.00  0.00     0.116 C 
ENDROOT
BRANCH   1   2
ATOM      2  N   UNL A   1      32.385  33.830  27.424  1.00  0.00    -0.352 N 
ATOM      3  O   UNL A   1      32.716  35.650  28.721  1.00  0.00    -0.269 OA
ATOM      4  C   UNL A   1      33.078  34.527  28.387  1.00  0.00     0.251 C 
ATOM      5  H   UNL A   1      31.635  34.309  27.003  1.00  0.00     0.163 HD
BRANCH   4   6
ATOM      6  C   UNL A   1      34.234  33.878  29.039  1.00  0.00     0.039 A 
ATOM      7  C   UNL A   1      35.531  34.317  28.761  1.00  0.00     0.014 A 
ATOM      8  C   UNL A   1      34.018  32.785  29.881  1.00  0.00     0.014 A 
ATOM      9  C   UNL A   1      36.615  33.574  29.208  1.00  0.00     0.010 A 
ATOM     10  C   UNL A   1      35.113  32.092  30.401  1.00  0.00     0.010 A 
ATOM     11  C   UNL A   1      36.419  32.465  30.047  1.00  0.00    -0.014 A 
BRANCH  11  12
ATOM     12  C   UNL A   1      37.598  31.793  30.644  1.00  0.00     0.031 A 
ATOM     13  C   UNL A   1      38.373  30.743  29.899  1.00  0.00     0.074 A 
ATOM     14  C   UNL A   1      37.942  32.136  31.901  1.00  0.00     0.049 A 
ATOM     15  N   UNL A   1      39.419  30.066  30.298  1.00  0.00    -0.248 NA
ATOM     16  C   UNL A   1      37.920  30.399  28.541  1.00  0.00     0.031 C 
ATOM     17  C   UNL A   1      37.220  33.105  32.732  1.00  0.00     0.029 A 
ATOM     18  N   UNL A   1      38.964  31.706  32.705  1.00  0.00    -0.354 N 
ATOM     19  C   UNL A   1      39.722  29.186  29.266  1.00  0.00     0.074 A 
ATOM     20  C   UNL A   1      38.757  29.421  28.215  1.00  0.00     0.031 C 
ATOM     21  C   UNL A   1      37.822  33.199  33.925  1.00  0.00     0.029 A 
ATOM     22  C   UNL A   1      38.934  32.259  33.965  1.00  0.00     0.049 A 
ATOM     23  H   UNL A   1      39.651  31.065  32.413  1.00  0.00     0.167 HD
ATOM     24  C   UNL A   1      40.724  28.275  29.207  1.00  0.00     0.034 A 
ATOM     25  C   UNL A   1      39.693  32.011  35.049  1.00  0.00     0.034 A 
ATOM     26  C   UNL A   1      41.706  28.087  30.243  1.00  0.00     0.049 A 
ATOM     27  C   UNL A   1      40.802  31.009  34.937  1.00  0.00     0.074 A 
ATOM     28  C   UNL A   1      42.828  27.277  30.224  1.00  0.00     0.029 A 
ATOM     29  N   UNL A   1      41.674  28.696  31.487  1.00  0.00    -0.354 N 
ATOM     30  N   UNL A   1      41.183  30.318  33.890  1.00  0.00    -0.248 NA
ATOM     31  C   UNL A   1      41.598  30.764  36.146  1.00  0.00     0.031 C 
ATOM     32  C   UNL A   1      43.458  27.372  31.469  1.00  0.00     0.029 A 
ATOM     33  C   UNL A   1      42.737  28.255  32.257  1.00  0.00     0.049 A 
ATOM     34  H   UNL A   1      40.996  29.346  31.780  1.00  0.00     0.167 HD
ATOM     35  C   UNL A   1      42.268  29.561  34.312  1.00  0.00     0.074 A 
ATOM     36  C   UNL A   1      42.508  29.909  35.698  1.00  0.00     0.031 C 
ATOM     37  C   UNL A   1      42.982  28.638  33.623  1.00  0.00     0.034 A 
BRANCH  24  38
ATOM     38  C   UNL A   1      40.851  27.423  27.972  1.00  0.00     0.023 A 
ATOM     39  C   UNL A   1      41.482  27.947  26.827  1.00  0.00     0.012 A 
ATOM     40  C   UNL A   1      40.467  26.066  27.993  1.00  0.00     0.148 A 
ATOM     41  C   UNL A   1      41.724  27.136  25.718  1.00  0.00     0.002 A 
ATOM     42  C   UNL A   1      40.741  25.257  26.896  1.00  0.00     0.091 A 
ATOM     43  F   UNL A   1      39.854  25.594  29.087  1.00  0.00    -0.205 F 
ATOM     44  C   UNL A   1      41.365  25.791  25.757  1.00  0.00     0.022 A 
BRANCH  42  45
ATOM     45  S   UNL A   1      40.386  23.496  26.872  1.00  0.00     0.127 S 
ATOM     46  O   UNL A   1      38.950  23.489  26.589  1.00  0.00    -0.237 OA
ATOM     47  O   UNL A   1      41.225  23.027  25.770  1.00  0.00    -0.237 OA
ATOM     48  O   UNL A   1      40.762  22.990  28.185  1.00  0.00    -0.744 OA
ENDBRANCH  42  45
ENDBRANCH  24  38
BRANCH  25  49
ATOM     49  C   UNL A   1      39.422  32.736  36.320  1.00  0.00     0.023 A 
ATOM     50  C   UNL A   1      39.993  34.003  36.535  1.00  0.00     0.012 A 
ATOM     51  C   UNL A   1      38.560  32.195  37.294  1.00  0.00     0.148 A 
ATOM     52  C   UNL A   1      39.729  34.709  37.710  1.00  0.00     0.002 A 
ATOM     53  C   UNL A   1      38.251  32.931  38.432  1.00  0.00     0.091 A 
ATOM     54  F   UNL A   1      38.040  30.977  37.084  1.00  0.00    -0.205 F 
ATOM     55  C   UNL A   1      38.849  34.180  38.651  1.00  0.00     0.022 A 
BRANCH  53  56
ATOM     56  S   UNL A   1      37.004  32.375  39.599  1.00  0.00     0.127 S 
ATOM     57  O   UNL A   1      37.108  33.379  40.652  1.00  0.00    -0.237 OA
ATOM     58  O   UNL A   1      35.778  32.442  38.801  1.00  0.00    -0.237 OA
ATOM     59  O   UNL A   1      37.402  31.020  39.957  1.00  0.00    -0.744 OA
ENDBRANCH  53  56
ENDBRANCH  25  49
BRANCH  37  60
ATOM     60  C   UNL A   1      44.086  27.934  34.363  1.00  0.00     0.023 A 
ATOM     61  C   UNL A   1      45.366  28.519  34.409  1.00  0.00     0.012 A 
ATOM     62  C   UNL A   1      43.845  26.734  35.058  1.00  0.00     0.148 A 
ATOM     63  C   UNL A   1      46.400  27.905  35.112  1.00  0.00     0.002 A 
ATOM     64  C   UNL A   1      44.868  26.150  35.794  1.00  0.00     0.091 A 
ATOM     65  F   UNL A   1      42.623  26.185  34.984  1.00  0.00    -0.205 F 
ATOM     66  C   UNL A   1      46.148  26.728  35.814  1.00  0.00     0.022 A 
BRANCH  64  67
ATOM     67  S   UNL A   1      44.617  24.682  36.797  1.00  0.00     0.127 S 
ATOM     68  O   UNL A   1      45.948  24.481  37.370  1.00  0.00    -0.237 OA
ATOM     69  O   UNL A   1      43.602  25.127  37.752  1.00  0.00    -0.237 OA
ATOM     70  O   UNL A   1      44.170  23.641  35.881  1.00  0.00    -0.744 OA
ENDBRANCH  64  67
ENDBRANCH  37  60
ENDBRANCH  11  12
ENDBRANCH   4   6
ENDBRANCH   1   2
BRANCH   1  71
ATOM     71  C   UNL A   1      31.358  31.737  26.515  1.00  0.00     0.023 C 
BRANCH  71  72
ATOM     72  C   UNL A   1      31.579  30.437  25.753  1.00  0.00     0.023 C 
BRANCH  72  73
ATOM     73  C   UNL A   1      32.996  29.882  25.785  1.00  0.00     0.116 C 
BRANCH  73  74
ATOM     74  N   UNL A   1      33.569  29.602  24.479  1.00  0.00    -0.351 N 
ATOM     75  C   UNL A   1      33.525  28.465  23.714  1.00  0.00     0.281 C 
ATOM     76  H   UNL A   1      34.070  30.349  24.079  1.00  0.00     0.163 HD
ATOM     77  O   UNL A   1      33.881  28.561  22.535  1.00  0.00    -0.268 OA
BRANCH  75  78
ATOM     78  C   UNL A   1      33.166  27.087  24.325  1.00  0.00     0.176 C 
ATOM     79  C   UNL A   1      31.635  27.034  24.549  1.00  0.00     0.079 C 
ATOM     80  N   UNL A   1      33.637  25.947  23.478  1.00  0.00    -0.333 N 
ATOM     81  C   UNL A   1      33.883  26.790  25.646  1.00  0.00     0.088 C 
ATOM     82  C   UNL A   1      31.222  26.186  25.758  1.00  0.00     0.008 C 
ATOM     83  C   UNL A   1      34.039  24.845  24.357  1.00  0.00     0.265 C 
ATOM     84  H   UNL A   1      34.434  26.244  22.915  1.00  0.00     0.347 HD
ATOM     85  H   UNL A   1      32.889  25.642  22.856  1.00  0.00     0.347 HD
ATOM     86  C   UNL A   1      33.622  25.287  25.751  1.00  0.00     0.051 C 
ATOM     87  C   UNL A   1      32.125  24.976  25.977  1.00  0.00     0.010 C 
ENDBRANCH  75  78
ENDBRANCH  73  74
ENDBRANCH  72  73
ENDBRANCH  71  72
ENDBRANCH   1  71
TORSDOF 14
ENDMDL
MODEL 2
REMARK VINA RESULT:     -11.2      6.077     11.616
REMARK SMILES O=C(NCCCCNC(=O)[C@@]12CCC[C@@H](C[NH2+]1)C2)c1ccc(-c2c3nc(c(-c4cccc(S(=O)(=O)[O-])c4F)c4ccc([nH]4)c(-c4cccc(S(=O)(=O)[O-])c4F)c4nc(c(-c5cccc(S(=O)(=O)[O-])c5F)c5ccc2[nH]5)C=C4)C=C3)cc1
REMARK SMILES IDX 4 1 3 2 1 3 2 4 19 6 20 7 81 8 21 9 80 10 22 11 23 12 24 13
REMARK SMILES IDX 74 14 25 15 79 16 73 17 75 18 26 19 78 20 72 21 71 22 27 24
REMARK SMILES IDX 59 25 39 26 58 27 40 28 43 29 57 30 76 31 41 32 42 33 56 35
REMARK SMILES IDX 77 36 44 37 28 38 29 39 37 40 30 41 32 42 38 43 31 44 33 45
REMARK SMILES IDX 34 46 35 47 36 48 60 49 61 50 69 51 62 52 64 53 70 54 63 55
REMARK SMILES IDX 65 56 66 57 67 58 68 59 45 60 46 61 54 62 47 63 49 64 55 65
REMARK SMILES IDX 48 66 50 67 51 68 52 69 53 70 5 71 6 72 7 73 8 74 9 75 10 77
REMARK SMILES IDX 11 78 12 79 17 80 18 81 13 82 16 83 15 86 14 87
REMARK H PARENT 3 5 75 23 43 34 8 76 17 84 17 85
REMARK Flexibility Score: inf
ROOT
ATOM      1  C   UNL A   1      39.054  20.162  25.751  1.00  0.00     0.116 C 
ENDROOT
BRANCH   1   2
ATOM      2  N   UNL A   1      40.137  19.193  25.831  1.00  0.00    -0.352 N 
ATOM      3  O   UNL A   1      42.271  18.495  26.091  1.00  0.00    -0.269 OA
ATOM      4  C   UNL A   1      41.463  19.418  26.121  1.00  0.00     0.251 C 
ATOM      5  H   UNL A   1      39.889  18.256  25.655  1.00  0.00     0.163 HD
BRANCH   4   6
ATOM      6  C   UNL A   1      41.899  20.797  26.425  1.00  0.00     0.039 A 
ATOM      7  C   UNL A   1      42.068  21.201  27.752  1.00  0.00     0.014 A 
ATOM      8  C   UNL A   1      42.075  21.703  25.378  1.00  0.00     0.014 A 
ATOM      9  C   UNL A   1      42.270  22.544  28.038  1.00  0.00     0.010 A 
ATOM     10  C   UNL A   1      42.366  23.038  25.666  1.00  0.00     0.010 A 
ATOM     11  C   UNL A   1      42.440  23.473  26.999  1.00  0.00    -0.014 A 
BRANCH  11  12
ATOM     12  C   UNL A   1      42.821  24.867  27.331  1.00  0.00     0.031 A 
ATOM     13  C   UNL A   1      41.856  25.819  27.979  1.00  0.00     0.074 A 
ATOM     14  C   UNL A   1      44.065  25.268  27.005  1.00  0.00     0.049 A 
ATOM     15  N   UNL A   1      42.047  27.067  28.320  1.00  0.00    -0.248 NA
ATOM     16  C   UNL A   1      40.504  25.318  28.279  1.00  0.00     0.031 C 
ATOM     17  C   UNL A   1      45.061  24.438  26.322  1.00  0.00     0.029 A 
ATOM     18  N   UNL A   1      44.701  26.469  27.184  1.00  0.00    -0.354 N 
ATOM     19  C   UNL A   1      40.834  27.517  28.829  1.00  0.00     0.074 A 
ATOM     20  C   UNL A   1      39.913  26.403  28.765  1.00  0.00     0.031 C 
ATOM     21  C   UNL A   1      46.183  25.149  26.143  1.00  0.00     0.029 A 
ATOM     22  C   UNL A   1      45.966  26.500  26.645  1.00  0.00     0.049 A 
ATOM     23  H   UNL A   1      44.294  27.233  27.652  1.00  0.00     0.167 HD
ATOM     24  C   UNL A   1      40.530  28.745  29.313  1.00  0.00     0.034 A 
ATOM     25  C   UNL A   1      46.846  27.512  26.530  1.00  0.00     0.034 A 
ATOM     26  C   UNL A   1      41.473  29.828  29.415  1.00  0.00     0.049 A 
ATOM     27  C   UNL A   1      46.478  28.852  27.094  1.00  0.00     0.074 A 
ATOM     28  C   UNL A   1      41.295  31.069  30.002  1.00  0.00     0.029 A 
ATOM     29  N   UNL A   1      42.760  29.811  28.901  1.00  0.00    -0.354 N 
ATOM     30  N   UNL A   1      45.390  29.203  27.734  1.00  0.00    -0.248 NA
ATOM     31  C   UNL A   1      47.464  29.929  26.939  1.00  0.00     0.031 C 
ATOM     32  C   UNL A   1      42.463  31.814  29.815  1.00  0.00     0.029 A 
ATOM     33  C   UNL A   1      43.376  31.031  29.127  1.00  0.00     0.049 A 
ATOM     34  H   UNL A   1      43.176  29.046  28.443  1.00  0.00     0.167 HD
ATOM     35  C   UNL A   1      45.562  30.541  28.064  1.00  0.00     0.074 A 
ATOM     36  C   UNL A   1      46.876  30.924  27.590  1.00  0.00     0.031 C 
ATOM     37  C   UNL A   1      44.698  31.385  28.679  1.00  0.00     0.034 A 
BRANCH  24  38
ATOM     38  C   UNL A   1      39.132  28.997  29.812  1.00  0.00     0.023 A 
ATOM     39  C   UNL A   1      38.783  28.622  31.123  1.00  0.00     0.012 A 
ATOM     40  C   UNL A   1      38.211  29.724  29.030  1.00  0.00     0.148 A 
ATOM     41  C   UNL A   1      37.535  28.959  31.648  1.00  0.00     0.002 A 
ATOM     42  C   UNL A   1      36.983  30.085  29.572  1.00  0.00     0.091 A 
ATOM     43  F   UNL A   1      38.560  30.058  27.779  1.00  0.00    -0.205 F 
ATOM     44  C   UNL A   1      36.641  29.700  30.878  1.00  0.00     0.022 A 
BRANCH  42  45
ATOM     45  S   UNL A   1      35.790  31.101  28.691  1.00  0.00     0.127 S 
ATOM     46  O   UNL A   1      36.647  32.154  28.146  1.00  0.00    -0.237 OA
ATOM     47  O   UNL A   1      35.267  30.166  27.694  1.00  0.00    -0.237 OA
ATOM     48  O   UNL A   1      34.821  31.541  29.685  1.00  0.00    -0.744 OA
ENDBRANCH  42  45
ENDBRANCH  24  38
BRANCH  25  49
ATOM     49  C   UNL A   1      48.154  27.281  25.860  1.00  0.00     0.023 A 
ATOM     50  C   UNL A   1      49.248  26.813  26.609  1.00  0.00     0.012 A 
ATOM     51  C   UNL A   1      48.303  27.474  24.472  1.00  0.00     0.148 A 
ATOM     52  C   UNL A   1      50.476  26.565  25.992  1.00  0.00     0.002 A 
ATOM     53  C   UNL A   1      49.508  27.165  23.854  1.00  0.00     0.091 A 
ATOM     54  F   UNL A   1      47.256  27.941  23.775  1.00  0.00    -0.205 F 
ATOM     55  C   UNL A   1      50.602  26.727  24.615  1.00  0.00     0.022 A 
BRANCH  53  56
ATOM     56  S   UNL A   1      49.682  27.200  22.067  1.00  0.00     0.127 S 
ATOM     57  O   UNL A   1      51.062  26.760  21.889  1.00  0.00    -0.237 OA
ATOM     58  O   UNL A   1      48.667  26.238  21.635  1.00  0.00    -0.237 OA
ATOM     59  O   UNL A   1      49.390  28.577  21.687  1.00  0.00    -0.744 OA
ENDBRANCH  53  56
ENDBRANCH  25  49
BRANCH  37  60
ATOM     60  C   UNL A   1      45.144  32.809  28.864  1.00  0.00     0.023 A 
ATOM     61  C   UNL A   1      45.926  33.144  29.986  1.00  0.00     0.012 A 
ATOM     62  C   UNL A   1      44.845  33.795  27.905  1.00  0.00     0.148 A 
ATOM     63  C   UNL A   1      46.380  34.449  30.167  1.00  0.00     0.002 A 
ATOM     64  C   UNL A   1      45.339  35.083  28.069  1.00  0.00     0.091 A 
ATOM     65  F   UNL A   1      44.083  33.456  26.854  1.00  0.00    -0.205 F 
ATOM     66  C   UNL A   1      46.097  35.415  29.204  1.00  0.00     0.022 A 
BRANCH  64  67
ATOM     67  S   UNL A   1      45.098  36.371  26.840  1.00  0.00     0.127 S 
ATOM     68  O   UNL A   1      45.554  37.558  27.561  1.00  0.00    -0.237 OA
ATOM     69  O   UNL A   1      45.981  35.937  25.757  1.00  0.00    -0.237 OA
ATOM     70  O   UNL A   1      43.679  36.349  26.508  1.00  0.00    -0.744 OA
ENDBRANCH  64  67
ENDBRANCH  37  60
ENDBRANCH  11  12
ENDBRANCH   4   6
ENDBRANCH   1   2
BRANCH   1  71
ATOM     71  C   UNL A   1      37.830  19.671  24.990  1.00  0.00     0.023 C 
BRANCH  71  72
ATOM     72  C   UNL A   1      36.803  20.735  24.627  1.00  0.00     0.023 C 
BRANCH  72  73
ATOM     73  C   UNL A   1      36.660  21.883  25.616  1.00  0.00     0.116 C 
BRANCH  73  74
ATOM     74  N   UNL A   1      35.591  21.720  26.587  1.00  0.00    -0.351 N 
ATOM     75  C   UNL A   1      34.299  22.180  26.572  1.00  0.00     0.281 C 
ATOM     76  H   UNL A   1      35.832  21.196  27.384  1.00  0.00     0.163 HD
ATOM     77  O   UNL A   1      33.517  21.700  27.398  1.00  0.00    -0.268 OA
BRANCH  75  78
ATOM     78  C   UNL A   1      33.860  23.344  25.647  1.00  0.00     0.176 C 
ATOM     79  C   UNL A   1      33.703  22.792  24.208  1.00  0.00     0.079 C 
ATOM     80  N   UNL A   1      32.606  24.008  26.121  1.00  0.00    -0.333 N 
ATOM     81  C   UNL A   1      34.835  24.525  25.635  1.00  0.00     0.088 C 
ATOM     82  C   UNL A   1      34.036  23.820  23.120  1.00  0.00     0.008 C 
ATOM     83  C   UNL A   1      32.689  25.438  25.815  1.00  0.00     0.265 C 
ATOM     84  H   UNL A   1      32.508  23.878  27.128  1.00  0.00     0.347 HD
ATOM     85  H   UNL A   1      31.797  23.598  25.656  1.00  0.00     0.347 HD
ATOM     86  C   UNL A   1      33.949  25.585  24.976  1.00  0.00     0.051 C 
ATOM     87  C   UNL A   1      33.643  25.244  23.500  1.00  0.00     0.010 C 
ENDBRANCH  75  78
ENDBRANCH  73  74
ENDBRANCH  72  73
ENDBRANCH  71  72
ENDBRANCH   1  71
TORSDOF 14
ENDMDL
MODEL 3
REMARK VINA RESULT:     -11.2      6.523     11.850
REMARK SMILES O=C(NCCCCNC(=O)[C@@]12CCC[C@@H](C[NH2+]1)C2)c1ccc(-c2c3nc(c(-c4cccc(S(=O)(=O)[O-])c4F)c4ccc([nH]4)c(-c4cccc(S(=O)(=O)[O-])c4F)c4nc(c(-c5cccc(S(=O)(=O)[O-])c5F)c5ccc2[nH]5)C=C4)C=C3)cc1
REMARK SMILES IDX 4 1 3 2 1 3 2 4 19 6 20 7 81 8 21 9 80 10 22 11 23 12 24 13
REMARK SMILES IDX 74 14 25 15 79 16 73 17 75 18 26 19 78 20 72 21 71 22 27 24
REMARK SMILES IDX 59 25 39 26 58 27 40 28 43 29 57 30 76 31 41 32 42 33 56 35
REMARK SMILES IDX 77 36 44 37 28 38 29 39 37 40 30 41 32 42 38 43 31 44 33 45
REMARK SMILES IDX 34 46 35 47 36 48 60 49 61 50 69 51 62 52 64 53 70 54 63 55
REMARK SMILES IDX 65 56 66 57 67 58 68 59 45 60 46 61 54 62 47 63 49 64 55 65
REMARK SMILES IDX 48 66 50 67 51 68 52 69 53 70 5 71 6 72 7 73 8 74 9 75 10 77
REMARK SMILES IDX 11 78 12 79 17 80 18 81 13 82 16 83 15 86 14 87
REMARK H PARENT 3 5 75 23 43 34 8 76 17 84 17 85
REMARK Flexibility Score: inf
ROOT
ATOM      1  C   UNL A   1      38.989  20.200  25.962  1.00  0.00     0.116 C 
ENDROOT
BRANCH   1   2
ATOM      2  N   UNL A   1      40.086  19.242  25.939  1.00  0.00    -0.352 N 
ATOM      3  O   UNL A   1      42.239  18.564  26.030  1.00  0.00    -0.269 OA
ATOM      4  C   UNL A   1      41.426  19.475  26.142  1.00  0.00     0.251 C 
ATOM      5  H   UNL A   1      39.836  18.308  25.755  1.00  0.00     0.163 HD
BRANCH   4   6
ATOM      6  C   UNL A   1      41.868  20.851  26.453  1.00  0.00     0.039 A 
ATOM      7  C   UNL A   1      42.080  21.235  27.780  1.00  0.00     0.014 A 
ATOM      8  C   UNL A   1      42.007  21.774  25.415  1.00  0.00     0.014 A 
ATOM      9  C   UNL A   1      42.288  22.574  28.080  1.00  0.00     0.010 A 
ATOM     10  C   UNL A   1      42.304  23.105  25.715  1.00  0.00     0.010 A 
ATOM     11  C   UNL A   1      42.420  23.520  27.050  1.00  0.00    -0.014 A 
BRANCH  11  12
ATOM     12  C   UNL A   1      42.809  24.910  27.392  1.00  0.00     0.031 A 
ATOM     13  C   UNL A   1      41.846  25.864  28.040  1.00  0.00     0.074 A 
ATOM     14  C   UNL A   1      44.056  25.305  27.074  1.00  0.00     0.049 A 
ATOM     15  N   UNL A   1      42.043  27.110  28.388  1.00  0.00    -0.248 NA
ATOM     16  C   UNL A   1      40.490  25.370  28.331  1.00  0.00     0.031 C 
ATOM     17  C   UNL A   1      45.051  24.471  26.391  1.00  0.00     0.029 A 
ATOM     18  N   UNL A   1      44.699  26.500  27.262  1.00  0.00    -0.354 N 
ATOM     19  C   UNL A   1      40.831  27.564  28.893  1.00  0.00     0.074 A 
ATOM     20  C   UNL A   1      39.903  26.456  28.819  1.00  0.00     0.031 C 
ATOM     21  C   UNL A   1      46.178  25.177  26.221  1.00  0.00     0.029 A 
ATOM     22  C   UNL A   1      45.967  26.526  26.729  1.00  0.00     0.049 A 
ATOM     23  H   UNL A   1      44.295  27.265  27.731  1.00  0.00     0.167 HD
ATOM     24  C   UNL A   1      40.532  28.792  29.382  1.00  0.00     0.034 A 
ATOM     25  C   UNL A   1      46.854  27.534  26.624  1.00  0.00     0.034 A 
ATOM     26  C   UNL A   1      41.481  29.868  29.494  1.00  0.00     0.049 A 
ATOM     27  C   UNL A   1      46.491  28.873  27.193  1.00  0.00     0.074 A 
ATOM     28  C   UNL A   1      41.308  31.108  30.086  1.00  0.00     0.029 A 
ATOM     29  N   UNL A   1      42.770  29.846  28.986  1.00  0.00    -0.354 N 
ATOM     30  N   UNL A   1      45.402  29.228  27.830  1.00  0.00    -0.248 NA
ATOM     31  C   UNL A   1      47.485  29.944  27.048  1.00  0.00     0.031 C 
ATOM     32  C   UNL A   1      42.481  31.847  29.909  1.00  0.00     0.029 A 
ATOM     33  C   UNL A   1      43.392  31.061  29.221  1.00  0.00     0.049 A 
ATOM     34  H   UNL A   1      43.184  29.080  28.527  1.00  0.00     0.167 HD
ATOM     35  C   UNL A   1      45.581  30.563  28.167  1.00  0.00     0.074 A 
ATOM     36  C   UNL A   1      46.900  30.939  27.701  1.00  0.00     0.031 C 
ATOM     37  C   UNL A   1      44.719  31.409  28.782  1.00  0.00     0.034 A 
BRANCH  24  38
ATOM     38  C   UNL A   1      39.133  29.051  29.875  1.00  0.00     0.023 A 
ATOM     39  C   UNL A   1      38.776  28.674  31.184  1.00  0.00     0.012 A 
ATOM     40  C   UNL A   1      38.220  29.784  29.090  1.00  0.00     0.148 A 
ATOM     41  C   UNL A   1      37.528  29.016  31.704  1.00  0.00     0.002 A 
ATOM     42  C   UNL A   1      36.991  30.150  29.628  1.00  0.00     0.091 A 
ATOM     43  F   UNL A   1      38.575  30.119  27.842  1.00  0.00    -0.205 F 
ATOM     44  C   UNL A   1      36.641  29.764  30.932  1.00  0.00     0.022 A 
BRANCH  42  45
ATOM     45  S   UNL A   1      35.807  31.174  28.744  1.00  0.00     0.127 S 
ATOM     46  O   UNL A   1      34.940  31.626  29.832  1.00  0.00    -0.237 OA
ATOM     47  O   UNL A   1      36.664  32.215  28.176  1.00  0.00    -0.237 OA
ATOM     48  O   UNL A   1      35.171  30.303  27.765  1.00  0.00    -0.744 OA
ENDBRANCH  42  45
ENDBRANCH  24  38
BRANCH  25  49
ATOM     49  C   UNL A   1      48.164  27.297  25.959  1.00  0.00     0.023 A 
ATOM     50  C   UNL A   1      49.245  26.799  26.707  1.00  0.00     0.012 A 
ATOM     51  C   UNL A   1      48.326  27.517  24.576  1.00  0.00     0.148 A 
ATOM     52  C   UNL A   1      50.474  26.546  26.094  1.00  0.00     0.002 A 
ATOM     53  C   UNL A   1      49.532  27.203  23.962  1.00  0.00     0.091 A 
ATOM     54  F   UNL A   1      47.292  28.013  23.881  1.00  0.00    -0.205 F 
ATOM     55  C   UNL A   1      50.613  26.735  24.721  1.00  0.00     0.022 A 
BRANCH  53  56
ATOM     56  S   UNL A   1      49.720  27.273  22.177  1.00  0.00     0.127 S 
ATOM     57  O   UNL A   1      49.473  28.685  21.903  1.00  0.00    -0.237 OA
ATOM     58  O   UNL A   1      51.107  26.842  21.992  1.00  0.00    -0.237 OA
ATOM     59  O   UNL A   1      48.735  26.333  21.657  1.00  0.00    -0.744 OA
ENDBRANCH  53  56
ENDBRANCH  25  49
BRANCH  37  60
ATOM     60  C   UNL A   1      45.173  32.829  28.976  1.00  0.00     0.023 A 
ATOM     61  C   UNL A   1      45.882  33.171  30.144  1.00  0.00     0.012 A 
ATOM     62  C   UNL A   1      44.956  33.804  27.985  1.00  0.00     0.148 A 
ATOM     63  C   UNL A   1      46.342  34.472  30.337  1.00  0.00     0.002 A 
ATOM     64  C   UNL A   1      45.456  35.087  28.163  1.00  0.00     0.091 A 
ATOM     65  F   UNL A   1      44.262  33.460  26.889  1.00  0.00    -0.205 F 
ATOM     66  C   UNL A   1      46.140  35.426  29.342  1.00  0.00     0.022 A 
BRANCH  64  67
ATOM     67  S   UNL A   1      45.319  36.359  26.903  1.00  0.00     0.127 S 
ATOM     68  O   UNL A   1      46.050  35.755  25.790  1.00  0.00    -0.237 OA
ATOM     69  O   UNL A   1      43.872  36.450  26.707  1.00  0.00    -0.237 OA
ATOM     70  O   UNL A   1      45.927  37.555  27.471  1.00  0.00    -0.744 OA
ENDBRANCH  64  67
ENDBRANCH  37  60
ENDBRANCH  11  12
ENDBRANCH   4   6
ENDBRANCH   1   2
BRANCH   1  71
ATOM     71  C   UNL A   1      37.951  19.988  24.868  1.00  0.00     0.023 C 
BRANCH  71  72
ATOM     72  C   UNL A   1      36.977  21.138  24.647  1.00  0.00     0.023 C 
BRANCH  72  73
ATOM     73  C   UNL A   1      35.658  21.044  25.402  1.00  0.00     0.116 C 
BRANCH  73  74
ATOM     74  N   UNL A   1      34.475  21.273  24.590  1.00  0.00    -0.351 N 
ATOM     75  C   UNL A   1      33.373  20.483  24.381  1.00  0.00     0.281 C 
ATOM     76  H   UNL A   1      34.461  22.134  24.112  1.00  0.00     0.163 HD
ATOM     77  O   UNL A   1      32.393  21.008  23.843  1.00  0.00    -0.268 OA
BRANCH  75  78
ATOM     78  C   UNL A   1      33.392  18.964  24.687  1.00  0.00     0.176 C 
ATOM     79  C   UNL A   1      34.736  18.380  24.185  1.00  0.00     0.079 C 
ATOM     80  N   UNL A   1      33.173  18.672  26.138  1.00  0.00    -0.333 N 
ATOM     81  C   UNL A   1      32.233  18.191  24.051  1.00  0.00     0.088 C 
ATOM     82  C   UNL A   1      34.630  16.929  23.703  1.00  0.00     0.008 C 
ATOM     83  C   UNL A   1      32.408  17.428  26.254  1.00  0.00     0.265 C 
ATOM     84  H   UNL A   1      32.652  19.436  26.567  1.00  0.00     0.347 HD
ATOM     85  H   UNL A   1      34.069  18.575  26.613  1.00  0.00     0.347 HD
ATOM     86  C   UNL A   1      32.332  16.882  24.837  1.00  0.00     0.051 C 
ATOM     87  C   UNL A   1      33.624  16.104  24.501  1.00  0.00     0.010 C 
ENDBRANCH  75  78
ENDBRANCH  73  74
ENDBRANCH  72  73
ENDBRANCH  71  72
ENDBRANCH   1  71
TORSDOF 14
ENDMDL
