MODEL 1
REMARK VINA RESULT:     -13.9      0.000      0.000
REMARK SMILES O=C(NCCCCNC(=O)c1ccc([C@@H]2CC(O)=Nc3c2ncn3-c2cccc(Cl)c2)cc1)c1ccc(-c2c3nc(c(-c4cccc(S(=O)(=O)[O-])c4F)c4ccc([nH]4)c(-c4cccc(S(=O)(=O)[O-])c4F)c4nc(c(-c5cccc(S(=O)(=O)[O-])c5F)c5ccc2[nH]5)C=C4)C=C3)cc1
REMARK SMILES IDX 5 1 4 2 3 3 1 4 2 5 34 7 35 8 96 9 36 10 95 11 37 12 38 13
REMARK SMILES IDX 39 14 89 15 40 16 94 17 88 18 90 19 41 20 93 21 87 22 86 23
REMARK SMILES IDX 42 25 74 26 54 27 73 28 55 29 58 30 72 31 91 32 56 33 57 34
REMARK SMILES IDX 71 36 92 37 59 38 43 39 44 40 52 41 45 42 47 43 53 44 46 45
REMARK SMILES IDX 48 46 49 47 50 48 51 49 75 50 76 51 84 52 77 53 79 54 85 55
REMARK SMILES IDX 78 56 80 57 81 58 82 59 83 60 60 61 61 62 69 63 62 64 64 65
REMARK SMILES IDX 70 66 63 67 65 68 66 69 67 70 68 71 6 72 7 73 8 74 9 75
REMARK SMILES IDX 10 77 11 78 12 79 33 80 13 81 32 82 14 83 15 84 16 85 21 86
REMARK SMILES IDX 17 87 20 88 22 89 19 90 24 91 23 92 18 93 25 95 26 96 31 97
REMARK SMILES IDX 27 98 29 99 28 100 30 101
REMARK H PARENT 3 6 90 24 58 35 8 76 18 94
REMARK Flexibility Score: inf
ROOT
ATOM      1  C   UNL A   1      32.714  29.691  27.266  1.00  0.00     0.023 C 
ENDROOT
BRANCH   1   2
ATOM      2  C   UNL A   1      34.118  30.291  27.346  1.00  0.00     0.116 C 
BRANCH   2   3
ATOM      3  N   UNL A   1      34.338  31.182  28.464  1.00  0.00    -0.352 N 
ATOM      4  O   UNL A   1      35.304  32.516  29.939  1.00  0.00    -0.269 OA
ATOM      5  C   UNL A   1      35.454  31.582  29.149  1.00  0.00     0.251 C 
ATOM      6  H   UNL A   1      33.508  31.586  28.806  1.00  0.00     0.163 HD
BRANCH   5   7
ATOM      7  C   UNL A   1      36.765  30.892  29.072  1.00  0.00     0.039 A 
ATOM      8  C   UNL A   1      36.943  29.528  28.826  1.00  0.00     0.014 A 
ATOM      9  C   UNL A   1      37.888  31.689  29.346  1.00  0.00     0.014 A 
ATOM     10  C   UNL A   1      38.179  28.936  29.019  1.00  0.00     0.010 A 
ATOM     11  C   UNL A   1      39.137  31.111  29.501  1.00  0.00     0.010 A 
ATOM     12  C   UNL A   1      39.258  29.726  29.403  1.00  0.00    -0.014 A 
BRANCH  12  13
ATOM     13  C   UNL A   1      40.551  29.082  29.574  1.00  0.00     0.031 A 
ATOM     14  C   UNL A   1      40.933  28.830  30.995  1.00  0.00     0.074 A 
ATOM     15  C   UNL A   1      41.223  28.610  28.505  1.00  0.00     0.049 A 
ATOM     16  N   UNL A   1      42.023  29.157  31.614  1.00  0.00    -0.248 NA
ATOM     17  C   UNL A   1      39.905  28.242  31.875  1.00  0.00     0.031 C 
ATOM     18  C   UNL A   1      40.767  28.581  27.110  1.00  0.00     0.029 A 
ATOM     19  N   UNL A   1      42.375  27.884  28.466  1.00  0.00    -0.354 N 
ATOM     20  C   UNL A   1      41.901  28.615  32.897  1.00  0.00     0.074 A 
ATOM     21  C   UNL A   1      40.526  28.227  33.052  1.00  0.00     0.031 C 
ATOM     22  C   UNL A   1      41.467  27.641  26.439  1.00  0.00     0.029 A 
ATOM     23  C   UNL A   1      42.485  27.100  27.319  1.00  0.00     0.049 A 
ATOM     24  H   UNL A   1      43.058  27.911  29.173  1.00  0.00     0.167 HD
ATOM     25  C   UNL A   1      42.984  28.291  33.654  1.00  0.00     0.034 A 
ATOM     26  C   UNL A   1      43.265  26.000  27.166  1.00  0.00     0.034 A 
ATOM     27  C   UNL A   1      44.174  28.963  33.211  1.00  0.00     0.049 A 
ATOM     28  C   UNL A   1      44.300  26.039  28.223  1.00  0.00     0.074 A 
ATOM     29  C   UNL A   1      44.567  30.280  33.090  1.00  0.00     0.029 A 
ATOM     30  N   UNL A   1      45.064  28.235  32.462  1.00  0.00    -0.354 N 
ATOM     31  N   UNL A   1      45.224  26.956  28.290  1.00  0.00    -0.248 NA
ATOM     32  C   UNL A   1      44.028  25.327  29.462  1.00  0.00     0.031 C 
ATOM     33  C   UNL A   1      45.341  30.318  31.894  1.00  0.00     0.029 A 
ATOM     34  C   UNL A   1      45.417  29.017  31.394  1.00  0.00     0.049 A 
ATOM     35  H   UNL A   1      45.388  27.326  32.656  1.00  0.00     0.167 HD
ATOM     36  C   UNL A   1      45.322  27.249  29.644  1.00  0.00     0.074 A 
ATOM     37  C   UNL A   1      44.635  26.150  30.323  1.00  0.00     0.031 C 
ATOM     38  C   UNL A   1      45.685  28.494  30.074  1.00  0.00     0.034 A 
BRANCH  25  39
ATOM     39  C   UNL A   1      43.049  27.085  34.562  1.00  0.00     0.023 A 
ATOM     40  C   UNL A   1      42.887  27.297  35.948  1.00  0.00     0.012 A 
ATOM     41  C   UNL A   1      43.547  25.823  34.160  1.00  0.00     0.148 A 
ATOM     42  C   UNL A   1      43.249  26.323  36.887  1.00  0.00     0.002 A 
ATOM     43  C   UNL A   1      43.832  24.831  35.092  1.00  0.00     0.091 A 
ATOM     44  F   UNL A   1      43.882  25.610  32.885  1.00  0.00    -0.205 F 
ATOM     45  C   UNL A   1      43.715  25.087  36.459  1.00  0.00     0.022 A 
BRANCH  43  46
ATOM     46  S   UNL A   1      44.399  23.203  34.585  1.00  0.00     0.127 S 
ATOM     47  O   UNL A   1      45.620  23.534  33.857  1.00  0.00    -0.237 OA
ATOM     48  O   UNL A   1      44.606  22.543  35.876  1.00  0.00    -0.237 OA
ATOM     49  O   UNL A   1      43.308  22.641  33.799  1.00  0.00    -0.744 OA
ENDBRANCH  43  46
ENDBRANCH  25  39
BRANCH  26  50
ATOM     50  C   UNL A   1      42.953  24.764  26.407  1.00  0.00     0.023 A 
ATOM     51  C   UNL A   1      43.808  24.333  25.375  1.00  0.00     0.012 A 
ATOM     52  C   UNL A   1      41.955  23.870  26.860  1.00  0.00     0.148 A 
ATOM     53  C   UNL A   1      43.678  23.053  24.819  1.00  0.00     0.002 A 
ATOM     54  C   UNL A   1      41.818  22.607  26.294  1.00  0.00     0.091 A 
ATOM     55  F   UNL A   1      41.200  24.221  27.907  1.00  0.00    -0.205 F 
ATOM     56  C   UNL A   1      42.687  22.190  25.279  1.00  0.00     0.022 A 
BRANCH  54  57
ATOM     57  S   UNL A   1      40.564  21.442  26.844  1.00  0.00     0.127 S 
ATOM     58  O   UNL A   1      40.868  21.324  28.271  1.00  0.00    -0.237 OA
ATOM     59  O   UNL A   1      39.329  22.160  26.539  1.00  0.00    -0.237 OA
ATOM     60  O   UNL A   1      40.792  20.221  26.081  1.00  0.00    -0.744 OA
ENDBRANCH  54  57
ENDBRANCH  26  50
BRANCH  38  61
ATOM     61  C   UNL A   1      46.146  29.495  29.043  1.00  0.00     0.023 A 
ATOM     62  C   UNL A   1      47.469  29.506  28.551  1.00  0.00     0.012 A 
ATOM     63  C   UNL A   1      45.186  30.308  28.423  1.00  0.00     0.148 A 
ATOM     64  C   UNL A   1      47.832  30.327  27.479  1.00  0.00     0.002 A 
ATOM     65  C   UNL A   1      45.540  31.091  27.329  1.00  0.00     0.091 A 
ATOM     66  F   UNL A   1      43.929  30.272  28.889  1.00  0.00    -0.205 F 
ATOM     67  C   UNL A   1      46.864  31.111  26.861  1.00  0.00     0.022 A 
BRANCH  65  68
ATOM     68  S   UNL A   1      44.320  32.027  26.406  1.00  0.00     0.127 S 
ATOM     69  O   UNL A   1      43.328  31.002  26.085  1.00  0.00    -0.237 OA
ATOM     70  O   UNL A   1      43.880  33.019  27.388  1.00  0.00    -0.237 OA
ATOM     71  O   UNL A   1      45.025  32.593  25.263  1.00  0.00    -0.744 OA
ENDBRANCH  65  68
ENDBRANCH  38  61
ENDBRANCH  12  13
ENDBRANCH   5   7
ENDBRANCH   2   3
ENDBRANCH   1   2
BRANCH   1  72
ATOM     72  C   UNL A   1      31.918  30.081  26.020  1.00  0.00     0.023 C 
BRANCH  72  73
ATOM     73  C   UNL A   1      32.583  29.744  24.693  1.00  0.00     0.116 C 
BRANCH  73  74
ATOM     74  N   UNL A   1      31.659  29.176  23.721  1.00  0.00    -0.352 N 
ATOM     75  C   UNL A   1      31.519  27.864  23.350  1.00  0.00     0.251 C 
ATOM     76  H   UNL A   1      31.059  29.815  23.273  1.00  0.00     0.163 HD
ATOM     77  O   UNL A   1      30.759  27.537  22.440  1.00  0.00    -0.269 OA
BRANCH  75  78
ATOM     78  C   UNL A   1      32.317  26.836  24.042  1.00  0.00     0.039 A 
ATOM     79  C   UNL A   1      32.024  26.547  25.374  1.00  0.00     0.014 A 
ATOM     80  C   UNL A   1      33.318  26.133  23.364  1.00  0.00     0.014 A 
ATOM     81  C   UNL A   1      32.691  25.501  26.011  1.00  0.00     0.005 A 
ATOM     82  C   UNL A   1      33.971  25.078  23.996  1.00  0.00     0.005 A 
ATOM     83  C   UNL A   1      33.659  24.742  25.326  1.00  0.00    -0.038 A 
BRANCH  83  84
ATOM     84  C   UNL A   1      34.362  23.611  26.054  1.00  0.00     0.081 C 
ATOM     85  C   UNL A   1      35.859  23.532  25.688  1.00  0.00     0.111 C 
ATOM     86  C   UNL A   1      33.647  22.357  25.704  1.00  0.00     0.093 A 
ATOM     87  C   UNL A   1      36.264  22.311  24.880  1.00  0.00     0.188 C 
ATOM     88  C   UNL A   1      34.297  21.303  25.104  1.00  0.00     0.164 A 
ATOM     89  N   UNL A   1      32.317  22.090  25.889  1.00  0.00    -0.238 NA
ATOM     90  N   UNL A   1      35.573  21.243  24.652  1.00  0.00    -0.198 NA
ATOM     91  N   UNL A   1      33.327  20.336  24.913  1.00  0.00    -0.283 N 
ATOM     92  C   UNL A   1      32.145  20.897  25.354  1.00  0.00     0.206 A 
BRANCH  87  93
ATOM     93  O   UNL A   1      37.522  22.370  24.395  1.00  0.00    -0.496 OA
ATOM     94  H   UNL A   1      38.252  22.304  24.979  1.00  0.00     0.294 HD
ENDBRANCH  87  93
BRANCH  91  95
ATOM     95  C   UNL A   1      33.508  19.040  24.379  1.00  0.00     0.050 A 
ATOM     96  C   UNL A   1      32.847  18.660  23.206  1.00  0.00     0.027 A 
ATOM     97  C   UNL A   1      34.365  18.144  25.034  1.00  0.00     0.047 A 
ATOM     98  C   UNL A   1      33.089  17.395  22.664  1.00  0.00     0.004 A 
ATOM     99  C   UNL A   1      34.555  16.869  24.510  1.00  0.00     0.043 A 
ATOM    100  C   UNL A   1      33.935  16.497  23.318  1.00  0.00     0.020 A 
ATOM    101  Cl  UNL A   1      35.549  15.741  25.348  1.00  0.00    -0.084 Cl
ENDBRANCH  91  95
ENDBRANCH  83  84
ENDBRANCH  75  78
ENDBRANCH  73  74
ENDBRANCH  72  73
ENDBRANCH   1  72
TORSDOF 17
ENDMDL
MODEL 2
REMARK VINA RESULT:     -13.7      3.489      8.298
REMARK SMILES O=C(NCCCCNC(=O)c1ccc([C@@H]2CC(O)=Nc3c2ncn3-c2cccc(Cl)c2)cc1)c1ccc(-c2c3nc(c(-c4cccc(S(=O)(=O)[O-])c4F)c4ccc([nH]4)c(-c4cccc(S(=O)(=O)[O-])c4F)c4nc(c(-c5cccc(S(=O)(=O)[O-])c5F)c5ccc2[nH]5)C=C4)C=C3)cc1
REMARK SMILES IDX 5 1 4 2 3 3 1 4 2 5 34 7 35 8 96 9 36 10 95 11 37 12 38 13
REMARK SMILES IDX 39 14 89 15 40 16 94 17 88 18 90 19 41 20 93 21 87 22 86 23
REMARK SMILES IDX 42 25 74 26 54 27 73 28 55 29 58 30 72 31 91 32 56 33 57 34
REMARK SMILES IDX 71 36 92 37 59 38 43 39 44 40 52 41 45 42 47 43 53 44 46 45
REMARK SMILES IDX 48 46 49 47 50 48 51 49 75 50 76 51 84 52 77 53 79 54 85 55
REMARK SMILES IDX 78 56 80 57 81 58 82 59 83 60 60 61 61 62 69 63 62 64 64 65
REMARK SMILES IDX 70 66 63 67 65 68 66 69 67 70 68 71 6 72 7 73 8 74 9 75
REMARK SMILES IDX 10 77 11 78 12 79 33 80 13 81 32 82 14 83 15 84 16 85 21 86
REMARK SMILES IDX 17 87 20 88 22 89 19 90 24 91 23 92 18 93 25 95 26 96 31 97
REMARK SMILES IDX 27 98 29 99 28 100 30 101
REMARK H PARENT 3 6 90 24 58 35 8 76 18 94
REMARK Flexibility Score: inf
ROOT
ATOM      1  C   UNL A   1      38.937  20.742  25.339  1.00  0.00     0.023 C 
ENDROOT
BRANCH   1   2
ATOM      2  C   UNL A   1      39.111  19.290  25.783  1.00  0.00     0.116 C 
BRANCH   2   3
ATOM      3  N   UNL A   1      40.420  18.728  25.530  1.00  0.00    -0.352 N 
ATOM      4  O   UNL A   1      42.565  18.218  25.701  1.00  0.00    -0.269 OA
ATOM      5  C   UNL A   1      41.681  19.036  25.965  1.00  0.00     0.251 C 
ATOM      6  H   UNL A   1      40.400  17.961  24.914  1.00  0.00     0.163 HD
BRANCH   5   7
ATOM      7  C   UNL A   1      42.041  20.319  26.619  1.00  0.00     0.039 A 
ATOM      8  C   UNL A   1      41.766  20.649  27.949  1.00  0.00     0.014 A 
ATOM      9  C   UNL A   1      42.636  21.279  25.786  1.00  0.00     0.014 A 
ATOM     10  C   UNL A   1      41.916  21.951  28.393  1.00  0.00     0.010 A 
ATOM     11  C   UNL A   1      42.827  22.575  26.235  1.00  0.00     0.010 A 
ATOM     12  C   UNL A   1      42.401  22.916  27.517  1.00  0.00    -0.014 A 
BRANCH  12  13
ATOM     13  C   UNL A   1      42.572  24.271  28.018  1.00  0.00     0.031 A 
ATOM     14  C   UNL A   1      41.354  25.128  27.913  1.00  0.00     0.074 A 
ATOM     15  C   UNL A   1      43.697  24.616  28.677  1.00  0.00     0.049 A 
ATOM     16  N   UNL A   1      41.230  26.303  27.383  1.00  0.00    -0.248 NA
ATOM     17  C   UNL A   1      40.076  24.537  28.352  1.00  0.00     0.031 C 
ATOM     18  C   UNL A   1      44.812  23.738  29.053  1.00  0.00     0.029 A 
ATOM     19  N   UNL A   1      43.996  25.781  29.314  1.00  0.00    -0.354 N 
ATOM     20  C   UNL A   1      39.907  26.683  27.625  1.00  0.00     0.074 A 
ATOM     21  C   UNL A   1      39.209  25.504  28.057  1.00  0.00     0.031 C 
ATOM     22  C   UNL A   1      45.491  24.304  30.073  1.00  0.00     0.029 A 
ATOM     23  C   UNL A   1      44.936  25.619  30.331  1.00  0.00     0.049 A 
ATOM     24  H   UNL A   1      43.591  26.647  29.081  1.00  0.00     0.167 HD
ATOM     25  C   UNL A   1      39.529  27.989  27.696  1.00  0.00     0.034 A 
ATOM     26  C   UNL A   1      45.139  26.452  31.382  1.00  0.00     0.034 A 
ATOM     27  C   UNL A   1      40.479  28.862  27.065  1.00  0.00     0.049 A 
ATOM     28  C   UNL A   1      44.538  27.760  31.036  1.00  0.00     0.074 A 
ATOM     29  C   UNL A   1      40.980  29.005  25.788  1.00  0.00     0.029 A 
ATOM     30  N   UNL A   1      41.337  29.552  27.884  1.00  0.00    -0.354 N 
ATOM     31  N   UNL A   1      44.975  28.517  30.068  1.00  0.00    -0.248 NA
ATOM     32  C   UNL A   1      43.170  28.010  31.462  1.00  0.00     0.031 C 
ATOM     33  C   UNL A   1      42.355  29.333  25.973  1.00  0.00     0.029 A 
ATOM     34  C   UNL A   1      42.590  29.422  27.346  1.00  0.00     0.049 A 
ATOM     35  H   UNL A   1      41.099  30.045  28.702  1.00  0.00     0.167 HD
ATOM     36  C   UNL A   1      43.823  29.010  29.468  1.00  0.00     0.074 A 
ATOM     37  C   UNL A   1      42.750  28.744  30.427  1.00  0.00     0.031 C 
ATOM     38  C   UNL A   1      43.794  29.316  28.137  1.00  0.00     0.034 A 
BRANCH  25  39
ATOM     39  C   UNL A   1      38.488  28.516  28.656  1.00  0.00     0.023 A 
ATOM     40  C   UNL A   1      37.468  29.340  28.131  1.00  0.00     0.012 A 
ATOM     41  C   UNL A   1      38.627  28.486  30.063  1.00  0.00     0.148 A 
ATOM     42  C   UNL A   1      36.664  30.130  28.961  1.00  0.00     0.002 A 
ATOM     43  C   UNL A   1      37.776  29.213  30.888  1.00  0.00     0.091 A 
ATOM     44  F   UNL A   1      39.670  27.864  30.620  1.00  0.00    -0.205 F 
ATOM     45  C   UNL A   1      36.813  30.062  30.341  1.00  0.00     0.022 A 
BRANCH  43  46
ATOM     46  S   UNL A   1      37.904  29.127  32.678  1.00  0.00     0.127 S 
ATOM     47  O   UNL A   1      39.202  29.754  32.907  1.00  0.00    -0.237 OA
ATOM     48  O   UNL A   1      36.749  29.922  33.099  1.00  0.00    -0.237 OA
ATOM     49  O   UNL A   1      37.802  27.711  33.005  1.00  0.00    -0.744 OA
ENDBRANCH  43  46
ENDBRANCH  25  39
BRANCH  26  50
ATOM     50  C   UNL A   1      45.489  26.087  32.777  1.00  0.00     0.023 A 
ATOM     51  C   UNL A   1      46.435  26.845  33.491  1.00  0.00     0.012 A 
ATOM     52  C   UNL A   1      44.711  25.148  33.495  1.00  0.00     0.148 A 
ATOM     53  C   UNL A   1      46.597  26.681  34.873  1.00  0.00     0.002 A 
ATOM     54  C   UNL A   1      44.887  24.974  34.864  1.00  0.00     0.091 A 
ATOM     55  F   UNL A   1      43.737  24.491  32.854  1.00  0.00    -0.205 F 
ATOM     56  C   UNL A   1      45.822  25.748  35.560  1.00  0.00     0.022 A 
BRANCH  54  57
ATOM     57  S   UNL A   1      43.917  23.793  35.811  1.00  0.00     0.127 S 
ATOM     58  O   UNL A   1      44.004  22.594  34.976  1.00  0.00    -0.237 OA
ATOM     59  O   UNL A   1      44.664  23.722  37.063  1.00  0.00    -0.237 OA
ATOM     60  O   UNL A   1      42.577  24.361  35.903  1.00  0.00    -0.744 OA
ENDBRANCH  54  57
ENDBRANCH  26  50
BRANCH  38  61
ATOM     61  C   UNL A   1      45.093  29.269  27.369  1.00  0.00     0.023 A 
ATOM     62  C   UNL A   1      46.016  30.337  27.395  1.00  0.00     0.012 A 
ATOM     63  C   UNL A   1      45.475  28.059  26.771  1.00  0.00     0.148 A 
ATOM     64  C   UNL A   1      47.282  30.210  26.818  1.00  0.00     0.002 A 
ATOM     65  C   UNL A   1      46.751  27.920  26.236  1.00  0.00     0.091 A 
ATOM     66  F   UNL A   1      44.595  27.047  26.772  1.00  0.00    -0.205 F 
ATOM     67  C   UNL A   1      47.654  28.997  26.248  1.00  0.00     0.022 A 
BRANCH  65  68
ATOM     68  S   UNL A   1      47.341  26.350  25.602  1.00  0.00     0.127 S 
ATOM     69  O   UNL A   1      48.720  26.669  25.233  1.00  0.00    -0.237 OA
ATOM     70  O   UNL A   1      47.206  25.473  26.766  1.00  0.00    -0.237 OA
ATOM     71  O   UNL A   1      46.462  26.006  24.492  1.00  0.00    -0.744 OA
ENDBRANCH  65  68
ENDBRANCH  38  61
ENDBRANCH  12  13
ENDBRANCH   5   7
ENDBRANCH   2   3
ENDBRANCH   1   2
BRANCH   1  72
ATOM     72  C   UNL A   1      37.552  21.085  24.788  1.00  0.00     0.023 C 
BRANCH  72  73
ATOM     73  C   UNL A   1      36.424  21.066  25.810  1.00  0.00     0.116 C 
BRANCH  73  74
ATOM     74  N   UNL A   1      35.232  20.381  25.329  1.00  0.00    -0.352 N 
ATOM     75  C   UNL A   1      34.050  20.932  24.905  1.00  0.00     0.251 C 
ATOM     76  H   UNL A   1      35.280  19.398  25.306  1.00  0.00     0.163 HD
ATOM     77  O   UNL A   1      33.086  20.225  24.616  1.00  0.00    -0.269 OA
BRANCH  75  78
ATOM     78  C   UNL A   1      33.934  22.399  24.823  1.00  0.00     0.039 A 
ATOM     79  C   UNL A   1      33.319  23.080  25.872  1.00  0.00     0.014 A 
ATOM     80  C   UNL A   1      34.470  23.098  23.737  1.00  0.00     0.014 A 
ATOM     81  C   UNL A   1      33.300  24.474  25.866  1.00  0.00     0.005 A 
ATOM     82  C   UNL A   1      34.465  24.490  23.741  1.00  0.00     0.005 A 
ATOM     83  C   UNL A   1      33.887  25.197  24.811  1.00  0.00    -0.038 A 
BRANCH  83  84
ATOM     84  C   UNL A   1      33.847  26.714  24.841  1.00  0.00     0.081 C 
ATOM     85  C   UNL A   1      33.655  27.258  26.273  1.00  0.00     0.111 C 
ATOM     86  C   UNL A   1      32.743  27.139  23.942  1.00  0.00     0.093 A 
ATOM     87  C   UNL A   1      32.316  27.928  26.536  1.00  0.00     0.188 C 
ATOM     88  C   UNL A   1      31.694  27.901  24.404  1.00  0.00     0.164 A 
ATOM     89  N   UNL A   1      32.599  26.831  22.617  1.00  0.00    -0.238 NA
ATOM     90  N   UNL A   1      31.424  28.288  25.674  1.00  0.00    -0.198 NA
ATOM     91  N   UNL A   1      30.865  28.079  23.312  1.00  0.00    -0.283 N 
ATOM     92  C   UNL A   1      31.438  27.360  22.281  1.00  0.00     0.206 A 
BRANCH  87  93
ATOM     93  O   UNL A   1      32.091  28.203  27.837  1.00  0.00    -0.496 OA
ATOM     94  H   UNL A   1      31.698  29.018  28.083  1.00  0.00     0.294 HD
ENDBRANCH  87  93
BRANCH  91  95
ATOM     95  C   UNL A   1      29.677  28.843  23.259  1.00  0.00     0.050 A 
ATOM     96  C   UNL A   1      28.431  28.209  23.178  1.00  0.00     0.027 A 
ATOM     97  C   UNL A   1      29.760  30.242  23.300  1.00  0.00     0.047 A 
ATOM     98  C   UNL A   1      27.268  28.983  23.188  1.00  0.00     0.004 A 
ATOM     99  C   UNL A   1      28.594  31.000  23.256  1.00  0.00     0.043 A 
ATOM    100  C   UNL A   1      27.348  30.377  23.220  1.00  0.00     0.020 A 
ATOM    101  Cl  UNL A   1      28.694  32.719  23.233  1.00  0.00    -0.084 Cl
ENDBRANCH  91  95
ENDBRANCH  83  84
ENDBRANCH  75  78
ENDBRANCH  73  74
ENDBRANCH  72  73
ENDBRANCH   1  72
TORSDOF 17
ENDMDL
MODEL 3
REMARK VINA RESULT:     -13.7      3.466      8.739
REMARK SMILES O=C(NCCCCNC(=O)c1ccc([C@@H]2CC(O)=Nc3c2ncn3-c2cccc(Cl)c2)cc1)c1ccc(-c2c3nc(c(-c4cccc(S(=O)(=O)[O-])c4F)c4ccc([nH]4)c(-c4cccc(S(=O)(=O)[O-])c4F)c4nc(c(-c5cccc(S(=O)(=O)[O-])c5F)c5ccc2[nH]5)C=C4)C=C3)cc1
REMARK SMILES IDX 5 1 4 2 3 3 1 4 2 5 34 7 35 8 96 9 36 10 95 11 37 12 38 13
REMARK SMILES IDX 39 14 89 15 40 16 94 17 88 18 90 19 41 20 93 21 87 22 86 23
REMARK SMILES IDX 42 25 74 26 54 27 73 28 55 29 58 30 72 31 91 32 56 33 57 34
REMARK SMILES IDX 71 36 92 37 59 38 43 39 44 40 52 41 45 42 47 43 53 44 46 45
REMARK SMILES IDX 48 46 49 47 50 48 51 49 75 50 76 51 84 52 77 53 79 54 85 55
REMARK SMILES IDX 78 56 80 57 81 58 82 59 83 60 60 61 61 62 69 63 62 64 64 65
REMARK SMILES IDX 70 66 63 67 65 68 66 69 67 70 68 71 6 72 7 73 8 74 9 75
REMARK SMILES IDX 10 77 11 78 12 79 33 80 13 81 32 82 14 83 15 84 16 85 21 86
REMARK SMILES IDX 17 87 20 88 22 89 19 90 24 91 23 92 18 93 25 95 26 96 31 97
REMARK SMILES IDX 27 98 29 99 28 100 30 101
REMARK H PARENT 3 6 90 24 58 35 8 76 18 94
REMARK Flexibility Score: inf
ROOT
ATOM      1  C   UNL A   1      38.046  19.712  24.568  1.00  0.00     0.023 C 
ENDROOT
BRANCH   1   2
ATOM      2  C   UNL A   1      38.754  19.117  25.786  1.00  0.00     0.116 C 
BRANCH   2   3
ATOM      3  N   UNL A   1      40.138  18.755  25.570  1.00  0.00    -0.352 N 
ATOM      4  O   UNL A   1      42.338  18.628  25.753  1.00  0.00    -0.269 OA
ATOM      5  C   UNL A   1      41.330  19.312  25.946  1.00  0.00     0.251 C 
ATOM      6  H   UNL A   1      40.245  17.934  25.038  1.00  0.00     0.163 HD
BRANCH   5   7
ATOM      7  C   UNL A   1      41.474  20.699  26.454  1.00  0.00     0.039 A 
ATOM      8  C   UNL A   1      42.134  21.735  25.788  1.00  0.00     0.014 A 
ATOM      9  C   UNL A   1      40.960  20.932  27.739  1.00  0.00     0.014 A 
ATOM     10  C   UNL A   1      42.431  22.916  26.446  1.00  0.00     0.010 A 
ATOM     11  C   UNL A   1      41.216  22.127  28.391  1.00  0.00     0.010 A 
ATOM     12  C   UNL A   1      42.010  23.084  27.761  1.00  0.00    -0.014 A 
BRANCH  12  13
ATOM     13  C   UNL A   1      42.313  24.344  28.421  1.00  0.00     0.031 A 
ATOM     14  C   UNL A   1      41.299  25.419  28.197  1.00  0.00     0.074 A 
ATOM     15  C   UNL A   1      43.336  24.428  29.294  1.00  0.00     0.049 A 
ATOM     16  N   UNL A   1      41.479  26.630  27.776  1.00  0.00    -0.248 NA
ATOM     17  C   UNL A   1      39.880  25.047  28.347  1.00  0.00     0.031 C 
ATOM     18  C   UNL A   1      44.195  23.333  29.764  1.00  0.00     0.029 A 
ATOM     19  N   UNL A   1      43.705  25.469  30.089  1.00  0.00    -0.354 N 
ATOM     20  C   UNL A   1      40.219  27.233  27.825  1.00  0.00     0.074 A 
ATOM     21  C   UNL A   1      39.262  26.176  28.008  1.00  0.00     0.031 C 
ATOM     22  C   UNL A   1      44.758  23.691  30.938  1.00  0.00     0.029 A 
ATOM     23  C   UNL A   1      44.396  25.064  31.230  1.00  0.00     0.049 A 
ATOM     24  H   UNL A   1      43.504  26.410  29.881  1.00  0.00     0.167 HD
ATOM     25  C   UNL A   1      40.062  28.577  27.963  1.00  0.00     0.034 A 
ATOM     26  C   UNL A   1      44.537  25.770  32.380  1.00  0.00     0.034 A 
ATOM     27  C   UNL A   1      41.248  29.300  27.598  1.00  0.00     0.049 A 
ATOM     28  C   UNL A   1      44.244  27.188  32.072  1.00  0.00     0.074 A 
ATOM     29  C   UNL A   1      41.996  29.437  26.447  1.00  0.00     0.029 A 
ATOM     30  N   UNL A   1      42.043  29.759  28.619  1.00  0.00    -0.354 N 
ATOM     31  N   UNL A   1      44.977  27.916  31.276  1.00  0.00    -0.248 NA
ATOM     32  C   UNL A   1      42.883  27.657  32.280  1.00  0.00     0.031 C 
ATOM     33  C   UNL A   1      43.347  29.489  26.898  1.00  0.00     0.029 A 
ATOM     34  C   UNL A   1      43.334  29.437  28.293  1.00  0.00     0.049 A 
ATOM     35  H   UNL A   1      41.743  30.230  29.430  1.00  0.00     0.167 HD
ATOM     36  C   UNL A   1      44.058  28.655  30.542  1.00  0.00     0.074 A 
ATOM     37  C   UNL A   1      42.796  28.527  31.269  1.00  0.00     0.031 C 
ATOM     38  C   UNL A   1      44.332  29.053  29.264  1.00  0.00     0.034 A 
BRANCH  25  39
ATOM     39  C   UNL A   1      38.965  29.220  28.780  1.00  0.00     0.023 A 
ATOM     40  C   UNL A   1      38.832  28.823  30.129  1.00  0.00     0.012 A 
ATOM     41  C   UNL A   1      37.895  29.957  28.220  1.00  0.00     0.148 A 
ATOM     42  C   UNL A   1      37.673  29.102  30.865  1.00  0.00     0.002 A 
ATOM     43  C   UNL A   1      36.781  30.299  28.978  1.00  0.00     0.091 A 
ATOM     44  F   UNL A   1      37.877  30.221  26.911  1.00  0.00    -0.205 F 
ATOM     45  C   UNL A   1      36.650  29.846  30.292  1.00  0.00     0.022 A 
BRANCH  43  46
ATOM     46  S   UNL A   1      35.450  31.293  28.293  1.00  0.00     0.127 S 
ATOM     47  O   UNL A   1      34.747  30.313  27.471  1.00  0.00    -0.237 OA
ATOM     48  O   UNL A   1      34.738  31.713  29.502  1.00  0.00    -0.237 OA
ATOM     49  O   UNL A   1      36.107  32.382  27.582  1.00  0.00    -0.744 OA
ENDBRANCH  43  46
ENDBRANCH  25  39
BRANCH  26  50
ATOM     50  C   UNL A   1      44.553  25.248  33.770  1.00  0.00     0.023 A 
ATOM     51  C   UNL A   1      43.353  24.848  34.388  1.00  0.00     0.012 A 
ATOM     52  C   UNL A   1      45.772  24.906  34.400  1.00  0.00     0.148 A 
ATOM     53  C   UNL A   1      43.368  24.125  35.588  1.00  0.00     0.002 A 
ATOM     54  C   UNL A   1      45.782  24.204  35.600  1.00  0.00     0.091 A 
ATOM     55  F   UNL A   1      46.923  25.188  33.777  1.00  0.00    -0.205 F 
ATOM     56  C   UNL A   1      44.580  23.801  36.193  1.00  0.00     0.022 A 
BRANCH  54  57
ATOM     57  S   UNL A   1      47.311  23.749  36.430  1.00  0.00     0.127 S 
ATOM     58  O   UNL A   1      46.816  22.997  37.583  1.00  0.00    -0.237 OA
ATOM     59  O   UNL A   1      47.979  22.941  35.414  1.00  0.00    -0.237 OA
ATOM     60  O   UNL A   1      47.968  25.005  36.772  1.00  0.00    -0.744 OA
ENDBRANCH  54  57
ENDBRANCH  26  50
BRANCH  38  61
ATOM     61  C   UNL A   1      45.724  28.819  28.729  1.00  0.00     0.023 A 
ATOM     62  C   UNL A   1      46.798  29.683  29.036  1.00  0.00     0.012 A 
ATOM     63  C   UNL A   1      45.995  27.611  28.070  1.00  0.00     0.148 A 
ATOM     64  C   UNL A   1      48.108  29.361  28.673  1.00  0.00     0.002 A 
ATOM     65  C   UNL A   1      47.305  27.273  27.748  1.00  0.00     0.091 A 
ATOM     66  F   UNL A   1      44.968  26.792  27.803  1.00  0.00    -0.205 F 
ATOM     67  C   UNL A   1      48.363  28.150  28.039  1.00  0.00     0.022 A 
BRANCH  65  68
ATOM     68  S   UNL A   1      47.721  25.676  27.047  1.00  0.00     0.127 S 
ATOM     69  O   UNL A   1      49.177  25.756  26.948  1.00  0.00    -0.237 OA
ATOM     70  O   UNL A   1      47.227  24.750  28.067  1.00  0.00    -0.237 OA
ATOM     71  O   UNL A   1      47.012  25.595  25.776  1.00  0.00    -0.744 OA
ENDBRANCH  65  68
ENDBRANCH  38  61
ENDBRANCH  12  13
ENDBRANCH   5   7
ENDBRANCH   2   3
ENDBRANCH   1   2
BRANCH   1  72
ATOM     72  C   UNL A   1      37.401  21.078  24.803  1.00  0.00     0.023 C 
BRANCH  72  73
ATOM     73  C   UNL A   1      36.257  21.092  25.808  1.00  0.00     0.116 C 
BRANCH  73  74
ATOM     74  N   UNL A   1      35.061  20.419  25.319  1.00  0.00    -0.352 N 
ATOM     75  C   UNL A   1      33.902  20.983  24.853  1.00  0.00     0.251 C 
ATOM     76  H   UNL A   1      35.089  19.435  25.325  1.00  0.00     0.163 HD
ATOM     77  O   UNL A   1      32.929  20.289  24.562  1.00  0.00    -0.269 OA
BRANCH  75  78
ATOM     78  C   UNL A   1      33.819  22.449  24.728  1.00  0.00     0.039 A 
ATOM     79  C   UNL A   1      33.204  23.173  25.748  1.00  0.00     0.014 A 
ATOM     80  C   UNL A   1      34.386  23.104  23.630  1.00  0.00     0.014 A 
ATOM     81  C   UNL A   1      33.216  24.567  25.701  1.00  0.00     0.005 A 
ATOM     82  C   UNL A   1      34.413  24.496  23.594  1.00  0.00     0.005 A 
ATOM     83  C   UNL A   1      33.835  25.246  24.635  1.00  0.00    -0.038 A 
BRANCH  83  84
ATOM     84  C   UNL A   1      33.828  26.764  24.622  1.00  0.00     0.081 C 
ATOM     85  C   UNL A   1      33.719  27.353  26.044  1.00  0.00     0.111 C 
ATOM     86  C   UNL A   1      32.689  27.186  23.765  1.00  0.00     0.093 A 
ATOM     87  C   UNL A   1      32.409  28.060  26.352  1.00  0.00     0.188 C 
ATOM     88  C   UNL A   1      31.681  27.985  24.254  1.00  0.00     0.164 A 
ATOM     89  N   UNL A   1      32.474  26.844  22.458  1.00  0.00    -0.238 NA
ATOM     90  N   UNL A   1      31.482  28.414  25.524  1.00  0.00    -0.198 NA
ATOM     91  N   UNL A   1      30.802  28.150  23.200  1.00  0.00    -0.283 N 
ATOM     92  C   UNL A   1      31.309  27.388  22.165  1.00  0.00     0.206 A 
BRANCH  87  93
ATOM     93  O   UNL A   1      32.255  28.378  27.654  1.00  0.00    -0.496 OA
ATOM     94  H   UNL A   1      32.928  28.849  28.104  1.00  0.00     0.294 HD
ENDBRANCH  87  93
BRANCH  91  95
ATOM     95  C   UNL A   1      29.629  28.938  23.183  1.00  0.00     0.050 A 
ATOM     96  C   UNL A   1      28.369  28.330  23.165  1.00  0.00     0.027 A 
ATOM     97  C   UNL A   1      29.744  30.335  23.194  1.00  0.00     0.047 A 
ATOM     98  C   UNL A   1      27.223  29.129  23.210  1.00  0.00     0.004 A 
ATOM     99  C   UNL A   1      28.593  31.118  23.185  1.00  0.00     0.043 A 
ATOM    100  C   UNL A   1      27.334  30.521  23.212  1.00  0.00     0.020 A 
ATOM    101  Cl  UNL A   1      28.727  32.833  23.126  1.00  0.00    -0.084 Cl
ENDBRANCH  91  95
ENDBRANCH  83  84
ENDBRANCH  75  78
ENDBRANCH  73  74
ENDBRANCH  72  73
ENDBRANCH   1  72
TORSDOF 17
ENDMDL
