MODEL 1
REMARK VINA RESULT:     -11.3      0.000      0.000
REMARK SMILES O=C(NCCCCNC(=O)[C@@H](O)c1cscc1Br)c1ccc(-c2c3nc(c(-c4cccc(S(=O)(=O)[O-])c4F)c4ccc([nH]4)c(-c4cccc(S(=O)(=O)[O-])c4F)c4nc(c(-c5cccc(S(=O)(=O)[O-])c5F)c5ccc2[nH]5)C=C4)C=C3)cc1
REMARK SMILES IDX 4 1 3 2 1 3 2 4 19 6 20 7 81 8 21 9 80 10 22 11 23 12 24 13
REMARK SMILES IDX 74 14 25 15 79 16 73 17 75 18 26 19 78 20 72 21 71 22 27 24
REMARK SMILES IDX 59 25 39 26 58 27 40 28 43 29 57 30 76 31 41 32 42 33 56 35
REMARK SMILES IDX 77 36 44 37 28 38 29 39 37 40 30 41 32 42 38 43 31 44 33 45
REMARK SMILES IDX 34 46 35 47 36 48 60 49 61 50 69 51 62 52 64 53 70 54 63 55
REMARK SMILES IDX 65 56 66 57 67 58 68 59 45 60 46 61 54 62 47 63 49 64 55 65
REMARK SMILES IDX 48 66 50 67 51 68 52 69 53 70 5 71 6 72 7 73 8 74 9 75 10 77
REMARK SMILES IDX 11 78 12 79 13 81 14 82 17 83 15 84 16 85 18 86
REMARK H PARENT 3 5 75 23 43 34 8 76 12 80
REMARK Flexibility Score: inf
ROOT
ATOM      1  C   UNL A   1      32.807  29.517  26.111  1.00  0.00     0.116 C 
ENDROOT
BRANCH   1   2
ATOM      2  N   UNL A   1      32.470  30.887  26.476  1.00  0.00    -0.352 N 
ATOM      3  O   UNL A   1      32.695  32.871  27.534  1.00  0.00    -0.269 OA
ATOM      4  C   UNL A   1      33.178  31.779  27.251  1.00  0.00     0.251 C 
ATOM      5  H   UNL A   1      31.615  31.223  26.119  1.00  0.00     0.163 HD
BRANCH   4   6
ATOM      6  C   UNL A   1      34.505  31.386  27.770  1.00  0.00     0.039 A 
ATOM      7  C   UNL A   1      34.760  30.053  28.095  1.00  0.00     0.014 A 
ATOM      8  C   UNL A   1      35.475  32.365  28.002  1.00  0.00     0.014 A 
ATOM      9  C   UNL A   1      35.895  29.735  28.828  1.00  0.00     0.010 A 
ATOM     10  C   UNL A   1      36.667  32.021  28.646  1.00  0.00     0.010 A 
ATOM     11  C   UNL A   1      36.866  30.712  29.109  1.00  0.00    -0.014 A 
BRANCH  11  12
ATOM     12  C   UNL A   1      38.098  30.304  29.837  1.00  0.00     0.031 A 
ATOM     13  C   UNL A   1      38.366  30.737  31.253  1.00  0.00     0.074 A 
ATOM     14  C   UNL A   1      38.962  29.484  29.206  1.00  0.00     0.049 A 
ATOM     15  N   UNL A   1      39.355  30.396  32.039  1.00  0.00    -0.248 NA
ATOM     16  C   UNL A   1      37.413  31.675  31.870  1.00  0.00     0.031 C 
ATOM     17  C   UNL A   1      38.832  29.041  27.815  1.00  0.00     0.029 A 
ATOM     18  N   UNL A   1      40.100  28.861  29.647  1.00  0.00    -0.354 N 
ATOM     19  C   UNL A   1      39.170  31.100  33.223  1.00  0.00     0.074 A 
ATOM     20  C   UNL A   1      37.973  31.895  33.054  1.00  0.00     0.031 C 
ATOM     21  C   UNL A   1      39.820  28.181  27.532  1.00  0.00     0.029 A 
ATOM     22  C   UNL A   1      40.684  28.053  28.698  1.00  0.00     0.049 A 
ATOM     23  H   UNL A   1      40.465  28.981  30.554  1.00  0.00     0.167 HD
ATOM     24  C   UNL A   1      39.918  31.070  34.353  1.00  0.00     0.034 A 
ATOM     25  C   UNL A   1      41.796  27.297  28.755  1.00  0.00     0.034 A 
ATOM     26  C   UNL A   1      41.084  30.242  34.531  1.00  0.00     0.049 A 
ATOM     27  C   UNL A   1      42.570  27.245  30.039  1.00  0.00     0.074 A 
ATOM     28  C   UNL A   1      41.881  30.110  35.656  1.00  0.00     0.029 A 
ATOM     29  N   UNL A   1      41.617  29.403  33.565  1.00  0.00    -0.354 N 
ATOM     30  N   UNL A   1      42.309  27.830  31.181  1.00  0.00    -0.248 NA
ATOM     31  C   UNL A   1      43.777  26.409  30.048  1.00  0.00     0.031 C 
ATOM     32  C   UNL A   1      42.900  29.196  35.366  1.00  0.00     0.029 A 
ATOM     33  C   UNL A   1      42.733  28.751  34.066  1.00  0.00     0.049 A 
ATOM     34  H   UNL A   1      41.256  29.288  32.657  1.00  0.00     0.167 HD
ATOM     35  C   UNL A   1      43.317  27.431  32.049  1.00  0.00     0.074 A 
ATOM     36  C   UNL A   1      44.164  26.516  31.313  1.00  0.00     0.031 C 
ATOM     37  C   UNL A   1      43.540  27.813  33.331  1.00  0.00     0.034 A 
BRANCH  24  38
ATOM     38  C   UNL A   1      39.476  31.915  35.521  1.00  0.00     0.023 A 
ATOM     39  C   UNL A   1      39.807  33.285  35.544  1.00  0.00     0.012 A 
ATOM     40  C   UNL A   1      38.652  31.386  36.535  1.00  0.00     0.148 A 
ATOM     41  C   UNL A   1      39.339  34.112  36.565  1.00  0.00     0.002 A 
ATOM     42  C   UNL A   1      38.162  32.224  37.531  1.00  0.00     0.091 A 
ATOM     43  F   UNL A   1      38.363  30.078  36.505  1.00  0.00    -0.205 F 
ATOM     44  C   UNL A   1      38.510  33.585  37.550  1.00  0.00     0.022 A 
BRANCH  42  45
ATOM     45  S   UNL A   1      37.029  31.660  38.808  1.00  0.00     0.127 S 
ATOM     46  O   UNL A   1      37.815  31.887  40.019  1.00  0.00    -0.237 OA
ATOM     47  O   UNL A   1      35.895  32.570  38.637  1.00  0.00    -0.237 OA
ATOM     48  O   UNL A   1      36.742  30.266  38.501  1.00  0.00    -0.744 OA
ENDBRANCH  42  45
ENDBRANCH  24  38
BRANCH  25  49
ATOM     49  C   UNL A   1      42.203  26.498  27.566  1.00  0.00     0.023 A 
ATOM     50  C   UNL A   1      43.017  27.083  26.579  1.00  0.00     0.012 A 
ATOM     51  C   UNL A   1      41.838  25.144  27.440  1.00  0.00     0.148 A 
ATOM     52  C   UNL A   1      43.444  26.339  25.478  1.00  0.00     0.002 A 
ATOM     53  C   UNL A   1      42.321  24.391  26.377  1.00  0.00     0.091 A 
ATOM     54  F   UNL A   1      41.041  24.605  28.375  1.00  0.00    -0.205 F 
ATOM     55  C   UNL A   1      43.110  24.990  25.384  1.00  0.00     0.022 A 
BRANCH  53  56
ATOM     56  S   UNL A   1      42.061  22.615  26.301  1.00  0.00     0.127 S 
ATOM     57  O   UNL A   1      42.739  22.158  27.511  1.00  0.00    -0.237 OA
ATOM     58  O   UNL A   1      40.602  22.508  26.335  1.00  0.00    -0.237 OA
ATOM     59  O   UNL A   1      42.654  22.206  25.033  1.00  0.00    -0.744 OA
ENDBRANCH  53  56
ENDBRANCH  25  49
BRANCH  37  60
ATOM     60  C   UNL A   1      44.756  27.243  34.009  1.00  0.00     0.023 A 
ATOM     61  C   UNL A   1      45.977  27.942  33.933  1.00  0.00     0.012 A 
ATOM     62  C   UNL A   1      44.687  26.047  34.745  1.00  0.00     0.148 A 
ATOM     63  C   UNL A   1      47.121  27.440  34.550  1.00  0.00     0.002 A 
ATOM     64  C   UNL A   1      45.822  25.573  35.392  1.00  0.00     0.091 A 
ATOM     65  F   UNL A   1      43.522  25.383  34.785  1.00  0.00    -0.205 F 
ATOM     66  C   UNL A   1      47.042  26.260  35.287  1.00  0.00     0.022 A 
BRANCH  64  67
ATOM     67  S   UNL A   1      45.782  24.104  36.426  1.00  0.00     0.127 S 
ATOM     68  O   UNL A   1      44.754  24.453  37.403  1.00  0.00    -0.237 OA
ATOM     69  O   UNL A   1      45.392  23.059  35.477  1.00  0.00    -0.237 OA
ATOM     70  O   UNL A   1      47.133  23.958  36.952  1.00  0.00    -0.744 OA
ENDBRANCH  64  67
ENDBRANCH  37  60
ENDBRANCH  11  12
ENDBRANCH   4   6
ENDBRANCH   1   2
BRANCH   1  71
ATOM     71  C   UNL A   1      31.637  28.548  26.211  1.00  0.00     0.023 C 
BRANCH  71  72
ATOM     72  C   UNL A   1      31.798  27.241  25.446  1.00  0.00     0.023 C 
BRANCH  72  73
ATOM     73  C   UNL A   1      32.136  26.020  26.291  1.00  0.00     0.116 C 
BRANCH  73  74
ATOM     74  N   UNL A   1      31.025  25.114  26.482  1.00  0.00    -0.354 N 
ATOM     75  C   UNL A   1      31.044  23.841  26.982  1.00  0.00     0.253 C 
ATOM     76  H   UNL A   1      30.141  25.457  26.217  1.00  0.00     0.163 HD
ATOM     77  O   UNL A   1      29.958  23.317  27.252  1.00  0.00    -0.272 OA
BRANCH  75  78
ATOM     78  C   UNL A   1      32.379  23.052  27.179  1.00  0.00     0.235 C 
BRANCH  78  79
ATOM     79  O   UNL A   1      32.481  22.203  28.308  1.00  0.00    -0.378 OA
ATOM     80  H   UNL A   1      33.186  22.524  28.892  1.00  0.00     0.212 HD
ENDBRANCH  78  79
BRANCH  78  81
ATOM     81  C   UNL A   1      32.826  22.395  25.888  1.00  0.00     0.015 A 
ATOM     82  C   UNL A   1      32.091  21.364  25.313  1.00  0.00     0.073 A 
ATOM     83  C   UNL A   1      33.961  22.675  25.056  1.00  0.00     0.035 A 
ATOM     84  S   UNL A   1      32.773  20.740  23.878  1.00  0.00    -0.151 S 
ATOM     85  C   UNL A   1      34.072  21.839  23.968  1.00  0.00     0.080 A 
ATOM     86  Br  UNL A   1      35.230  24.053  25.325  1.00  0.00    -0.050 Br
ENDBRANCH  78  81
ENDBRANCH  75  78
ENDBRANCH  73  74
ENDBRANCH  72  73
ENDBRANCH  71  72
ENDBRANCH   1  71
TORSDOF 16
ENDMDL
MODEL 2
REMARK VINA RESULT:     -11.3      2.108      2.512
REMARK SMILES O=C(NCCCCNC(=O)[C@@H](O)c1cscc1Br)c1ccc(-c2c3nc(c(-c4cccc(S(=O)(=O)[O-])c4F)c4ccc([nH]4)c(-c4cccc(S(=O)(=O)[O-])c4F)c4nc(c(-c5cccc(S(=O)(=O)[O-])c5F)c5ccc2[nH]5)C=C4)C=C3)cc1
REMARK SMILES IDX 4 1 3 2 1 3 2 4 19 6 20 7 81 8 21 9 80 10 22 11 23 12 24 13
REMARK SMILES IDX 74 14 25 15 79 16 73 17 75 18 26 19 78 20 72 21 71 22 27 24
REMARK SMILES IDX 59 25 39 26 58 27 40 28 43 29 57 30 76 31 41 32 42 33 56 35
REMARK SMILES IDX 77 36 44 37 28 38 29 39 37 40 30 41 32 42 38 43 31 44 33 45
REMARK SMILES IDX 34 46 35 47 36 48 60 49 61 50 69 51 62 52 64 53 70 54 63 55
REMARK SMILES IDX 65 56 66 57 67 58 68 59 45 60 46 61 54 62 47 63 49 64 55 65
REMARK SMILES IDX 48 66 50 67 51 68 52 69 53 70 5 71 6 72 7 73 8 74 9 75 10 77
REMARK SMILES IDX 11 78 12 79 13 81 14 82 17 83 15 84 16 85 18 86
REMARK H PARENT 3 5 75 23 43 34 8 76 12 80
REMARK Flexibility Score: inf
ROOT
ATOM      1  C   UNL A   1      33.208  29.316  25.111  1.00  0.00     0.116 C 
ENDROOT
BRANCH   1   2
ATOM      2  N   UNL A   1      32.588  30.453  25.778  1.00  0.00    -0.352 N 
ATOM      3  O   UNL A   1      32.346  32.065  27.344  1.00  0.00    -0.269 OA
ATOM      4  C   UNL A   1      33.049  31.190  26.848  1.00  0.00     0.251 C 
ATOM      5  H   UNL A   1      31.718  30.735  25.414  1.00  0.00     0.163 HD
BRANCH   4   6
ATOM      6  C   UNL A   1      34.379  30.882  27.413  1.00  0.00     0.039 A 
ATOM      7  C   UNL A   1      34.690  29.577  27.798  1.00  0.00     0.014 A 
ATOM      8  C   UNL A   1      35.296  31.916  27.626  1.00  0.00     0.014 A 
ATOM      9  C   UNL A   1      35.819  29.343  28.569  1.00  0.00     0.010 A 
ATOM     10  C   UNL A   1      36.486  31.655  28.311  1.00  0.00     0.010 A 
ATOM     11  C   UNL A   1      36.736  30.377  28.833  1.00  0.00    -0.014 A 
BRANCH  11  12
ATOM     12  C   UNL A   1      37.967  30.059  29.604  1.00  0.00     0.031 A 
ATOM     13  C   UNL A   1      38.186  30.575  31.001  1.00  0.00     0.074 A 
ATOM     14  C   UNL A   1      38.877  29.243  29.035  1.00  0.00     0.049 A 
ATOM     15  N   UNL A   1      39.171  30.316  31.823  1.00  0.00    -0.248 NA
ATOM     16  C   UNL A   1      37.184  31.504  31.549  1.00  0.00     0.031 C 
ATOM     17  C   UNL A   1      38.795  28.723  27.667  1.00  0.00     0.029 A 
ATOM     18  N   UNL A   1      40.029  28.692  29.530  1.00  0.00    -0.354 N 
ATOM     19  C   UNL A   1      38.932  31.073  32.965  1.00  0.00     0.074 A 
ATOM     20  C   UNL A   1      37.708  31.808  32.730  1.00  0.00     0.031 C 
ATOM     21  C   UNL A   1      39.823  27.892  27.449  1.00  0.00     0.029 A 
ATOM     22  C   UNL A   1      40.665  27.861  28.637  1.00  0.00     0.049 A 
ATOM     23  H   UNL A   1      40.369  28.873  30.436  1.00  0.00     0.167 HD
ATOM     24  C   UNL A   1      39.657  31.133  34.109  1.00  0.00     0.034 A 
ATOM     25  C   UNL A   1      41.805  27.155  28.755  1.00  0.00     0.034 A 
ATOM     26  C   UNL A   1      40.850  30.364  34.353  1.00  0.00     0.049 A 
ATOM     27  C   UNL A   1      42.553  27.201  30.055  1.00  0.00     0.074 A 
ATOM     28  C   UNL A   1      41.628  30.324  35.498  1.00  0.00     0.029 A 
ATOM     29  N   UNL A   1      41.438  29.498  33.443  1.00  0.00    -0.354 N 
ATOM     30  N   UNL A   1      42.243  27.834  31.160  1.00  0.00    -0.248 NA
ATOM     31  C   UNL A   1      43.793  26.418  30.132  1.00  0.00     0.031 C 
ATOM     32  C   UNL A   1      42.689  29.439  35.277  1.00  0.00     0.029 A 
ATOM     33  C   UNL A   1      42.568  28.920  33.999  1.00  0.00     0.049 A 
ATOM     34  H   UNL A   1      41.102  29.322  32.536  1.00  0.00     0.167 HD
ATOM     35  C   UNL A   1      43.248  27.522  32.067  1.00  0.00     0.074 A 
ATOM     36  C   UNL A   1      44.147  26.606  31.396  1.00  0.00     0.031 C 
ATOM     37  C   UNL A   1      43.428  27.979  33.331  1.00  0.00     0.034 A 
BRANCH  24  38
ATOM     38  C   UNL A   1      39.155  32.018  35.222  1.00  0.00     0.023 A 
ATOM     39  C   UNL A   1      38.199  31.512  36.125  1.00  0.00     0.012 A 
ATOM     40  C   UNL A   1      39.698  33.300  35.437  1.00  0.00     0.148 A 
ATOM     41  C   UNL A   1      37.778  32.273  37.216  1.00  0.00     0.002 A 
ATOM     42  C   UNL A   1      39.300  34.040  36.545  1.00  0.00     0.091 A 
ATOM     43  F   UNL A   1      40.594  33.770  34.557  1.00  0.00    -0.205 F 
ATOM     44  C   UNL A   1      38.336  33.530  37.431  1.00  0.00     0.022 A 
BRANCH  42  45
ATOM     45  S   UNL A   1      40.008  35.641  36.953  1.00  0.00     0.127 S 
ATOM     46  O   UNL A   1      39.653  36.428  35.774  1.00  0.00    -0.237 OA
ATOM     47  O   UNL A   1      39.278  36.000  38.170  1.00  0.00    -0.237 OA
ATOM     48  O   UNL A   1      41.433  35.411  37.145  1.00  0.00    -0.744 OA
ENDBRANCH  42  45
ENDBRANCH  24  38
BRANCH  25  49
ATOM     49  C   UNL A   1      42.270  26.312  27.618  1.00  0.00     0.023 A 
ATOM     50  C   UNL A   1      43.178  26.843  26.684  1.00  0.00     0.012 A 
ATOM     51  C   UNL A   1      41.863  24.970  27.494  1.00  0.00     0.148 A 
ATOM     52  C   UNL A   1      43.658  26.058  25.635  1.00  0.00     0.002 A 
ATOM     53  C   UNL A   1      42.396  24.175  26.487  1.00  0.00     0.091 A 
ATOM     54  F   UNL A   1      40.979  24.484  28.377  1.00  0.00    -0.205 F 
ATOM     55  C   UNL A   1      43.280  24.719  25.545  1.00  0.00     0.022 A 
BRANCH  53  56
ATOM     56  S   UNL A   1      42.075  22.408  26.430  1.00  0.00     0.127 S 
ATOM     57  O   UNL A   1      40.625  22.369  26.263  1.00  0.00    -0.237 OA
ATOM     58  O   UNL A   1      42.842  21.985  25.258  1.00  0.00    -0.237 OA
ATOM     59  O   UNL A   1      42.595  21.894  27.692  1.00  0.00    -0.744 OA
ENDBRANCH  53  56
ENDBRANCH  25  49
BRANCH  37  60
ATOM     60  C   UNL A   1      44.651  27.496  34.061  1.00  0.00     0.023 A 
ATOM     61  C   UNL A   1      45.843  28.244  33.977  1.00  0.00     0.012 A 
ATOM     62  C   UNL A   1      44.615  26.334  34.854  1.00  0.00     0.148 A 
ATOM     63  C   UNL A   1      46.992  27.821  34.642  1.00  0.00     0.002 A 
ATOM     64  C   UNL A   1      45.754  25.942  35.547  1.00  0.00     0.091 A 
ATOM     65  F   UNL A   1      43.479  25.623  34.901  1.00  0.00    -0.205 F 
ATOM     66  C   UNL A   1      46.946  26.676  35.435  1.00  0.00     0.022 A 
BRANCH  64  67
ATOM     67  S   UNL A   1      45.753  24.523  36.650  1.00  0.00     0.127 S 
ATOM     68  O   UNL A   1      47.126  24.531  37.150  1.00  0.00    -0.237 OA
ATOM     69  O   UNL A   1      44.740  24.894  37.640  1.00  0.00    -0.237 OA
ATOM     70  O   UNL A   1      45.388  23.383  35.821  1.00  0.00    -0.744 OA
ENDBRANCH  64  67
ENDBRANCH  37  60
ENDBRANCH  11  12
ENDBRANCH   4   6
ENDBRANCH   1   2
BRANCH   1  71
ATOM     71  C   UNL A   1      32.427  28.017  25.256  1.00  0.00     0.023 C 
BRANCH  71  72
ATOM     72  C   UNL A   1      31.028  28.019  24.653  1.00  0.00     0.023 C 
BRANCH  72  73
ATOM     73  C   UNL A   1      30.874  27.259  23.343  1.00  0.00     0.116 C 
BRANCH  73  74
ATOM     74  N   UNL A   1      32.076  27.229  22.539  1.00  0.00    -0.354 N 
ATOM     75  C   UNL A   1      32.770  26.139  22.091  1.00  0.00     0.253 C 
ATOM     76  H   UNL A   1      32.443  28.106  22.282  1.00  0.00     0.163 HD
ATOM     77  O   UNL A   1      33.653  26.332  21.247  1.00  0.00    -0.272 OA
BRANCH  75  78
ATOM     78  C   UNL A   1      32.492  24.702  22.637  1.00  0.00     0.235 C 
BRANCH  78  79
ATOM     79  O   UNL A   1      32.528  23.628  21.714  1.00  0.00    -0.378 OA
ATOM     80  H   UNL A   1      32.576  23.979  20.812  1.00  0.00     0.212 HD
ENDBRANCH  78  79
BRANCH  78  81
ATOM     81  C   UNL A   1      33.279  24.434  23.905  1.00  0.00     0.015 A 
ATOM     82  C   UNL A   1      34.668  24.365  23.889  1.00  0.00     0.073 A 
ATOM     83  C   UNL A   1      32.820  24.238  25.251  1.00  0.00     0.035 A 
ATOM     84  S   UNL A   1      35.364  24.029  25.411  1.00  0.00    -0.151 S 
ATOM     85  C   UNL A   1      33.830  23.976  26.149  1.00  0.00     0.080 A 
ATOM     86  Br  UNL A   1      31.026  24.335  25.844  1.00  0.00    -0.050 Br
ENDBRANCH  78  81
ENDBRANCH  75  78
ENDBRANCH  73  74
ENDBRANCH  72  73
ENDBRANCH  71  72
ENDBRANCH   1  71
TORSDOF 16
ENDMDL
MODEL 3
REMARK VINA RESULT:     -11.2      1.591      2.096
REMARK SMILES O=C(NCCCCNC(=O)[C@@H](O)c1cscc1Br)c1ccc(-c2c3nc(c(-c4cccc(S(=O)(=O)[O-])c4F)c4ccc([nH]4)c(-c4cccc(S(=O)(=O)[O-])c4F)c4nc(c(-c5cccc(S(=O)(=O)[O-])c5F)c5ccc2[nH]5)C=C4)C=C3)cc1
REMARK SMILES IDX 4 1 3 2 1 3 2 4 19 6 20 7 81 8 21 9 80 10 22 11 23 12 24 13
REMARK SMILES IDX 74 14 25 15 79 16 73 17 75 18 26 19 78 20 72 21 71 22 27 24
REMARK SMILES IDX 59 25 39 26 58 27 40 28 43 29 57 30 76 31 41 32 42 33 56 35
REMARK SMILES IDX 77 36 44 37 28 38 29 39 37 40 30 41 32 42 38 43 31 44 33 45
REMARK SMILES IDX 34 46 35 47 36 48 60 49 61 50 69 51 62 52 64 53 70 54 63 55
REMARK SMILES IDX 65 56 66 57 67 58 68 59 45 60 46 61 54 62 47 63 49 64 55 65
REMARK SMILES IDX 48 66 50 67 51 68 52 69 53 70 5 71 6 72 7 73 8 74 9 75 10 77
REMARK SMILES IDX 11 78 12 79 13 81 14 82 17 83 15 84 16 85 18 86
REMARK H PARENT 3 5 75 23 43 34 8 76 12 80
REMARK Flexibility Score: inf
ROOT
ATOM      1  C   UNL A   1      33.211  29.333  25.385  1.00  0.00     0.116 C 
ENDROOT
BRANCH   1   2
ATOM      2  N   UNL A   1      32.656  30.528  26.006  1.00  0.00    -0.352 N 
ATOM      3  O   UNL A   1      32.516  32.222  27.497  1.00  0.00    -0.269 OA
ATOM      4  C   UNL A   1      33.169  31.293  27.032  1.00  0.00     0.251 C 
ATOM      5  H   UNL A   1      31.793  30.834  25.643  1.00  0.00     0.163 HD
BRANCH   4   6
ATOM      6  C   UNL A   1      34.493  30.950  27.591  1.00  0.00     0.039 A 
ATOM      7  C   UNL A   1      34.738  29.661  28.067  1.00  0.00     0.014 A 
ATOM      8  C   UNL A   1      35.473  31.941  27.706  1.00  0.00     0.014 A 
ATOM      9  C   UNL A   1      35.872  29.420  28.830  1.00  0.00     0.010 A 
ATOM     10  C   UNL A   1      36.664  31.662  28.384  1.00  0.00     0.010 A 
ATOM     11  C   UNL A   1      36.852  30.414  28.995  1.00  0.00    -0.014 A 
BRANCH  11  12
ATOM     12  C   UNL A   1      38.082  30.082  29.763  1.00  0.00     0.031 A 
ATOM     13  C   UNL A   1      38.302  30.578  31.167  1.00  0.00     0.074 A 
ATOM     14  C   UNL A   1      38.991  29.272  29.182  1.00  0.00     0.049 A 
ATOM     15  N   UNL A   1      39.286  30.306  31.985  1.00  0.00    -0.248 NA
ATOM     16  C   UNL A   1      37.302  31.502  31.727  1.00  0.00     0.031 C 
ATOM     17  C   UNL A   1      38.908  28.772  27.807  1.00  0.00     0.029 A 
ATOM     18  N   UNL A   1      40.142  28.711  29.670  1.00  0.00    -0.354 N 
ATOM     19  C   UNL A   1      39.049  31.046  33.137  1.00  0.00     0.074 A 
ATOM     20  C   UNL A   1      37.827  31.788  32.913  1.00  0.00     0.031 C 
ATOM     21  C   UNL A   1      39.934  27.941  27.578  1.00  0.00     0.029 A 
ATOM     22  C   UNL A   1      40.776  27.891  28.766  1.00  0.00     0.049 A 
ATOM     23  H   UNL A   1      40.481  28.879  30.579  1.00  0.00     0.167 HD
ATOM     24  C   UNL A   1      39.773  31.088  34.283  1.00  0.00     0.034 A 
ATOM     25  C   UNL A   1      41.914  27.181  28.874  1.00  0.00     0.034 A 
ATOM     26  C   UNL A   1      40.965  30.314  34.517  1.00  0.00     0.049 A 
ATOM     27  C   UNL A   1      42.661  27.207  30.175  1.00  0.00     0.074 A 
ATOM     28  C   UNL A   1      41.741  30.255  35.661  1.00  0.00     0.029 A 
ATOM     29  N   UNL A   1      41.551  29.459  33.595  1.00  0.00    -0.354 N 
ATOM     30  N   UNL A   1      42.353  27.825  31.288  1.00  0.00    -0.248 NA
ATOM     31  C   UNL A   1      43.899  26.420  30.241  1.00  0.00     0.031 C 
ATOM     32  C   UNL A   1      42.801  29.371  35.428  1.00  0.00     0.029 A 
ATOM     33  C   UNL A   1      42.679  28.871  34.143  1.00  0.00     0.049 A 
ATOM     34  H   UNL A   1      41.214  29.296  32.685  1.00  0.00     0.167 HD
ATOM     35  C   UNL A   1      43.356  27.499  32.191  1.00  0.00     0.074 A 
ATOM     36  C   UNL A   1      44.254  26.590  31.509  1.00  0.00     0.031 C 
ATOM     37  C   UNL A   1      43.537  27.938  33.462  1.00  0.00     0.034 A 
BRANCH  24  38
ATOM     38  C   UNL A   1      39.273  31.959  35.407  1.00  0.00     0.023 A 
ATOM     39  C   UNL A   1      39.419  33.358  35.312  1.00  0.00     0.012 A 
ATOM     40  C   UNL A   1      38.573  31.411  36.501  1.00  0.00     0.148 A 
ATOM     41  C   UNL A   1      38.891  34.197  36.294  1.00  0.00     0.002 A 
ATOM     42  C   UNL A   1      38.019  32.255  37.457  1.00  0.00     0.091 A 
ATOM     43  F   UNL A   1      38.459  30.078  36.582  1.00  0.00    -0.205 F 
ATOM     44  C   UNL A   1      38.183  33.647  37.358  1.00  0.00     0.022 A 
BRANCH  42  45
ATOM     45  S   UNL A   1      37.028  31.653  38.831  1.00  0.00     0.127 S 
ATOM     46  O   UNL A   1      37.955  31.807  39.952  1.00  0.00    -0.237 OA
ATOM     47  O   UNL A   1      35.905  32.591  38.835  1.00  0.00    -0.237 OA
ATOM     48  O   UNL A   1      36.674  30.280  38.498  1.00  0.00    -0.744 OA
ENDBRANCH  42  45
ENDBRANCH  24  38
BRANCH  25  49
ATOM     49  C   UNL A   1      42.377  26.354  27.726  1.00  0.00     0.023 A 
ATOM     50  C   UNL A   1      43.323  26.878  26.827  1.00  0.00     0.012 A 
ATOM     51  C   UNL A   1      41.930  25.029  27.557  1.00  0.00     0.148 A 
ATOM     52  C   UNL A   1      43.802  26.105  25.768  1.00  0.00     0.002 A 
ATOM     53  C   UNL A   1      42.460  24.243  26.541  1.00  0.00     0.091 A 
ATOM     54  F   UNL A   1      41.010  24.550  28.406  1.00  0.00    -0.205 F 
ATOM     55  C   UNL A   1      43.382  24.783  25.634  1.00  0.00     0.022 A 
BRANCH  53  56
ATOM     56  S   UNL A   1      42.083  22.490  26.430  1.00  0.00     0.127 S 
ATOM     57  O   UNL A   1      40.627  22.500  26.327  1.00  0.00    -0.237 OA
ATOM     58  O   UNL A   1      42.784  22.094  25.207  1.00  0.00    -0.237 OA
ATOM     59  O   UNL A   1      42.642  21.911  27.645  1.00  0.00    -0.744 OA
ENDBRANCH  53  56
ENDBRANCH  25  49
BRANCH  37  60
ATOM     60  C   UNL A   1      44.758  27.441  34.186  1.00  0.00     0.023 A 
ATOM     61  C   UNL A   1      45.946  28.199  34.132  1.00  0.00     0.012 A 
ATOM     62  C   UNL A   1      44.726  26.256  34.944  1.00  0.00     0.148 A 
ATOM     63  C   UNL A   1      47.093  27.765  34.792  1.00  0.00     0.002 A 
ATOM     64  C   UNL A   1      45.863  25.851  35.633  1.00  0.00     0.091 A 
ATOM     65  F   UNL A   1      43.594  25.536  34.962  1.00  0.00    -0.205 F 
ATOM     66  C   UNL A   1      47.050  26.597  35.550  1.00  0.00     0.022 A 
BRANCH  64  67
ATOM     67  S   UNL A   1      45.864  24.401  36.693  1.00  0.00     0.127 S 
ATOM     68  O   UNL A   1      44.648  24.603  37.478  1.00  0.00    -0.237 OA
ATOM     69  O   UNL A   1      45.793  23.302  35.728  1.00  0.00    -0.237 OA
ATOM     70  O   UNL A   1      47.115  24.461  37.437  1.00  0.00    -0.744 OA
ENDBRANCH  64  67
ENDBRANCH  37  60
ENDBRANCH  11  12
ENDBRANCH   4   6
ENDBRANCH   1   2
BRANCH   1  71
ATOM     71  C   UNL A   1      32.744  28.033  26.026  1.00  0.00     0.023 C 
BRANCH  71  72
ATOM     72  C   UNL A   1      33.709  26.861  25.912  1.00  0.00     0.023 C 
BRANCH  72  73
ATOM     73  C   UNL A   1      33.099  25.482  26.127  1.00  0.00     0.116 C 
BRANCH  73  74
ATOM     74  N   UNL A   1      31.719  25.514  26.560  1.00  0.00    -0.354 N 
ATOM     75  C   UNL A   1      30.593  25.273  25.823  1.00  0.00     0.253 C 
ATOM     76  H   UNL A   1      31.571  25.738  27.507  1.00  0.00     0.163 HD
ATOM     77  O   UNL A   1      29.526  25.151  26.434  1.00  0.00    -0.272 OA
BRANCH  75  78
ATOM     78  C   UNL A   1      30.630  25.186  24.263  1.00  0.00     0.235 C 
BRANCH  78  79
ATOM     79  O   UNL A   1      29.904  24.138  23.644  1.00  0.00    -0.378 OA
ATOM     80  H   UNL A   1      30.502  23.616  23.087  1.00  0.00     0.212 HD
ENDBRANCH  78  79
BRANCH  78  81
ATOM     81  C   UNL A   1      30.389  26.542  23.630  1.00  0.00     0.015 A 
ATOM     82  C   UNL A   1      29.192  27.223  23.821  1.00  0.00     0.073 A 
ATOM     83  C   UNL A   1      31.252  27.343  22.808  1.00  0.00     0.035 A 
ATOM     84  S   UNL A   1      29.105  28.720  23.005  1.00  0.00    -0.151 S 
ATOM     85  C   UNL A   1      30.676  28.515  22.376  1.00  0.00     0.080 A 
ATOM     86  Br  UNL A   1      33.035  26.930  22.328  1.00  0.00    -0.050 Br
ENDBRANCH  78  81
ENDBRANCH  75  78
ENDBRANCH  73  74
ENDBRANCH  72  73
ENDBRANCH  71  72
ENDBRANCH   1  71
TORSDOF 16
ENDMDL
