MODEL 1
REMARK VINA RESULT:     -11.3      0.000      0.000
REMARK SMILES O=C(NCCCCNC(=O)c1ncc2ccccc2n1)c1ccc(-c2c3nc(c(-c4cccc(S(=O)(=O)[O-])c4F)c4ccc([nH]4)c(-c4cccc(S(=O)(=O)[O-])c4F)c4nc(c(-c5cccc(S(=O)(=O)[O-])c5F)c5ccc2[nH]5)C=C4)C=C3)cc1
REMARK SMILES IDX 4 1 3 2 1 3 2 4 21 6 22 7 83 8 23 9 82 10 24 11 25 12 26 13
REMARK SMILES IDX 76 14 27 15 81 16 75 17 77 18 28 19 80 20 74 21 73 22 29 24
REMARK SMILES IDX 61 25 41 26 60 27 42 28 45 29 59 30 78 31 43 32 44 33 58 35
REMARK SMILES IDX 79 36 46 37 30 38 31 39 39 40 32 41 34 42 40 43 33 44 35 45
REMARK SMILES IDX 36 46 37 47 38 48 62 49 63 50 71 51 64 52 66 53 72 54 65 55
REMARK SMILES IDX 67 56 68 57 69 58 70 59 47 60 48 61 56 62 49 63 51 64 57 65
REMARK SMILES IDX 50 66 52 67 53 68 54 69 55 70 5 71 6 72 7 73 8 74 9 75 10 77
REMARK SMILES IDX 11 78 12 79 20 80 13 81 19 82 14 83 18 84 15 85 17 86 16 87
REMARK H PARENT 3 5 77 23 45 34 8 76
REMARK Flexibility Score: inf
ROOT
ATOM      1  C   UNL A   1      34.822  33.009  28.596  1.00  0.00     0.116 C 
ENDROOT
BRANCH   1   2
ATOM      2  N   UNL A   1      34.081  31.982  27.882  1.00  0.00    -0.352 N 
ATOM      3  O   UNL A   1      33.793  30.037  26.782  1.00  0.00    -0.269 OA
ATOM      4  C   UNL A   1      34.490  30.717  27.530  1.00  0.00     0.251 C 
ATOM      5  H   UNL A   1      33.164  32.223  27.615  1.00  0.00     0.163 HD
BRANCH   4   6
ATOM      6  C   UNL A   1      35.778  30.201  28.040  1.00  0.00     0.039 A 
ATOM      7  C   UNL A   1      36.935  30.289  27.261  1.00  0.00     0.014 A 
ATOM      8  C   UNL A   1      35.829  29.630  29.314  1.00  0.00     0.014 A 
ATOM      9  C   UNL A   1      38.115  29.703  27.704  1.00  0.00     0.010 A 
ATOM     10  C   UNL A   1      37.035  29.111  29.792  1.00  0.00     0.010 A 
ATOM     11  C   UNL A   1      38.184  29.129  28.985  1.00  0.00    -0.014 A 
BRANCH  11  12
ATOM     12  C   UNL A   1      39.496  28.683  29.513  1.00  0.00     0.031 A 
ATOM     13  C   UNL A   1      40.189  29.414  30.625  1.00  0.00     0.074 A 
ATOM     14  C   UNL A   1      40.079  27.614  28.933  1.00  0.00     0.049 A 
ATOM     15  N   UNL A   1      41.343  29.149  31.183  1.00  0.00    -0.248 NA
ATOM     16  C   UNL A   1      39.514  30.598  31.184  1.00  0.00     0.031 C 
ATOM     17  C   UNL A   1      39.519  26.865  27.802  1.00  0.00     0.029 A 
ATOM     18  N   UNL A   1      41.268  26.984  29.190  1.00  0.00    -0.354 N 
ATOM     19  C   UNL A   1      41.554  30.149  32.124  1.00  0.00     0.074 A 
ATOM     20  C   UNL A   1      40.405  31.027  32.070  1.00  0.00     0.031 C 
ATOM     21  C   UNL A   1      40.364  25.883  27.463  1.00  0.00     0.029 A 
ATOM     22  C   UNL A   1      41.544  25.960  28.315  1.00  0.00     0.049 A 
ATOM     23  H   UNL A   1      41.867  27.241  29.929  1.00  0.00     0.167 HD
ATOM     24  C   UNL A   1      42.609  30.308  32.960  1.00  0.00     0.034 A 
ATOM     25  C   UNL A   1      42.640  25.187  28.186  1.00  0.00     0.034 A 
ATOM     26  C   UNL A   1      43.723  29.400  33.037  1.00  0.00     0.049 A 
ATOM     27  C   UNL A   1      43.780  25.383  29.141  1.00  0.00     0.074 A 
ATOM     28  C   UNL A   1      44.774  29.406  33.939  1.00  0.00     0.029 A 
ATOM     29  N   UNL A   1      43.949  28.344  32.169  1.00  0.00    -0.354 N 
ATOM     30  N   UNL A   1      43.874  26.216  30.149  1.00  0.00    -0.248 NA
ATOM     31  C   UNL A   1      44.956  24.522  28.957  1.00  0.00     0.031 C 
ATOM     32  C   UNL A   1      45.650  28.371  33.595  1.00  0.00     0.029 A 
ATOM     33  C   UNL A   1      45.138  27.712  32.491  1.00  0.00     0.049 A 
ATOM     34  H   UNL A   1      43.350  28.080  31.432  1.00  0.00     0.167 HD
ATOM     35  C   UNL A   1      45.113  25.974  30.725  1.00  0.00     0.074 A 
ATOM     36  C   UNL A   1      45.718  24.889  29.978  1.00  0.00     0.031 C 
ATOM     37  C   UNL A   1      45.710  26.610  31.762  1.00  0.00     0.034 A 
BRANCH  24  38
ATOM     38  C   UNL A   1      42.609  31.482  33.901  1.00  0.00     0.023 A 
ATOM     39  C   UNL A   1      43.078  32.733  33.453  1.00  0.00     0.012 A 
ATOM     40  C   UNL A   1      42.024  31.378  35.180  1.00  0.00     0.148 A 
ATOM     41  C   UNL A   1      42.974  33.861  34.265  1.00  0.00     0.002 A 
ATOM     42  C   UNL A   1      41.892  32.515  35.971  1.00  0.00     0.091 A 
ATOM     43  F   UNL A   1      41.599  30.175  35.591  1.00  0.00    -0.205 F 
ATOM     44  C   UNL A   1      42.371  33.755  35.517  1.00  0.00     0.022 A 
BRANCH  42  45
ATOM     45  S   UNL A   1      41.068  32.499  37.567  1.00  0.00     0.127 S 
ATOM     46  O   UNL A   1      39.751  31.970  37.212  1.00  0.00    -0.237 OA
ATOM     47  O   UNL A   1      41.906  31.579  38.336  1.00  0.00    -0.237 OA
ATOM     48  O   UNL A   1      41.078  33.875  38.041  1.00  0.00    -0.744 OA
ENDBRANCH  42  45
ENDBRANCH  24  38
BRANCH  25  49
ATOM     49  C   UNL A   1      42.694  24.155  27.115  1.00  0.00     0.023 A 
ATOM     50  C   UNL A   1      43.391  24.425  25.923  1.00  0.00     0.012 A 
ATOM     51  C   UNL A   1      42.095  22.893  27.290  1.00  0.00     0.148 A 
ATOM     52  C   UNL A   1      43.468  23.465  24.913  1.00  0.00     0.002 A 
ATOM     53  C   UNL A   1      42.228  21.919  26.306  1.00  0.00     0.091 A 
ATOM     54  F   UNL A   1      41.414  22.659  28.421  1.00  0.00    -0.205 F 
ATOM     55  C   UNL A   1      42.899  22.209  25.109  1.00  0.00     0.022 A 
BRANCH  53  56
ATOM     56  S   UNL A   1      41.650  20.238  26.565  1.00  0.00     0.127 S 
ATOM     57  O   UNL A   1      40.203  20.418  26.601  1.00  0.00    -0.237 OA
ATOM     58  O   UNL A   1      42.157  19.548  25.376  1.00  0.00    -0.237 OA
ATOM     59  O   UNL A   1      42.278  19.810  27.808  1.00  0.00    -0.744 OA
ENDBRANCH  53  56
ENDBRANCH  25  49
BRANCH  37  60
ATOM     60  C   UNL A   1      47.093  26.159  32.144  1.00  0.00     0.023 A 
ATOM     61  C   UNL A   1      48.209  26.786  31.557  1.00  0.00     0.012 A 
ATOM     62  C   UNL A   1      47.290  25.168  33.126  1.00  0.00     0.148 A 
ATOM     63  C   UNL A   1      49.502  26.416  31.920  1.00  0.00     0.002 A 
ATOM     64  C   UNL A   1      48.582  24.835  33.515  1.00  0.00     0.091 A 
ATOM     65  F   UNL A   1      46.213  24.572  33.658  1.00  0.00    -0.205 F 
ATOM     66  C   UNL A   1      49.689  25.449  32.906  1.00  0.00     0.022 A 
BRANCH  64  67
ATOM     67  S   UNL A   1      48.919  23.665  34.836  1.00  0.00     0.127 S 
ATOM     68  O   UNL A   1      50.350  23.424  34.662  1.00  0.00    -0.237 OA
ATOM     69  O   UNL A   1      48.569  24.435  36.030  1.00  0.00    -0.237 OA
ATOM     70  O   UNL A   1      48.058  22.517  34.584  1.00  0.00    -0.744 OA
ENDBRANCH  64  67
ENDBRANCH  37  60
ENDBRANCH  11  12
ENDBRANCH   4   6
ENDBRANCH   1   2
BRANCH   1  71
ATOM     71  C   UNL A   1      34.627  34.395  27.999  1.00  0.00     0.023 C 
BRANCH  71  72
ATOM     72  C   UNL A   1      33.337  35.099  28.414  1.00  0.00     0.023 C 
BRANCH  72  73
ATOM     73  C   UNL A   1      33.529  36.340  29.279  1.00  0.00     0.116 C 
BRANCH  73  74
ATOM     74  N   UNL A   1      32.519  36.452  30.320  1.00  0.00    -0.349 N 
ATOM     75  C   UNL A   1      32.573  35.967  31.617  1.00  0.00     0.289 C 
ATOM     76  H   UNL A   1      31.695  36.932  30.072  1.00  0.00     0.163 HD
ATOM     77  O   UNL A   1      31.576  36.047  32.333  1.00  0.00    -0.266 OA
BRANCH  75  78
ATOM     78  C   UNL A   1      33.841  35.333  32.113  1.00  0.00     0.218 A 
ATOM     79  N   UNL A   1      34.536  36.016  33.043  1.00  0.00    -0.232 NA
ATOM     80  N   UNL A   1      34.080  34.068  31.707  1.00  0.00    -0.224 NA
ATOM     81  C   UNL A   1      35.529  35.328  33.629  1.00  0.00     0.124 A 
ATOM     82  C   UNL A   1      35.057  33.413  32.336  1.00  0.00     0.074 A 
ATOM     83  C   UNL A   1      35.831  34.002  33.342  1.00  0.00     0.019 A 
ATOM     84  C   UNL A   1      35.295  32.082  32.018  1.00  0.00     0.029 A 
ATOM     85  C   UNL A   1      36.822  33.263  34.014  1.00  0.00     0.012 A 
ATOM     86  C   UNL A   1      36.268  31.333  32.687  1.00  0.00     0.002 A 
ATOM     87  C   UNL A   1      37.032  31.925  33.688  1.00  0.00     0.001 A 
ENDBRANCH  75  78
ENDBRANCH  73  74
ENDBRANCH  72  73
ENDBRANCH  71  72
ENDBRANCH   1  71
TORSDOF 14
ENDMDL
MODEL 2
REMARK VINA RESULT:     -10.9      6.121     10.248
REMARK SMILES O=C(NCCCCNC(=O)c1ncc2ccccc2n1)c1ccc(-c2c3nc(c(-c4cccc(S(=O)(=O)[O-])c4F)c4ccc([nH]4)c(-c4cccc(S(=O)(=O)[O-])c4F)c4nc(c(-c5cccc(S(=O)(=O)[O-])c5F)c5ccc2[nH]5)C=C4)C=C3)cc1
REMARK SMILES IDX 4 1 3 2 1 3 2 4 21 6 22 7 83 8 23 9 82 10 24 11 25 12 26 13
REMARK SMILES IDX 76 14 27 15 81 16 75 17 77 18 28 19 80 20 74 21 73 22 29 24
REMARK SMILES IDX 61 25 41 26 60 27 42 28 45 29 59 30 78 31 43 32 44 33 58 35
REMARK SMILES IDX 79 36 46 37 30 38 31 39 39 40 32 41 34 42 40 43 33 44 35 45
REMARK SMILES IDX 36 46 37 47 38 48 62 49 63 50 71 51 64 52 66 53 72 54 65 55
REMARK SMILES IDX 67 56 68 57 69 58 70 59 47 60 48 61 56 62 49 63 51 64 57 65
REMARK SMILES IDX 50 66 52 67 53 68 54 69 55 70 5 71 6 72 7 73 8 74 9 75 10 77
REMARK SMILES IDX 11 78 12 79 20 80 13 81 19 82 14 83 18 84 15 85 17 86 16 87
REMARK H PARENT 3 5 77 23 45 34 8 76
REMARK Flexibility Score: inf
ROOT
ATOM      1  C   UNL A   1      38.864  20.091  25.756  1.00  0.00     0.116 C 
ENDROOT
BRANCH   1   2
ATOM      2  N   UNL A   1      40.000  19.202  25.933  1.00  0.00    -0.352 N 
ATOM      3  O   UNL A   1      42.174  18.658  26.166  1.00  0.00    -0.269 OA
ATOM      4  C   UNL A   1      41.307  19.526  26.213  1.00  0.00     0.251 C 
ATOM      5  H   UNL A   1      39.810  18.240  25.841  1.00  0.00     0.163 HD
BRANCH   4   6
ATOM      6  C   UNL A   1      41.655  20.924  26.544  1.00  0.00     0.039 A 
ATOM      7  C   UNL A   1      41.893  21.300  27.869  1.00  0.00     0.014 A 
ATOM      8  C   UNL A   1      41.751  21.866  25.517  1.00  0.00     0.014 A 
ATOM      9  C   UNL A   1      42.110  22.638  28.181  1.00  0.00     0.010 A 
ATOM     10  C   UNL A   1      42.048  23.197  25.824  1.00  0.00     0.010 A 
ATOM     11  C   UNL A   1      42.214  23.596  27.159  1.00  0.00    -0.014 A 
BRANCH  11  12
ATOM     12  C   UNL A   1      42.637  24.977  27.497  1.00  0.00     0.031 A 
ATOM     13  C   UNL A   1      41.696  25.958  28.133  1.00  0.00     0.074 A 
ATOM     14  C   UNL A   1      43.894  25.347  27.179  1.00  0.00     0.049 A 
ATOM     15  N   UNL A   1      41.920  27.200  28.475  1.00  0.00    -0.248 NA
ATOM     16  C   UNL A   1      40.326  25.498  28.415  1.00  0.00     0.031 C 
ATOM     17  C   UNL A   1      44.874  24.489  26.503  1.00  0.00     0.029 A 
ATOM     18  N   UNL A   1      44.558  26.532  27.354  1.00  0.00    -0.354 N 
ATOM     19  C   UNL A   1      40.716  27.685  28.972  1.00  0.00     0.074 A 
ATOM     20  C   UNL A   1      39.762  26.601  28.896  1.00  0.00     0.031 C 
ATOM     21  C   UNL A   1      46.009  25.178  26.319  1.00  0.00     0.029 A 
ATOM     22  C   UNL A   1      45.824  26.535  26.817  1.00  0.00     0.049 A 
ATOM     23  H   UNL A   1      44.166  27.308  27.818  1.00  0.00     0.167 HD
ATOM     24  C   UNL A   1      40.443  28.921  29.456  1.00  0.00     0.034 A 
ATOM     25  C   UNL A   1      46.727  27.527  26.704  1.00  0.00     0.034 A 
ATOM     26  C   UNL A   1      41.415  29.977  29.572  1.00  0.00     0.049 A 
ATOM     27  C   UNL A   1      46.394  28.877  27.267  1.00  0.00     0.074 A 
ATOM     28  C   UNL A   1      41.266  31.219  30.167  1.00  0.00     0.029 A 
ATOM     29  N   UNL A   1      42.703  29.930  29.063  1.00  0.00    -0.354 N 
ATOM     30  N   UNL A   1      45.314  29.257  27.906  1.00  0.00    -0.248 NA
ATOM     31  C   UNL A   1      47.408  29.929  27.113  1.00  0.00     0.031 C 
ATOM     32  C   UNL A   1      42.456  31.933  29.990  1.00  0.00     0.029 A 
ATOM     33  C   UNL A   1      43.349  31.132  29.299  1.00  0.00     0.049 A 
ATOM     34  H   UNL A   1      43.101  29.156  28.603  1.00  0.00     0.167 HD
ATOM     35  C   UNL A   1      45.521  30.589  28.238  1.00  0.00     0.074 A 
ATOM     36  C   UNL A   1      46.847  30.938  27.766  1.00  0.00     0.031 C 
ATOM     37  C   UNL A   1      44.680  31.454  28.855  1.00  0.00     0.034 A 
BRANCH  24  38
ATOM     38  C   UNL A   1      39.049  29.210  29.945  1.00  0.00     0.023 A 
ATOM     39  C   UNL A   1      38.678  28.832  31.251  1.00  0.00     0.012 A 
ATOM     40  C   UNL A   1      38.156  29.969  29.162  1.00  0.00     0.148 A 
ATOM     41  C   UNL A   1      37.436  29.197  31.768  1.00  0.00     0.002 A 
ATOM     42  C   UNL A   1      36.933  30.359  29.698  1.00  0.00     0.091 A 
ATOM     43  F   UNL A   1      38.524  30.304  27.918  1.00  0.00    -0.205 F 
ATOM     44  C   UNL A   1      36.570  29.969  30.997  1.00  0.00     0.022 A 
BRANCH  42  45
ATOM     45  S   UNL A   1      35.776  31.413  28.815  1.00  0.00     0.127 S 
ATOM     46  O   UNL A   1      36.655  32.483  28.344  1.00  0.00    -0.237 OA
ATOM     47  O   UNL A   1      35.288  30.520  27.764  1.00  0.00    -0.237 OA
ATOM     48  O   UNL A   1      34.773  31.816  29.788  1.00  0.00    -0.744 OA
ENDBRANCH  42  45
ENDBRANCH  24  38
BRANCH  25  49
ATOM     49  C   UNL A   1      48.033  27.265  26.038  1.00  0.00     0.023 A 
ATOM     50  C   UNL A   1      49.112  26.771  26.792  1.00  0.00     0.012 A 
ATOM     51  C   UNL A   1      48.195  27.461  24.653  1.00  0.00     0.148 A 
ATOM     52  C   UNL A   1      50.339  26.502  26.184  1.00  0.00     0.002 A 
ATOM     53  C   UNL A   1      49.400  27.133  24.042  1.00  0.00     0.091 A 
ATOM     54  F   UNL A   1      47.164  27.955  23.951  1.00  0.00    -0.205 F 
ATOM     55  C   UNL A   1      50.479  26.670  24.809  1.00  0.00     0.022 A 
BRANCH  53  56
ATOM     56  S   UNL A   1      49.592  27.182  22.257  1.00  0.00     0.127 S 
ATOM     57  O   UNL A   1      48.681  26.127  21.826  1.00  0.00    -0.237 OA
ATOM     58  O   UNL A   1      49.158  28.543  21.934  1.00  0.00    -0.237 OA
ATOM     59  O   UNL A   1      51.011  26.944  22.023  1.00  0.00    -0.744 OA
ENDBRANCH  53  56
ENDBRANCH  25  49
BRANCH  37  60
ATOM     60  C   UNL A   1      45.161  32.866  29.046  1.00  0.00     0.023 A 
ATOM     61  C   UNL A   1      45.900  33.191  30.200  1.00  0.00     0.012 A 
ATOM     62  C   UNL A   1      44.943  33.849  28.061  1.00  0.00     0.148 A 
ATOM     63  C   UNL A   1      46.392  34.482  30.386  1.00  0.00     0.002 A 
ATOM     64  C   UNL A   1      45.474  35.122  28.233  1.00  0.00     0.091 A 
ATOM     65  F   UNL A   1      44.221  33.522  26.979  1.00  0.00    -0.205 F 
ATOM     66  C   UNL A   1      46.189  35.443  29.398  1.00  0.00     0.022 A 
BRANCH  64  67
ATOM     67  S   UNL A   1      45.338  36.400  26.978  1.00  0.00     0.127 S 
ATOM     68  O   UNL A   1      46.013  37.524  27.624  1.00  0.00    -0.237 OA
ATOM     69  O   UNL A   1      46.068  35.812  25.855  1.00  0.00    -0.237 OA
ATOM     70  O   UNL A   1      43.911  36.581  26.742  1.00  0.00    -0.744 OA
ENDBRANCH  64  67
ENDBRANCH  37  60
ENDBRANCH  11  12
ENDBRANCH   4   6
ENDBRANCH   1   2
BRANCH   1  71
ATOM     71  C   UNL A   1      37.789  19.497  24.856  1.00  0.00     0.023 C 
BRANCH  71  72
ATOM     72  C   UNL A   1      36.448  20.226  24.889  1.00  0.00     0.023 C 
BRANCH  72  73
ATOM     73  C   UNL A   1      36.395  21.439  25.812  1.00  0.00     0.116 C 
BRANCH  73  74
ATOM     74  N   UNL A   1      35.167  21.491  26.590  1.00  0.00    -0.349 N 
ATOM     75  C   UNL A   1      34.029  22.241  26.340  1.00  0.00     0.289 C 
ATOM     76  H   UNL A   1      35.141  20.923  27.394  1.00  0.00     0.163 HD
ATOM     77  O   UNL A   1      33.121  22.257  27.170  1.00  0.00    -0.266 OA
BRANCH  75  78
ATOM     78  C   UNL A   1      33.939  23.039  25.070  1.00  0.00     0.218 A 
ATOM     79  N   UNL A   1      33.537  22.378  23.968  1.00  0.00    -0.232 NA
ATOM     80  N   UNL A   1      34.106  24.374  25.185  1.00  0.00    -0.224 NA
ATOM     81  C   UNL A   1      33.247  23.157  22.913  1.00  0.00     0.124 A 
ATOM     82  C   UNL A   1      33.779  25.111  24.122  1.00  0.00     0.074 A 
ATOM     83  C   UNL A   1      33.319  24.545  22.928  1.00  0.00     0.019 A 
ATOM     84  C   UNL A   1      33.853  26.495  24.208  1.00  0.00     0.029 A 
ATOM     85  C   UNL A   1      32.939  25.359  21.845  1.00  0.00     0.012 A 
ATOM     86  C   UNL A   1      33.467  27.315  23.144  1.00  0.00     0.002 A 
ATOM     87  C   UNL A   1      33.008  26.746  21.960  1.00  0.00     0.001 A 
ENDBRANCH  75  78
ENDBRANCH  73  74
ENDBRANCH  72  73
ENDBRANCH  71  72
ENDBRANCH   1  71
TORSDOF 14
ENDMDL
MODEL 3
REMARK VINA RESULT:     -10.9      3.089      5.618
REMARK SMILES O=C(NCCCCNC(=O)c1ncc2ccccc2n1)c1ccc(-c2c3nc(c(-c4cccc(S(=O)(=O)[O-])c4F)c4ccc([nH]4)c(-c4cccc(S(=O)(=O)[O-])c4F)c4nc(c(-c5cccc(S(=O)(=O)[O-])c5F)c5ccc2[nH]5)C=C4)C=C3)cc1
REMARK SMILES IDX 4 1 3 2 1 3 2 4 21 6 22 7 83 8 23 9 82 10 24 11 25 12 26 13
REMARK SMILES IDX 76 14 27 15 81 16 75 17 77 18 28 19 80 20 74 21 73 22 29 24
REMARK SMILES IDX 61 25 41 26 60 27 42 28 45 29 59 30 78 31 43 32 44 33 58 35
REMARK SMILES IDX 79 36 46 37 30 38 31 39 39 40 32 41 34 42 40 43 33 44 35 45
REMARK SMILES IDX 36 46 37 47 38 48 62 49 63 50 71 51 64 52 66 53 72 54 65 55
REMARK SMILES IDX 67 56 68 57 69 58 70 59 47 60 48 61 56 62 49 63 51 64 57 65
REMARK SMILES IDX 50 66 52 67 53 68 54 69 55 70 5 71 6 72 7 73 8 74 9 75 10 77
REMARK SMILES IDX 11 78 12 79 20 80 13 81 19 82 14 83 18 84 15 85 17 86 16 87
REMARK H PARENT 3 5 77 23 45 34 8 76
REMARK Flexibility Score: inf
ROOT
ATOM      1  C   UNL A   1      34.112  28.347  26.387  1.00  0.00     0.116 C 
ENDROOT
BRANCH   1   2
ATOM      2  N   UNL A   1      33.807  29.720  26.754  1.00  0.00    -0.352 N 
ATOM      3  O   UNL A   1      34.005  31.631  27.931  1.00  0.00    -0.269 OA
ATOM      4  C   UNL A   1      34.494  30.553  27.605  1.00  0.00     0.251 C 
ATOM      5  H   UNL A   1      33.002  30.106  26.338  1.00  0.00     0.163 HD
BRANCH   4   6
ATOM      6  C   UNL A   1      35.807  30.129  28.136  1.00  0.00     0.039 A 
ATOM      7  C   UNL A   1      35.899  29.504  29.383  1.00  0.00     0.014 A 
ATOM      8  C   UNL A   1      36.957  30.351  27.374  1.00  0.00     0.014 A 
ATOM      9  C   UNL A   1      37.147  29.209  29.920  1.00  0.00     0.010 A 
ATOM     10  C   UNL A   1      38.206  29.982  27.882  1.00  0.00     0.010 A 
ATOM     11  C   UNL A   1      38.312  29.423  29.165  1.00  0.00    -0.014 A 
BRANCH  11  12
ATOM     12  C   UNL A   1      39.612  28.924  29.676  1.00  0.00     0.031 A 
ATOM     13  C   UNL A   1      40.332  29.607  30.803  1.00  0.00     0.074 A 
ATOM     14  C   UNL A   1      40.159  27.852  29.068  1.00  0.00     0.049 A 
ATOM     15  N   UNL A   1      41.479  29.293  31.348  1.00  0.00    -0.248 NA
ATOM     16  C   UNL A   1      39.696  30.797  31.391  1.00  0.00     0.031 C 
ATOM     17  C   UNL A   1      39.572  27.148  27.923  1.00  0.00     0.029 A 
ATOM     18  N   UNL A   1      41.329  27.180  29.305  1.00  0.00    -0.354 N 
ATOM     19  C   UNL A   1      41.725  30.263  32.312  1.00  0.00     0.074 A 
ATOM     20  C   UNL A   1      40.603  31.177  32.284  1.00  0.00     0.031 C 
ATOM     21  C   UNL A   1      40.385  26.148  27.556  1.00  0.00     0.029 A 
ATOM     22  C   UNL A   1      41.570  26.169  28.405  1.00  0.00     0.049 A 
ATOM     23  H   UNL A   1      41.939  27.400  30.047  1.00  0.00     0.167 HD
ATOM     24  C   UNL A   1      42.787  30.370  33.146  1.00  0.00     0.034 A 
ATOM     25  C   UNL A   1      42.640  25.365  28.253  1.00  0.00     0.034 A 
ATOM     26  C   UNL A   1      43.873  29.426  33.196  1.00  0.00     0.049 A 
ATOM     27  C   UNL A   1      43.790  25.503  29.207  1.00  0.00     0.074 A 
ATOM     28  C   UNL A   1      44.927  29.379  34.093  1.00  0.00     0.029 A 
ATOM     29  N   UNL A   1      44.062  28.384  32.302  1.00  0.00    -0.354 N 
ATOM     30  N   UNL A   1      43.913  26.308  30.234  1.00  0.00    -0.248 NA
ATOM     31  C   UNL A   1      44.938  24.611  28.997  1.00  0.00     0.031 C 
ATOM     32  C   UNL A   1      45.769  28.325  33.722  1.00  0.00     0.029 A 
ATOM     33  C   UNL A   1      45.232  27.709  32.604  1.00  0.00     0.049 A 
ATOM     34  H   UNL A   1      43.453  28.157  31.563  1.00  0.00     0.167 HD
ATOM     35  C   UNL A   1      45.147  26.015  30.798  1.00  0.00     0.074 A 
ATOM     36  C   UNL A   1      45.715  24.929  30.023  1.00  0.00     0.031 C 
ATOM     37  C   UNL A   1      45.768  26.608  31.846  1.00  0.00     0.034 A 
BRANCH  24  38
ATOM     38  C   UNL A   1      42.827  31.521  34.115  1.00  0.00     0.023 A 
ATOM     39  C   UNL A   1      43.364  32.757  33.705  1.00  0.00     0.012 A 
ATOM     40  C   UNL A   1      42.215  31.416  35.381  1.00  0.00     0.148 A 
ATOM     41  C   UNL A   1      43.300  33.870  34.541  1.00  0.00     0.002 A 
ATOM     42  C   UNL A   1      42.124  32.540  36.196  1.00  0.00     0.091 A 
ATOM     43  F   UNL A   1      41.725  30.227  35.757  1.00  0.00    -0.205 F 
ATOM     44  C   UNL A   1      42.671  33.765  35.779  1.00  0.00     0.022 A 
BRANCH  42  45
ATOM     45  S   UNL A   1      41.272  32.528  37.778  1.00  0.00     0.127 S 
ATOM     46  O   UNL A   1      42.129  31.644  38.566  1.00  0.00    -0.237 OA
ATOM     47  O   UNL A   1      41.328  33.937  38.167  1.00  0.00    -0.237 OA
ATOM     48  O   UNL A   1      39.934  32.021  37.512  1.00  0.00    -0.744 OA
ENDBRANCH  42  45
ENDBRANCH  24  38
BRANCH  25  49
ATOM     49  C   UNL A   1      42.658  24.358  27.157  1.00  0.00     0.023 A 
ATOM     50  C   UNL A   1      43.361  24.633  25.969  1.00  0.00     0.012 A 
ATOM     51  C   UNL A   1      42.019  23.112  27.304  1.00  0.00     0.148 A 
ATOM     52  C   UNL A   1      43.404  23.696  24.937  1.00  0.00     0.002 A 
ATOM     53  C   UNL A   1      42.118  22.158  26.297  1.00  0.00     0.091 A 
ATOM     54  F   UNL A   1      41.334  22.874  28.432  1.00  0.00    -0.205 F 
ATOM     55  C   UNL A   1      42.795  22.455  25.105  1.00  0.00     0.022 A 
BRANCH  53  56
ATOM     56  S   UNL A   1      41.487  20.491  26.517  1.00  0.00     0.127 S 
ATOM     57  O   UNL A   1      40.048  20.692  26.378  1.00  0.00    -0.237 OA
ATOM     58  O   UNL A   1      42.119  19.770  25.411  1.00  0.00    -0.237 OA
ATOM     59  O   UNL A   1      41.956  20.081  27.834  1.00  0.00    -0.744 OA
ENDBRANCH  53  56
ENDBRANCH  25  49
BRANCH  37  60
ATOM     60  C   UNL A   1      47.137  26.104  32.212  1.00  0.00     0.023 A 
ATOM     61  C   UNL A   1      48.265  26.652  31.570  1.00  0.00     0.012 A 
ATOM     62  C   UNL A   1      47.313  25.147  33.230  1.00  0.00     0.148 A 
ATOM     63  C   UNL A   1      49.549  26.233  31.915  1.00  0.00     0.002 A 
ATOM     64  C   UNL A   1      48.598  24.767  33.598  1.00  0.00     0.091 A 
ATOM     65  F   UNL A   1      46.225  24.627  33.814  1.00  0.00    -0.205 F 
ATOM     66  C   UNL A   1      49.716  25.300  32.936  1.00  0.00     0.022 A 
BRANCH  64  67
ATOM     67  S   UNL A   1      48.916  23.637  34.958  1.00  0.00     0.127 S 
ATOM     68  O   UNL A   1      50.377  23.613  34.991  1.00  0.00    -0.237 OA
ATOM     69  O   UNL A   1      48.290  24.326  36.087  1.00  0.00    -0.237 OA
ATOM     70  O   UNL A   1      48.280  22.378  34.591  1.00  0.00    -0.744 OA
ENDBRANCH  64  67
ENDBRANCH  37  60
ENDBRANCH  11  12
ENDBRANCH   4   6
ENDBRANCH   1   2
BRANCH   1  71
ATOM     71  C   UNL A   1      32.984  27.384  26.728  1.00  0.00     0.023 C 
BRANCH  71  72
ATOM     72  C   UNL A   1      31.691  27.605  25.945  1.00  0.00     0.023 C 
BRANCH  72  73
ATOM     73  C   UNL A   1      31.090  26.347  25.326  1.00  0.00     0.116 C 
BRANCH  73  74
ATOM     74  N   UNL A   1      30.638  25.396  26.330  1.00  0.00    -0.349 N 
ATOM     75  C   UNL A   1      31.077  24.098  26.534  1.00  0.00     0.289 C 
ATOM     76  H   UNL A   1      29.934  25.715  26.941  1.00  0.00     0.163 HD
ATOM     77  O   UNL A   1      30.500  23.388  27.357  1.00  0.00    -0.266 OA
BRANCH  75  78
ATOM     78  C   UNL A   1      32.232  23.576  25.729  1.00  0.00     0.218 A 
ATOM     79  N   UNL A   1      31.947  23.082  24.510  1.00  0.00    -0.232 NA
ATOM     80  N   UNL A   1      33.466  23.803  26.230  1.00  0.00    -0.224 NA
ATOM     81  C   UNL A   1      33.014  22.839  23.730  1.00  0.00     0.124 A 
ATOM     82  C   UNL A   1      34.495  23.575  25.412  1.00  0.00     0.074 A 
ATOM     83  C   UNL A   1      34.327  23.091  24.109  1.00  0.00     0.019 A 
ATOM     84  C   UNL A   1      35.782  23.868  25.843  1.00  0.00     0.029 A 
ATOM     85  C   UNL A   1      35.434  22.908  23.261  1.00  0.00     0.012 A 
ATOM     86  C   UNL A   1      36.889  23.702  25.006  1.00  0.00     0.002 A 
ATOM     87  C   UNL A   1      36.714  23.222  23.712  1.00  0.00     0.001 A 
ENDBRANCH  75  78
ENDBRANCH  73  74
ENDBRANCH  72  73
ENDBRANCH  71  72
ENDBRANCH   1  71
TORSDOF 14
ENDMDL
