MODEL 1
REMARK VINA RESULT:     -12.2      0.000      0.000
REMARK SMILES [NH3+][C@@H](CCCCC(=O)NCCCCNC(=O)c1ccc(-c2c3nc(c(-c4cccc(S(=O)(=O)[O-])c4F)c4ccc([nH]4)c(-c4cccc(S(=O)(=O)[O-])c4F)c4nc(c(-c5cccc(S(=O)(=O)[O-])c5F)c5ccc2[nH]5)C=C4)C=C3)cc1)c1ccc(-c2ccccc2)cc1
REMARK SMILES IDX 10 1 9 2 7 3 8 4 6 6 5 7 4 8 3 9 2 10 1 11 80 15 81 16 91 17
REMARK SMILES IDX 82 18 90 19 83 20 84 21 85 22 89 23 86 24 88 25 87 26 11 27
REMARK SMILES IDX 12 28 13 29 14 30 15 31 16 33 17 34 18 35 79 36 19 37 78 38
REMARK SMILES IDX 20 39 21 40 22 41 72 42 23 43 77 44 71 45 73 46 24 47 76 48
REMARK SMILES IDX 70 49 69 50 25 52 57 53 37 54 56 55 38 56 41 57 55 58 74 59
REMARK SMILES IDX 39 60 40 61 54 63 75 64 42 65 26 66 27 67 35 68 28 69 30 70
REMARK SMILES IDX 36 71 29 72 31 73 32 74 33 75 34 76 58 77 59 78 67 79 60 80
REMARK SMILES IDX 62 81 68 82 61 83 63 84 64 85 65 86 66 87 43 88 44 89 52 90
REMARK SMILES IDX 45 91 47 92 53 93 46 94 48 95 49 96 50 97 51 98
REMARK H PARENT 9 5 1 12 1 13 1 14 14 32 73 51 41 62
REMARK Flexibility Score: inf
ROOT
ATOM      1  C   UNL A   1      34.255  23.526  26.250  1.00  0.00     0.116 C 
ENDROOT
BRANCH   1   2
ATOM      2  N   UNL A   1      32.840  23.585  26.544  1.00  0.00    -0.356 N 
ATOM      3  C   UNL A   1      32.011  24.665  26.554  1.00  0.00     0.219 C 
ATOM      4  O   UNL A   1      30.838  24.515  26.895  1.00  0.00    -0.275 OA
ATOM      5  H   UNL A   1      32.418  22.725  26.770  1.00  0.00     0.163 HD
BRANCH   3   6
ATOM      6  C   UNL A   1      32.527  26.025  26.124  1.00  0.00     0.100 C 
BRANCH   6   7
ATOM      7  C   UNL A   1      31.453  26.934  25.522  1.00  0.00     0.010 C 
BRANCH   7   8
ATOM      8  C   UNL A   1      31.718  27.581  24.150  1.00  0.00     0.007 C 
BRANCH   8   9
ATOM      9  C   UNL A   1      31.130  26.898  22.900  1.00  0.00     0.070 C 
BRANCH   9  10
ATOM     10  C   UNL A   1      32.101  26.042  22.055  1.00  0.00     0.211 C 
BRANCH  10  11
ATOM     11  N   UNL A   1      31.725  26.024  20.638  1.00  0.00    -0.351 N 
ATOM     12  H   UNL A   1      32.510  26.355  20.075  1.00  0.00     0.345 HD
ATOM     13  H   UNL A   1      30.922  26.634  20.491  1.00  0.00     0.345 HD
ATOM     14  H   UNL A   1      31.486  25.072  20.361  1.00  0.00     0.345 HD
ENDBRANCH  10  11
BRANCH  10  15
ATOM     15  C   UNL A   1      32.267  24.662  22.658  1.00  0.00     0.009 A 
ATOM     16  C   UNL A   1      31.153  24.013  23.203  1.00  0.00     0.010 A 
ATOM     17  C   UNL A   1      33.466  23.946  22.563  1.00  0.00     0.010 A 
ATOM     18  C   UNL A   1      31.219  22.667  23.577  1.00  0.00     0.009 A 
ATOM     19  C   UNL A   1      33.517  22.591  22.905  1.00  0.00     0.009 A 
ATOM     20  C   UNL A   1      32.389  21.911  23.394  1.00  0.00    -0.018 A 
BRANCH  20  21
ATOM     21  C   UNL A   1      32.424  20.453  23.652  1.00  0.00    -0.018 A 
ATOM     22  C   UNL A   1      32.369  19.522  22.597  1.00  0.00     0.009 A 
ATOM     23  C   UNL A   1      32.560  19.937  24.953  1.00  0.00     0.009 A 
ATOM     24  C   UNL A   1      32.440  18.145  22.831  1.00  0.00     0.001 A 
ATOM     25  C   UNL A   1      32.646  18.561  25.190  1.00  0.00     0.001 A 
ATOM     26  C   UNL A   1      32.583  17.666  24.128  1.00  0.00     0.000 A 
ENDBRANCH  20  21
ENDBRANCH  10  15
ENDBRANCH   9  10
ENDBRANCH   8   9
ENDBRANCH   7   8
ENDBRANCH   6   7
ENDBRANCH   3   6
ENDBRANCH   1   2
BRANCH   1  27
ATOM     27  C   UNL A   1      34.871  22.230  26.777  1.00  0.00     0.023 C 
BRANCH  27  28
ATOM     28  C   UNL A   1      35.592  21.384  25.740  1.00  0.00     0.023 C 
BRANCH  28  29
ATOM     29  C   UNL A   1      36.993  21.856  25.391  1.00  0.00     0.116 C 
BRANCH  29  30
ATOM     30  N   UNL A   1      37.991  20.789  25.340  1.00  0.00    -0.352 N 
ATOM     31  C   UNL A   1      39.235  20.786  25.934  1.00  0.00     0.251 C 
ATOM     32  H   UNL A   1      37.749  19.987  24.825  1.00  0.00     0.163 HD
ATOM     33  O   UNL A   1      40.013  19.850  25.783  1.00  0.00    -0.269 OA
BRANCH  31  34
ATOM     34  C   UNL A   1      39.617  21.977  26.716  1.00  0.00     0.039 A 
ATOM     35  C   UNL A   1      40.712  21.893  27.578  1.00  0.00     0.014 A 
ATOM     36  C   UNL A   1      39.021  23.205  26.421  1.00  0.00     0.014 A 
ATOM     37  C   UNL A   1      41.286  23.070  28.062  1.00  0.00     0.010 A 
ATOM     38  C   UNL A   1      39.646  24.373  26.836  1.00  0.00     0.010 A 
ATOM     39  C   UNL A   1      40.797  24.318  27.640  1.00  0.00    -0.014 A 
BRANCH  39  40
ATOM     40  C   UNL A   1      41.500  25.586  27.962  1.00  0.00     0.031 A 
ATOM     41  C   UNL A   1      40.763  26.688  28.670  1.00  0.00     0.074 A 
ATOM     42  C   UNL A   1      42.739  25.803  27.474  1.00  0.00     0.049 A 
ATOM     43  N   UNL A   1      41.146  27.915  28.905  1.00  0.00    -0.248 NA
ATOM     44  C   UNL A   1      39.400  26.385  29.139  1.00  0.00     0.031 C 
ATOM     45  C   UNL A   1      43.518  24.853  26.676  1.00  0.00     0.029 A 
ATOM     46  N   UNL A   1      43.545  26.914  27.537  1.00  0.00    -0.354 N 
ATOM     47  C   UNL A   1      40.055  28.546  29.485  1.00  0.00     0.074 A 
ATOM     48  C   UNL A   1      38.988  27.573  29.557  1.00  0.00     0.031 C 
ATOM     49  C   UNL A   1      44.680  25.424  26.317  1.00  0.00     0.029 A 
ATOM     50  C   UNL A   1      44.721  26.788  26.833  1.00  0.00     0.049 A 
ATOM     51  H   UNL A   1      43.304  27.727  28.041  1.00  0.00     0.167 HD
ATOM     52  C   UNL A   1      39.959  29.814  29.947  1.00  0.00     0.034 A 
ATOM     53  C   UNL A   1      45.713  27.674  26.614  1.00  0.00     0.034 A 
ATOM     54  C   UNL A   1      41.053  30.745  29.968  1.00  0.00     0.049 A 
ATOM     55  C   UNL A   1      45.613  29.048  27.220  1.00  0.00     0.074 A 
ATOM     56  C   UNL A   1      41.110  31.988  30.573  1.00  0.00     0.029 A 
ATOM     57  N   UNL A   1      42.277  30.538  29.355  1.00  0.00    -0.354 N 
ATOM     58  N   UNL A   1      44.655  29.554  27.958  1.00  0.00    -0.248 NA
ATOM     59  C   UNL A   1      46.740  29.964  26.989  1.00  0.00     0.031 C 
ATOM     60  C   UNL A   1      42.370  32.537  30.318  1.00  0.00     0.029 A 
ATOM     61  C   UNL A   1      43.094  31.636  29.553  1.00  0.00     0.049 A 
ATOM     62  H   UNL A   1      42.529  29.729  28.854  1.00  0.00     0.167 HD
ATOM     63  C   UNL A   1      45.072  30.836  28.297  1.00  0.00     0.074 A 
ATOM     64  C   UNL A   1      46.382  31.021  27.707  1.00  0.00     0.031 C 
ATOM     65  C   UNL A   1      44.419  31.783  29.012  1.00  0.00     0.034 A 
BRANCH  52  66
ATOM     66  C   UNL A   1      38.651  30.248  30.546  1.00  0.00     0.023 A 
ATOM     67  C   UNL A   1      38.392  29.980  31.905  1.00  0.00     0.012 A 
ATOM     68  C   UNL A   1      37.717  30.981  29.790  1.00  0.00     0.148 A 
ATOM     69  C   UNL A   1      37.211  30.418  32.500  1.00  0.00     0.002 A 
ATOM     70  C   UNL A   1      36.558  31.446  30.400  1.00  0.00     0.091 A 
ATOM     71  F   UNL A   1      37.976  31.203  28.493  1.00  0.00    -0.205 F 
ATOM     72  C   UNL A   1      36.301  31.160  31.751  1.00  0.00     0.022 A 
BRANCH  70  73
ATOM     73  S   UNL A   1      35.352  32.464  29.542  1.00  0.00     0.127 S 
ATOM     74  O   UNL A   1      34.371  32.711  30.598  1.00  0.00    -0.237 OA
ATOM     75  O   UNL A   1      36.148  33.631  29.163  1.00  0.00    -0.237 OA
ATOM     76  O   UNL A   1      34.877  31.663  28.422  1.00  0.00    -0.744 OA
ENDBRANCH  70  73
ENDBRANCH  52  66
BRANCH  53  77
ATOM     77  C   UNL A   1      46.918  27.272  25.834  1.00  0.00     0.023 A 
ATOM     78  C   UNL A   1      47.885  26.448  26.441  1.00  0.00     0.012 A 
ATOM     79  C   UNL A   1      47.104  27.676  24.499  1.00  0.00     0.148 A 
ATOM     80  C   UNL A   1      49.030  26.060  25.744  1.00  0.00     0.002 A 
ATOM     81  C   UNL A   1      48.222  27.243  23.793  1.00  0.00     0.091 A 
ATOM     82  F   UNL A   1      46.187  28.478  23.939  1.00  0.00    -0.205 F 
ATOM     83  C   UNL A   1      49.194  26.449  24.417  1.00  0.00     0.022 A 
BRANCH  81  84
ATOM     84  S   UNL A   1      48.416  27.597  22.042  1.00  0.00     0.127 S 
ATOM     85  O   UNL A   1      49.543  28.524  22.043  1.00  0.00    -0.237 OA
ATOM     86  O   UNL A   1      48.706  26.276  21.483  1.00  0.00    -0.237 OA
ATOM     87  O   UNL A   1      47.129  28.142  21.630  1.00  0.00    -0.744 OA
ENDBRANCH  81  84
ENDBRANCH  53  77
BRANCH  65  88
ATOM     88  C   UNL A   1      45.102  33.108  29.211  1.00  0.00     0.023 A 
ATOM     89  C   UNL A   1      45.920  33.296  30.342  1.00  0.00     0.012 A 
ATOM     90  C   UNL A   1      45.020  34.120  28.236  1.00  0.00     0.148 A 
ATOM     91  C   UNL A   1      46.634  34.481  30.508  1.00  0.00     0.002 A 
ATOM     92  C   UNL A   1      45.766  35.283  28.389  1.00  0.00     0.091 A 
ATOM     93  F   UNL A   1      44.219  33.927  27.178  1.00  0.00    -0.205 F 
ATOM     94  C   UNL A   1      46.568  35.467  29.527  1.00  0.00     0.022 A 
BRANCH  92  95
ATOM     95  S   UNL A   1      45.812  36.564  27.131  1.00  0.00     0.127 S 
ATOM     96  O   UNL A   1      44.417  37.004  27.101  1.00  0.00    -0.237 OA
ATOM     97  O   UNL A   1      46.745  37.535  27.704  1.00  0.00    -0.237 OA
ATOM     98  O   UNL A   1      46.290  35.914  25.918  1.00  0.00    -0.744 OA
ENDBRANCH  92  95
ENDBRANCH  65  88
ENDBRANCH  39  40
ENDBRANCH  31  34
ENDBRANCH  29  30
ENDBRANCH  28  29
ENDBRANCH  27  28
ENDBRANCH   1  27
TORSDOF 21
ENDMDL
MODEL 2
REMARK VINA RESULT:     -11.8      1.682      2.051
REMARK SMILES [NH3+][C@@H](CCCCC(=O)NCCCCNC(=O)c1ccc(-c2c3nc(c(-c4cccc(S(=O)(=O)[O-])c4F)c4ccc([nH]4)c(-c4cccc(S(=O)(=O)[O-])c4F)c4nc(c(-c5cccc(S(=O)(=O)[O-])c5F)c5ccc2[nH]5)C=C4)C=C3)cc1)c1ccc(-c2ccccc2)cc1
REMARK SMILES IDX 10 1 9 2 7 3 8 4 6 6 5 7 4 8 3 9 2 10 1 11 80 15 81 16 91 17
REMARK SMILES IDX 82 18 90 19 83 20 84 21 85 22 89 23 86 24 88 25 87 26 11 27
REMARK SMILES IDX 12 28 13 29 14 30 15 31 16 33 17 34 18 35 79 36 19 37 78 38
REMARK SMILES IDX 20 39 21 40 22 41 72 42 23 43 77 44 71 45 73 46 24 47 76 48
REMARK SMILES IDX 70 49 69 50 25 52 57 53 37 54 56 55 38 56 41 57 55 58 74 59
REMARK SMILES IDX 39 60 40 61 54 63 75 64 42 65 26 66 27 67 35 68 28 69 30 70
REMARK SMILES IDX 36 71 29 72 31 73 32 74 33 75 34 76 58 77 59 78 67 79 60 80
REMARK SMILES IDX 62 81 68 82 61 83 63 84 64 85 65 86 66 87 43 88 44 89 52 90
REMARK SMILES IDX 45 91 47 92 53 93 46 94 48 95 49 96 50 97 51 98
REMARK H PARENT 9 5 1 12 1 13 1 14 14 32 73 51 41 62
REMARK Flexibility Score: inf
ROOT
ATOM      1  C   UNL A   1      35.182  23.263  24.880  1.00  0.00     0.116 C 
ENDROOT
BRANCH   1   2
ATOM      2  N   UNL A   1      34.871  24.441  25.661  1.00  0.00    -0.356 N 
ATOM      3  C   UNL A   1      34.309  25.613  25.258  1.00  0.00     0.219 C 
ATOM      4  O   UNL A   1      34.183  26.527  26.073  1.00  0.00    -0.275 OA
ATOM      5  H   UNL A   1      35.099  24.387  26.618  1.00  0.00     0.163 HD
BRANCH   3   6
ATOM      6  C   UNL A   1      33.823  25.774  23.830  1.00  0.00     0.100 C 
BRANCH   6   7
ATOM      7  C   UNL A   1      32.973  27.025  23.601  1.00  0.00     0.010 C 
BRANCH   7   8
ATOM      8  C   UNL A   1      31.458  26.946  23.863  1.00  0.00     0.007 C 
BRANCH   8   9
ATOM      9  C   UNL A   1      30.983  26.395  25.222  1.00  0.00     0.070 C 
BRANCH   9  10
ATOM     10  C   UNL A   1      30.088  25.135  25.186  1.00  0.00     0.211 C 
BRANCH  10  11
ATOM     11  N   UNL A   1      29.287  24.997  26.406  1.00  0.00    -0.351 N 
ATOM     12  H   UNL A   1      28.428  25.541  26.311  1.00  0.00     0.345 HD
ATOM     13  H   UNL A   1      29.819  25.341  27.204  1.00  0.00     0.345 HD
ATOM     14  H   UNL A   1      29.053  24.015  26.550  1.00  0.00     0.345 HD
ENDBRANCH  10  11
BRANCH  10  15
ATOM     15  C   UNL A   1      30.904  23.903  24.851  1.00  0.00     0.009 A 
ATOM     16  C   UNL A   1      31.245  23.008  25.872  1.00  0.00     0.010 A 
ATOM     17  C   UNL A   1      31.210  23.548  23.533  1.00  0.00     0.010 A 
ATOM     18  C   UNL A   1      31.811  21.764  25.575  1.00  0.00     0.009 A 
ATOM     19  C   UNL A   1      31.743  22.289  23.238  1.00  0.00     0.009 A 
ATOM     20  C   UNL A   1      32.032  21.356  24.249  1.00  0.00    -0.018 A 
BRANCH  20  21
ATOM     21  C   UNL A   1      32.496  19.988  23.920  1.00  0.00    -0.018 A 
ATOM     22  C   UNL A   1      33.228  19.222  24.847  1.00  0.00     0.009 A 
ATOM     23  C   UNL A   1      32.186  19.380  22.691  1.00  0.00     0.009 A 
ATOM     24  C   UNL A   1      33.636  17.915  24.557  1.00  0.00     0.001 A 
ATOM     25  C   UNL A   1      32.579  18.069  22.403  1.00  0.00     0.001 A 
ATOM     26  C   UNL A   1      33.306  17.339  23.336  1.00  0.00     0.000 A 
ENDBRANCH  20  21
ENDBRANCH  10  15
ENDBRANCH   9  10
ENDBRANCH   8   9
ENDBRANCH   7   8
ENDBRANCH   6   7
ENDBRANCH   3   6
ENDBRANCH   1   2
BRANCH   1  27
ATOM     27  C   UNL A   1      35.412  22.052  25.782  1.00  0.00     0.023 C 
BRANCH  27  28
ATOM     28  C   UNL A   1      36.289  20.959  25.192  1.00  0.00     0.023 C 
BRANCH  28  29
ATOM     29  C   UNL A   1      37.737  21.354  24.965  1.00  0.00     0.116 C 
BRANCH  29  30
ATOM     30  N   UNL A   1      38.700  20.287  25.234  1.00  0.00    -0.352 N 
ATOM     31  C   UNL A   1      39.797  20.348  26.066  1.00  0.00     0.251 C 
ATOM     32  H   UNL A   1      38.548  19.433  24.769  1.00  0.00     0.163 HD
ATOM     33  O   UNL A   1      40.568  19.400  26.178  1.00  0.00    -0.269 OA
BRANCH  31  34
ATOM     34  C   UNL A   1      40.042  21.617  26.776  1.00  0.00     0.039 A 
ATOM     35  C   UNL A   1      40.953  21.632  27.834  1.00  0.00     0.014 A 
ATOM     36  C   UNL A   1      39.529  22.804  26.247  1.00  0.00     0.014 A 
ATOM     37  C   UNL A   1      41.441  22.858  28.291  1.00  0.00     0.010 A 
ATOM     38  C   UNL A   1      40.080  24.012  26.647  1.00  0.00     0.010 A 
ATOM     39  C   UNL A   1      41.057  24.051  27.656  1.00  0.00    -0.014 A 
BRANCH  39  40
ATOM     40  C   UNL A   1      41.704  25.350  27.970  1.00  0.00     0.031 A 
ATOM     41  C   UNL A   1      40.906  26.440  28.628  1.00  0.00     0.074 A 
ATOM     42  C   UNL A   1      42.950  25.601  27.515  1.00  0.00     0.049 A 
ATOM     43  N   UNL A   1      41.238  27.685  28.846  1.00  0.00    -0.248 NA
ATOM     44  C   UNL A   1      39.540  26.098  29.061  1.00  0.00     0.031 C 
ATOM     45  C   UNL A   1      43.788  24.662  26.764  1.00  0.00     0.029 A 
ATOM     46  N   UNL A   1      43.713  26.742  27.578  1.00  0.00    -0.354 N 
ATOM     47  C   UNL A   1      40.106  28.289  29.377  1.00  0.00     0.074 A 
ATOM     48  C   UNL A   1      39.073  27.279  29.438  1.00  0.00     0.031 C 
ATOM     49  C   UNL A   1      44.939  25.267  26.429  1.00  0.00     0.029 A 
ATOM     50  C   UNL A   1      44.915  26.642  26.913  1.00  0.00     0.049 A 
ATOM     51  H   UNL A   1      43.428  27.556  28.054  1.00  0.00     0.167 HD
ATOM     52  C   UNL A   1      39.951  29.562  29.806  1.00  0.00     0.034 A 
ATOM     53  C   UNL A   1      45.881  27.559  26.705  1.00  0.00     0.034 A 
ATOM     54  C   UNL A   1      41.010  30.533  29.839  1.00  0.00     0.049 A 
ATOM     55  C   UNL A   1      45.713  28.942  27.275  1.00  0.00     0.074 A 
ATOM     56  C   UNL A   1      41.003  31.790  30.416  1.00  0.00     0.029 A 
ATOM     57  N   UNL A   1      42.260  30.356  29.270  1.00  0.00    -0.354 N 
ATOM     58  N   UNL A   1      44.715  29.429  27.970  1.00  0.00    -0.248 NA
ATOM     59  C   UNL A   1      46.813  29.893  27.058  1.00  0.00     0.031 C 
ATOM     60  C   UNL A   1      42.250  32.379  30.188  1.00  0.00     0.029 A 
ATOM     61  C   UNL A   1      43.030  31.488  29.467  1.00  0.00     0.049 A 
ATOM     62  H   UNL A   1      42.556  29.547  28.796  1.00  0.00     0.167 HD
ATOM     63  C   UNL A   1      45.075  30.732  28.293  1.00  0.00     0.074 A 
ATOM     64  C   UNL A   1      46.395  30.951  27.740  1.00  0.00     0.031 C 
ATOM     65  C   UNL A   1      44.366  31.671  28.965  1.00  0.00     0.034 A 
BRANCH  52  66
ATOM     66  C   UNL A   1      38.610  29.962  30.353  1.00  0.00     0.023 A 
ATOM     67  C   UNL A   1      38.273  29.614  31.676  1.00  0.00     0.012 A 
ATOM     68  C   UNL A   1      37.720  30.741  29.590  1.00  0.00     0.148 A 
ATOM     69  C   UNL A   1      37.059  30.017  32.227  1.00  0.00     0.002 A 
ATOM     70  C   UNL A   1      36.527  31.170  30.159  1.00  0.00     0.091 A 
ATOM     71  F   UNL A   1      38.053  31.040  28.326  1.00  0.00    -0.205 F 
ATOM     72  C   UNL A   1      36.192  30.804  31.473  1.00  0.00     0.022 A 
BRANCH  70  73
ATOM     73  S   UNL A   1      35.371  32.239  29.295  1.00  0.00     0.127 S 
ATOM     74  O   UNL A   1      34.370  32.489  30.332  1.00  0.00    -0.237 OA
ATOM     75  O   UNL A   1      36.206  33.393  28.964  1.00  0.00    -0.237 OA
ATOM     76  O   UNL A   1      34.902  31.478  28.145  1.00  0.00    -0.744 OA
ENDBRANCH  70  73
ENDBRANCH  52  66
BRANCH  53  77
ATOM     77  C   UNL A   1      47.124  27.184  25.972  1.00  0.00     0.023 A 
ATOM     78  C   UNL A   1      47.222  27.470  24.597  1.00  0.00     0.012 A 
ATOM     79  C   UNL A   1      48.212  26.571  26.622  1.00  0.00     0.148 A 
ATOM     80  C   UNL A   1      48.366  27.125  23.877  1.00  0.00     0.002 A 
ATOM     81  C   UNL A   1      49.369  26.277  25.910  1.00  0.00     0.091 A 
ATOM     82  F   UNL A   1      48.098  26.285  27.928  1.00  0.00    -0.205 F 
ATOM     83  C   UNL A   1      49.444  26.538  24.534  1.00  0.00     0.022 A 
BRANCH  81  84
ATOM     84  S   UNL A   1      50.838  25.650  26.732  1.00  0.00     0.127 S 
ATOM     85  O   UNL A   1      51.760  25.473  25.613  1.00  0.00    -0.237 OA
ATOM     86  O   UNL A   1      51.181  26.742  27.645  1.00  0.00    -0.237 OA
ATOM     87  O   UNL A   1      50.395  24.435  27.405  1.00  0.00    -0.744 OA
ENDBRANCH  81  84
ENDBRANCH  53  77
BRANCH  65  88
ATOM     88  C   UNL A   1      44.995  33.023  29.154  1.00  0.00     0.023 A 
ATOM     89  C   UNL A   1      45.843  33.239  30.258  1.00  0.00     0.012 A 
ATOM     90  C   UNL A   1      44.832  34.040  28.193  1.00  0.00     0.148 A 
ATOM     91  C   UNL A   1      46.507  34.454  30.412  1.00  0.00     0.002 A 
ATOM     92  C   UNL A   1      45.530  35.234  28.332  1.00  0.00     0.091 A 
ATOM     93  F   UNL A   1      44.004  33.819  27.161  1.00  0.00    -0.205 F 
ATOM     94  C   UNL A   1      46.362  35.445  29.444  1.00  0.00     0.022 A 
BRANCH  92  95
ATOM     95  S   UNL A   1      45.473  36.527  27.087  1.00  0.00     0.127 S 
ATOM     96  O   UNL A   1      44.033  36.709  26.910  1.00  0.00    -0.237 OA
ATOM     97  O   UNL A   1      46.150  37.638  27.756  1.00  0.00    -0.237 OA
ATOM     98  O   UNL A   1      46.186  35.998  25.932  1.00  0.00    -0.744 OA
ENDBRANCH  92  95
ENDBRANCH  65  88
ENDBRANCH  39  40
ENDBRANCH  31  34
ENDBRANCH  29  30
ENDBRANCH  28  29
ENDBRANCH  27  28
ENDBRANCH   1  27
TORSDOF 21
ENDMDL
MODEL 3
REMARK VINA RESULT:     -11.6      5.827     10.570
REMARK SMILES [NH3+][C@@H](CCCCC(=O)NCCCCNC(=O)c1ccc(-c2c3nc(c(-c4cccc(S(=O)(=O)[O-])c4F)c4ccc([nH]4)c(-c4cccc(S(=O)(=O)[O-])c4F)c4nc(c(-c5cccc(S(=O)(=O)[O-])c5F)c5ccc2[nH]5)C=C4)C=C3)cc1)c1ccc(-c2ccccc2)cc1
REMARK SMILES IDX 10 1 9 2 7 3 8 4 6 6 5 7 4 8 3 9 2 10 1 11 80 15 81 16 91 17
REMARK SMILES IDX 82 18 90 19 83 20 84 21 85 22 89 23 86 24 88 25 87 26 11 27
REMARK SMILES IDX 12 28 13 29 14 30 15 31 16 33 17 34 18 35 79 36 19 37 78 38
REMARK SMILES IDX 20 39 21 40 22 41 72 42 23 43 77 44 71 45 73 46 24 47 76 48
REMARK SMILES IDX 70 49 69 50 25 52 57 53 37 54 56 55 38 56 41 57 55 58 74 59
REMARK SMILES IDX 39 60 40 61 54 63 75 64 42 65 26 66 27 67 35 68 28 69 30 70
REMARK SMILES IDX 36 71 29 72 31 73 32 74 33 75 34 76 58 77 59 78 67 79 60 80
REMARK SMILES IDX 62 81 68 82 61 83 63 84 64 85 65 86 66 87 43 88 44 89 52 90
REMARK SMILES IDX 45 91 47 92 53 93 46 94 48 95 49 96 50 97 51 98
REMARK H PARENT 9 5 1 12 1 13 1 14 14 32 73 51 41 62
REMARK Flexibility Score: inf
ROOT
ATOM      1  C   UNL A   1      32.153  28.207  27.402  1.00  0.00     0.116 C 
ENDROOT
BRANCH   1   2
ATOM      2  N   UNL A   1      33.097  27.639  26.464  1.00  0.00    -0.356 N 
ATOM      3  C   UNL A   1      33.164  26.369  25.977  1.00  0.00     0.219 C 
ATOM      4  O   UNL A   1      34.091  26.065  25.226  1.00  0.00    -0.275 OA
ATOM      5  H   UNL A   1      33.787  28.257  26.131  1.00  0.00     0.163 HD
BRANCH   3   6
ATOM      6  C   UNL A   1      32.093  25.357  26.338  1.00  0.00     0.100 C 
BRANCH   6   7
ATOM      7  C   UNL A   1      30.846  25.431  25.454  1.00  0.00     0.010 C 
BRANCH   7   8
ATOM      8  C   UNL A   1      30.646  24.357  24.369  1.00  0.00     0.007 C 
BRANCH   8   9
ATOM      9  C   UNL A   1      31.289  24.590  22.988  1.00  0.00     0.070 C 
BRANCH   9  10
ATOM     10  C   UNL A   1      32.641  23.890  22.725  1.00  0.00     0.211 C 
BRANCH  10  11
ATOM     11  N   UNL A   1      32.989  23.887  21.300  1.00  0.00    -0.351 N 
ATOM     12  H   UNL A   1      34.005  23.903  21.199  1.00  0.00     0.345 HD
ATOM     13  H   UNL A   1      32.590  24.711  20.852  1.00  0.00     0.345 HD
ATOM     14  H   UNL A   1      32.617  23.046  20.860  1.00  0.00     0.345 HD
ENDBRANCH  10  11
BRANCH  10  15
ATOM     15  C   UNL A   1      32.670  22.515  23.361  1.00  0.00     0.009 A 
ATOM     16  C   UNL A   1      32.070  21.439  22.695  1.00  0.00     0.010 A 
ATOM     17  C   UNL A   1      33.399  22.247  24.524  1.00  0.00     0.010 A 
ATOM     18  C   UNL A   1      32.254  20.127  23.142  1.00  0.00     0.009 A 
ATOM     19  C   UNL A   1      33.610  20.930  24.947  1.00  0.00     0.009 A 
ATOM     20  C   UNL A   1      33.066  19.837  24.252  1.00  0.00    -0.018 A 
BRANCH  20  21
ATOM     21  C   UNL A   1      33.382  18.444  24.645  1.00  0.00    -0.018 A 
ATOM     22  C   UNL A   1      32.460  17.659  25.362  1.00  0.00     0.009 A 
ATOM     23  C   UNL A   1      34.595  17.832  24.279  1.00  0.00     0.009 A 
ATOM     24  C   UNL A   1      32.737  16.331  25.703  1.00  0.00     0.001 A 
ATOM     25  C   UNL A   1      34.869  16.500  24.604  1.00  0.00     0.001 A 
ATOM     26  C   UNL A   1      33.941  15.751  25.319  1.00  0.00     0.000 A 
ENDBRANCH  20  21
ENDBRANCH  10  15
ENDBRANCH   9  10
ENDBRANCH   8   9
ENDBRANCH   7   8
ENDBRANCH   6   7
ENDBRANCH   3   6
ENDBRANCH   1   2
BRANCH   1  27
ATOM     27  C   UNL A   1      31.980  29.706  27.167  1.00  0.00     0.023 C 
BRANCH  27  28
ATOM     28  C   UNL A   1      33.217  30.431  26.660  1.00  0.00     0.023 C 
BRANCH  28  29
ATOM     29  C   UNL A   1      33.763  31.495  27.596  1.00  0.00     0.116 C 
BRANCH  29  30
ATOM     30  N   UNL A   1      33.028  32.758  27.565  1.00  0.00    -0.352 N 
ATOM     31  C   UNL A   1      33.258  33.873  28.342  1.00  0.00     0.251 C 
ATOM     32  H   UNL A   1      32.287  32.818  26.920  1.00  0.00     0.163 HD
ATOM     33  O   UNL A   1      32.543  34.866  28.263  1.00  0.00    -0.269 OA
BRANCH  31  34
ATOM     34  C   UNL A   1      34.366  33.807  29.313  1.00  0.00     0.039 A 
ATOM     35  C   UNL A   1      34.172  33.119  30.512  1.00  0.00     0.014 A 
ATOM     36  C   UNL A   1      35.637  34.243  28.928  1.00  0.00     0.014 A 
ATOM     37  C   UNL A   1      35.284  32.764  31.278  1.00  0.00     0.010 A 
ATOM     38  C   UNL A   1      36.742  33.815  29.649  1.00  0.00     0.010 A 
ATOM     39  C   UNL A   1      36.579  33.053  30.817  1.00  0.00    -0.014 A 
BRANCH  39  40
ATOM     40  C   UNL A   1      37.790  32.518  31.491  1.00  0.00     0.031 A 
ATOM     41  C   UNL A   1      38.561  31.395  30.857  1.00  0.00     0.074 A 
ATOM     42  C   UNL A   1      38.093  32.928  32.741  1.00  0.00     0.049 A 
ATOM     43  N   UNL A   1      39.546  30.693  31.351  1.00  0.00    -0.248 NA
ATOM     44  C   UNL A   1      38.144  30.978  29.507  1.00  0.00     0.031 C 
ATOM     45  C   UNL A   1      37.354  33.934  33.509  1.00  0.00     0.029 A 
ATOM     46  N   UNL A   1      39.078  32.515  33.605  1.00  0.00    -0.354 N 
ATOM     47  C   UNL A   1      39.821  29.714  30.405  1.00  0.00     0.074 A 
ATOM     48  C   UNL A   1      38.892  29.902  29.314  1.00  0.00     0.031 C 
ATOM     49  C   UNL A   1      37.903  34.050  34.729  1.00  0.00     0.029 A 
ATOM     50  C   UNL A   1      39.015  33.113  34.844  1.00  0.00     0.049 A 
ATOM     51  H   UNL A   1      39.766  31.853  33.361  1.00  0.00     0.167 HD
ATOM     52  C   UNL A   1      40.782  28.762  30.430  1.00  0.00     0.034 A 
ATOM     53  C   UNL A   1      39.757  32.917  35.952  1.00  0.00     0.034 A 
ATOM     54  C   UNL A   1      41.768  28.644  31.469  1.00  0.00     0.049 A 
ATOM     55  C   UNL A   1      40.877  31.912  35.913  1.00  0.00     0.074 A 
ATOM     56  C   UNL A   1      42.887  27.832  31.500  1.00  0.00     0.029 A 
ATOM     57  N   UNL A   1      41.751  29.354  32.658  1.00  0.00    -0.354 N 
ATOM     58  N   UNL A   1      41.260  31.144  34.922  1.00  0.00    -0.248 NA
ATOM     59  C   UNL A   1      41.686  31.765  37.132  1.00  0.00     0.031 C 
ATOM     60  C   UNL A   1      43.545  28.045  32.715  1.00  0.00     0.029 A 
ATOM     61  C   UNL A   1      42.831  28.988  33.439  1.00  0.00     0.049 A 
ATOM     62  H   UNL A   1      41.071  30.019  32.909  1.00  0.00     0.167 HD
ATOM     63  C   UNL A   1      42.365  30.442  35.389  1.00  0.00     0.074 A 
ATOM     64  C   UNL A   1      42.608  30.894  36.743  1.00  0.00     0.031 C 
ATOM     65  C   UNL A   1      43.097  29.490  34.761  1.00  0.00     0.034 A 
BRANCH  52  66
ATOM     66  C   UNL A   1      40.872  27.822  29.261  1.00  0.00     0.023 A 
ATOM     67  C   UNL A   1      40.070  26.664  29.244  1.00  0.00     0.012 A 
ATOM     68  C   UNL A   1      41.689  28.120  28.154  1.00  0.00     0.148 A 
ATOM     69  C   UNL A   1      40.094  25.803  28.150  1.00  0.00     0.002 A 
ATOM     70  C   UNL A   1      41.681  27.276  27.051  1.00  0.00     0.091 A 
ATOM     71  F   UNL A   1      42.461  29.215  28.205  1.00  0.00    -0.205 F 
ATOM     72  C   UNL A   1      40.889  26.115  27.050  1.00  0.00     0.022 A 
BRANCH  70  73
ATOM     73  S   UNL A   1      42.620  27.619  25.559  1.00  0.00     0.127 S 
ATOM     74  O   UNL A   1      42.384  26.406  24.777  1.00  0.00    -0.237 OA
ATOM     75  O   UNL A   1      41.954  28.815  25.044  1.00  0.00    -0.237 OA
ATOM     76  O   UNL A   1      43.995  27.827  25.990  1.00  0.00    -0.744 OA
ENDBRANCH  70  73
ENDBRANCH  52  66
BRANCH  53  77
ATOM     77  C   UNL A   1      39.507  33.731  37.175  1.00  0.00     0.023 A 
ATOM     78  C   UNL A   1      39.977  35.057  37.225  1.00  0.00     0.012 A 
ATOM     79  C   UNL A   1      38.795  33.216  38.275  1.00  0.00     0.148 A 
ATOM     80  C   UNL A   1      39.768  35.846  38.357  1.00  0.00     0.002 A 
ATOM     81  C   UNL A   1      38.547  34.023  39.379  1.00  0.00     0.091 A 
ATOM     82  F   UNL A   1      38.372  31.944  38.224  1.00  0.00    -0.205 F 
ATOM     83  C   UNL A   1      39.045  35.333  39.430  1.00  0.00     0.022 A 
BRANCH  81  84
ATOM     84  S   UNL A   1      37.502  33.463  40.730  1.00  0.00     0.127 S 
ATOM     85  O   UNL A   1      38.346  32.458  41.369  1.00  0.00    -0.237 OA
ATOM     86  O   UNL A   1      37.307  34.688  41.508  1.00  0.00    -0.237 OA
ATOM     87  O   UNL A   1      36.291  32.976  40.083  1.00  0.00    -0.744 OA
ENDBRANCH  81  84
ENDBRANCH  53  77
BRANCH  65  88
ATOM     88  C   UNL A   1      44.239  28.871  35.518  1.00  0.00     0.023 A 
ATOM     89  C   UNL A   1      45.517  29.457  35.435  1.00  0.00     0.012 A 
ATOM     90  C   UNL A   1      44.029  27.781  36.384  1.00  0.00     0.148 A 
ATOM     91  C   UNL A   1      46.574  28.957  36.193  1.00  0.00     0.002 A 
ATOM     92  C   UNL A   1      45.078  27.313  37.167  1.00  0.00     0.091 A 
ATOM     93  F   UNL A   1      42.809  27.226  36.431  1.00  0.00    -0.205 F 
ATOM     94  C   UNL A   1      46.352  27.896  37.067  1.00  0.00     0.022 A 
BRANCH  92  95
ATOM     95  S   UNL A   1      44.859  26.011  38.385  1.00  0.00     0.127 S 
ATOM     96  O   UNL A   1      44.176  26.724  39.464  1.00  0.00    -0.237 OA
ATOM     97  O   UNL A   1      44.025  25.046  37.668  1.00  0.00    -0.237 OA
ATOM     98  O   UNL A   1      46.198  25.532  38.698  1.00  0.00    -0.744 OA
ENDBRANCH  92  95
ENDBRANCH  65  88
ENDBRANCH  39  40
ENDBRANCH  31  34
ENDBRANCH  29  30
ENDBRANCH  28  29
ENDBRANCH  27  28
ENDBRANCH   1  27
TORSDOF 21
ENDMDL
