MODEL 1
REMARK VINA RESULT:     -11.6      0.000      0.000
REMARK SMILES Cc1cc(Oc2ccnc(C(=O)NCCCCNC(=O)c3ccc(-c4c5nc(c(-c6cccc(S(=O)(=O)[O-])c6F)c6ccc([nH]6)c(-c6cccc(S(=O)(=O)[O-])c6F)c6nc(c(-c7cccc(S(=O)(=O)[O-])c7F)c7ccc4[nH]7)C=C6)C=C5)cc3)c2)cc(C)c1Cl
REMARK SMILES IDX 16 1 15 2 14 3 13 4 11 5 12 6 10 8 6 9 7 10 84 11 8 12 9 13
REMARK SMILES IDX 5 14 4 15 1 16 2 17 3 18 88 19 86 20 89 21 85 22 87 23 17 24
REMARK SMILES IDX 18 25 19 26 20 28 21 29 22 30 83 31 23 32 82 33 24 34 25 35
REMARK SMILES IDX 26 36 76 37 27 38 81 39 75 40 77 41 28 42 80 43 74 44 73 45
REMARK SMILES IDX 29 47 61 48 41 49 60 50 42 51 45 52 59 53 78 54 43 55 44 56
REMARK SMILES IDX 58 58 79 59 46 60 30 61 31 62 39 63 32 64 34 65 40 66 33 67
REMARK SMILES IDX 35 68 36 69 37 70 38 71 62 72 63 73 71 74 64 75 66 76 72 77
REMARK SMILES IDX 65 78 67 79 68 80 69 81 70 82 47 83 48 84 56 85 49 86 51 87
REMARK SMILES IDX 57 88 50 89 52 90 53 91 54 92 55 93
REMARK H PARENT 13 7 18 27 77 46 45 57
REMARK Flexibility Score: inf
ROOT
ATOM      1  C   UNL A   1      32.848  28.746  25.322  1.00  0.00     0.023 C 
ENDROOT
BRANCH   1   2
ATOM      2  C   UNL A   1      33.617  28.920  24.006  1.00  0.00     0.023 C 
BRANCH   2   3
ATOM      3  C   UNL A   1      32.729  28.934  22.759  1.00  0.00     0.116 C 
BRANCH   3   4
ATOM      4  N   UNL A   1      33.082  27.847  21.868  1.00  0.00    -0.351 N 
ATOM      5  C   UNL A   1      33.049  26.475  21.982  1.00  0.00     0.270 C 
ATOM      6  O   UNL A   1      33.428  25.845  20.992  1.00  0.00    -0.268 OA
ATOM      7  H   UNL A   1      33.416  28.155  20.995  1.00  0.00     0.163 HD
BRANCH   5   8
ATOM      8  C   UNL A   1      32.560  25.721  23.194  1.00  0.00     0.131 A 
ATOM      9  C   UNL A   1      32.769  24.532  25.248  1.00  0.00     0.131 A 
ATOM     10  C   UNL A   1      31.388  24.482  25.370  1.00  0.00     0.067 A 
ATOM     11  C   UNL A   1      33.374  25.135  24.147  1.00  0.00     0.081 A 
ATOM     12  C   UNL A   1      30.650  25.030  24.347  1.00  0.00     0.116 A 
ATOM     13  N   UNL A   1      31.201  25.647  23.282  1.00  0.00    -0.251 NA
BRANCH   9  14
ATOM     14  O   UNL A   1      33.564  24.093  26.276  1.00  0.00    -0.457 OA
BRANCH  14  15
ATOM     15  C   UNL A   1      34.593  23.223  25.995  1.00  0.00     0.128 A 
ATOM     16  C   UNL A   1      38.374  22.901  25.875  1.00  0.00     0.046 C 
ATOM     17  C   UNL A   1      36.917  22.542  25.764  1.00  0.00    -0.028 A 
ATOM     18  C   UNL A   1      35.954  23.506  26.109  1.00  0.00     0.052 A 
ATOM     19  C   UNL A   1      36.491  21.277  25.311  1.00  0.00     0.047 A 
ATOM     20  C   UNL A   1      35.121  20.974  25.213  1.00  0.00    -0.028 A 
ATOM     21  Cl  UNL A   1      37.669  20.085  24.858  1.00  0.00    -0.084 Cl
ATOM     22  C   UNL A   1      34.185  21.964  25.550  1.00  0.00     0.052 A 
ATOM     23  C   UNL A   1      34.626  19.633  24.746  1.00  0.00     0.046 C 
ENDBRANCH  14  15
ENDBRANCH   9  14
ENDBRANCH   5   8
ENDBRANCH   3   4
ENDBRANCH   2   3
ENDBRANCH   1   2
BRANCH   1  24
ATOM     24  C   UNL A   1      33.664  28.994  26.590  1.00  0.00     0.116 C 
BRANCH  24  25
ATOM     25  N   UNL A   1      33.682  30.389  27.005  1.00  0.00    -0.352 N 
ATOM     26  C   UNL A   1      34.648  31.049  27.731  1.00  0.00     0.251 C 
ATOM     27  H   UNL A   1      32.906  30.929  26.730  1.00  0.00     0.163 HD
ATOM     28  O   UNL A   1      34.477  32.208  28.081  1.00  0.00    -0.269 OA
BRANCH  26  29
ATOM     29  C   UNL A   1      35.872  30.318  28.120  1.00  0.00     0.039 A 
ATOM     30  C   UNL A   1      37.001  30.411  27.301  1.00  0.00     0.014 A 
ATOM     31  C   UNL A   1      35.916  29.591  29.312  1.00  0.00     0.014 A 
ATOM     32  C   UNL A   1      38.202  29.834  27.719  1.00  0.00     0.010 A 
ATOM     33  C   UNL A   1      37.127  29.069  29.752  1.00  0.00     0.010 A 
ATOM     34  C   UNL A   1      38.283  29.190  28.964  1.00  0.00    -0.014 A 
BRANCH  34  35
ATOM     35  C   UNL A   1      39.567  28.656  29.481  1.00  0.00     0.031 A 
ATOM     36  C   UNL A   1      40.291  29.377  30.584  1.00  0.00     0.074 A 
ATOM     37  C   UNL A   1      40.132  27.590  28.882  1.00  0.00     0.049 A 
ATOM     38  N   UNL A   1      41.466  29.126  31.099  1.00  0.00    -0.248 NA
ATOM     39  C   UNL A   1      39.619  30.552  31.163  1.00  0.00     0.031 C 
ATOM     40  C   UNL A   1      39.562  26.854  27.750  1.00  0.00     0.029 A 
ATOM     41  N   UNL A   1      41.328  26.959  29.118  1.00  0.00    -0.354 N 
ATOM     42  C   UNL A   1      41.692  30.130  32.032  1.00  0.00     0.074 A 
ATOM     43  C   UNL A   1      40.546  31.012  31.990  1.00  0.00     0.031 C 
ATOM     44  C   UNL A   1      40.406  25.873  27.394  1.00  0.00     0.029 A 
ATOM     45  C   UNL A   1      41.588  25.925  28.249  1.00  0.00     0.049 A 
ATOM     46  H   UNL A   1      41.941  27.223  29.841  1.00  0.00     0.167 HD
ATOM     47  C   UNL A   1      42.743  30.286  32.872  1.00  0.00     0.034 A 
ATOM     48  C   UNL A   1      42.660  25.113  28.151  1.00  0.00     0.034 A 
ATOM     49  C   UNL A   1      43.853  29.377  32.948  1.00  0.00     0.049 A 
ATOM     50  C   UNL A   1      43.793  25.280  29.128  1.00  0.00     0.074 A 
ATOM     51  C   UNL A   1      44.924  29.397  33.823  1.00  0.00     0.029 A 
ATOM     52  N   UNL A   1      44.034  28.281  32.119  1.00  0.00    -0.354 N 
ATOM     53  N   UNL A   1      43.917  26.142  30.107  1.00  0.00    -0.248 NA
ATOM     54  C   UNL A   1      44.918  24.342  29.008  1.00  0.00     0.031 C 
ATOM     55  C   UNL A   1      45.757  28.315  33.518  1.00  0.00     0.029 A 
ATOM     56  C   UNL A   1      45.199  27.616  32.459  1.00  0.00     0.049 A 
ATOM     57  H   UNL A   1      43.423  28.014  31.393  1.00  0.00     0.167 HD
ATOM     58  C   UNL A   1      45.112  25.828  30.744  1.00  0.00     0.074 A 
ATOM     59  C   UNL A   1      45.667  24.685  30.049  1.00  0.00     0.031 C 
ATOM     60  C   UNL A   1      45.703  26.440  31.799  1.00  0.00     0.034 A 
BRANCH  47  61
ATOM     61  C   UNL A   1      42.704  31.451  33.825  1.00  0.00     0.023 A 
ATOM     62  C   UNL A   1      43.271  32.681  33.431  1.00  0.00     0.012 A 
ATOM     63  C   UNL A   1      42.076  31.350  35.081  1.00  0.00     0.148 A 
ATOM     64  C   UNL A   1      43.246  33.781  34.286  1.00  0.00     0.002 A 
ATOM     65  C   UNL A   1      42.019  32.465  35.912  1.00  0.00     0.091 A 
ATOM     66  F   UNL A   1      41.564  30.167  35.449  1.00  0.00    -0.205 F 
ATOM     67  C   UNL A   1      42.612  33.676  35.521  1.00  0.00     0.022 A 
BRANCH  65  68
ATOM     68  S   UNL A   1      41.160  32.447  37.489  1.00  0.00     0.127 S 
ATOM     69  O   UNL A   1      42.029  31.587  38.290  1.00  0.00    -0.237 OA
ATOM     70  O   UNL A   1      41.182  33.860  37.871  1.00  0.00    -0.237 OA
ATOM     71  O   UNL A   1      39.831  31.918  37.212  1.00  0.00    -0.744 OA
ENDBRANCH  65  68
ENDBRANCH  47  61
BRANCH  48  72
ATOM     72  C   UNL A   1      42.670  24.014  27.146  1.00  0.00     0.023 A 
ATOM     73  C   UNL A   1      43.304  24.226  25.907  1.00  0.00     0.012 A 
ATOM     74  C   UNL A   1      42.096  22.756  27.417  1.00  0.00     0.148 A 
ATOM     75  C   UNL A   1      43.343  23.217  24.944  1.00  0.00     0.002 A 
ATOM     76  C   UNL A   1      42.182  21.739  26.473  1.00  0.00     0.091 A 
ATOM     77  F   UNL A   1      41.485  22.577  28.597  1.00  0.00    -0.205 F 
ATOM     78  C   UNL A   1      42.791  21.972  25.230  1.00  0.00     0.022 A 
BRANCH  76  79
ATOM     79  S   UNL A   1      41.615  20.066  26.807  1.00  0.00     0.127 S 
ATOM     80  O   UNL A   1      40.200  20.283  27.092  1.00  0.00    -0.237 OA
ATOM     81  O   UNL A   1      41.893  19.392  25.539  1.00  0.00    -0.237 OA
ATOM     82  O   UNL A   1      42.425  19.598  27.922  1.00  0.00    -0.744 OA
ENDBRANCH  76  79
ENDBRANCH  48  72
BRANCH  60  83
ATOM     83  C   UNL A   1      47.005  25.871  32.299  1.00  0.00     0.023 A 
ATOM     84  C   UNL A   1      48.221  26.355  31.780  1.00  0.00     0.012 A 
ATOM     85  C   UNL A   1      47.022  24.928  33.346  1.00  0.00     0.148 A 
ATOM     86  C   UNL A   1      49.437  25.893  32.282  1.00  0.00     0.002 A 
ATOM     87  C   UNL A   1      48.238  24.505  33.870  1.00  0.00     0.091 A 
ATOM     88  F   UNL A   1      45.852  24.466  33.811  1.00  0.00    -0.205 F 
ATOM     89  C   UNL A   1      49.446  24.979  33.333  1.00  0.00     0.022 A 
BRANCH  87  90
ATOM     90  S   UNL A   1      48.342  23.403  35.286  1.00  0.00     0.127 S 
ATOM     91  O   UNL A   1      47.352  22.383  34.943  1.00  0.00    -0.237 OA
ATOM     92  O   UNL A   1      49.732  22.948  35.226  1.00  0.00    -0.237 OA
ATOM     93  O   UNL A   1      48.026  24.219  36.450  1.00  0.00    -0.744 OA
ENDBRANCH  87  90
ENDBRANCH  60  83
ENDBRANCH  34  35
ENDBRANCH  26  29
ENDBRANCH  24  25
ENDBRANCH   1  24
TORSDOF 16
ENDMDL
MODEL 2
REMARK VINA RESULT:     -11.6      3.485      8.822
REMARK SMILES Cc1cc(Oc2ccnc(C(=O)NCCCCNC(=O)c3ccc(-c4c5nc(c(-c6cccc(S(=O)(=O)[O-])c6F)c6ccc([nH]6)c(-c6cccc(S(=O)(=O)[O-])c6F)c6nc(c(-c7cccc(S(=O)(=O)[O-])c7F)c7ccc4[nH]7)C=C6)C=C5)cc3)c2)cc(C)c1Cl
REMARK SMILES IDX 16 1 15 2 14 3 13 4 11 5 12 6 10 8 6 9 7 10 84 11 8 12 9 13
REMARK SMILES IDX 5 14 4 15 1 16 2 17 3 18 88 19 86 20 89 21 85 22 87 23 17 24
REMARK SMILES IDX 18 25 19 26 20 28 21 29 22 30 83 31 23 32 82 33 24 34 25 35
REMARK SMILES IDX 26 36 76 37 27 38 81 39 75 40 77 41 28 42 80 43 74 44 73 45
REMARK SMILES IDX 29 47 61 48 41 49 60 50 42 51 45 52 59 53 78 54 43 55 44 56
REMARK SMILES IDX 58 58 79 59 46 60 30 61 31 62 39 63 32 64 34 65 40 66 33 67
REMARK SMILES IDX 35 68 36 69 37 70 38 71 62 72 63 73 71 74 64 75 66 76 72 77
REMARK SMILES IDX 65 78 67 79 68 80 69 81 70 82 47 83 48 84 56 85 49 86 51 87
REMARK SMILES IDX 57 88 50 89 52 90 53 91 54 92 55 93
REMARK H PARENT 13 7 18 27 77 46 45 57
REMARK Flexibility Score: inf
ROOT
ATOM      1  C   UNL A   1      31.904  31.443  26.878  1.00  0.00     0.023 C 
ENDROOT
BRANCH   1   2
ATOM      2  C   UNL A   1      32.332  30.277  25.977  1.00  0.00     0.023 C 
BRANCH   2   3
ATOM      3  C   UNL A   1      32.995  29.118  26.725  1.00  0.00     0.116 C 
BRANCH   3   4
ATOM      4  N   UNL A   1      32.028  28.078  27.017  1.00  0.00    -0.351 N 
ATOM      5  C   UNL A   1      31.428  27.098  26.260  1.00  0.00     0.270 C 
ATOM      6  O   UNL A   1      30.637  26.365  26.859  1.00  0.00    -0.268 OA
ATOM      7  H   UNL A   1      31.739  28.072  27.958  1.00  0.00     0.163 HD
BRANCH   5   8
ATOM      8  C   UNL A   1      31.697  26.852  24.796  1.00  0.00     0.131 A 
ATOM      9  C   UNL A   1      32.861  25.965  22.916  1.00  0.00     0.131 A 
ATOM     10  C   UNL A   1      31.885  26.464  22.064  1.00  0.00     0.067 A 
ATOM     11  C   UNL A   1      32.790  26.169  24.292  1.00  0.00     0.081 A 
ATOM     12  C   UNL A   1      30.867  27.189  22.638  1.00  0.00     0.116 A 
ATOM     13  N   UNL A   1      30.751  27.381  23.968  1.00  0.00    -0.251 NA
BRANCH   9  14
ATOM     14  O   UNL A   1      33.849  25.151  22.421  1.00  0.00    -0.457 OA
BRANCH  14  15
ATOM     15  C   UNL A   1      34.058  23.926  23.014  1.00  0.00     0.128 A 
ATOM     16  C   UNL A   1      32.348  20.691  24.026  1.00  0.00     0.046 C 
ATOM     17  C   UNL A   1      33.424  21.726  23.835  1.00  0.00    -0.028 A 
ATOM     18  C   UNL A   1      33.097  22.930  23.188  1.00  0.00     0.052 A 
ATOM     19  C   UNL A   1      34.740  21.531  24.300  1.00  0.00     0.047 A 
ATOM     20  C   UNL A   1      35.722  22.520  24.111  1.00  0.00    -0.028 A 
ATOM     21  Cl  UNL A   1      35.151  20.060  25.124  1.00  0.00    -0.084 Cl
ATOM     22  C   UNL A   1      35.359  23.717  23.475  1.00  0.00     0.052 A 
ATOM     23  C   UNL A   1      37.140  22.346  24.580  1.00  0.00     0.046 C 
ENDBRANCH  14  15
ENDBRANCH   9  14
ENDBRANCH   5   8
ENDBRANCH   3   4
ENDBRANCH   2   3
ENDBRANCH   1   2
BRANCH   1  24
ATOM     24  C   UNL A   1      33.033  32.370  27.323  1.00  0.00     0.116 C 
BRANCH  24  25
ATOM     25  N   UNL A   1      32.592  33.729  27.602  1.00  0.00    -0.352 N 
ATOM     26  C   UNL A   1      33.086  34.610  28.538  1.00  0.00     0.251 C 
ATOM     27  H   UNL A   1      31.847  34.061  27.050  1.00  0.00     0.163 HD
ATOM     28  O   UNL A   1      32.547  35.694  28.714  1.00  0.00    -0.269 OA
BRANCH  26  29
ATOM     29  C   UNL A   1      34.247  34.205  29.357  1.00  0.00     0.039 A 
ATOM     30  C   UNL A   1      34.022  33.494  30.539  1.00  0.00     0.014 A 
ATOM     31  C   UNL A   1      35.548  34.480  28.929  1.00  0.00     0.014 A 
ATOM     32  C   UNL A   1      35.110  32.992  31.256  1.00  0.00     0.010 A 
ATOM     33  C   UNL A   1      36.625  33.928  29.612  1.00  0.00     0.010 A 
ATOM     34  C   UNL A   1      36.418  33.174  30.778  1.00  0.00    -0.014 A 
BRANCH  34  35
ATOM     35  C   UNL A   1      37.586  32.567  31.462  1.00  0.00     0.031 A 
ATOM     36  C   UNL A   1      38.310  31.411  30.829  1.00  0.00     0.074 A 
ATOM     37  C   UNL A   1      37.923  32.984  32.698  1.00  0.00     0.049 A 
ATOM     38  N   UNL A   1      39.284  30.686  31.313  1.00  0.00    -0.248 NA
ATOM     39  C   UNL A   1      37.859  30.998  29.490  1.00  0.00     0.031 C 
ATOM     40  C   UNL A   1      37.246  34.046  33.448  1.00  0.00     0.029 A 
ATOM     41  N   UNL A   1      38.899  32.543  33.557  1.00  0.00    -0.354 N 
ATOM     42  C   UNL A   1      39.536  29.708  30.359  1.00  0.00     0.074 A 
ATOM     43  C   UNL A   1      38.592  29.914  29.282  1.00  0.00     0.031 C 
ATOM     44  C   UNL A   1      37.827  34.174  34.651  1.00  0.00     0.029 A 
ATOM     45  C   UNL A   1      38.897  33.189  34.772  1.00  0.00     0.049 A 
ATOM     46  H   UNL A   1      39.538  31.832  33.326  1.00  0.00     0.167 HD
ATOM     47  C   UNL A   1      40.490  28.746  30.362  1.00  0.00     0.034 A 
ATOM     48  C   UNL A   1      39.670  33.005  35.861  1.00  0.00     0.034 A 
ATOM     49  C   UNL A   1      41.460  28.580  31.409  1.00  0.00     0.049 A 
ATOM     50  C   UNL A   1      40.752  31.959  35.820  1.00  0.00     0.074 A 
ATOM     51  C   UNL A   1      42.520  27.693  31.467  1.00  0.00     0.029 A 
ATOM     52  N   UNL A   1      41.492  29.319  32.581  1.00  0.00    -0.354 N 
ATOM     53  N   UNL A   1      41.076  31.147  34.844  1.00  0.00    -0.248 NA
ATOM     54  C   UNL A   1      41.597  31.828  37.015  1.00  0.00     0.031 C 
ATOM     55  C   UNL A   1      43.189  27.893  32.679  1.00  0.00     0.029 A 
ATOM     56  C   UNL A   1      42.552  28.911  33.371  1.00  0.00     0.049 A 
ATOM     57  H   UNL A   1      40.853  30.031  32.817  1.00  0.00     0.167 HD
ATOM     58  C   UNL A   1      42.183  30.435  35.291  1.00  0.00     0.074 A 
ATOM     59  C   UNL A   1      42.485  30.925  36.620  1.00  0.00     0.031 C 
ATOM     60  C   UNL A   1      42.878  29.454  34.664  1.00  0.00     0.034 A 
BRANCH  47  61
ATOM     61  C   UNL A   1      40.569  27.842  29.162  1.00  0.00     0.023 A 
ATOM     62  C   UNL A   1      39.692  26.741  29.069  1.00  0.00     0.012 A 
ATOM     63  C   UNL A   1      41.470  28.097  28.110  1.00  0.00     0.148 A 
ATOM     64  C   UNL A   1      39.734  25.889  27.968  1.00  0.00     0.002 A 
ATOM     65  C   UNL A   1      41.477  27.265  26.995  1.00  0.00     0.091 A 
ATOM     66  F   UNL A   1      42.313  29.133  28.224  1.00  0.00    -0.205 F 
ATOM     67  C   UNL A   1      40.618  26.156  26.927  1.00  0.00     0.022 A 
BRANCH  65  68
ATOM     68  S   UNL A   1      42.530  27.571  25.571  1.00  0.00     0.127 S 
ATOM     69  O   UNL A   1      43.861  27.519  26.172  1.00  0.00    -0.237 OA
ATOM     70  O   UNL A   1      42.210  26.441  24.699  1.00  0.00    -0.237 OA
ATOM     71  O   UNL A   1      42.124  28.869  25.048  1.00  0.00    -0.744 OA
ENDBRANCH  65  68
ENDBRANCH  47  61
BRANCH  48  72
ATOM     72  C   UNL A   1      39.506  33.891  37.047  1.00  0.00     0.023 A 
ATOM     73  C   UNL A   1      39.920  35.234  36.960  1.00  0.00     0.012 A 
ATOM     74  C   UNL A   1      38.915  33.432  38.241  1.00  0.00     0.148 A 
ATOM     75  C   UNL A   1      39.775  36.097  38.047  1.00  0.00     0.002 A 
ATOM     76  C   UNL A   1      38.727  34.310  39.302  1.00  0.00     0.091 A 
ATOM     77  F   UNL A   1      38.539  32.146  38.310  1.00  0.00    -0.205 F 
ATOM     78  C   UNL A   1      39.170  35.639  39.213  1.00  0.00     0.022 A 
BRANCH  76  79
ATOM     79  S   UNL A   1      37.840  33.840  40.793  1.00  0.00     0.127 S 
ATOM     80  O   UNL A   1      38.810  32.973  41.456  1.00  0.00    -0.237 OA
ATOM     81  O   UNL A   1      37.626  35.135  41.441  1.00  0.00    -0.237 OA
ATOM     82  O   UNL A   1      36.619  33.195  40.331  1.00  0.00    -0.744 OA
ENDBRANCH  76  79
ENDBRANCH  48  72
BRANCH  60  83
ATOM     83  C   UNL A   1      44.059  28.862  35.385  1.00  0.00     0.023 A 
ATOM     84  C   UNL A   1      45.332  29.444  35.233  1.00  0.00     0.012 A 
ATOM     85  C   UNL A   1      43.889  27.790  36.283  1.00  0.00     0.148 A 
ATOM     86  C   UNL A   1      46.424  28.955  35.949  1.00  0.00     0.002 A 
ATOM     87  C   UNL A   1      44.973  27.336  37.026  1.00  0.00     0.091 A 
ATOM     88  F   UNL A   1      42.672  27.237  36.398  1.00  0.00    -0.205 F 
ATOM     89  C   UNL A   1      46.242  27.912  36.853  1.00  0.00     0.022 A 
BRANCH  87  90
ATOM     90  S   UNL A   1      44.811  26.060  38.281  1.00  0.00     0.127 S 
ATOM     91  O   UNL A   1      46.176  25.976  38.798  1.00  0.00    -0.237 OA
ATOM     92  O   UNL A   1      43.844  26.653  39.206  1.00  0.00    -0.237 OA
ATOM     93  O   UNL A   1      44.329  24.875  37.586  1.00  0.00    -0.744 OA
ENDBRANCH  87  90
ENDBRANCH  60  83
ENDBRANCH  34  35
ENDBRANCH  26  29
ENDBRANCH  24  25
ENDBRANCH   1  24
TORSDOF 16
ENDMDL
MODEL 3
REMARK VINA RESULT:     -11.4      2.228      2.974
REMARK SMILES Cc1cc(Oc2ccnc(C(=O)NCCCCNC(=O)c3ccc(-c4c5nc(c(-c6cccc(S(=O)(=O)[O-])c6F)c6ccc([nH]6)c(-c6cccc(S(=O)(=O)[O-])c6F)c6nc(c(-c7cccc(S(=O)(=O)[O-])c7F)c7ccc4[nH]7)C=C6)C=C5)cc3)c2)cc(C)c1Cl
REMARK SMILES IDX 16 1 15 2 14 3 13 4 11 5 12 6 10 8 6 9 7 10 84 11 8 12 9 13
REMARK SMILES IDX 5 14 4 15 1 16 2 17 3 18 88 19 86 20 89 21 85 22 87 23 17 24
REMARK SMILES IDX 18 25 19 26 20 28 21 29 22 30 83 31 23 32 82 33 24 34 25 35
REMARK SMILES IDX 26 36 76 37 27 38 81 39 75 40 77 41 28 42 80 43 74 44 73 45
REMARK SMILES IDX 29 47 61 48 41 49 60 50 42 51 45 52 59 53 78 54 43 55 44 56
REMARK SMILES IDX 58 58 79 59 46 60 30 61 31 62 39 63 32 64 34 65 40 66 33 67
REMARK SMILES IDX 35 68 36 69 37 70 38 71 62 72 63 73 71 74 64 75 66 76 72 77
REMARK SMILES IDX 65 78 67 79 68 80 69 81 70 82 47 83 48 84 56 85 49 86 51 87
REMARK SMILES IDX 57 88 50 89 52 90 53 91 54 92 55 93
REMARK H PARENT 13 7 18 27 77 46 45 57
REMARK Flexibility Score: inf
ROOT
ATOM      1  C   UNL A   1      32.523  29.365  25.494  1.00  0.00     0.023 C 
ENDROOT
BRANCH   1   2
ATOM      2  C   UNL A   1      31.370  28.693  24.738  1.00  0.00     0.023 C 
BRANCH   2   3
ATOM      3  C   UNL A   1      31.365  28.966  23.232  1.00  0.00     0.116 C 
BRANCH   3   4
ATOM      4  N   UNL A   1      32.718  29.046  22.721  1.00  0.00    -0.351 N 
ATOM      5  C   UNL A   1      33.656  28.104  22.362  1.00  0.00     0.270 C 
ATOM      6  O   UNL A   1      34.732  28.546  21.951  1.00  0.00    -0.268 OA
ATOM      7  H   UNL A   1      33.036  29.971  22.608  1.00  0.00     0.163 HD
BRANCH   5   8
ATOM      8  C   UNL A   1      33.441  26.611  22.405  1.00  0.00     0.131 A 
ATOM      9  C   UNL A   1      33.231  24.471  23.432  1.00  0.00     0.131 A 
ATOM     10  C   UNL A   1      32.900  23.906  22.209  1.00  0.00     0.067 A 
ATOM     11  C   UNL A   1      33.525  25.829  23.543  1.00  0.00     0.081 A 
ATOM     12  C   UNL A   1      32.903  24.740  21.114  1.00  0.00     0.116 A 
ATOM     13  N   UNL A   1      33.154  26.063  21.189  1.00  0.00    -0.251 NA
BRANCH   9  14
ATOM     14  O   UNL A   1      33.151  23.720  24.577  1.00  0.00    -0.457 OA
BRANCH  14  15
ATOM     15  C   UNL A   1      33.964  22.617  24.704  1.00  0.00     0.128 A 
ATOM     16  C   UNL A   1      37.584  21.506  24.986  1.00  0.00     0.046 C 
ATOM     17  C   UNL A   1      36.083  21.437  24.905  1.00  0.00    -0.028 A 
ATOM     18  C   UNL A   1      35.355  22.636  24.808  1.00  0.00     0.052 A 
ATOM     19  C   UNL A   1      35.389  20.211  24.907  1.00  0.00     0.047 A 
ATOM     20  C   UNL A   1      33.985  20.180  24.824  1.00  0.00    -0.028 A 
ATOM     21  Cl  UNL A   1      36.276  18.722  25.001  1.00  0.00    -0.084 Cl
ATOM     22  C   UNL A   1      33.290  21.394  24.712  1.00  0.00     0.052 A 
ATOM     23  C   UNL A   1      33.207  18.893  24.835  1.00  0.00     0.046 C 
ENDBRANCH  14  15
ENDBRANCH   9  14
ENDBRANCH   5   8
ENDBRANCH   3   4
ENDBRANCH   2   3
ENDBRANCH   1   2
BRANCH   1  24
ATOM     24  C   UNL A   1      32.153  29.959  26.852  1.00  0.00     0.116 C 
BRANCH  24  25
ATOM     25  N   UNL A   1      32.159  31.415  26.871  1.00  0.00    -0.352 N 
ATOM     26  C   UNL A   1      33.138  32.256  27.349  1.00  0.00     0.251 C 
ATOM     27  H   UNL A   1      31.363  31.852  26.491  1.00  0.00     0.163 HD
ATOM     28  O   UNL A   1      32.958  33.465  27.376  1.00  0.00    -0.269 OA
BRANCH  26  29
ATOM     29  C   UNL A   1      34.390  31.669  27.872  1.00  0.00     0.039 A 
ATOM     30  C   UNL A   1      35.493  32.504  28.070  1.00  0.00     0.014 A 
ATOM     31  C   UNL A   1      34.452  30.317  28.213  1.00  0.00     0.014 A 
ATOM     32  C   UNL A   1      36.640  31.993  28.682  1.00  0.00     0.010 A 
ATOM     33  C   UNL A   1      35.571  29.827  28.876  1.00  0.00     0.010 A 
ATOM     34  C   UNL A   1      36.673  30.661  29.123  1.00  0.00    -0.014 A 
BRANCH  34  35
ATOM     35  C   UNL A   1      37.836  30.117  29.868  1.00  0.00     0.031 A 
ATOM     36  C   UNL A   1      38.118  30.586  31.268  1.00  0.00     0.074 A 
ATOM     37  C   UNL A   1      38.696  29.289  29.243  1.00  0.00     0.049 A 
ATOM     38  N   UNL A   1      39.134  30.307  32.041  1.00  0.00    -0.248 NA
ATOM     39  C   UNL A   1      37.145  31.516  31.865  1.00  0.00     0.031 C 
ATOM     40  C   UNL A   1      38.570  28.824  27.859  1.00  0.00     0.029 A 
ATOM     41  N   UNL A   1      39.865  28.717  29.679  1.00  0.00    -0.354 N 
ATOM     42  C   UNL A   1      38.946  31.053  33.197  1.00  0.00     0.074 A 
ATOM     43  C   UNL A   1      37.734  31.821  33.012  1.00  0.00     0.031 C 
ATOM     44  C   UNL A   1      39.617  28.038  27.562  1.00  0.00     0.029 A 
ATOM     45  C   UNL A   1      40.503  27.965  28.720  1.00  0.00     0.049 A 
ATOM     46  H   UNL A   1      40.213  28.835  30.592  1.00  0.00     0.167 HD
ATOM     47  C   UNL A   1      39.696  31.073  34.325  1.00  0.00     0.034 A 
ATOM     48  C   UNL A   1      41.671  27.294  28.768  1.00  0.00     0.034 A 
ATOM     49  C   UNL A   1      40.868  30.267  34.524  1.00  0.00     0.049 A 
ATOM     50  C   UNL A   1      42.461  27.296  30.050  1.00  0.00     0.074 A 
ATOM     51  C   UNL A   1      41.648  30.148  35.660  1.00  0.00     0.029 A 
ATOM     52  N   UNL A   1      41.430  29.438  33.565  1.00  0.00    -0.354 N 
ATOM     53  N   UNL A   1      42.184  27.885  31.188  1.00  0.00    -0.248 NA
ATOM     54  C   UNL A   1      43.704  26.513  30.067  1.00  0.00     0.031 C 
ATOM     55  C   UNL A   1      42.686  29.251  35.386  1.00  0.00     0.029 A 
ATOM     56  C   UNL A   1      42.546  28.804  34.081  1.00  0.00     0.049 A 
ATOM     57  H   UNL A   1      41.085  29.319  32.650  1.00  0.00     0.167 HD
ATOM     58  C   UNL A   1      43.196  27.515  32.066  1.00  0.00     0.074 A 
ATOM     59  C   UNL A   1      44.084  26.636  31.332  1.00  0.00     0.031 C 
ATOM     60  C   UNL A   1      43.382  27.881  33.358  1.00  0.00     0.034 A 
BRANCH  47  61
ATOM     61  C   UNL A   1      39.226  31.947  35.456  1.00  0.00     0.023 A 
ATOM     62  C   UNL A   1      38.304  31.429  36.390  1.00  0.00     0.012 A 
ATOM     63  C   UNL A   1      39.721  33.254  35.627  1.00  0.00     0.148 A 
ATOM     64  C   UNL A   1      37.854  32.209  37.453  1.00  0.00     0.002 A 
ATOM     65  C   UNL A   1      39.299  34.012  36.715  1.00  0.00     0.091 A 
ATOM     66  F   UNL A   1      40.579  33.739  34.718  1.00  0.00    -0.205 F 
ATOM     67  C   UNL A   1      38.359  33.496  37.621  1.00  0.00     0.022 A 
BRANCH  65  68
ATOM     68  S   UNL A   1      39.948  35.652  37.056  1.00  0.00     0.127 S 
ATOM     69  O   UNL A   1      39.211  36.016  38.265  1.00  0.00    -0.237 OA
ATOM     70  O   UNL A   1      41.371  35.386  37.268  1.00  0.00    -0.237 OA
ATOM     71  O   UNL A   1      39.653  36.450  35.873  1.00  0.00    -0.744 OA
ENDBRANCH  65  68
ENDBRANCH  47  61
BRANCH  48  72
ATOM     72  C   UNL A   1      42.118  26.493  27.595  1.00  0.00     0.023 A 
ATOM     73  C   UNL A   1      42.872  27.122  26.585  1.00  0.00     0.012 A 
ATOM     74  C   UNL A   1      41.838  25.117  27.485  1.00  0.00     0.148 A 
ATOM     75  C   UNL A   1      43.317  26.403  25.475  1.00  0.00     0.002 A 
ATOM     76  C   UNL A   1      42.327  24.395  26.402  1.00  0.00     0.091 A 
ATOM     77  F   UNL A   1      41.107  24.538  28.450  1.00  0.00    -0.205 F 
ATOM     78  C   UNL A   1      43.053  25.040  25.388  1.00  0.00     0.022 A 
BRANCH  76  79
ATOM     79  S   UNL A   1      42.146  22.612  26.275  1.00  0.00     0.127 S 
ATOM     80  O   UNL A   1      42.849  22.155  27.469  1.00  0.00    -0.237 OA
ATOM     81  O   UNL A   1      40.692  22.450  26.314  1.00  0.00    -0.237 OA
ATOM     82  O   UNL A   1      42.752  22.251  25.001  1.00  0.00    -0.744 OA
ENDBRANCH  76  79
ENDBRANCH  48  72
BRANCH  60  83
ATOM     83  C   UNL A   1      44.571  27.309  34.084  1.00  0.00     0.023 A 
ATOM     84  C   UNL A   1      45.806  27.983  34.035  1.00  0.00     0.012 A 
ATOM     85  C   UNL A   1      44.438  26.160  34.887  1.00  0.00     0.148 A 
ATOM     86  C   UNL A   1      46.899  27.509  34.759  1.00  0.00     0.002 A 
ATOM     87  C   UNL A   1      45.519  25.718  35.640  1.00  0.00     0.091 A 
ATOM     88  F   UNL A   1      43.258  25.522  34.903  1.00  0.00    -0.205 F 
ATOM     89  C   UNL A   1      46.753  26.387  35.570  1.00  0.00     0.022 A 
BRANCH  87  90
ATOM     90  S   UNL A   1      45.394  24.338  36.783  1.00  0.00     0.127 S 
ATOM     91  O   UNL A   1      45.290  23.202  35.868  1.00  0.00    -0.237 OA
ATOM     92  O   UNL A   1      46.661  24.420  37.512  1.00  0.00    -0.237 OA
ATOM     93  O   UNL A   1      44.214  24.598  37.597  1.00  0.00    -0.744 OA
ENDBRANCH  87  90
ENDBRANCH  60  83
ENDBRANCH  34  35
ENDBRANCH  26  29
ENDBRANCH  24  25
ENDBRANCH   1  24
TORSDOF 16
ENDMDL
