MODEL 1
REMARK VINA RESULT:     -12.6      0.000      0.000
REMARK SMILES [NH3+][C@@H](Cc1cn(-c2nc(Cl)nc(N3CCOCC3)n2)c2ccccc12)C(=O)NCCCCNC(=O)c1ccc(-c2c3nc(c(-c4cccc(S(=O)(=O)[O-])c4F)c4ccc([nH]4)c(-c4cccc(S(=O)(=O)[O-])c4F)c4nc(c(-c5cccc(S(=O)(=O)[O-])c5F)c5ccc2[nH]5)C=C4)C=C3)cc1
REMARK SMILES IDX 30 1 29 2 28 3 26 4 27 5 2 7 1 8 3 12 4 13 5 14 25 15 6 16
REMARK SMILES IDX 20 17 24 18 21 19 23 20 22 21 7 22 8 23 19 24 9 25 12 26
REMARK SMILES IDX 10 27 11 28 13 29 14 30 18 31 15 32 17 33 16 34 31 35 32 36
REMARK SMILES IDX 33 37 34 38 35 40 36 41 37 42 98 43 38 44 97 45 39 46 40 47
REMARK SMILES IDX 41 48 91 49 42 50 96 51 90 52 92 53 43 54 95 55 89 56 88 57
REMARK SMILES IDX 44 59 76 60 56 61 75 62 57 63 60 64 74 65 93 66 58 67 59 68
REMARK SMILES IDX 73 70 94 71 61 72 45 73 46 74 54 75 47 76 49 77 55 78 48 79
REMARK SMILES IDX 50 80 51 81 52 82 53 83 77 84 78 85 86 86 79 87 81 88 87 89
REMARK SMILES IDX 80 90 82 91 83 92 84 93 85 94 62 95 63 96 71 97 64 98 66 99
REMARK SMILES IDX 72 100 65 101 67 102 68 103 69 104 70 105
REMARK H PARENT 28 6 1 9 1 10 1 11 33 39 92 58 60 69
REMARK Flexibility Score: inf
ROOT
ATOM      1  C   UNL A   1      37.421  21.496  24.508  1.00  0.00     0.023 C 
ENDROOT
BRANCH   1   2
ATOM      2  C   UNL A   1      35.956  21.859  24.605  1.00  0.00     0.116 C 
BRANCH   2   3
ATOM      3  N   UNL A   1      35.561  22.573  25.790  1.00  0.00    -0.351 N 
ATOM      4  C   UNL A   1      34.449  22.370  26.560  1.00  0.00     0.278 C 
ATOM      5  O   UNL A   1      34.451  22.869  27.692  1.00  0.00    -0.268 OA
ATOM      6  H   UNL A   1      36.163  23.296  26.081  1.00  0.00     0.163 HD
BRANCH   4   7
ATOM      7  C   UNL A   1      33.217  21.557  26.070  1.00  0.00     0.275 C 
BRANCH   7   8
ATOM      8  N   UNL A   1      33.191  20.184  26.624  1.00  0.00    -0.347 N 
ATOM      9  H   UNL A   1      34.047  20.016  27.155  1.00  0.00     0.345 HD
ATOM     10  H   UNL A   1      33.128  19.511  25.861  1.00  0.00     0.345 HD
ATOM     11  H   UNL A   1      32.384  20.080  27.239  1.00  0.00     0.345 HD
ENDBRANCH   7   8
BRANCH   7  12
ATOM     12  C   UNL A   1      31.869  22.313  26.011  1.00  0.00     0.113 C 
BRANCH  12  13
ATOM     13  C   UNL A   1      31.775  23.581  25.210  1.00  0.00    -0.015 A 
ATOM     14  C   UNL A   1      31.291  24.807  25.629  1.00  0.00     0.099 A 
ATOM     15  C   UNL A   1      32.207  23.768  23.854  1.00  0.00     0.004 A 
ATOM     16  N   UNL A   1      31.509  25.753  24.641  1.00  0.00    -0.285 N 
ATOM     17  C   UNL A   1      32.005  25.114  23.511  1.00  0.00     0.056 A 
ATOM     18  C   UNL A   1      32.824  22.915  22.913  1.00  0.00     0.010 A 
ATOM     19  C   UNL A   1      32.422  25.625  22.268  1.00  0.00     0.027 A 
ATOM     20  C   UNL A   1      33.260  23.426  21.687  1.00  0.00     0.001 A 
ATOM     21  C   UNL A   1      33.068  24.765  21.376  1.00  0.00     0.002 A 
BRANCH  16  22
ATOM     22  C   UNL A   1      31.455  27.163  24.853  1.00  0.00     0.240 A 
ATOM     23  N   UNL A   1      32.164  27.691  25.840  1.00  0.00    -0.181 NA
ATOM     24  N   UNL A   1      30.651  27.847  24.033  1.00  0.00    -0.176 NA
ATOM     25  C   UNL A   1      32.021  29.010  25.909  1.00  0.00     0.228 A 
ATOM     26  C   UNL A   1      30.527  29.152  24.271  1.00  0.00     0.231 A 
ATOM     27  Cl  UNL A   1      33.064  29.804  27.007  1.00  0.00    -0.041 Cl
ATOM     28  N   UNL A   1      31.258  29.799  25.158  1.00  0.00    -0.182 NA
BRANCH  26  29
ATOM     29  N   UNL A   1      29.599  29.817  23.512  1.00  0.00    -0.336 N 
ATOM     30  C   UNL A   1      29.291  31.193  23.925  1.00  0.00     0.148 C 
ATOM     31  C   UNL A   1      29.626  29.668  22.060  1.00  0.00     0.148 C 
ATOM     32  C   UNL A   1      27.919  31.575  23.345  1.00  0.00     0.181 C 
ATOM     33  C   UNL A   1      28.232  30.066  21.536  1.00  0.00     0.181 C 
ATOM     34  O   UNL A   1      27.886  31.409  21.915  1.00  0.00    -0.378 OA
ENDBRANCH  26  29
ENDBRANCH  16  22
ENDBRANCH  12  13
ENDBRANCH   7  12
ENDBRANCH   4   7
ENDBRANCH   2   3
ENDBRANCH   1   2
BRANCH   1  35
ATOM     35  C   UNL A   1      37.771  20.032  24.751  1.00  0.00     0.023 C 
BRANCH  35  36
ATOM     36  C   UNL A   1      38.749  19.732  25.897  1.00  0.00     0.116 C 
BRANCH  36  37
ATOM     37  N   UNL A   1      40.042  19.205  25.503  1.00  0.00    -0.352 N 
ATOM     38  C   UNL A   1      41.330  19.410  25.925  1.00  0.00     0.251 C 
ATOM     39  H   UNL A   1      39.981  18.553  24.768  1.00  0.00     0.163 HD
ATOM     40  O   UNL A   1      42.162  18.563  25.588  1.00  0.00    -0.269 OA
BRANCH  38  41
ATOM     41  C   UNL A   1      41.796  20.621  26.646  1.00  0.00     0.039 A 
ATOM     42  C   UNL A   1      41.828  20.737  28.032  1.00  0.00     0.014 A 
ATOM     43  C   UNL A   1      42.078  21.758  25.865  1.00  0.00     0.014 A 
ATOM     44  C   UNL A   1      41.975  21.976  28.629  1.00  0.00     0.010 A 
ATOM     45  C   UNL A   1      42.268  23.001  26.460  1.00  0.00     0.010 A 
ATOM     46  C   UNL A   1      42.148  23.111  27.839  1.00  0.00    -0.014 A 
BRANCH  46  47
ATOM     47  C   UNL A   1      42.244  24.379  28.546  1.00  0.00     0.031 A 
ATOM     48  C   UNL A   1      41.117  25.323  28.314  1.00  0.00     0.074 A 
ATOM     49  C   UNL A   1      43.258  24.682  29.376  1.00  0.00     0.049 A 
ATOM     50  N   UNL A   1      41.158  26.480  27.732  1.00  0.00    -0.248 NA
ATOM     51  C   UNL A   1      39.763  24.868  28.659  1.00  0.00     0.031 C 
ATOM     52  C   UNL A   1      44.300  23.796  29.898  1.00  0.00     0.029 A 
ATOM     53  N   UNL A   1      43.477  25.848  30.041  1.00  0.00    -0.354 N 
ATOM     54  C   UNL A   1      39.865  26.990  27.819  1.00  0.00     0.074 A 
ATOM     55  C   UNL A   1      39.025  25.907  28.268  1.00  0.00     0.031 C 
ATOM     56  C   UNL A   1      44.850  24.371  30.989  1.00  0.00     0.029 A 
ATOM     57  C   UNL A   1      44.290  25.699  31.159  1.00  0.00     0.049 A 
ATOM     58  H   UNL A   1      43.098  26.712  29.760  1.00  0.00     0.167 HD
ATOM     59  C   UNL A   1      39.591  28.317  27.706  1.00  0.00     0.034 A 
ATOM     60  C   UNL A   1      44.371  26.567  32.196  1.00  0.00     0.034 A 
ATOM     61  C   UNL A   1      40.679  29.065  27.146  1.00  0.00     0.049 A 
ATOM     62  C   UNL A   1      43.937  27.892  31.683  1.00  0.00     0.074 A 
ATOM     63  C   UNL A   1      41.376  29.027  25.955  1.00  0.00     0.029 A 
ATOM     64  N   UNL A   1      41.447  29.809  28.008  1.00  0.00    -0.354 N 
ATOM     65  N   UNL A   1      44.592  28.567  30.777  1.00  0.00    -0.248 NA
ATOM     66  C   UNL A   1      42.548  28.284  31.871  1.00  0.00     0.031 C 
ATOM     67  C   UNL A   1      42.725  29.306  26.316  1.00  0.00     0.029 A 
ATOM     68  C   UNL A   1      42.751  29.535  27.694  1.00  0.00     0.049 A 
ATOM     69  H   UNL A   1      41.125  30.417  28.711  1.00  0.00     0.167 HD
ATOM     70  C   UNL A   1      43.605  29.151  29.995  1.00  0.00     0.074 A 
ATOM     71  C   UNL A   1      42.376  29.027  30.775  1.00  0.00     0.031 C 
ATOM     72  C   UNL A   1      43.809  29.419  28.672  1.00  0.00     0.034 A 
BRANCH  59  73
ATOM     73  C   UNL A   1      38.445  28.999  28.398  1.00  0.00     0.023 A 
ATOM     74  C   UNL A   1      37.568  29.792  27.629  1.00  0.00     0.012 A 
ATOM     75  C   UNL A   1      38.358  29.105  29.804  1.00  0.00     0.148 A 
ATOM     76  C   UNL A   1      36.650  30.658  28.235  1.00  0.00     0.002 A 
ATOM     77  C   UNL A   1      37.397  29.910  30.401  1.00  0.00     0.091 A 
ATOM     78  F   UNL A   1      39.294  28.530  30.569  1.00  0.00    -0.205 F 
ATOM     79  C   UNL A   1      36.554  30.705  29.622  1.00  0.00     0.022 A 
BRANCH  77  80
ATOM     80  S   UNL A   1      37.216  29.967  32.186  1.00  0.00     0.127 S 
ATOM     81  O   UNL A   1      38.408  30.723  32.574  1.00  0.00    -0.237 OA
ATOM     82  O   UNL A   1      35.950  30.694  32.336  1.00  0.00    -0.237 OA
ATOM     83  O   UNL A   1      37.161  28.583  32.611  1.00  0.00    -0.744 OA
ENDBRANCH  77  80
ENDBRANCH  59  73
BRANCH  60  84
ATOM     84  C   UNL A   1      44.476  26.265  33.649  1.00  0.00     0.023 A 
ATOM     85  C   UNL A   1      45.751  26.199  34.247  1.00  0.00     0.012 A 
ATOM     86  C   UNL A   1      43.353  26.302  34.510  1.00  0.00     0.148 A 
ATOM     87  C   UNL A   1      45.904  26.216  35.640  1.00  0.00     0.002 A 
ATOM     88  C   UNL A   1      43.508  26.292  35.893  1.00  0.00     0.091 A 
ATOM     89  F   UNL A   1      42.129  26.454  33.990  1.00  0.00    -0.205 F 
ATOM     90  C   UNL A   1      44.783  26.265  36.463  1.00  0.00     0.022 A 
BRANCH  88  91
ATOM     91  S   UNL A   1      42.087  26.343  36.995  1.00  0.00     0.127 S 
ATOM     92  O   UNL A   1      42.717  26.336  38.316  1.00  0.00    -0.237 OA
ATOM     93  O   UNL A   1      41.457  27.607  36.623  1.00  0.00    -0.237 OA
ATOM     94  O   UNL A   1      41.322  25.137  36.699  1.00  0.00    -0.744 OA
ENDBRANCH  88  91
ENDBRANCH  60  84
BRANCH  72  95
ATOM     95  C   UNL A   1      45.198  29.273  28.108  1.00  0.00     0.023 A 
ATOM     96  C   UNL A   1      46.148  30.312  28.210  1.00  0.00     0.012 A 
ATOM     97  C   UNL A   1      45.623  27.996  27.705  1.00  0.00     0.148 A 
ATOM     98  C   UNL A   1      47.494  30.080  27.917  1.00  0.00     0.002 A 
ATOM     99  C   UNL A   1      46.969  27.760  27.451  1.00  0.00     0.091 A 
ATOM    100  F   UNL A   1      44.706  27.019  27.635  1.00  0.00    -0.205 F 
ATOM    101  C   UNL A   1      47.907  28.800  27.553  1.00  0.00     0.022 A 
BRANCH  99 102
ATOM    102  S   UNL A   1      47.595  26.114  27.105  1.00  0.00     0.127 S 
ATOM    103  O   UNL A   1      46.959  25.807  25.825  1.00  0.00    -0.237 OA
ATOM    104  O   UNL A   1      49.039  26.340  27.032  1.00  0.00    -0.237 OA
ATOM    105  O   UNL A   1      47.176  25.275  28.222  1.00  0.00    -0.744 OA
ENDBRANCH  99 102
ENDBRANCH  72  95
ENDBRANCH  46  47
ENDBRANCH  38  41
ENDBRANCH  36  37
ENDBRANCH  35  36
ENDBRANCH   1  35
TORSDOF 19
ENDMDL
MODEL 2
REMARK VINA RESULT:     -12.4      3.197      6.543
REMARK SMILES [NH3+][C@@H](Cc1cn(-c2nc(Cl)nc(N3CCOCC3)n2)c2ccccc12)C(=O)NCCCCNC(=O)c1ccc(-c2c3nc(c(-c4cccc(S(=O)(=O)[O-])c4F)c4ccc([nH]4)c(-c4cccc(S(=O)(=O)[O-])c4F)c4nc(c(-c5cccc(S(=O)(=O)[O-])c5F)c5ccc2[nH]5)C=C4)C=C3)cc1
REMARK SMILES IDX 30 1 29 2 28 3 26 4 27 5 2 7 1 8 3 12 4 13 5 14 25 15 6 16
REMARK SMILES IDX 20 17 24 18 21 19 23 20 22 21 7 22 8 23 19 24 9 25 12 26
REMARK SMILES IDX 10 27 11 28 13 29 14 30 18 31 15 32 17 33 16 34 31 35 32 36
REMARK SMILES IDX 33 37 34 38 35 40 36 41 37 42 98 43 38 44 97 45 39 46 40 47
REMARK SMILES IDX 41 48 91 49 42 50 96 51 90 52 92 53 43 54 95 55 89 56 88 57
REMARK SMILES IDX 44 59 76 60 56 61 75 62 57 63 60 64 74 65 93 66 58 67 59 68
REMARK SMILES IDX 73 70 94 71 61 72 45 73 46 74 54 75 47 76 49 77 55 78 48 79
REMARK SMILES IDX 50 80 51 81 52 82 53 83 77 84 78 85 86 86 79 87 81 88 87 89
REMARK SMILES IDX 80 90 82 91 83 92 84 93 85 94 62 95 63 96 71 97 64 98 66 99
REMARK SMILES IDX 72 100 65 101 67 102 68 103 69 104 70 105
REMARK H PARENT 28 6 1 9 1 10 1 11 33 39 92 58 60 69
REMARK Flexibility Score: inf
ROOT
ATOM      1  C   UNL A   1      36.995  22.944  26.013  1.00  0.00     0.023 C 
ENDROOT
BRANCH   1   2
ATOM      2  C   UNL A   1      35.638  22.277  25.975  1.00  0.00     0.116 C 
BRANCH   2   3
ATOM      3  N   UNL A   1      34.747  22.600  27.058  1.00  0.00    -0.351 N 
ATOM      4  C   UNL A   1      33.433  22.245  27.196  1.00  0.00     0.278 C 
ATOM      5  O   UNL A   1      32.939  22.351  28.326  1.00  0.00    -0.268 OA
ATOM      6  H   UNL A   1      35.128  23.141  27.786  1.00  0.00     0.163 HD
BRANCH   4   7
ATOM      7  C   UNL A   1      32.566  21.731  26.012  1.00  0.00     0.275 C 
BRANCH   7   8
ATOM      8  N   UNL A   1      32.511  20.253  25.954  1.00  0.00    -0.347 N 
ATOM      9  H   UNL A   1      33.386  19.896  25.568  1.00  0.00     0.345 HD
ATOM     10  H   UNL A   1      31.735  19.964  25.359  1.00  0.00     0.345 HD
ATOM     11  H   UNL A   1      32.377  19.879  26.893  1.00  0.00     0.345 HD
ENDBRANCH   7   8
BRANCH   7  12
ATOM     12  C   UNL A   1      31.247  22.491  25.741  1.00  0.00     0.113 C 
BRANCH  12  13
ATOM     13  C   UNL A   1      31.288  23.776  24.963  1.00  0.00    -0.015 A 
ATOM     14  C   UNL A   1      30.818  25.015  25.358  1.00  0.00     0.099 A 
ATOM     15  C   UNL A   1      31.861  23.967  23.661  1.00  0.00     0.004 A 
ATOM     16  N   UNL A   1      31.174  25.967  24.418  1.00  0.00    -0.285 N 
ATOM     17  C   UNL A   1      31.752  25.327  23.329  1.00  0.00     0.056 A 
ATOM     18  C   UNL A   1      32.531  23.104  22.766  1.00  0.00     0.010 A 
ATOM     19  C   UNL A   1      32.313  25.841  22.145  1.00  0.00     0.027 A 
ATOM     20  C   UNL A   1      33.109  23.617  21.601  1.00  0.00     0.001 A 
ATOM     21  C   UNL A   1      33.008  24.968  21.302  1.00  0.00     0.002 A 
BRANCH  16  22
ATOM     22  C   UNL A   1      31.161  27.375  24.656  1.00  0.00     0.240 A 
ATOM     23  N   UNL A   1      31.848  27.859  25.678  1.00  0.00    -0.181 NA
ATOM     24  N   UNL A   1      30.412  28.101  23.818  1.00  0.00    -0.176 NA
ATOM     25  C   UNL A   1      31.748  29.181  25.767  1.00  0.00     0.228 A 
ATOM     26  C   UNL A   1      30.325  29.405  24.077  1.00  0.00     0.231 A 
ATOM     27  Cl  UNL A   1      32.774  29.919  26.920  1.00  0.00    -0.041 Cl
ATOM     28  N   UNL A   1      31.042  30.010  25.003  1.00  0.00    -0.182 NA
BRANCH  26  29
ATOM     29  N   UNL A   1      29.450  30.115  23.295  1.00  0.00    -0.336 N 
ATOM     30  C   UNL A   1      29.146  31.481  23.742  1.00  0.00     0.148 C 
ATOM     31  C   UNL A   1      29.551  30.019  21.842  1.00  0.00     0.148 C 
ATOM     32  C   UNL A   1      27.814  31.912  23.106  1.00  0.00     0.181 C 
ATOM     33  C   UNL A   1      28.194  30.463  21.262  1.00  0.00     0.181 C 
ATOM     34  O   UNL A   1      27.853  31.798  21.672  1.00  0.00    -0.378 OA
ENDBRANCH  26  29
ENDBRANCH  16  22
ENDBRANCH  12  13
ENDBRANCH   7  12
ENDBRANCH   4   7
ENDBRANCH   2   3
ENDBRANCH   1   2
BRANCH   1  35
ATOM     35  C   UNL A   1      38.163  22.130  25.469  1.00  0.00     0.023 C 
BRANCH  35  36
ATOM     36  C   UNL A   1      39.316  21.832  26.439  1.00  0.00     0.116 C 
BRANCH  36  37
ATOM     37  N   UNL A   1      40.643  22.188  25.973  1.00  0.00    -0.352 N 
ATOM     38  C   UNL A   1      41.608  23.061  26.402  1.00  0.00     0.251 C 
ATOM     39  H   UNL A   1      40.910  21.691  25.166  1.00  0.00     0.163 HD
ATOM     40  O   UNL A   1      42.746  22.886  25.960  1.00  0.00    -0.269 OA
BRANCH  38  41
ATOM     41  C   UNL A   1      41.350  24.247  27.257  1.00  0.00     0.039 A 
ATOM     42  C   UNL A   1      40.327  25.162  27.030  1.00  0.00     0.014 A 
ATOM     43  C   UNL A   1      42.296  24.524  28.263  1.00  0.00     0.014 A 
ATOM     44  C   UNL A   1      40.330  26.390  27.666  1.00  0.00     0.010 A 
ATOM     45  C   UNL A   1      42.281  25.741  28.937  1.00  0.00     0.010 A 
ATOM     46  C   UNL A   1      41.335  26.694  28.584  1.00  0.00    -0.014 A 
BRANCH  46  47
ATOM     47  C   UNL A   1      41.291  28.025  29.168  1.00  0.00     0.031 A 
ATOM     48  C   UNL A   1      42.244  29.008  28.583  1.00  0.00     0.074 A 
ATOM     49  C   UNL A   1      40.438  28.368  30.150  1.00  0.00     0.049 A 
ATOM     50  N   UNL A   1      43.249  29.581  29.165  1.00  0.00    -0.248 NA
ATOM     51  C   UNL A   1      42.137  29.289  27.144  1.00  0.00     0.031 C 
ATOM     52  C   UNL A   1      39.293  27.615  30.662  1.00  0.00     0.029 A 
ATOM     53  N   UNL A   1      40.347  29.558  30.804  1.00  0.00    -0.354 N 
ATOM     54  C   UNL A   1      43.784  30.452  28.219  1.00  0.00     0.074 A 
ATOM     55  C   UNL A   1      43.154  30.131  26.961  1.00  0.00     0.031 C 
ATOM     56  C   UNL A   1      38.478  28.463  31.326  1.00  0.00     0.029 A 
ATOM     57  C   UNL A   1      39.104  29.771  31.387  1.00  0.00     0.049 A 
ATOM     58  H   UNL A   1      41.088  30.204  30.859  1.00  0.00     0.167 HD
ATOM     59  C   UNL A   1      44.564  31.514  28.557  1.00  0.00     0.034 A 
ATOM     60  C   UNL A   1      38.604  30.975  31.761  1.00  0.00     0.034 A 
ATOM     61  C   UNL A   1      45.062  31.433  29.900  1.00  0.00     0.049 A 
ATOM     62  C   UNL A   1      39.767  31.872  31.984  1.00  0.00     0.074 A 
ATOM     63  C   UNL A   1      45.845  30.535  30.596  1.00  0.00     0.029 A 
ATOM     64  N   UNL A   1      44.454  32.218  30.849  1.00  0.00    -0.354 N 
ATOM     65  N   UNL A   1      40.647  31.694  32.932  1.00  0.00    -0.248 NA
ATOM     66  C   UNL A   1      40.189  32.738  30.893  1.00  0.00     0.031 C 
ATOM     67  C   UNL A   1      45.278  30.498  31.902  1.00  0.00     0.029 A 
ATOM     68  C   UNL A   1      44.216  31.404  31.924  1.00  0.00     0.049 A 
ATOM     69  H   UNL A   1      44.234  33.174  30.772  1.00  0.00     0.167 HD
ATOM     70  C   UNL A   1      41.857  32.056  32.356  1.00  0.00     0.074 A 
ATOM     71  C   UNL A   1      41.501  32.785  31.142  1.00  0.00     0.031 C 
ATOM     72  C   UNL A   1      43.034  31.487  32.753  1.00  0.00     0.034 A 
BRANCH  59  73
ATOM     73  C   UNL A   1      44.625  32.794  27.774  1.00  0.00     0.023 A 
ATOM     74  C   UNL A   1      45.764  33.046  26.982  1.00  0.00     0.012 A 
ATOM     75  C   UNL A   1      43.734  33.867  27.996  1.00  0.00     0.148 A 
ATOM     76  C   UNL A   1      46.008  34.315  26.442  1.00  0.00     0.002 A 
ATOM     77  C   UNL A   1      43.942  35.103  27.399  1.00  0.00     0.091 A 
ATOM     78  F   UNL A   1      42.752  33.734  28.896  1.00  0.00    -0.205 F 
ATOM     79  C   UNL A   1      45.088  35.340  26.638  1.00  0.00     0.022 A 
BRANCH  77  80
ATOM     80  S   UNL A   1      42.757  36.437  27.596  1.00  0.00     0.127 S 
ATOM     81  O   UNL A   1      43.455  37.544  26.936  1.00  0.00    -0.237 OA
ATOM     82  O   UNL A   1      41.596  35.918  26.865  1.00  0.00    -0.237 OA
ATOM     83  O   UNL A   1      42.554  36.563  29.025  1.00  0.00    -0.744 OA
ENDBRANCH  77  80
ENDBRANCH  59  73
BRANCH  60  84
ATOM     84  C   UNL A   1      37.214  31.484  31.617  1.00  0.00     0.023 A 
ATOM     85  C   UNL A   1      36.423  31.657  32.772  1.00  0.00     0.012 A 
ATOM     86  C   UNL A   1      36.739  32.048  30.410  1.00  0.00     0.148 A 
ATOM     87  C   UNL A   1      35.236  32.401  32.736  1.00  0.00     0.002 A 
ATOM     88  C   UNL A   1      35.545  32.763  30.373  1.00  0.00     0.091 A 
ATOM     89  F   UNL A   1      37.497  31.984  29.309  1.00  0.00    -0.205 F 
ATOM     90  C   UNL A   1      34.798  32.957  31.538  1.00  0.00     0.022 A 
BRANCH  88  91
ATOM     91  S   UNL A   1      34.935  33.488  28.844  1.00  0.00     0.127 S 
ATOM     92  O   UNL A   1      34.801  32.317  27.976  1.00  0.00    -0.237 OA
ATOM     93  O   UNL A   1      33.672  34.083  29.269  1.00  0.00    -0.237 OA
ATOM     94  O   UNL A   1      35.970  34.423  28.417  1.00  0.00    -0.744 OA
ENDBRANCH  88  91
ENDBRANCH  60  84
BRANCH  72  95
ATOM     95  C   UNL A   1      43.040  30.611  33.977  1.00  0.00     0.023 A 
ATOM     96  C   UNL A   1      43.171  31.157  35.273  1.00  0.00     0.012 A 
ATOM     97  C   UNL A   1      42.655  29.267  33.838  1.00  0.00     0.148 A 
ATOM     98  C   UNL A   1      42.922  30.376  36.404  1.00  0.00     0.002 A 
ATOM     99  C   UNL A   1      42.372  28.505  34.964  1.00  0.00     0.091 A 
ATOM    100  F   UNL A   1      42.517  28.776  32.596  1.00  0.00    -0.205 F 
ATOM    101  C   UNL A   1      42.508  29.055  36.249  1.00  0.00     0.022 A 
BRANCH  99 102
ATOM    102  S   UNL A   1      41.710  26.841  34.843  1.00  0.00     0.127 S 
ATOM    103  O   UNL A   1      40.555  27.034  33.969  1.00  0.00    -0.237 OA
ATOM    104  O   UNL A   1      42.822  26.108  34.236  1.00  0.00    -0.237 OA
ATOM    105  O   UNL A   1      41.395  26.428  36.206  1.00  0.00    -0.744 OA
ENDBRANCH  99 102
ENDBRANCH  72  95
ENDBRANCH  46  47
ENDBRANCH  38  41
ENDBRANCH  36  37
ENDBRANCH  35  36
ENDBRANCH   1  35
TORSDOF 19
ENDMDL
MODEL 3
REMARK VINA RESULT:     -12.1      3.616      7.699
REMARK SMILES [NH3+][C@@H](Cc1cn(-c2nc(Cl)nc(N3CCOCC3)n2)c2ccccc12)C(=O)NCCCCNC(=O)c1ccc(-c2c3nc(c(-c4cccc(S(=O)(=O)[O-])c4F)c4ccc([nH]4)c(-c4cccc(S(=O)(=O)[O-])c4F)c4nc(c(-c5cccc(S(=O)(=O)[O-])c5F)c5ccc2[nH]5)C=C4)C=C3)cc1
REMARK SMILES IDX 30 1 29 2 28 3 26 4 27 5 2 7 1 8 3 12 4 13 5 14 25 15 6 16
REMARK SMILES IDX 20 17 24 18 21 19 23 20 22 21 7 22 8 23 19 24 9 25 12 26
REMARK SMILES IDX 10 27 11 28 13 29 14 30 18 31 15 32 17 33 16 34 31 35 32 36
REMARK SMILES IDX 33 37 34 38 35 40 36 41 37 42 98 43 38 44 97 45 39 46 40 47
REMARK SMILES IDX 41 48 91 49 42 50 96 51 90 52 92 53 43 54 95 55 89 56 88 57
REMARK SMILES IDX 44 59 76 60 56 61 75 62 57 63 60 64 74 65 93 66 58 67 59 68
REMARK SMILES IDX 73 70 94 71 61 72 45 73 46 74 54 75 47 76 49 77 55 78 48 79
REMARK SMILES IDX 50 80 51 81 52 82 53 83 77 84 78 85 86 86 79 87 81 88 87 89
REMARK SMILES IDX 80 90 82 91 83 92 84 93 85 94 62 95 63 96 71 97 64 98 66 99
REMARK SMILES IDX 72 100 65 101 67 102 68 103 69 104 70 105
REMARK H PARENT 28 6 1 9 1 10 1 11 33 39 92 58 60 69
REMARK Flexibility Score: inf
ROOT
ATOM      1  C   UNL A   1      38.520  23.462  26.096  1.00  0.00     0.023 C 
ENDROOT
BRANCH   1   2
ATOM      2  C   UNL A   1      37.089  23.485  26.583  1.00  0.00     0.116 C 
BRANCH   2   3
ATOM      3  N   UNL A   1      36.263  22.383  26.165  1.00  0.00    -0.351 N 
ATOM      4  C   UNL A   1      35.887  22.053  24.892  1.00  0.00     0.278 C 
ATOM      5  O   UNL A   1      35.444  20.911  24.717  1.00  0.00    -0.268 OA
ATOM      6  H   UNL A   1      35.927  21.797  26.881  1.00  0.00     0.163 HD
BRANCH   4   7
ATOM      7  C   UNL A   1      35.994  23.039  23.695  1.00  0.00     0.275 C 
BRANCH   7   8
ATOM      8  N   UNL A   1      37.022  22.625  22.714  1.00  0.00    -0.347 N 
ATOM      9  H   UNL A   1      36.582  22.471  21.806  1.00  0.00     0.345 HD
ATOM     10  H   UNL A   1      37.463  21.760  23.028  1.00  0.00     0.345 HD
ATOM     11  H   UNL A   1      37.727  23.356  22.630  1.00  0.00     0.345 HD
ENDBRANCH   7   8
BRANCH   7  12
ATOM     12  C   UNL A   1      34.662  23.583  23.127  1.00  0.00     0.113 C 
BRANCH  12  13
ATOM     13  C   UNL A   1      33.773  24.412  24.010  1.00  0.00    -0.015 A 
ATOM     14  C   UNL A   1      33.784  25.787  24.162  1.00  0.00     0.099 A 
ATOM     15  C   UNL A   1      32.711  23.930  24.846  1.00  0.00     0.004 A 
ATOM     16  N   UNL A   1      32.716  26.173  24.954  1.00  0.00    -0.285 N 
ATOM     17  C   UNL A   1      32.088  25.035  25.446  1.00  0.00     0.056 A 
ATOM     18  C   UNL A   1      32.180  22.643  25.084  1.00  0.00     0.010 A 
ATOM     19  C   UNL A   1      30.945  24.885  26.253  1.00  0.00     0.027 A 
ATOM     20  C   UNL A   1      31.030  22.494  25.865  1.00  0.00     0.001 A 
ATOM     21  C   UNL A   1      30.418  23.603  26.433  1.00  0.00     0.002 A 
BRANCH  16  22
ATOM     22  C   UNL A   1      32.220  27.509  25.039  1.00  0.00     0.240 A 
ATOM     23  N   UNL A   1      32.628  28.282  26.033  1.00  0.00    -0.181 NA
ATOM     24  N   UNL A   1      31.342  27.867  24.096  1.00  0.00    -0.176 NA
ATOM     25  C   UNL A   1      32.091  29.496  25.976  1.00  0.00     0.228 A 
ATOM     26  C   UNL A   1      30.810  29.083  24.210  1.00  0.00     0.231 A 
ATOM     27  Cl  UNL A   1      32.724  30.632  27.088  1.00  0.00    -0.041 Cl
ATOM     28  N   UNL A   1      31.214  29.971  25.097  1.00  0.00    -0.182 NA
BRANCH  26  29
ATOM     29  N   UNL A   1      29.813  29.389  23.319  1.00  0.00    -0.336 N 
ATOM     30  C   UNL A   1      30.243  29.991  22.050  1.00  0.00     0.148 C 
ATOM     31  C   UNL A   1      28.704  28.456  23.141  1.00  0.00     0.148 C 
ATOM     32  C   UNL A   1      29.042  30.733  21.438  1.00  0.00     0.181 C 
ATOM     33  C   UNL A   1      27.536  29.251  22.525  1.00  0.00     0.181 C 
ATOM     34  O   UNL A   1      27.909  29.860  21.277  1.00  0.00    -0.378 OA
ENDBRANCH  26  29
ENDBRANCH  16  22
ENDBRANCH  12  13
ENDBRANCH   7  12
ENDBRANCH   4   7
ENDBRANCH   2   3
ENDBRANCH   1   2
BRANCH   1  35
ATOM     35  C   UNL A   1      39.275  22.149  26.279  1.00  0.00     0.023 C 
BRANCH  35  36
ATOM     36  C   UNL A   1      40.738  22.246  26.735  1.00  0.00     0.116 C 
BRANCH  36  37
ATOM     37  N   UNL A   1      41.651  22.882  25.802  1.00  0.00    -0.352 N 
ATOM     38  C   UNL A   1      42.309  24.084  25.773  1.00  0.00     0.251 C 
ATOM     39  H   UNL A   1      41.838  22.325  25.013  1.00  0.00     0.163 HD
ATOM     40  O   UNL A   1      43.254  24.174  24.986  1.00  0.00    -0.269 OA
BRANCH  38  41
ATOM     41  C   UNL A   1      41.890  25.291  26.529  1.00  0.00     0.039 A 
ATOM     42  C   UNL A   1      41.184  26.352  25.972  1.00  0.00     0.014 A 
ATOM     43  C   UNL A   1      42.374  25.416  27.845  1.00  0.00     0.014 A 
ATOM     44  C   UNL A   1      41.097  27.562  26.636  1.00  0.00     0.010 A 
ATOM     45  C   UNL A   1      42.253  26.617  28.536  1.00  0.00     0.010 A 
ATOM     46  C   UNL A   1      41.673  27.705  27.897  1.00  0.00    -0.014 A 
BRANCH  46  47
ATOM     47  C   UNL A   1      41.579  29.024  28.502  1.00  0.00     0.031 A 
ATOM     48  C   UNL A   1      42.707  29.946  28.196  1.00  0.00     0.074 A 
ATOM     49  C   UNL A   1      40.539  29.410  29.263  1.00  0.00     0.049 A 
ATOM     50  N   UNL A   1      43.579  30.433  29.022  1.00  0.00    -0.248 NA
ATOM     51  C   UNL A   1      42.969  30.261  26.785  1.00  0.00     0.031 C 
ATOM     52  C   UNL A   1      39.257  28.733  29.460  1.00  0.00     0.029 A 
ATOM     53  N   UNL A   1      40.373  30.591  29.919  1.00  0.00    -0.354 N 
ATOM     54  C   UNL A   1      44.382  31.281  28.262  1.00  0.00     0.074 A 
ATOM     55  C   UNL A   1      44.054  31.031  26.881  1.00  0.00     0.031 C 
ATOM     56  C   UNL A   1      38.365  29.626  29.940  1.00  0.00     0.029 A 
ATOM     57  C   UNL A   1      39.043  30.883  30.196  1.00  0.00     0.049 A 
ATOM     58  H   UNL A   1      41.120  31.179  30.173  1.00  0.00     0.167 HD
ATOM     59  C   UNL A   1      45.127  32.276  28.815  1.00  0.00     0.034 A 
ATOM     60  C   UNL A   1      38.549  32.112  30.483  1.00  0.00     0.034 A 
ATOM     61  C   UNL A   1      45.281  32.133  30.234  1.00  0.00     0.049 A 
ATOM     62  C   UNL A   1      39.681  32.918  31.009  1.00  0.00     0.074 A 
ATOM     63  C   UNL A   1      45.812  31.167  31.064  1.00  0.00     0.029 A 
ATOM     64  N   UNL A   1      44.515  32.942  31.039  1.00  0.00    -0.354 N 
ATOM     65  N   UNL A   1      40.294  32.658  32.133  1.00  0.00    -0.248 NA
ATOM     66  C   UNL A   1      40.409  33.771  30.082  1.00  0.00     0.031 C 
ATOM     67  C   UNL A   1      44.946  31.147  32.195  1.00  0.00     0.029 A 
ATOM     68  C   UNL A   1      43.972  32.128  31.996  1.00  0.00     0.049 A 
ATOM     69  H   UNL A   1      44.384  33.913  30.946  1.00  0.00     0.167 HD
ATOM     70  C   UNL A   1      41.628  32.942  31.875  1.00  0.00     0.074 A 
ATOM     71  C   UNL A   1      41.623  33.718  30.638  1.00  0.00     0.031 C 
ATOM     72  C   UNL A   1      42.634  32.281  32.521  1.00  0.00     0.034 A 
BRANCH  59  73
ATOM     73  C   UNL A   1      45.459  33.563  28.115  1.00  0.00     0.023 A 
ATOM     74  C   UNL A   1      44.407  34.446  27.794  1.00  0.00     0.012 A 
ATOM     75  C   UNL A   1      46.720  33.808  27.528  1.00  0.00     0.148 A 
ATOM     76  C   UNL A   1      44.603  35.522  26.919  1.00  0.00     0.002 A 
ATOM     77  C   UNL A   1      46.927  34.918  26.721  1.00  0.00     0.091 A 
ATOM     78  F   UNL A   1      47.690  32.893  27.643  1.00  0.00    -0.205 F 
ATOM     79  C   UNL A   1      45.868  35.767  26.395  1.00  0.00     0.022 A 
BRANCH  77  80
ATOM     80  S   UNL A   1      48.554  35.290  26.058  1.00  0.00     0.127 S 
ATOM     81  O   UNL A   1      48.708  34.231  25.058  1.00  0.00    -0.237 OA
ATOM     82  O   UNL A   1      48.353  36.634  25.506  1.00  0.00    -0.237 OA
ATOM     83  O   UNL A   1      49.452  35.241  27.194  1.00  0.00    -0.744 OA
ENDBRANCH  77  80
ENDBRANCH  59  73
BRANCH  60  84
ATOM     84  C   UNL A   1      37.271  32.724  30.030  1.00  0.00     0.023 A 
ATOM     85  C   UNL A   1      36.796  32.443  28.733  1.00  0.00     0.012 A 
ATOM     86  C   UNL A   1      36.380  33.360  30.927  1.00  0.00     0.148 A 
ATOM     87  C   UNL A   1      35.478  32.738  28.359  1.00  0.00     0.002 A 
ATOM     88  C   UNL A   1      35.080  33.676  30.544  1.00  0.00     0.091 A 
ATOM     89  F   UNL A   1      36.757  33.567  32.195  1.00  0.00    -0.205 F 
ATOM     90  C   UNL A   1      34.618  33.352  29.265  1.00  0.00     0.022 A 
BRANCH  88  91
ATOM     91  S   UNL A   1      33.939  34.481  31.679  1.00  0.00     0.127 S 
ATOM     92  O   UNL A   1      33.624  33.403  32.618  1.00  0.00    -0.237 OA
ATOM     93  O   UNL A   1      34.762  35.553  32.231  1.00  0.00    -0.237 OA
ATOM     94  O   UNL A   1      32.807  34.901  30.860  1.00  0.00    -0.744 OA
ENDBRANCH  88  91
ENDBRANCH  60  84
BRANCH  72  95
ATOM     95  C   UNL A   1      42.287  31.384  33.679  1.00  0.00     0.023 A 
ATOM     96  C   UNL A   1      41.870  30.051  33.479  1.00  0.00     0.012 A 
ATOM     97  C   UNL A   1      42.630  31.805  34.975  1.00  0.00     0.148 A 
ATOM     98  C   UNL A   1      41.797  29.157  34.550  1.00  0.00     0.002 A 
ATOM     99  C   UNL A   1      42.593  30.903  36.031  1.00  0.00     0.091 A 
ATOM    100  F   UNL A   1      43.045  33.072  35.138  1.00  0.00    -0.205 F 
ATOM    101  C   UNL A   1      42.173  29.579  35.824  1.00  0.00     0.022 A 
BRANCH  99 102
ATOM    102  S   UNL A   1      43.185  31.335  37.670  1.00  0.00     0.127 S 
ATOM    103  O   UNL A   1      41.939  31.604  38.385  1.00  0.00    -0.237 OA
ATOM    104  O   UNL A   1      43.875  30.112  38.083  1.00  0.00    -0.237 OA
ATOM    105  O   UNL A   1      44.062  32.487  37.496  1.00  0.00    -0.744 OA
ENDBRANCH  99 102
ENDBRANCH  72  95
ENDBRANCH  46  47
ENDBRANCH  38  41
ENDBRANCH  36  37
ENDBRANCH  35  36
ENDBRANCH   1  35
TORSDOF 19
ENDMDL
