MODEL 1
REMARK VINA RESULT:     -12.3      0.000      0.000
REMARK SMILES Cc1ccccc1OCC(=O)N1C[C@@H](O)C[C@H]1C(=O)NCCCCNC(=O)c1ccc(-c2c3nc(c(-c4cccc(S(=O)(=O)[O-])c4F)c4ccc([nH]4)c(-c4cccc(S(=O)(=O)[O-])c4F)c4nc(c(-c5cccc(S(=O)(=O)[O-])c5F)c5ccc2[nH]5)C=C4)C=C3)cc1
REMARK SMILES IDX 22 1 21 2 20 3 18 4 19 5 17 7 12 8 13 9 14 10 16 11 10 12
REMARK SMILES IDX 11 13 9 14 8 15 7 16 1 17 2 18 3 19 4 20 6 21 5 22 15 23
REMARK SMILES IDX 23 25 24 26 25 27 26 28 27 30 28 31 29 32 90 33 30 34 89 35
REMARK SMILES IDX 31 36 32 37 33 38 83 39 34 40 88 41 82 42 84 43 35 44 87 45
REMARK SMILES IDX 81 46 80 47 36 49 68 50 48 51 67 52 49 53 52 54 66 55 85 56
REMARK SMILES IDX 50 57 51 58 65 60 86 61 53 62 37 63 38 64 46 65 39 66 41 67
REMARK SMILES IDX 47 68 40 69 42 70 43 71 44 72 45 73 69 74 70 75 78 76 71 77
REMARK SMILES IDX 73 78 79 79 72 80 74 81 75 82 76 83 77 84 54 85 55 86 63 87
REMARK SMILES IDX 56 88 58 89 64 90 57 91 59 92 60 93 61 94 62 95
REMARK H PARENT 20 6 15 24 25 29 84 48 52 59
REMARK Flexibility Score: inf
ROOT
ATOM      1  C   UNL A   1      36.483  20.410  25.008  1.00  0.00     0.023 C 
ENDROOT
BRANCH   1   2
ATOM      2  C   UNL A   1      35.343  21.423  24.971  1.00  0.00     0.116 C 
BRANCH   2   3
ATOM      3  N   UNL A   1      34.031  20.810  25.069  1.00  0.00    -0.354 N 
ATOM      4  C   UNL A   1      32.805  21.328  25.362  1.00  0.00     0.242 C 
ATOM      5  O   UNL A   1      31.829  20.589  25.188  1.00  0.00    -0.273 OA
ATOM      6  H   UNL A   1      34.025  19.842  24.890  1.00  0.00     0.163 HD
BRANCH   4   7
ATOM      7  C   UNL A   1      32.593  22.807  25.744  1.00  0.00     0.177 C 
ATOM      8  N   UNL A   1      32.174  23.696  24.659  1.00  0.00    -0.325 N 
ATOM      9  C   UNL A   1      30.925  24.370  24.961  1.00  0.00     0.152 C 
ATOM     10  C   UNL A   1      30.728  24.192  26.465  1.00  0.00     0.136 C 
ATOM     11  C   UNL A   1      31.544  22.959  26.849  1.00  0.00     0.069 C 
BRANCH   8  12
ATOM     12  C   UNL A   1      33.063  24.022  23.654  1.00  0.00     0.261 C 
ATOM     13  O   UNL A   1      33.296  23.247  22.723  1.00  0.00    -0.271 OA
BRANCH  12  14
ATOM     14  C   UNL A   1      33.863  25.328  23.770  1.00  0.00     0.329 C 
BRANCH  14  15
ATOM     15  O   UNL A   1      33.959  25.983  25.008  1.00  0.00    -0.484 OA
BRANCH  15  16
ATOM     16  C   UNL A   1      33.434  27.213  25.262  1.00  0.00     0.122 A 
ATOM     17  C   UNL A   1      33.937  28.553  23.094  1.00  0.00     0.048 C 
ATOM     18  C   UNL A   1      33.393  28.380  24.484  1.00  0.00    -0.009 A 
ATOM     19  C   UNL A   1      32.695  29.499  25.001  1.00  0.00     0.007 A 
ATOM     20  C   UNL A   1      32.062  29.472  26.243  1.00  0.00     0.001 A 
ATOM     21  C   UNL A   1      32.819  27.218  26.529  1.00  0.00     0.047 A 
ATOM     22  C   UNL A   1      32.133  28.328  27.017  1.00  0.00     0.004 A 
ENDBRANCH  15  16
ENDBRANCH  14  15
ENDBRANCH  12  14
ENDBRANCH   8  12
BRANCH  10  23
ATOM     23  O   UNL A   1      29.360  24.047  26.812  1.00  0.00    -0.391 OA
ATOM     24  H   UNL A   1      29.130  23.106  26.835  1.00  0.00     0.211 HD
ENDBRANCH  10  23
ENDBRANCH   4   7
ENDBRANCH   2   3
ENDBRANCH   1   2
BRANCH   1  25
ATOM     25  C   UNL A   1      37.873  20.991  24.758  1.00  0.00     0.023 C 
BRANCH  25  26
ATOM     26  C   UNL A   1      38.248  22.131  25.688  1.00  0.00     0.116 C 
BRANCH  26  27
ATOM     27  N   UNL A   1      39.597  22.045  26.221  1.00  0.00    -0.352 N 
ATOM     28  C   UNL A   1      40.482  23.062  26.534  1.00  0.00     0.251 C 
ATOM     29  H   UNL A   1      39.931  21.132  26.382  1.00  0.00     0.163 HD
ATOM     30  O   UNL A   1      41.665  22.772  26.709  1.00  0.00    -0.269 OA
BRANCH  28  31
ATOM     31  C   UNL A   1      39.983  24.436  26.810  1.00  0.00     0.039 A 
ATOM     32  C   UNL A   1      40.610  25.499  26.144  1.00  0.00     0.014 A 
ATOM     33  C   UNL A   1      39.131  24.703  27.876  1.00  0.00     0.014 A 
ATOM     34  C   UNL A   1      40.622  26.768  26.717  1.00  0.00     0.010 A 
ATOM     35  C   UNL A   1      39.218  25.926  28.503  1.00  0.00     0.010 A 
ATOM     36  C   UNL A   1      40.030  26.928  27.964  1.00  0.00    -0.014 A 
BRANCH  36  37
ATOM     37  C   UNL A   1      40.247  28.054  28.854  1.00  0.00     0.031 A 
ATOM     38  C   UNL A   1      39.354  29.225  28.794  1.00  0.00     0.074 A 
ATOM     39  C   UNL A   1      41.085  27.867  29.900  1.00  0.00     0.049 A 
ATOM     40  N   UNL A   1      39.552  30.306  29.466  1.00  0.00    -0.248 NA
ATOM     41  C   UNL A   1      38.186  29.290  27.920  1.00  0.00     0.031 C 
ATOM     42  C   UNL A   1      41.080  28.577  31.173  1.00  0.00     0.029 A 
ATOM     43  N   UNL A   1      42.262  27.108  29.934  1.00  0.00    -0.354 N 
ATOM     44  C   UNL A   1      38.411  31.065  29.357  1.00  0.00     0.074 A 
ATOM     45  C   UNL A   1      37.663  30.466  28.281  1.00  0.00     0.031 C 
ATOM     46  C   UNL A   1      42.288  28.449  31.743  1.00  0.00     0.029 A 
ATOM     47  C   UNL A   1      43.152  27.813  30.764  1.00  0.00     0.049 A 
ATOM     48  H   UNL A   1      42.432  26.256  29.472  1.00  0.00     0.167 HD
ATOM     49  C   UNL A   1      38.177  32.020  30.296  1.00  0.00     0.034 A 
ATOM     50  C   UNL A   1      44.357  28.302  30.347  1.00  0.00     0.034 A 
ATOM     51  C   UNL A   1      39.376  32.251  31.113  1.00  0.00     0.049 A 
ATOM     52  C   UNL A   1      44.477  29.808  30.505  1.00  0.00     0.074 A 
ATOM     53  C   UNL A   1      39.744  31.879  32.392  1.00  0.00     0.029 A 
ATOM     54  N   UNL A   1      40.524  32.746  30.500  1.00  0.00    -0.354 N 
ATOM     55  N   UNL A   1      43.499  30.589  30.875  1.00  0.00    -0.248 NA
ATOM     56  C   UNL A   1      45.700  30.560  30.231  1.00  0.00     0.031 C 
ATOM     57  C   UNL A   1      41.155  32.038  32.500  1.00  0.00     0.029 A 
ATOM     58  C   UNL A   1      41.635  32.555  31.307  1.00  0.00     0.049 A 
ATOM     59  H   UNL A   1      40.544  33.173  29.614  1.00  0.00     0.167 HD
ATOM     60  C   UNL A   1      43.871  31.901  30.741  1.00  0.00     0.074 A 
ATOM     61  C   UNL A   1      45.287  31.825  30.425  1.00  0.00     0.031 C 
ATOM     62  C   UNL A   1      42.965  32.926  30.826  1.00  0.00     0.034 A 
BRANCH  49  63
ATOM     63  C   UNL A   1      36.831  32.645  30.628  1.00  0.00     0.023 A 
ATOM     64  C   UNL A   1      36.353  32.468  31.947  1.00  0.00     0.012 A 
ATOM     65  C   UNL A   1      35.939  33.283  29.728  1.00  0.00     0.148 A 
ATOM     66  C   UNL A   1      35.073  32.877  32.346  1.00  0.00     0.002 A 
ATOM     67  C   UNL A   1      34.687  33.750  30.143  1.00  0.00     0.091 A 
ATOM     68  F   UNL A   1      36.237  33.368  28.431  1.00  0.00    -0.205 F 
ATOM     69  C   UNL A   1      34.243  33.530  31.448  1.00  0.00     0.022 A 
BRANCH  67  70
ATOM     70  S   UNL A   1      33.580  34.651  29.040  1.00  0.00     0.127 S 
ATOM     71  O   UNL A   1      32.505  35.055  29.946  1.00  0.00    -0.237 OA
ATOM     72  O   UNL A   1      34.425  35.750  28.571  1.00  0.00    -0.237 OA
ATOM     73  O   UNL A   1      33.190  33.710  27.997  1.00  0.00    -0.744 OA
ENDBRANCH  67  70
ENDBRANCH  49  63
BRANCH  50  74
ATOM     74  C   UNL A   1      45.002  27.479  29.285  1.00  0.00     0.023 A 
ATOM     75  C   UNL A   1      45.361  26.156  29.642  1.00  0.00     0.012 A 
ATOM     76  C   UNL A   1      44.881  27.807  27.924  1.00  0.00     0.148 A 
ATOM     77  C   UNL A   1      45.465  25.156  28.674  1.00  0.00     0.002 A 
ATOM     78  C   UNL A   1      44.979  26.800  26.964  1.00  0.00     0.091 A 
ATOM     79  F   UNL A   1      44.577  29.069  27.597  1.00  0.00    -0.205 F 
ATOM     80  C   UNL A   1      45.236  25.471  27.340  1.00  0.00     0.022 A 
BRANCH  78  81
ATOM     81  S   UNL A   1      44.621  27.102  25.227  1.00  0.00     0.127 S 
ATOM     82  O   UNL A   1      44.464  25.741  24.720  1.00  0.00    -0.237 OA
ATOM     83  O   UNL A   1      43.385  27.880  25.296  1.00  0.00    -0.237 OA
ATOM     84  O   UNL A   1      45.768  27.846  24.730  1.00  0.00    -0.744 OA
ENDBRANCH  78  81
ENDBRANCH  50  74
BRANCH  62  85
ATOM     85  C   UNL A   1      43.233  34.370  30.428  1.00  0.00     0.023 A 
ATOM     86  C   UNL A   1      43.504  35.378  31.373  1.00  0.00     0.012 A 
ATOM     87  C   UNL A   1      43.380  34.732  29.062  1.00  0.00     0.148 A 
ATOM     88  C   UNL A   1      43.837  36.685  30.996  1.00  0.00     0.002 A 
ATOM     89  C   UNL A   1      43.824  36.001  28.695  1.00  0.00     0.091 A 
ATOM     90  F   UNL A   1      43.073  33.851  28.099  1.00  0.00    -0.205 F 
ATOM     91  C   UNL A   1      44.022  36.993  29.656  1.00  0.00     0.022 A 
BRANCH  89  92
ATOM     92  S   UNL A   1      44.321  36.339  26.998  1.00  0.00     0.127 S 
ATOM     93  O   UNL A   1      44.673  37.756  27.057  1.00  0.00    -0.237 OA
ATOM     94  O   UNL A   1      45.460  35.438  26.812  1.00  0.00    -0.237 OA
ATOM     95  O   UNL A   1      43.154  35.993  26.198  1.00  0.00    -0.744 OA
ENDBRANCH  89  92
ENDBRANCH  62  85
ENDBRANCH  36  37
ENDBRANCH  28  31
ENDBRANCH  26  27
ENDBRANCH  25  26
ENDBRANCH   1  25
TORSDOF 19
ENDMDL
MODEL 2
REMARK VINA RESULT:     -12.0      4.047      9.512
REMARK SMILES Cc1ccccc1OCC(=O)N1C[C@@H](O)C[C@H]1C(=O)NCCCCNC(=O)c1ccc(-c2c3nc(c(-c4cccc(S(=O)(=O)[O-])c4F)c4ccc([nH]4)c(-c4cccc(S(=O)(=O)[O-])c4F)c4nc(c(-c5cccc(S(=O)(=O)[O-])c5F)c5ccc2[nH]5)C=C4)C=C3)cc1
REMARK SMILES IDX 22 1 21 2 20 3 18 4 19 5 17 7 12 8 13 9 14 10 16 11 10 12
REMARK SMILES IDX 11 13 9 14 8 15 7 16 1 17 2 18 3 19 4 20 6 21 5 22 15 23
REMARK SMILES IDX 23 25 24 26 25 27 26 28 27 30 28 31 29 32 90 33 30 34 89 35
REMARK SMILES IDX 31 36 32 37 33 38 83 39 34 40 88 41 82 42 84 43 35 44 87 45
REMARK SMILES IDX 81 46 80 47 36 49 68 50 48 51 67 52 49 53 52 54 66 55 85 56
REMARK SMILES IDX 50 57 51 58 65 60 86 61 53 62 37 63 38 64 46 65 39 66 41 67
REMARK SMILES IDX 47 68 40 69 42 70 43 71 44 72 45 73 69 74 70 75 78 76 71 77
REMARK SMILES IDX 73 78 79 79 72 80 74 81 75 82 76 83 77 84 54 85 55 86 63 87
REMARK SMILES IDX 56 88 58 89 64 90 57 91 59 92 60 93 61 94 62 95
REMARK H PARENT 20 6 15 24 25 29 84 48 52 59
REMARK Flexibility Score: inf
ROOT
ATOM      1  C   UNL A   1      31.791  29.544  26.538  1.00  0.00     0.023 C 
ENDROOT
BRANCH   1   2
ATOM      2  C   UNL A   1      31.601  29.484  25.026  1.00  0.00     0.116 C 
BRANCH   2   3
ATOM      3  N   UNL A   1      32.853  29.411  24.296  1.00  0.00    -0.354 N 
ATOM      4  C   UNL A   1      33.622  28.353  23.914  1.00  0.00     0.242 C 
ATOM      5  O   UNL A   1      34.551  28.590  23.134  1.00  0.00    -0.273 OA
ATOM      6  H   UNL A   1      33.213  30.287  24.027  1.00  0.00     0.163 HD
BRANCH   4   7
ATOM      7  C   UNL A   1      33.284  26.896  24.289  1.00  0.00     0.177 C 
ATOM      8  N   UNL A   1      33.556  25.888  23.263  1.00  0.00    -0.325 N 
ATOM      9  C   UNL A   1      34.458  24.858  23.739  1.00  0.00     0.152 C 
ATOM     10  C   UNL A   1      34.468  25.005  25.260  1.00  0.00     0.136 C 
ATOM     11  C   UNL A   1      34.045  26.446  25.540  1.00  0.00     0.069 C 
BRANCH   8  12
ATOM     12  C   UNL A   1      32.775  25.838  22.125  1.00  0.00     0.261 C 
ATOM     13  O   UNL A   1      33.265  25.962  21.000  1.00  0.00    -0.271 OA
BRANCH  12  14
ATOM     14  C   UNL A   1      31.249  25.746  22.280  1.00  0.00     0.329 C 
BRANCH  14  15
ATOM     15  O   UNL A   1      30.661  24.550  22.721  1.00  0.00    -0.484 OA
BRANCH  15  16
ATOM     16  C   UNL A   1      30.938  23.961  23.917  1.00  0.00     0.122 A 
ATOM     17  C   UNL A   1      32.187  21.782  23.253  1.00  0.00     0.048 C 
ATOM     18  C   UNL A   1      31.587  22.757  24.227  1.00  0.00    -0.009 A 
ATOM     19  C   UNL A   1      31.796  22.448  25.594  1.00  0.00     0.007 A 
ATOM     20  C   UNL A   1      31.374  23.292  26.620  1.00  0.00     0.001 A 
ATOM     21  C   UNL A   1      30.487  24.782  24.969  1.00  0.00     0.047 A 
ATOM     22  C   UNL A   1      30.706  24.462  26.307  1.00  0.00     0.004 A 
ENDBRANCH  15  16
ENDBRANCH  14  15
ENDBRANCH  12  14
ENDBRANCH   8  12
BRANCH  10  23
ATOM     23  O   UNL A   1      35.739  24.712  25.817  1.00  0.00    -0.391 OA
ATOM     24  H   UNL A   1      36.432  24.929  25.176  1.00  0.00     0.211 HD
ENDBRANCH  10  23
ENDBRANCH   4   7
ENDBRANCH   2   3
ENDBRANCH   1   2
BRANCH   1  25
ATOM     25  C   UNL A   1      32.693  30.674  27.032  1.00  0.00     0.023 C 
BRANCH  25  26
ATOM     26  C   UNL A   1      34.131  30.257  27.286  1.00  0.00     0.116 C 
BRANCH  26  27
ATOM     27  N   UNL A   1      34.950  31.289  27.898  1.00  0.00    -0.352 N 
ATOM     28  C   UNL A   1      36.090  31.159  28.672  1.00  0.00     0.251 C 
ATOM     29  H   UNL A   1      34.652  32.214  27.740  1.00  0.00     0.163 HD
ATOM     30  O   UNL A   1      36.470  32.134  29.319  1.00  0.00    -0.269 OA
BRANCH  28  31
ATOM     31  C   UNL A   1      36.917  29.924  28.593  1.00  0.00     0.039 A 
ATOM     32  C   UNL A   1      37.139  29.215  29.782  1.00  0.00     0.014 A 
ATOM     33  C   UNL A   1      37.672  29.622  27.464  1.00  0.00     0.014 A 
ATOM     34  C   UNL A   1      38.286  28.438  29.924  1.00  0.00     0.010 A 
ATOM     35  C   UNL A   1      38.857  28.940  27.624  1.00  0.00     0.010 A 
ATOM     36  C   UNL A   1      39.198  28.421  28.877  1.00  0.00    -0.014 A 
BRANCH  36  37
ATOM     37  C   UNL A   1      40.575  27.973  28.975  1.00  0.00     0.031 A 
ATOM     38  C   UNL A   1      40.906  26.553  28.760  1.00  0.00     0.074 A 
ATOM     39  C   UNL A   1      41.539  28.922  28.977  1.00  0.00     0.049 A 
ATOM     40  N   UNL A   1      42.082  26.060  28.945  1.00  0.00    -0.248 NA
ATOM     41  C   UNL A   1      39.913  25.556  28.370  1.00  0.00     0.031 C 
ATOM     42  C   UNL A   1      42.925  28.775  28.547  1.00  0.00     0.029 A 
ATOM     43  N   UNL A   1      41.497  30.190  29.572  1.00  0.00    -0.354 N 
ATOM     44  C   UNL A   1      42.076  24.791  28.417  1.00  0.00     0.074 A 
ATOM     45  C   UNL A   1      40.686  24.476  28.210  1.00  0.00     0.031 C 
ATOM     46  C   UNL A   1      43.656  29.750  29.109  1.00  0.00     0.029 A 
ATOM     47  C   UNL A   1      42.794  30.432  30.058  1.00  0.00     0.049 A 
ATOM     48  H   UNL A   1      40.718  30.788  29.637  1.00  0.00     0.167 HD
ATOM     49  C   UNL A   1      43.267  24.223  28.084  1.00  0.00     0.034 A 
ATOM     50  C   UNL A   1      43.088  30.639  31.375  1.00  0.00     0.034 A 
ATOM     51  C   UNL A   1      44.385  24.999  28.637  1.00  0.00     0.049 A 
ATOM     52  C   UNL A   1      44.070  29.624  31.934  1.00  0.00     0.074 A 
ATOM     53  C   UNL A   1      45.294  25.885  28.090  1.00  0.00     0.029 A 
ATOM     54  N   UNL A   1      44.512  25.107  30.019  1.00  0.00    -0.354 N 
ATOM     55  N   UNL A   1      44.499  28.579  31.280  1.00  0.00    -0.248 NA
ATOM     56  C   UNL A   1      44.624  29.686  33.285  1.00  0.00     0.031 C 
ATOM     57  C   UNL A   1      45.879  26.621  29.159  1.00  0.00     0.029 A 
ATOM     58  C   UNL A   1      45.366  26.145  30.356  1.00  0.00     0.049 A 
ATOM     59  H   UNL A   1      44.056  24.526  30.669  1.00  0.00     0.167 HD
ATOM     60  C   UNL A   1      45.221  27.766  32.117  1.00  0.00     0.074 A 
ATOM     61  C   UNL A   1      45.347  28.552  33.332  1.00  0.00     0.031 C 
ATOM     62  C   UNL A   1      45.582  26.493  31.760  1.00  0.00     0.034 A 
BRANCH  49  63
ATOM     63  C   UNL A   1      43.474  23.071  27.114  1.00  0.00     0.023 A 
ATOM     64  C   UNL A   1      44.277  23.327  25.979  1.00  0.00     0.012 A 
ATOM     65  C   UNL A   1      42.850  21.797  27.153  1.00  0.00     0.148 A 
ATOM     66  C   UNL A   1      44.440  22.396  24.945  1.00  0.00     0.002 A 
ATOM     67  C   UNL A   1      43.064  20.844  26.153  1.00  0.00     0.091 A 
ATOM     68  F   UNL A   1      41.961  21.512  28.106  1.00  0.00    -0.205 F 
ATOM     69  C   UNL A   1      43.844  21.148  25.036  1.00  0.00     0.022 A 
BRANCH  67  70
ATOM     70  S   UNL A   1      42.360  19.184  26.234  1.00  0.00     0.127 S 
ATOM     71  O   UNL A   1      42.547  18.840  27.643  1.00  0.00    -0.237 OA
ATOM     72  O   UNL A   1      40.969  19.411  25.842  1.00  0.00    -0.237 OA
ATOM     73  O   UNL A   1      43.122  18.373  25.292  1.00  0.00    -0.744 OA
ENDBRANCH  67  70
ENDBRANCH  49  63
BRANCH  50  74
ATOM     74  C   UNL A   1      41.994  31.309  32.135  1.00  0.00     0.023 A 
ATOM     75  C   UNL A   1      41.708  32.649  31.780  1.00  0.00     0.012 A 
ATOM     76  C   UNL A   1      41.027  30.570  32.839  1.00  0.00     0.148 A 
ATOM     77  C   UNL A   1      40.444  33.196  32.003  1.00  0.00     0.002 A 
ATOM     78  C   UNL A   1      39.763  31.120  33.049  1.00  0.00     0.091 A 
ATOM     79  F   UNL A   1      41.321  29.315  33.200  1.00  0.00    -0.205 F 
ATOM     80  C   UNL A   1      39.460  32.418  32.603  1.00  0.00     0.022 A 
BRANCH  78  81
ATOM     81  S   UNL A   1      38.409  30.161  33.745  1.00  0.00     0.127 S 
ATOM     82  O   UNL A   1      37.248  30.828  33.163  1.00  0.00    -0.237 OA
ATOM     83  O   UNL A   1      38.678  28.823  33.221  1.00  0.00    -0.237 OA
ATOM     84  O   UNL A   1      38.565  30.280  35.187  1.00  0.00    -0.744 OA
ENDBRANCH  78  81
ENDBRANCH  50  74
BRANCH  62  85
ATOM     85  C   UNL A   1      46.138  25.441  32.708  1.00  0.00     0.023 A 
ATOM     86  C   UNL A   1      47.491  25.411  33.098  1.00  0.00     0.012 A 
ATOM     87  C   UNL A   1      45.272  24.530  33.371  1.00  0.00     0.148 A 
ATOM     88  C   UNL A   1      47.976  24.495  34.039  1.00  0.00     0.002 A 
ATOM     89  C   UNL A   1      45.739  23.701  34.389  1.00  0.00     0.091 A 
ATOM     90  F   UNL A   1      43.983  24.447  33.008  1.00  0.00    -0.205 F 
ATOM     91  C   UNL A   1      47.097  23.655  34.704  1.00  0.00     0.022 A 
BRANCH  89  92
ATOM     92  S   UNL A   1      44.583  22.802  35.437  1.00  0.00     0.127 S 
ATOM     93  O   UNL A   1      44.169  21.704  34.568  1.00  0.00    -0.237 OA
ATOM     94  O   UNL A   1      45.424  22.398  36.567  1.00  0.00    -0.237 OA
ATOM     95  O   UNL A   1      43.560  23.781  35.780  1.00  0.00    -0.744 OA
ENDBRANCH  89  92
ENDBRANCH  62  85
ENDBRANCH  36  37
ENDBRANCH  28  31
ENDBRANCH  26  27
ENDBRANCH  25  26
ENDBRANCH   1  25
TORSDOF 19
ENDMDL
MODEL 3
REMARK VINA RESULT:     -11.7      1.904      2.673
REMARK SMILES Cc1ccccc1OCC(=O)N1C[C@@H](O)C[C@H]1C(=O)NCCCCNC(=O)c1ccc(-c2c3nc(c(-c4cccc(S(=O)(=O)[O-])c4F)c4ccc([nH]4)c(-c4cccc(S(=O)(=O)[O-])c4F)c4nc(c(-c5cccc(S(=O)(=O)[O-])c5F)c5ccc2[nH]5)C=C4)C=C3)cc1
REMARK SMILES IDX 22 1 21 2 20 3 18 4 19 5 17 7 12 8 13 9 14 10 16 11 10 12
REMARK SMILES IDX 11 13 9 14 8 15 7 16 1 17 2 18 3 19 4 20 6 21 5 22 15 23
REMARK SMILES IDX 23 25 24 26 25 27 26 28 27 30 28 31 29 32 90 33 30 34 89 35
REMARK SMILES IDX 31 36 32 37 33 38 83 39 34 40 88 41 82 42 84 43 35 44 87 45
REMARK SMILES IDX 81 46 80 47 36 49 68 50 48 51 67 52 49 53 52 54 66 55 85 56
REMARK SMILES IDX 50 57 51 58 65 60 86 61 53 62 37 63 38 64 46 65 39 66 41 67
REMARK SMILES IDX 47 68 40 69 42 70 43 71 44 72 45 73 69 74 70 75 78 76 71 77
REMARK SMILES IDX 73 78 79 79 72 80 74 81 75 82 76 83 77 84 54 85 55 86 63 87
REMARK SMILES IDX 56 88 58 89 64 90 57 91 59 92 60 93 61 94 62 95
REMARK H PARENT 20 6 15 24 25 29 84 48 52 59
REMARK Flexibility Score: inf
ROOT
ATOM      1  C   UNL A   1      37.484  21.467  24.445  1.00  0.00     0.023 C 
ENDROOT
BRANCH   1   2
ATOM      2  C   UNL A   1      36.983  22.886  24.197  1.00  0.00     0.116 C 
BRANCH   2   3
ATOM      3  N   UNL A   1      35.848  22.940  23.292  1.00  0.00    -0.354 N 
ATOM      4  C   UNL A   1      34.529  22.649  23.472  1.00  0.00     0.242 C 
ATOM      5  O   UNL A   1      33.757  22.970  22.561  1.00  0.00    -0.273 OA
ATOM      6  H   UNL A   1      36.073  23.243  22.383  1.00  0.00     0.163 HD
BRANCH   4   7
ATOM      7  C   UNL A   1      33.969  22.092  24.796  1.00  0.00     0.177 C 
ATOM      8  N   UNL A   1      32.599  22.485  25.130  1.00  0.00    -0.325 N 
ATOM      9  C   UNL A   1      31.735  21.336  25.320  1.00  0.00     0.152 C 
ATOM     10  C   UNL A   1      32.680  20.147  25.486  1.00  0.00     0.136 C 
ATOM     11  C   UNL A   1      33.990  20.561  24.816  1.00  0.00     0.069 C 
BRANCH   8  12
ATOM     12  C   UNL A   1      32.327  23.789  25.496  1.00  0.00     0.261 C 
ATOM     13  O   UNL A   1      33.006  24.377  26.341  1.00  0.00    -0.271 OA
BRANCH  12  14
ATOM     14  C   UNL A   1      31.078  24.472  24.919  1.00  0.00     0.329 C 
BRANCH  14  15
ATOM     15  O   UNL A   1      30.509  25.569  25.584  1.00  0.00    -0.484 OA
BRANCH  15  16
ATOM     16  C   UNL A   1      30.647  26.861  25.178  1.00  0.00     0.122 A 
ATOM     17  C   UNL A   1      32.306  27.873  26.901  1.00  0.00     0.048 C 
ATOM     18  C   UNL A   1      31.400  27.922  25.703  1.00  0.00    -0.009 A 
ATOM     19  C   UNL A   1      31.399  29.151  24.999  1.00  0.00     0.007 A 
ATOM     20  C   UNL A   1      30.676  29.332  23.820  1.00  0.00     0.001 A 
ATOM     21  C   UNL A   1      29.894  27.076  24.006  1.00  0.00     0.047 A 
ATOM     22  C   UNL A   1      29.910  28.292  23.326  1.00  0.00     0.004 A 
ENDBRANCH  15  16
ENDBRANCH  14  15
ENDBRANCH  12  14
ENDBRANCH   8  12
BRANCH  10  23
ATOM     23  O   UNL A   1      32.151  18.959  24.918  1.00  0.00    -0.391 OA
ATOM     24  H   UNL A   1      31.185  18.971  24.987  1.00  0.00     0.211 HD
ENDBRANCH  10  23
ENDBRANCH   4   7
ENDBRANCH   2   3
ENDBRANCH   1   2
BRANCH   1  25
ATOM     25  C   UNL A   1      38.591  21.346  25.490  1.00  0.00     0.023 C 
BRANCH  25  26
ATOM     26  C   UNL A   1      38.651  22.503  26.471  1.00  0.00     0.116 C 
BRANCH  26  27
ATOM     27  N   UNL A   1      39.879  22.564  27.245  1.00  0.00    -0.352 N 
ATOM     28  C   UNL A   1      40.617  23.669  27.632  1.00  0.00     0.251 C 
ATOM     29  H   UNL A   1      40.239  21.695  27.535  1.00  0.00     0.163 HD
ATOM     30  O   UNL A   1      41.764  23.490  28.041  1.00  0.00    -0.269 OA
BRANCH  28  31
ATOM     31  C   UNL A   1      39.981  25.013  27.704  1.00  0.00     0.039 A 
ATOM     32  C   UNL A   1      40.395  25.976  26.773  1.00  0.00     0.014 A 
ATOM     33  C   UNL A   1      39.218  25.402  28.800  1.00  0.00     0.014 A 
ATOM     34  C   UNL A   1      40.307  27.330  27.089  1.00  0.00     0.010 A 
ATOM     35  C   UNL A   1      39.216  26.729  29.167  1.00  0.00     0.010 A 
ATOM     36  C   UNL A   1      39.835  27.679  28.347  1.00  0.00    -0.014 A 
BRANCH  36  37
ATOM     37  C   UNL A   1      40.001  28.978  28.972  1.00  0.00     0.031 A 
ATOM     38  C   UNL A   1      39.025  30.051  28.714  1.00  0.00     0.074 A 
ATOM     39  C   UNL A   1      40.886  29.069  29.992  1.00  0.00     0.049 A 
ATOM     40  N   UNL A   1      39.167  31.260  29.136  1.00  0.00    -0.248 NA
ATOM     41  C   UNL A   1      37.825  29.856  27.904  1.00  0.00     0.031 C 
ATOM     42  C   UNL A   1      40.873  30.030  31.088  1.00  0.00     0.029 A 
ATOM     43  N   UNL A   1      42.115  28.411  30.125  1.00  0.00    -0.354 N 
ATOM     44  C   UNL A   1      37.971  31.905  28.927  1.00  0.00     0.074 A 
ATOM     45  C   UNL A   1      37.231  31.047  28.038  1.00  0.00     0.031 C 
ATOM     46  C   UNL A   1      42.107  30.102  31.612  1.00  0.00     0.029 A 
ATOM     47  C   UNL A   1      42.980  29.330  30.746  1.00  0.00     0.049 A 
ATOM     48  H   UNL A   1      42.329  27.493  29.842  1.00  0.00     0.167 HD
ATOM     49  C   UNL A   1      37.701  33.020  29.658  1.00  0.00     0.034 A 
ATOM     50  C   UNL A   1      44.131  29.794  30.178  1.00  0.00     0.034 A 
ATOM     51  C   UNL A   1      38.908  33.493  30.349  1.00  0.00     0.049 A 
ATOM     52  C   UNL A   1      44.148  31.304  30.013  1.00  0.00     0.074 A 
ATOM     53  C   UNL A   1      39.346  33.424  31.658  1.00  0.00     0.029 A 
ATOM     54  N   UNL A   1      39.995  33.919  29.591  1.00  0.00    -0.354 N 
ATOM     55  N   UNL A   1      43.129  32.082  30.260  1.00  0.00    -0.248 NA
ATOM     56  C   UNL A   1      45.303  32.057  29.529  1.00  0.00     0.031 C 
ATOM     57  C   UNL A   1      40.745  33.690  31.662  1.00  0.00     0.029 A 
ATOM     58  C   UNL A   1      41.144  33.974  30.365  1.00  0.00     0.049 A 
ATOM     59  H   UNL A   1      39.954  34.151  28.636  1.00  0.00     0.167 HD
ATOM     60  C   UNL A   1      43.401  33.358  29.838  1.00  0.00     0.074 A 
ATOM     61  C   UNL A   1      44.807  33.307  29.476  1.00  0.00     0.031 C 
ATOM     62  C   UNL A   1      42.427  34.319  29.753  1.00  0.00     0.034 A 
BRANCH  49  63
ATOM     63  C   UNL A   1      36.326  33.614  29.918  1.00  0.00     0.023 A 
ATOM     64  C   UNL A   1      35.674  34.222  28.821  1.00  0.00     0.012 A 
ATOM     65  C   UNL A   1      35.671  33.737  31.171  1.00  0.00     0.148 A 
ATOM     66  C   UNL A   1      34.466  34.920  28.953  1.00  0.00     0.002 A 
ATOM     67  C   UNL A   1      34.433  34.377  31.292  1.00  0.00     0.091 A 
ATOM     68  F   UNL A   1      36.270  33.325  32.288  1.00  0.00    -0.205 F 
ATOM     69  C   UNL A   1      33.837  34.988  30.187  1.00  0.00     0.022 A 
BRANCH  67  70
ATOM     70  S   UNL A   1      33.536  34.457  32.855  1.00  0.00     0.127 S 
ATOM     71  O   UNL A   1      34.464  35.204  33.704  1.00  0.00    -0.237 OA
ATOM     72  O   UNL A   1      32.324  35.190  32.487  1.00  0.00    -0.237 OA
ATOM     73  O   UNL A   1      33.300  33.076  33.260  1.00  0.00    -0.744 OA
ENDBRANCH  67  70
ENDBRANCH  49  63
BRANCH  50  74
ATOM     74  C   UNL A   1      44.797  28.808  29.280  1.00  0.00     0.023 A 
ATOM     75  C   UNL A   1      45.364  27.670  29.902  1.00  0.00     0.012 A 
ATOM     76  C   UNL A   1      44.522  28.765  27.902  1.00  0.00     0.148 A 
ATOM     77  C   UNL A   1      45.528  26.476  29.199  1.00  0.00     0.002 A 
ATOM     78  C   UNL A   1      44.681  27.565  27.209  1.00  0.00     0.091 A 
ATOM     79  F   UNL A   1      44.020  29.859  27.317  1.00  0.00    -0.205 F 
ATOM     80  C   UNL A   1      45.151  26.413  27.863  1.00  0.00     0.022 A 
BRANCH  78  81
ATOM     81  S   UNL A   1      44.145  27.373  25.502  1.00  0.00     0.127 S 
ATOM     82  O   UNL A   1      43.012  28.291  25.446  1.00  0.00    -0.237 OA
ATOM     83  O   UNL A   1      45.327  27.805  24.757  1.00  0.00    -0.237 OA
ATOM     84  O   UNL A   1      43.836  25.958  25.362  1.00  0.00    -0.744 OA
ENDBRANCH  78  81
ENDBRANCH  50  74
BRANCH  62  85
ATOM     85  C   UNL A   1      42.577  35.660  29.050  1.00  0.00     0.023 A 
ATOM     86  C   UNL A   1      41.885  35.975  27.864  1.00  0.00     0.012 A 
ATOM     87  C   UNL A   1      43.306  36.719  29.653  1.00  0.00     0.148 A 
ATOM     88  C   UNL A   1      41.959  37.242  27.272  1.00  0.00     0.002 A 
ATOM     89  C   UNL A   1      43.281  38.007  29.122  1.00  0.00     0.091 A 
ATOM     90  F   UNL A   1      44.048  36.484  30.746  1.00  0.00    -0.205 F 
ATOM     91  C   UNL A   1      42.637  38.267  27.912  1.00  0.00     0.022 A 
BRANCH  89  92
ATOM     92  S   UNL A   1      43.928  39.397  30.066  1.00  0.00     0.127 S 
ATOM     93  O   UNL A   1      43.432  39.113  31.410  1.00  0.00    -0.237 OA
ATOM     94  O   UNL A   1      45.377  39.245  29.909  1.00  0.00    -0.237 OA
ATOM     95  O   UNL A   1      43.380  40.575  29.407  1.00  0.00    -0.744 OA
ENDBRANCH  89  92
ENDBRANCH  62  85
ENDBRANCH  36  37
ENDBRANCH  28  31
ENDBRANCH  26  27
ENDBRANCH  25  26
ENDBRANCH   1  25
TORSDOF 19
ENDMDL
