MODEL 1
REMARK VINA RESULT:     -12.6      0.000      0.000
REMARK SMILES O=C(NCCCCNC(=O)c1cccn1CC(=O)N1CCc2ccccc2C1)c1ccc(-c2c3nc(c(-c4cccc(S(=O)(=O)[O-])c4F)c4ccc([nH]4)c(-c4cccc(S(=O)(=O)[O-])c4F)c4nc(c(-c5cccc(S(=O)(=O)[O-])c5F)c5ccc2[nH]5)C=C4)C=C3)cc1
REMARK SMILES IDX 5 1 4 2 3 3 1 4 2 5 29 7 30 8 91 9 31 10 90 11 32 12 33 13
REMARK SMILES IDX 34 14 84 15 35 16 89 17 83 18 85 19 36 20 88 21 82 22 81 23
REMARK SMILES IDX 37 25 69 26 49 27 68 28 50 29 53 30 67 31 86 32 51 33 52 34
REMARK SMILES IDX 66 36 87 37 54 38 38 39 39 40 47 41 40 42 42 43 48 44 41 45
REMARK SMILES IDX 43 46 44 47 45 48 46 49 70 50 71 51 79 52 72 53 74 54 80 55
REMARK SMILES IDX 73 56 75 57 76 58 77 59 78 60 55 61 56 62 64 63 57 64 59 65
REMARK SMILES IDX 65 66 58 67 60 68 61 69 62 70 63 71 6 72 7 73 8 74 9 75
REMARK SMILES IDX 10 77 11 78 12 79 15 80 13 81 14 82 16 83 17 84 18 85 19 86
REMARK SMILES IDX 20 87 28 88 21 89 27 90 22 91 26 92 23 93 25 94 24 95
REMARK H PARENT 3 6 85 24 53 35 8 76
REMARK Flexibility Score: inf
ROOT
ATOM      1  C   UNL A   1      33.670  27.964  26.628  1.00  0.00     0.023 C 
ENDROOT
BRANCH   1   2
ATOM      2  C   UNL A   1      34.505  29.237  26.526  1.00  0.00     0.116 C 
BRANCH   2   3
ATOM      3  N   UNL A   1      34.594  30.022  27.742  1.00  0.00    -0.352 N 
ATOM      4  O   UNL A   1      35.335  31.177  29.476  1.00  0.00    -0.269 OA
ATOM      5  C   UNL A   1      35.617  30.364  28.591  1.00  0.00     0.251 C 
ATOM      6  H   UNL A   1      33.726  30.394  28.020  1.00  0.00     0.163 HD
BRANCH   5   7
ATOM      7  C   UNL A   1      36.984  29.774  28.549  1.00  0.00     0.039 A 
ATOM      8  C   UNL A   1      37.889  29.961  27.507  1.00  0.00     0.014 A 
ATOM      9  C   UNL A   1      37.378  28.988  29.651  1.00  0.00     0.014 A 
ATOM     10  C   UNL A   1      39.116  29.307  27.510  1.00  0.00     0.010 A 
ATOM     11  C   UNL A   1      38.623  28.356  29.680  1.00  0.00     0.010 A 
ATOM     12  C   UNL A   1      39.488  28.508  28.597  1.00  0.00    -0.014 A 
BRANCH  12  13
ATOM     13  C   UNL A   1      40.884  28.014  28.606  1.00  0.00     0.031 A 
ATOM     14  C   UNL A   1      40.935  26.535  28.161  1.00  0.00     0.074 A 
ATOM     15  C   UNL A   1      41.827  28.855  29.128  1.00  0.00     0.049 A 
ATOM     16  N   UNL A   1      41.493  25.494  28.716  1.00  0.00    -0.248 NA
ATOM     17  C   UNL A   1      40.076  26.133  27.015  1.00  0.00     0.031 C 
ATOM     18  C   UNL A   1      41.622  30.290  29.436  1.00  0.00     0.029 A 
ATOM     19  N   UNL A   1      43.138  28.688  29.520  1.00  0.00    -0.354 N 
ATOM     20  C   UNL A   1      41.233  24.384  27.867  1.00  0.00     0.074 A 
ATOM     21  C   UNL A   1      40.223  24.809  26.946  1.00  0.00     0.031 C 
ATOM     22  C   UNL A   1      42.717  30.823  30.025  1.00  0.00     0.029 A 
ATOM     23  C   UNL A   1      43.730  29.795  30.177  1.00  0.00     0.049 A 
ATOM     24  H   UNL A   1      43.631  27.853  29.352  1.00  0.00     0.167 HD
ATOM     25  C   UNL A   1      41.991  23.245  27.852  1.00  0.00     0.034 A 
ATOM     26  C   UNL A   1      44.917  29.853  30.863  1.00  0.00     0.034 A 
ATOM     27  C   UNL A   1      43.101  23.394  28.738  1.00  0.00     0.049 A 
ATOM     28  C   UNL A   1      45.457  28.493  30.775  1.00  0.00     0.074 A 
ATOM     29  C   UNL A   1      43.420  23.082  30.031  1.00  0.00     0.029 A 
ATOM     30  N   UNL A   1      44.154  24.073  28.182  1.00  0.00    -0.354 N 
ATOM     31  N   UNL A   1      46.026  27.983  29.729  1.00  0.00    -0.248 NA
ATOM     32  C   UNL A   1      45.194  27.581  31.889  1.00  0.00     0.031 C 
ATOM     33  C   UNL A   1      44.636  23.764  30.293  1.00  0.00     0.029 A 
ATOM     34  C   UNL A   1      44.923  24.574  29.194  1.00  0.00     0.049 A 
ATOM     35  H   UNL A   1      44.327  24.180  27.218  1.00  0.00     0.167 HD
ATOM     36  C   UNL A   1      45.894  26.630  29.935  1.00  0.00     0.074 A 
ATOM     37  C   UNL A   1      45.621  26.447  31.345  1.00  0.00     0.031 C 
ATOM     38  C   UNL A   1      45.624  25.795  28.902  1.00  0.00     0.034 A 
BRANCH  25  39
ATOM     39  C   UNL A   1      42.111  22.056  26.894  1.00  0.00     0.023 A 
ATOM     40  C   UNL A   1      41.087  21.068  27.033  1.00  0.00     0.012 A 
ATOM     41  C   UNL A   1      43.239  21.682  26.142  1.00  0.00     0.148 A 
ATOM     42  C   UNL A   1      41.235  19.750  26.603  1.00  0.00     0.002 A 
ATOM     43  C   UNL A   1      43.355  20.371  25.652  1.00  0.00     0.091 A 
ATOM     44  F   UNL A   1      44.233  22.554  25.958  1.00  0.00    -0.205 F 
ATOM     45  C   UNL A   1      42.382  19.397  25.925  1.00  0.00     0.022 A 
BRANCH  43  46
ATOM     46  S   UNL A   1      44.739  19.813  24.646  1.00  0.00     0.127 S 
ATOM     47  O   UNL A   1      44.436  18.396  24.464  1.00  0.00    -0.237 OA
ATOM     48  O   UNL A   1      44.578  20.625  23.435  1.00  0.00    -0.237 OA
ATOM     49  O   UNL A   1      45.934  20.131  25.413  1.00  0.00    -0.744 OA
ENDBRANCH  43  46
ENDBRANCH  25  39
BRANCH  26  50
ATOM     50  C   UNL A   1      45.642  30.824  31.769  1.00  0.00     0.023 A 
ATOM     51  C   UNL A   1      46.928  31.320  31.516  1.00  0.00     0.012 A 
ATOM     52  C   UNL A   1      45.005  31.323  32.950  1.00  0.00     0.148 A 
ATOM     53  C   UNL A   1      47.499  32.322  32.330  1.00  0.00     0.002 A 
ATOM     54  C   UNL A   1      45.522  32.382  33.689  1.00  0.00     0.091 A 
ATOM     55  F   UNL A   1      43.884  30.745  33.395  1.00  0.00    -0.205 F 
ATOM     56  C   UNL A   1      46.782  32.883  33.387  1.00  0.00     0.022 A 
BRANCH  54  57
ATOM     57  S   UNL A   1      44.549  33.232  34.952  1.00  0.00     0.127 S 
ATOM     58  O   UNL A   1      44.467  32.229  36.012  1.00  0.00    -0.237 OA
ATOM     59  O   UNL A   1      45.406  34.377  35.257  1.00  0.00    -0.237 OA
ATOM     60  O   UNL A   1      43.277  33.578  34.331  1.00  0.00    -0.744 OA
ENDBRANCH  54  57
ENDBRANCH  26  50
BRANCH  38  61
ATOM     61  C   UNL A   1      45.718  26.461  27.527  1.00  0.00     0.023 A 
ATOM     62  C   UNL A   1      44.527  26.777  26.858  1.00  0.00     0.012 A 
ATOM     63  C   UNL A   1      46.934  26.647  26.818  1.00  0.00     0.148 A 
ATOM     64  C   UNL A   1      44.543  27.256  25.543  1.00  0.00     0.002 A 
ATOM     65  C   UNL A   1      46.955  27.113  25.503  1.00  0.00     0.091 A 
ATOM     66  F   UNL A   1      48.074  26.367  27.443  1.00  0.00    -0.205 F 
ATOM     67  C   UNL A   1      45.751  27.423  24.866  1.00  0.00     0.022 A 
BRANCH  65  68
ATOM     68  S   UNL A   1      48.464  27.280  24.522  1.00  0.00     0.127 S 
ATOM     69  O   UNL A   1      49.251  28.229  25.312  1.00  0.00    -0.237 OA
ATOM     70  O   UNL A   1      48.987  25.916  24.530  1.00  0.00    -0.237 OA
ATOM     71  O   UNL A   1      48.063  27.787  23.214  1.00  0.00    -0.744 OA
ENDBRANCH  65  68
ENDBRANCH  38  61
ENDBRANCH  12  13
ENDBRANCH   5   7
ENDBRANCH   2   3
ENDBRANCH   1   2
BRANCH   1  72
ATOM     72  C   UNL A   1      33.653  27.089  25.377  1.00  0.00     0.023 C 
BRANCH  72  73
ATOM     73  C   UNL A   1      33.728  27.815  24.035  1.00  0.00     0.116 C 
BRANCH  73  74
ATOM     74  N   UNL A   1      33.632  26.904  22.907  1.00  0.00    -0.351 N 
ATOM     75  C   UNL A   1      32.539  26.268  22.368  1.00  0.00     0.267 C 
ATOM     76  H   UNL A   1      34.486  26.712  22.457  1.00  0.00     0.163 HD
ATOM     77  O   UNL A   1      32.732  25.451  21.477  1.00  0.00    -0.268 OA
BRANCH  75  78
ATOM     78  C   UNL A   1      31.220  26.554  22.898  1.00  0.00     0.107 A 
ATOM     79  C   UNL A   1      30.459  27.706  22.762  1.00  0.00     0.033 A 
ATOM     80  N   UNL A   1      30.444  25.653  23.617  1.00  0.00    -0.334 N 
ATOM     81  C   UNL A   1      29.222  27.504  23.415  1.00  0.00     0.020 A 
ATOM     82  C   UNL A   1      29.232  26.225  23.920  1.00  0.00     0.087 A 
BRANCH  80  83
ATOM     83  C   UNL A   1      30.822  24.284  23.947  1.00  0.00     0.222 C 
BRANCH  83  84
ATOM     84  C   UNL A   1      31.476  24.027  25.299  1.00  0.00     0.242 C 
ATOM     85  O   UNL A   1      30.906  24.451  26.313  1.00  0.00    -0.273 OA
BRANCH  84  86
ATOM     86  N   UNL A   1      32.578  23.182  25.397  1.00  0.00    -0.336 N 
ATOM     87  C   UNL A   1      32.621  21.837  24.826  1.00  0.00     0.124 C 
ATOM     88  C   UNL A   1      33.796  23.720  26.016  1.00  0.00     0.155 C 
ATOM     89  C   UNL A   1      33.770  20.948  25.287  1.00  0.00     0.057 C 
ATOM     90  C   UNL A   1      35.082  23.028  25.637  1.00  0.00    -0.025 A 
ATOM     91  C   UNL A   1      35.074  21.677  25.267  1.00  0.00    -0.041 A 
ATOM     92  C   UNL A   1      36.310  23.687  25.762  1.00  0.00     0.006 A 
ATOM     93  C   UNL A   1      36.271  21.007  24.993  1.00  0.00     0.004 A 
ATOM     94  C   UNL A   1      37.504  23.018  25.490  1.00  0.00     0.000 A 
ATOM     95  C   UNL A   1      37.484  21.682  25.097  1.00  0.00     0.000 A 
ENDBRANCH  84  86
ENDBRANCH  83  84
ENDBRANCH  80  83
ENDBRANCH  75  78
ENDBRANCH  73  74
ENDBRANCH  72  73
ENDBRANCH   1  72
TORSDOF 17
ENDMDL
MODEL 2
REMARK VINA RESULT:     -12.6      1.124      1.862
REMARK SMILES O=C(NCCCCNC(=O)c1cccn1CC(=O)N1CCc2ccccc2C1)c1ccc(-c2c3nc(c(-c4cccc(S(=O)(=O)[O-])c4F)c4ccc([nH]4)c(-c4cccc(S(=O)(=O)[O-])c4F)c4nc(c(-c5cccc(S(=O)(=O)[O-])c5F)c5ccc2[nH]5)C=C4)C=C3)cc1
REMARK SMILES IDX 5 1 4 2 3 3 1 4 2 5 29 7 30 8 91 9 31 10 90 11 32 12 33 13
REMARK SMILES IDX 34 14 84 15 35 16 89 17 83 18 85 19 36 20 88 21 82 22 81 23
REMARK SMILES IDX 37 25 69 26 49 27 68 28 50 29 53 30 67 31 86 32 51 33 52 34
REMARK SMILES IDX 66 36 87 37 54 38 38 39 39 40 47 41 40 42 42 43 48 44 41 45
REMARK SMILES IDX 43 46 44 47 45 48 46 49 70 50 71 51 79 52 72 53 74 54 80 55
REMARK SMILES IDX 73 56 75 57 76 58 77 59 78 60 55 61 56 62 64 63 57 64 59 65
REMARK SMILES IDX 65 66 58 67 60 68 61 69 62 70 63 71 6 72 7 73 8 74 9 75
REMARK SMILES IDX 10 77 11 78 12 79 15 80 13 81 14 82 16 83 17 84 18 85 19 86
REMARK SMILES IDX 20 87 28 88 21 89 27 90 22 91 26 92 23 93 25 94 24 95
REMARK H PARENT 3 6 85 24 53 35 8 76
REMARK Flexibility Score: inf
ROOT
ATOM      1  C   UNL A   1      33.381  28.741  25.641  1.00  0.00     0.023 C 
ENDROOT
BRANCH   1   2
ATOM      2  C   UNL A   1      34.174  28.504  26.922  1.00  0.00     0.116 C 
BRANCH   2   3
ATOM      3  N   UNL A   1      34.376  29.674  27.755  1.00  0.00    -0.352 N 
ATOM      4  O   UNL A   1      35.275  31.366  28.859  1.00  0.00    -0.269 OA
ATOM      5  C   UNL A   1      35.478  30.286  28.299  1.00  0.00     0.251 C 
ATOM      6  H   UNL A   1      33.535  30.132  27.979  1.00  0.00     0.163 HD
BRANCH   5   7
ATOM      7  C   UNL A   1      36.849  29.702  28.314  1.00  0.00     0.039 A 
ATOM      8  C   UNL A   1      37.770  29.833  27.277  1.00  0.00     0.014 A 
ATOM      9  C   UNL A   1      37.229  28.984  29.466  1.00  0.00     0.014 A 
ATOM     10  C   UNL A   1      39.000  29.188  27.338  1.00  0.00     0.010 A 
ATOM     11  C   UNL A   1      38.476  28.362  29.552  1.00  0.00     0.010 A 
ATOM     12  C   UNL A   1      39.358  28.457  28.476  1.00  0.00    -0.014 A 
BRANCH  12  13
ATOM     13  C   UNL A   1      40.756  27.973  28.537  1.00  0.00     0.031 A 
ATOM     14  C   UNL A   1      40.830  26.485  28.122  1.00  0.00     0.074 A 
ATOM     15  C   UNL A   1      41.678  28.829  29.070  1.00  0.00     0.049 A 
ATOM     16  N   UNL A   1      41.378  25.459  28.714  1.00  0.00    -0.248 NA
ATOM     17  C   UNL A   1      40.008  26.055  26.959  1.00  0.00     0.031 C 
ATOM     18  C   UNL A   1      41.455  30.269  29.343  1.00  0.00     0.029 A 
ATOM     19  N   UNL A   1      42.978  28.680  29.504  1.00  0.00    -0.354 N 
ATOM     20  C   UNL A   1      41.151  24.331  27.879  1.00  0.00     0.074 A 
ATOM     21  C   UNL A   1      40.166  24.731  26.921  1.00  0.00     0.031 C 
ATOM     22  C   UNL A   1      42.529  30.821  29.954  1.00  0.00     0.029 A 
ATOM     23  C   UNL A   1      43.543  29.803  30.156  1.00  0.00     0.049 A 
ATOM     24  H   UNL A   1      43.481  27.844  29.367  1.00  0.00     0.167 HD
ATOM     25  C   UNL A   1      41.916  23.197  27.910  1.00  0.00     0.034 A 
ATOM     26  C   UNL A   1      44.708  29.883  30.875  1.00  0.00     0.034 A 
ATOM     27  C   UNL A   1      42.997  23.371  28.825  1.00  0.00     0.049 A 
ATOM     28  C   UNL A   1      45.260  28.525  30.831  1.00  0.00     0.074 A 
ATOM     29  C   UNL A   1      43.280  23.086  30.134  1.00  0.00     0.029 A 
ATOM     30  N   UNL A   1      44.062  24.046  28.287  1.00  0.00    -0.354 N 
ATOM     31  N   UNL A   1      45.862  27.998  29.812  1.00  0.00    -0.248 NA
ATOM     32  C   UNL A   1      44.969  27.633  31.954  1.00  0.00     0.031 C 
ATOM     33  C   UNL A   1      44.483  23.782  30.418  1.00  0.00     0.029 A 
ATOM     34  C   UNL A   1      44.797  24.572  29.312  1.00  0.00     0.049 A 
ATOM     35  H   UNL A   1      44.264  24.135  27.328  1.00  0.00     0.167 HD
ATOM     36  C   UNL A   1      45.733  26.648  30.041  1.00  0.00     0.074 A 
ATOM     37  C   UNL A   1      45.419  26.492  31.446  1.00  0.00     0.031 C 
ATOM     38  C   UNL A   1      45.499  25.792  29.017  1.00  0.00     0.034 A 
BRANCH  25  39
ATOM     39  C   UNL A   1      42.071  21.991  26.979  1.00  0.00     0.023 A 
ATOM     40  C   UNL A   1      41.148  20.926  27.218  1.00  0.00     0.012 A 
ATOM     41  C   UNL A   1      43.174  21.687  26.160  1.00  0.00     0.148 A 
ATOM     42  C   UNL A   1      41.379  19.611  26.815  1.00  0.00     0.002 A 
ATOM     43  C   UNL A   1      43.368  20.374  25.700  1.00  0.00     0.091 A 
ATOM     44  F   UNL A   1      44.075  22.632  25.883  1.00  0.00    -0.205 F 
ATOM     45  C   UNL A   1      42.503  19.332  26.068  1.00  0.00     0.022 A 
BRANCH  43  46
ATOM     46  S   UNL A   1      44.723  19.900  24.616  1.00  0.00     0.127 S 
ATOM     47  O   UNL A   1      45.895  20.258  25.412  1.00  0.00    -0.237 OA
ATOM     48  O   UNL A   1      44.508  18.456  24.476  1.00  0.00    -0.237 OA
ATOM     49  O   UNL A   1      44.520  20.647  23.384  1.00  0.00    -0.744 OA
ENDBRANCH  43  46
ENDBRANCH  25  39
BRANCH  26  50
ATOM     50  C   UNL A   1      45.400  30.876  31.784  1.00  0.00     0.023 A 
ATOM     51  C   UNL A   1      46.697  31.362  31.569  1.00  0.00     0.012 A 
ATOM     52  C   UNL A   1      44.718  31.408  32.924  1.00  0.00     0.148 A 
ATOM     53  C   UNL A   1      47.238  32.384  32.378  1.00  0.00     0.002 A 
ATOM     54  C   UNL A   1      45.208  32.486  33.655  1.00  0.00     0.091 A 
ATOM     55  F   UNL A   1      43.578  30.845  33.340  1.00  0.00    -0.205 F 
ATOM     56  C   UNL A   1      46.481  32.976  33.390  1.00  0.00     0.022 A 
BRANCH  54  57
ATOM     57  S   UNL A   1      44.188  33.371  34.854  1.00  0.00     0.127 S 
ATOM     58  O   UNL A   1      43.036  33.773  34.050  1.00  0.00    -0.237 OA
ATOM     59  O   UNL A   1      43.915  32.321  35.835  1.00  0.00    -0.237 OA
ATOM     60  O   UNL A   1      45.002  34.470  35.357  1.00  0.00    -0.744 OA
ENDBRANCH  54  57
ENDBRANCH  26  50
BRANCH  38  61
ATOM     61  C   UNL A   1      45.630  26.432  27.633  1.00  0.00     0.023 A 
ATOM     62  C   UNL A   1      44.566  27.210  27.156  1.00  0.00     0.012 A 
ATOM     63  C   UNL A   1      46.699  26.168  26.736  1.00  0.00     0.148 A 
ATOM     64  C   UNL A   1      44.563  27.705  25.847  1.00  0.00     0.002 A 
ATOM     65  C   UNL A   1      46.695  26.649  25.426  1.00  0.00     0.091 A 
ATOM     66  F   UNL A   1      47.724  25.444  27.176  1.00  0.00    -0.205 F 
ATOM     67  C   UNL A   1      45.622  27.426  24.983  1.00  0.00     0.022 A 
BRANCH  65  68
ATOM     68  S   UNL A   1      47.981  26.268  24.214  1.00  0.00     0.127 S 
ATOM     69  O   UNL A   1      47.720  27.247  23.158  1.00  0.00    -0.237 OA
ATOM     70  O   UNL A   1      49.202  26.519  24.974  1.00  0.00    -0.237 OA
ATOM     71  O   UNL A   1      47.776  24.883  23.803  1.00  0.00    -0.744 OA
ENDBRANCH  65  68
ENDBRANCH  38  61
ENDBRANCH  12  13
ENDBRANCH   5   7
ENDBRANCH   2   3
ENDBRANCH   1   2
BRANCH   1  72
ATOM     72  C   UNL A   1      34.148  28.503  24.342  1.00  0.00     0.023 C 
BRANCH  72  73
ATOM     73  C   UNL A   1      33.412  28.834  23.045  1.00  0.00     0.116 C 
BRANCH  73  74
ATOM     74  N   UNL A   1      33.547  27.785  22.049  1.00  0.00    -0.351 N 
ATOM     75  C   UNL A   1      33.088  26.490  22.054  1.00  0.00     0.267 C 
ATOM     76  H   UNL A   1      34.047  28.043  21.241  1.00  0.00     0.163 HD
ATOM     77  O   UNL A   1      33.430  25.755  21.136  1.00  0.00    -0.268 OA
BRANCH  75  78
ATOM     78  C   UNL A   1      32.261  26.035  23.155  1.00  0.00     0.107 A 
ATOM     79  C   UNL A   1      30.906  26.244  23.369  1.00  0.00     0.033 A 
ATOM     80  N   UNL A   1      32.703  25.229  24.197  1.00  0.00    -0.334 N 
ATOM     81  C   UNL A   1      30.532  25.572  24.555  1.00  0.00     0.020 A 
ATOM     82  C   UNL A   1      31.656  24.941  25.037  1.00  0.00     0.087 A 
BRANCH  80  83
ATOM     83  C   UNL A   1      34.057  24.708  24.349  1.00  0.00     0.222 C 
BRANCH  83  84
ATOM     84  C   UNL A   1      34.415  23.419  23.620  1.00  0.00     0.242 C 
ATOM     85  O   UNL A   1      35.285  23.468  22.741  1.00  0.00    -0.273 OA
BRANCH  84  86
ATOM     86  N   UNL A   1      33.910  22.199  24.063  1.00  0.00    -0.336 N 
ATOM     87  C   UNL A   1      32.515  21.793  23.905  1.00  0.00     0.124 C 
ATOM     88  C   UNL A   1      34.863  21.232  24.623  1.00  0.00     0.155 C 
ATOM     89  C   UNL A   1      32.073  20.578  24.712  1.00  0.00     0.057 C 
ATOM     90  C   UNL A   1      34.425  19.788  24.587  1.00  0.00    -0.025 A 
ATOM     91  C   UNL A   1      33.063  19.462  24.616  1.00  0.00    -0.041 A 
ATOM     92  C   UNL A   1      35.368  18.756  24.641  1.00  0.00     0.006 A 
ATOM     93  C   UNL A   1      32.651  18.127  24.665  1.00  0.00     0.004 A 
ATOM     94  C   UNL A   1      34.957  17.423  24.691  1.00  0.00     0.000 A 
ATOM     95  C   UNL A   1      33.600  17.108  24.694  1.00  0.00     0.000 A 
ENDBRANCH  84  86
ENDBRANCH  83  84
ENDBRANCH  80  83
ENDBRANCH  75  78
ENDBRANCH  73  74
ENDBRANCH  72  73
ENDBRANCH   1  72
TORSDOF 17
ENDMDL
MODEL 3
REMARK VINA RESULT:     -12.5      1.657      2.129
REMARK SMILES O=C(NCCCCNC(=O)c1cccn1CC(=O)N1CCc2ccccc2C1)c1ccc(-c2c3nc(c(-c4cccc(S(=O)(=O)[O-])c4F)c4ccc([nH]4)c(-c4cccc(S(=O)(=O)[O-])c4F)c4nc(c(-c5cccc(S(=O)(=O)[O-])c5F)c5ccc2[nH]5)C=C4)C=C3)cc1
REMARK SMILES IDX 5 1 4 2 3 3 1 4 2 5 29 7 30 8 91 9 31 10 90 11 32 12 33 13
REMARK SMILES IDX 34 14 84 15 35 16 89 17 83 18 85 19 36 20 88 21 82 22 81 23
REMARK SMILES IDX 37 25 69 26 49 27 68 28 50 29 53 30 67 31 86 32 51 33 52 34
REMARK SMILES IDX 66 36 87 37 54 38 38 39 39 40 47 41 40 42 42 43 48 44 41 45
REMARK SMILES IDX 43 46 44 47 45 48 46 49 70 50 71 51 79 52 72 53 74 54 80 55
REMARK SMILES IDX 73 56 75 57 76 58 77 59 78 60 55 61 56 62 64 63 57 64 59 65
REMARK SMILES IDX 65 66 58 67 60 68 61 69 62 70 63 71 6 72 7 73 8 74 9 75
REMARK SMILES IDX 10 77 11 78 12 79 15 80 13 81 14 82 16 83 17 84 18 85 19 86
REMARK SMILES IDX 20 87 28 88 21 89 27 90 22 91 26 92 23 93 25 94 24 95
REMARK H PARENT 3 6 85 24 53 35 8 76
REMARK Flexibility Score: inf
ROOT
ATOM      1  C   UNL A   1      33.010  28.908  26.350  1.00  0.00     0.023 C 
ENDROOT
BRANCH   1   2
ATOM      2  C   UNL A   1      34.432  29.032  26.888  1.00  0.00     0.116 C 
BRANCH   2   3
ATOM      3  N   UNL A   1      34.597  29.939  28.008  1.00  0.00    -0.352 N 
ATOM      4  O   UNL A   1      35.446  31.265  29.561  1.00  0.00    -0.269 OA
ATOM      5  C   UNL A   1      35.672  30.365  28.747  1.00  0.00     0.251 C 
ATOM      6  H   UNL A   1      33.747  30.338  28.304  1.00  0.00     0.163 HD
BRANCH   5   7
ATOM      7  C   UNL A   1      37.037  29.772  28.675  1.00  0.00     0.039 A 
ATOM      8  C   UNL A   1      37.925  29.970  27.619  1.00  0.00     0.014 A 
ATOM      9  C   UNL A   1      37.448  28.972  29.760  1.00  0.00     0.014 A 
ATOM     10  C   UNL A   1      39.150  29.314  27.593  1.00  0.00     0.010 A 
ATOM     11  C   UNL A   1      38.692  28.336  29.759  1.00  0.00     0.010 A 
ATOM     12  C   UNL A   1      39.538  28.500  28.664  1.00  0.00    -0.014 A 
BRANCH  12  13
ATOM     13  C   UNL A   1      40.933  28.003  28.643  1.00  0.00     0.031 A 
ATOM     14  C   UNL A   1      40.970  26.520  28.207  1.00  0.00     0.074 A 
ATOM     15  C   UNL A   1      41.890  28.845  29.136  1.00  0.00     0.049 A 
ATOM     16  N   UNL A   1      41.539  25.482  28.756  1.00  0.00    -0.248 NA
ATOM     17  C   UNL A   1      40.082  26.113  27.085  1.00  0.00     0.031 C 
ATOM     18  C   UNL A   1      41.696  30.283  29.438  1.00  0.00     0.029 A 
ATOM     19  N   UNL A   1      43.210  28.678  29.497  1.00  0.00    -0.354 N 
ATOM     20  C   UNL A   1      41.257  24.367  27.921  1.00  0.00     0.074 A 
ATOM     21  C   UNL A   1      40.225  24.787  27.022  1.00  0.00     0.031 C 
ATOM     22  C   UNL A   1      42.806  30.818  29.997  1.00  0.00     0.029 A 
ATOM     23  C   UNL A   1      43.820  29.789  30.131  1.00  0.00     0.049 A 
ATOM     24  H   UNL A   1      43.697  27.840  29.324  1.00  0.00     0.167 HD
ATOM     25  C   UNL A   1      42.011  23.226  27.897  1.00  0.00     0.034 A 
ATOM     26  C   UNL A   1      45.023  29.849  30.788  1.00  0.00     0.034 A 
ATOM     27  C   UNL A   1      43.142  23.379  28.754  1.00  0.00     0.049 A 
ATOM     28  C   UNL A   1      45.558  28.487  30.697  1.00  0.00     0.074 A 
ATOM     29  C   UNL A   1      43.492  23.075  30.042  1.00  0.00     0.029 A 
ATOM     30  N   UNL A   1      44.183  24.051  28.168  1.00  0.00    -0.354 N 
ATOM     31  N   UNL A   1      46.100  27.967  29.641  1.00  0.00    -0.248 NA
ATOM     32  C   UNL A   1      45.320  27.584  31.824  1.00  0.00     0.031 C 
ATOM     33  C   UNL A   1      44.715  23.757  30.270  1.00  0.00     0.029 A 
ATOM     34  C   UNL A   1      44.977  24.557  29.158  1.00  0.00     0.049 A 
ATOM     35  H   UNL A   1      44.333  24.151  27.200  1.00  0.00     0.167 HD
ATOM     36  C   UNL A   1      45.971  26.616  29.861  1.00  0.00     0.074 A 
ATOM     37  C   UNL A   1      45.731  26.445  31.278  1.00  0.00     0.031 C 
ATOM     38  C   UNL A   1      45.674  25.775  28.840  1.00  0.00     0.034 A 
BRANCH  25  39
ATOM     39  C   UNL A   1      42.105  22.030  26.944  1.00  0.00     0.023 A 
ATOM     40  C   UNL A   1      41.090  21.040  27.123  1.00  0.00     0.012 A 
ATOM     41  C   UNL A   1      43.211  21.654  26.161  1.00  0.00     0.148 A 
ATOM     42  C   UNL A   1      41.229  19.720  26.698  1.00  0.00     0.002 A 
ATOM     43  C   UNL A   1      43.316  20.339  25.677  1.00  0.00     0.091 A 
ATOM     44  F   UNL A   1      44.196  22.528  25.940  1.00  0.00    -0.205 F 
ATOM     45  C   UNL A   1      42.355  19.364  25.988  1.00  0.00     0.022 A 
BRANCH  43  46
ATOM     46  S   UNL A   1      44.670  19.778  24.634  1.00  0.00     0.127 S 
ATOM     47  O   UNL A   1      44.318  18.380  24.397  1.00  0.00    -0.237 OA
ATOM     48  O   UNL A   1      44.524  20.643  23.459  1.00  0.00    -0.237 OA
ATOM     49  O   UNL A   1      45.883  20.025  25.399  1.00  0.00    -0.744 OA
ENDBRANCH  43  46
ENDBRANCH  25  39
BRANCH  26  50
ATOM     50  C   UNL A   1      45.772  30.824  31.670  1.00  0.00     0.023 A 
ATOM     51  C   UNL A   1      45.444  31.082  33.008  1.00  0.00     0.012 A 
ATOM     52  C   UNL A   1      46.915  31.522  31.164  1.00  0.00     0.148 A 
ATOM     53  C   UNL A   1      46.260  31.904  33.815  1.00  0.00     0.002 A 
ATOM     54  C   UNL A   1      47.775  32.245  31.985  1.00  0.00     0.091 A 
ATOM     55  F   UNL A   1      47.169  31.518  29.851  1.00  0.00    -0.205 F 
ATOM     56  C   UNL A   1      47.445  32.449  33.320  1.00  0.00     0.022 A 
BRANCH  54  57
ATOM     57  S   UNL A   1      49.389  32.818  31.411  1.00  0.00     0.127 S 
ATOM     58  O   UNL A   1      49.028  33.813  30.404  1.00  0.00    -0.237 OA
ATOM     59  O   UNL A   1      49.956  33.370  32.642  1.00  0.00    -0.237 OA
ATOM     60  O   UNL A   1      50.086  31.647  30.899  1.00  0.00    -0.744 OA
ENDBRANCH  54  57
ENDBRANCH  26  50
BRANCH  38  61
ATOM     61  C   UNL A   1      45.736  26.431  27.459  1.00  0.00     0.023 A 
ATOM     62  C   UNL A   1      44.530  26.755  26.821  1.00  0.00     0.012 A 
ATOM     63  C   UNL A   1      46.934  26.599  26.715  1.00  0.00     0.148 A 
ATOM     64  C   UNL A   1      44.514  27.226  25.503  1.00  0.00     0.002 A 
ATOM     65  C   UNL A   1      46.922  27.056  25.397  1.00  0.00     0.091 A 
ATOM     66  F   UNL A   1      48.088  26.311  27.309  1.00  0.00    -0.205 F 
ATOM     67  C   UNL A   1      45.704  27.375  24.791  1.00  0.00     0.022 A 
BRANCH  65  68
ATOM     68  S   UNL A   1      48.405  27.201  24.372  1.00  0.00     0.127 S 
ATOM     69  O   UNL A   1      47.858  27.636  23.086  1.00  0.00    -0.237 OA
ATOM     70  O   UNL A   1      49.165  28.229  25.078  1.00  0.00    -0.237 OA
ATOM     71  O   UNL A   1      49.024  25.880  24.338  1.00  0.00    -0.744 OA
ENDBRANCH  65  68
ENDBRANCH  38  61
ENDBRANCH  12  13
ENDBRANCH   5   7
ENDBRANCH   2   3
ENDBRANCH   1   2
BRANCH   1  72
ATOM     72  C   UNL A   1      32.151  27.831  27.010  1.00  0.00     0.023 C 
BRANCH  72  73
ATOM     73  C   UNL A   1      32.194  26.441  26.377  1.00  0.00     0.116 C 
BRANCH  73  74
ATOM     74  N   UNL A   1      30.868  25.920  26.094  1.00  0.00    -0.351 N 
ATOM     75  C   UNL A   1      30.014  26.183  25.050  1.00  0.00     0.267 C 
ATOM     76  H   UNL A   1      30.526  25.276  26.755  1.00  0.00     0.163 HD
ATOM     77  O   UNL A   1      28.889  25.700  25.091  1.00  0.00    -0.268 OA
BRANCH  75  78
ATOM     78  C   UNL A   1      30.456  27.047  23.972  1.00  0.00     0.107 A 
ATOM     79  C   UNL A   1      30.292  28.418  23.834  1.00  0.00     0.033 A 
ATOM     80  N   UNL A   1      31.202  26.628  22.877  1.00  0.00    -0.334 N 
ATOM     81  C   UNL A   1      30.931  28.826  22.641  1.00  0.00     0.020 A 
ATOM     82  C   UNL A   1      31.497  27.705  22.078  1.00  0.00     0.087 A 
BRANCH  80  83
ATOM     83  C   UNL A   1      31.662  25.265  22.637  1.00  0.00     0.222 C 
BRANCH  83  84
ATOM     84  C   UNL A   1      33.164  25.011  22.610  1.00  0.00     0.242 C 
ATOM     85  O   UNL A   1      33.889  25.854  22.067  1.00  0.00    -0.273 OA
BRANCH  84  86
ATOM     86  N   UNL A   1      33.711  23.957  23.338  1.00  0.00    -0.336 N 
ATOM     87  C   UNL A   1      33.230  22.579  23.257  1.00  0.00     0.124 C 
ATOM     88  C   UNL A   1      34.904  24.236  24.148  1.00  0.00     0.155 C 
ATOM     89  C   UNL A   1      33.730  21.628  24.337  1.00  0.00     0.057 C 
ATOM     90  C   UNL A   1      35.768  23.042  24.471  1.00  0.00    -0.025 A 
ATOM     91  C   UNL A   1      35.203  21.763  24.552  1.00  0.00    -0.041 A 
ATOM     92  C   UNL A   1      37.116  23.209  24.809  1.00  0.00     0.006 A 
ATOM     93  C   UNL A   1      35.981  20.664  24.931  1.00  0.00     0.004 A 
ATOM     94  C   UNL A   1      37.891  22.112  25.188  1.00  0.00     0.000 A 
ATOM     95  C   UNL A   1      37.327  20.839  25.240  1.00  0.00     0.000 A 
ENDBRANCH  84  86
ENDBRANCH  83  84
ENDBRANCH  80  83
ENDBRANCH  75  78
ENDBRANCH  73  74
ENDBRANCH  72  73
ENDBRANCH   1  72
TORSDOF 17
ENDMDL
