MODEL 1
REMARK VINA RESULT:     -10.1      0.000      0.000
REMARK SMILES CC(C)(C)SSC[C@H]([NH3+])C(=O)NCCCCNC(=O)c1ccc(-c2c3nc(c(-c4cccc(S(=O)(=O)[O-])c4F)c4ccc([nH]4)c(-c4cccc(S(=O)(=O)[O-])c4F)c4nc(c(-c5cccc(S(=O)(=O)[O-])c5F)c5ccc2[nH]5)C=C4)C=C3)cc1
REMARK SMILES IDX 14 1 13 2 12 3 10 4 11 5 8 7 7 8 6 9 5 10 2 11 1 12 3 13
REMARK SMILES IDX 4 14 9 15 15 19 16 20 17 21 18 22 19 24 20 25 21 26 82 27
REMARK SMILES IDX 22 28 81 29 23 30 24 31 25 32 75 33 26 34 80 35 74 36 76 37
REMARK SMILES IDX 27 38 79 39 73 40 72 41 28 43 60 44 40 45 59 46 41 47 44 48
REMARK SMILES IDX 58 49 77 50 42 51 43 52 57 54 78 55 45 56 29 57 30 58 38 59
REMARK SMILES IDX 31 60 33 61 39 62 32 63 34 64 35 65 36 66 37 67 61 68 62 69
REMARK SMILES IDX 70 70 63 71 65 72 71 73 64 74 66 75 67 76 68 77 69 78 46 79
REMARK SMILES IDX 47 80 55 81 48 82 50 83 56 84 49 85 51 86 52 87 53 88 54 89
REMARK H PARENT 12 6 9 16 9 17 9 18 17 23 76 42 44 53
REMARK Flexibility Score: inf
ROOT
ATOM      1  C   UNL A   1      31.899  30.324  26.907  1.00  0.00     0.023 C 
ENDROOT
BRANCH   1   2
ATOM      2  C   UNL A   1      31.850  29.685  25.523  1.00  0.00     0.116 C 
BRANCH   2   3
ATOM      3  N   UNL A   1      32.628  28.461  25.458  1.00  0.00    -0.351 N 
ATOM      4  C   UNL A   1      32.961  27.666  24.400  1.00  0.00     0.279 C 
ATOM      5  O   UNL A   1      33.709  26.709  24.617  1.00  0.00    -0.268 OA
ATOM      6  H   UNL A   1      32.974  28.151  26.326  1.00  0.00     0.163 HD
BRANCH   4   7
ATOM      7  C   UNL A   1      32.463  27.970  22.976  1.00  0.00     0.281 C 
BRANCH   7   8
ATOM      8  C   UNL A   1      31.185  27.150  22.723  1.00  0.00     0.157 C 
BRANCH   8   9
ATOM      9  S   UNL A   1      29.621  28.064  22.959  1.00  0.00    -0.087 SA
BRANCH   9  10
ATOM     10  S   UNL A   1      30.026  29.865  22.054  1.00  0.00    -0.088 SA
BRANCH  10  11
ATOM     11  C   UNL A   1      28.627  30.972  22.538  1.00  0.00     0.018 C 
ATOM     12  C   UNL A   1      27.455  30.049  22.903  1.00  0.00     0.023 C 
ATOM     13  C   UNL A   1      28.223  31.864  21.358  1.00  0.00     0.023 C 
ATOM     14  C   UNL A   1      29.001  31.825  23.757  1.00  0.00     0.023 C 
ENDBRANCH  10  11
ENDBRANCH   9  10
ENDBRANCH   8   9
ENDBRANCH   7   8
BRANCH   7  15
ATOM     15  N   UNL A   1      33.551  27.814  21.981  1.00  0.00    -0.347 N 
ATOM     16  H   UNL A   1      33.844  28.733  21.650  1.00  0.00     0.345 HD
ATOM     17  H   UNL A   1      33.216  27.260  21.193  1.00  0.00     0.345 HD
ATOM     18  H   UNL A   1      34.344  27.340  22.415  1.00  0.00     0.345 HD
ENDBRANCH   7  15
ENDBRANCH   4   7
ENDBRANCH   2   3
ENDBRANCH   1   2
BRANCH   1  19
ATOM     19  C   UNL A   1      31.529  31.808  26.945  1.00  0.00     0.023 C 
BRANCH  19  20
ATOM     20  C   UNL A   1      32.707  32.776  26.930  1.00  0.00     0.116 C 
BRANCH  20  21
ATOM     21  N   UNL A   1      32.431  34.024  27.629  1.00  0.00    -0.352 N 
ATOM     22  C   UNL A   1      33.088  34.562  28.710  1.00  0.00     0.251 C 
ATOM     23  H   UNL A   1      31.675  34.551  27.281  1.00  0.00     0.163 HD
ATOM     24  O   UNL A   1      32.655  35.571  29.261  1.00  0.00    -0.269 OA
BRANCH  22  25
ATOM     25  C   UNL A   1      34.303  33.894  29.221  1.00  0.00     0.039 A 
ATOM     26  C   UNL A   1      35.557  34.336  28.790  1.00  0.00     0.014 A 
ATOM     27  C   UNL A   1      34.199  32.866  30.162  1.00  0.00     0.014 A 
ATOM     28  C   UNL A   1      36.712  33.795  29.359  1.00  0.00     0.010 A 
ATOM     29  C   UNL A   1      35.347  32.378  30.773  1.00  0.00     0.010 A 
ATOM     30  C   UNL A   1      36.614  32.837  30.381  1.00  0.00    -0.014 A 
BRANCH  30  31
ATOM     31  C   UNL A   1      37.812  32.289  31.066  1.00  0.00     0.031 A 
ATOM     32  C   UNL A   1      38.564  31.145  30.446  1.00  0.00     0.074 A 
ATOM     33  C   UNL A   1      38.137  32.723  32.300  1.00  0.00     0.049 A 
ATOM     34  N   UNL A   1      39.521  30.414  30.951  1.00  0.00    -0.248 NA
ATOM     35  C   UNL A   1      38.155  30.746  29.088  1.00  0.00     0.031 C 
ATOM     36  C   UNL A   1      37.440  33.776  33.039  1.00  0.00     0.029 A 
ATOM     37  N   UNL A   1      39.112  32.297  33.168  1.00  0.00    -0.354 N 
ATOM     38  C   UNL A   1      39.790  29.435  30.002  1.00  0.00     0.074 A 
ATOM     39  C   UNL A   1      38.880  29.653  28.899  1.00  0.00     0.031 C 
ATOM     40  C   UNL A   1      38.000  33.907  34.253  1.00  0.00     0.029 A 
ATOM     41  C   UNL A   1      39.073  32.926  34.392  1.00  0.00     0.049 A 
ATOM     42  H   UNL A   1      39.775  31.607  32.938  1.00  0.00     0.167 HD
ATOM     43  C   UNL A   1      40.728  28.458  30.034  1.00  0.00     0.034 A 
ATOM     44  C   UNL A   1      39.807  32.725  35.503  1.00  0.00     0.034 A 
ATOM     45  C   UNL A   1      41.674  28.287  31.102  1.00  0.00     0.049 A 
ATOM     46  C   UNL A   1      40.891  31.681  35.487  1.00  0.00     0.074 A 
ATOM     47  C   UNL A   1      42.724  27.392  31.186  1.00  0.00     0.029 A 
ATOM     48  N   UNL A   1      41.686  29.031  32.272  1.00  0.00    -0.354 N 
ATOM     49  N   UNL A   1      41.229  30.861  34.523  1.00  0.00    -0.248 NA
ATOM     50  C   UNL A   1      41.717  31.557  36.698  1.00  0.00     0.031 C 
ATOM     51  C   UNL A   1      43.370  27.591  32.410  1.00  0.00     0.029 A 
ATOM     52  C   UNL A   1      42.728  28.619  33.083  1.00  0.00     0.049 A 
ATOM     53  H   UNL A   1      41.047  29.747  32.493  1.00  0.00     0.167 HD
ATOM     54  C   UNL A   1      42.330  30.153  34.991  1.00  0.00     0.074 A 
ATOM     55  C   UNL A   1      42.610  30.648  36.323  1.00  0.00     0.031 C 
ATOM     56  C   UNL A   1      43.037  29.172  34.377  1.00  0.00     0.034 A 
BRANCH  43  57
ATOM     57  C   UNL A   1      40.811  27.537  28.846  1.00  0.00     0.023 A 
ATOM     58  C   UNL A   1      39.880  26.485  28.719  1.00  0.00     0.012 A 
ATOM     59  C   UNL A   1      41.778  27.728  27.841  1.00  0.00     0.148 A 
ATOM     60  C   UNL A   1      39.937  25.614  27.633  1.00  0.00     0.002 A 
ATOM     61  C   UNL A   1      41.801  26.881  26.739  1.00  0.00     0.091 A 
ATOM     62  F   UNL A   1      42.672  28.717  27.990  1.00  0.00    -0.205 F 
ATOM     63  C   UNL A   1      40.889  25.817  26.639  1.00  0.00     0.022 A 
BRANCH  61  64
ATOM     64  S   UNL A   1      42.944  27.117  25.373  1.00  0.00     0.127 S 
ATOM     65  O   UNL A   1      44.195  27.387  26.078  1.00  0.00    -0.237 OA
ATOM     66  O   UNL A   1      42.895  25.819  24.696  1.00  0.00    -0.237 OA
ATOM     67  O   UNL A   1      42.405  28.221  24.593  1.00  0.00    -0.744 OA
ENDBRANCH  61  64
ENDBRANCH  43  57
BRANCH  44  68
ATOM     68  C   UNL A   1      39.590  33.590  36.697  1.00  0.00     0.023 A 
ATOM     69  C   UNL A   1      39.997  34.937  36.652  1.00  0.00     0.012 A 
ATOM     70  C   UNL A   1      38.937  33.108  37.848  1.00  0.00     0.148 A 
ATOM     71  C   UNL A   1      39.780  35.784  37.739  1.00  0.00     0.002 A 
ATOM     72  C   UNL A   1      38.678  33.971  38.909  1.00  0.00     0.091 A 
ATOM     73  F   UNL A   1      38.565  31.820  37.876  1.00  0.00    -0.205 F 
ATOM     74  C   UNL A   1      39.111  35.305  38.862  1.00  0.00     0.022 A 
BRANCH  72  75
ATOM     75  S   UNL A   1      37.708  33.479  40.339  1.00  0.00     0.127 S 
ATOM     76  O   UNL A   1      38.540  32.427  40.917  1.00  0.00    -0.237 OA
ATOM     77  O   UNL A   1      37.660  34.722  41.112  1.00  0.00    -0.237 OA
ATOM     78  O   UNL A   1      36.420  33.050  39.812  1.00  0.00    -0.744 OA
ENDBRANCH  72  75
ENDBRANCH  44  68
BRANCH  56  79
ATOM     79  C   UNL A   1      44.216  28.590  35.109  1.00  0.00     0.023 A 
ATOM     80  C   UNL A   1      45.502  29.130  34.906  1.00  0.00     0.012 A 
ATOM     81  C   UNL A   1      44.032  27.582  36.076  1.00  0.00     0.148 A 
ATOM     82  C   UNL A   1      46.589  28.661  35.641  1.00  0.00     0.002 A 
ATOM     83  C   UNL A   1      45.113  27.150  36.836  1.00  0.00     0.091 A 
ATOM     84  F   UNL A   1      42.804  27.068  36.239  1.00  0.00    -0.205 F 
ATOM     85  C   UNL A   1      46.393  27.683  36.613  1.00  0.00     0.022 A 
BRANCH  83  86
ATOM     86  S   UNL A   1      44.934  25.964  38.173  1.00  0.00     0.127 S 
ATOM     87  O   UNL A   1      46.278  25.955  38.747  1.00  0.00    -0.237 OA
ATOM     88  O   UNL A   1      43.915  26.595  39.014  1.00  0.00    -0.237 OA
ATOM     89  O   UNL A   1      44.510  24.718  37.549  1.00  0.00    -0.744 OA
ENDBRANCH  83  86
ENDBRANCH  56  79
ENDBRANCH  30  31
ENDBRANCH  22  25
ENDBRANCH  20  21
ENDBRANCH  19  20
ENDBRANCH   1  19
TORSDOF 19
ENDMDL
MODEL 2
REMARK VINA RESULT:      -9.9      5.379      8.487
REMARK SMILES CC(C)(C)SSC[C@H]([NH3+])C(=O)NCCCCNC(=O)c1ccc(-c2c3nc(c(-c4cccc(S(=O)(=O)[O-])c4F)c4ccc([nH]4)c(-c4cccc(S(=O)(=O)[O-])c4F)c4nc(c(-c5cccc(S(=O)(=O)[O-])c5F)c5ccc2[nH]5)C=C4)C=C3)cc1
REMARK SMILES IDX 14 1 13 2 12 3 10 4 11 5 8 7 7 8 6 9 5 10 2 11 1 12 3 13
REMARK SMILES IDX 4 14 9 15 15 19 16 20 17 21 18 22 19 24 20 25 21 26 82 27
REMARK SMILES IDX 22 28 81 29 23 30 24 31 25 32 75 33 26 34 80 35 74 36 76 37
REMARK SMILES IDX 27 38 79 39 73 40 72 41 28 43 60 44 40 45 59 46 41 47 44 48
REMARK SMILES IDX 58 49 77 50 42 51 43 52 57 54 78 55 45 56 29 57 30 58 38 59
REMARK SMILES IDX 31 60 33 61 39 62 32 63 34 64 35 65 36 66 37 67 61 68 62 69
REMARK SMILES IDX 70 70 63 71 65 72 71 73 64 74 66 75 67 76 68 77 69 78 46 79
REMARK SMILES IDX 47 80 55 81 48 82 50 83 56 84 49 85 51 86 52 87 53 88 54 89
REMARK H PARENT 12 6 9 16 9 17 9 18 17 23 76 42 44 53
REMARK Flexibility Score: inf
ROOT
ATOM      1  C   UNL A   1      33.992  23.924  25.622  1.00  0.00     0.023 C 
ENDROOT
BRANCH   1   2
ATOM      2  C   UNL A   1      33.337  25.080  24.872  1.00  0.00     0.116 C 
BRANCH   2   3
ATOM      3  N   UNL A   1      33.585  25.015  23.444  1.00  0.00    -0.351 N 
ATOM      4  C   UNL A   1      33.291  25.895  22.442  1.00  0.00     0.279 C 
ATOM      5  O   UNL A   1      33.688  25.622  21.307  1.00  0.00    -0.268 OA
ATOM      6  H   UNL A   1      34.042  24.196  23.145  1.00  0.00     0.163 HD
BRANCH   4   7
ATOM      7  C   UNL A   1      32.530  27.204  22.718  1.00  0.00     0.281 C 
BRANCH   7   8
ATOM      8  C   UNL A   1      31.065  27.015  22.287  1.00  0.00     0.157 C 
BRANCH   8   9
ATOM      9  S   UNL A   1      29.823  27.599  23.493  1.00  0.00    -0.087 SA
BRANCH   9  10
ATOM     10  S   UNL A   1      29.839  29.632  23.188  1.00  0.00    -0.088 SA
BRANCH  10  11
ATOM     11  C   UNL A   1      28.099  30.064  22.739  1.00  0.00     0.018 C 
ATOM     12  C   UNL A   1      27.695  31.229  23.656  1.00  0.00     0.023 C 
ATOM     13  C   UNL A   1      27.172  28.870  22.996  1.00  0.00     0.023 C 
ATOM     14  C   UNL A   1      28.007  30.515  21.275  1.00  0.00     0.023 C 
ENDBRANCH  10  11
ENDBRANCH   9  10
ENDBRANCH   8   9
ENDBRANCH   7   8
BRANCH   7  15
ATOM     15  N   UNL A   1      33.241  28.370  22.139  1.00  0.00    -0.347 N 
ATOM     16  H   UNL A   1      34.153  28.469  22.586  1.00  0.00     0.345 HD
ATOM     17  H   UNL A   1      32.693  29.216  22.297  1.00  0.00     0.345 HD
ATOM     18  H   UNL A   1      33.367  28.230  21.137  1.00  0.00     0.345 HD
ENDBRANCH   7  15
ENDBRANCH   4   7
ENDBRANCH   2   3
ENDBRANCH   1   2
BRANCH   1  19
ATOM     19  C   UNL A   1      35.386  23.541  25.125  1.00  0.00     0.023 C 
BRANCH  19  20
ATOM     20  C   UNL A   1      36.520  23.761  26.122  1.00  0.00     0.116 C 
BRANCH  20  21
ATOM     21  N   UNL A   1      37.483  22.669  26.143  1.00  0.00    -0.352 N 
ATOM     22  C   UNL A   1      38.832  22.723  26.403  1.00  0.00     0.251 C 
ATOM     23  H   UNL A   1      37.120  21.774  25.946  1.00  0.00     0.163 HD
ATOM     24  O   UNL A   1      39.532  21.724  26.263  1.00  0.00    -0.269 OA
BRANCH  22  25
ATOM     25  C   UNL A   1      39.435  24.006  26.821  1.00  0.00     0.039 A 
ATOM     26  C   UNL A   1      40.009  24.837  25.854  1.00  0.00     0.014 A 
ATOM     27  C   UNL A   1      39.384  24.404  28.159  1.00  0.00     0.014 A 
ATOM     28  C   UNL A   1      40.471  26.103  26.220  1.00  0.00     0.010 A 
ATOM     29  C   UNL A   1      39.782  25.689  28.506  1.00  0.00     0.010 A 
ATOM     30  C   UNL A   1      40.328  26.552  27.543  1.00  0.00    -0.014 A 
BRANCH  30  31
ATOM     31  C   UNL A   1      40.735  27.918  27.961  1.00  0.00     0.031 A 
ATOM     32  C   UNL A   1      42.195  28.271  28.021  1.00  0.00     0.074 A 
ATOM     33  C   UNL A   1      39.810  28.785  28.415  1.00  0.00     0.049 A 
ATOM     34  N   UNL A   1      42.768  29.336  28.515  1.00  0.00    -0.248 NA
ATOM     35  C   UNL A   1      43.138  27.273  27.487  1.00  0.00     0.031 C 
ATOM     36  C   UNL A   1      38.369  28.533  28.477  1.00  0.00     0.029 A 
ATOM     37  N   UNL A   1      39.950  30.040  28.955  1.00  0.00    -0.354 N 
ATOM     38  C   UNL A   1      44.135  29.114  28.406  1.00  0.00     0.074 A 
ATOM     39  C   UNL A   1      44.306  27.803  27.818  1.00  0.00     0.031 C 
ATOM     40  C   UNL A   1      37.760  29.592  29.034  1.00  0.00     0.029 A 
ATOM     41  C   UNL A   1      38.767  30.584  29.399  1.00  0.00     0.049 A 
ATOM     42  H   UNL A   1      40.815  30.506  29.018  1.00  0.00     0.167 HD
ATOM     43  C   UNL A   1      45.157  29.937  28.742  1.00  0.00     0.034 A 
ATOM     44  C   UNL A   1      38.523  31.743  30.042  1.00  0.00     0.034 A 
ATOM     45  C   UNL A   1      44.982  31.264  29.263  1.00  0.00     0.049 A 
ATOM     46  C   UNL A   1      39.669  32.672  30.339  1.00  0.00     0.074 A 
ATOM     47  C   UNL A   1      45.948  32.214  29.544  1.00  0.00     0.029 A 
ATOM     48  N   UNL A   1      43.757  31.832  29.580  1.00  0.00    -0.354 N 
ATOM     49  N   UNL A   1      40.946  32.508  30.094  1.00  0.00    -0.248 NA
ATOM     50  C   UNL A   1      39.340  33.960  30.968  1.00  0.00     0.031 C 
ATOM     51  C   UNL A   1      45.307  33.356  30.035  1.00  0.00     0.029 A 
ATOM     52  C   UNL A   1      43.941  33.121  30.048  1.00  0.00     0.049 A 
ATOM     53  H   UNL A   1      42.885  31.385  29.485  1.00  0.00     0.167 HD
ATOM     54  C   UNL A   1      41.568  33.684  30.499  1.00  0.00     0.074 A 
ATOM     55  C   UNL A   1      40.526  34.557  30.997  1.00  0.00     0.031 C 
ATOM     56  C   UNL A   1      42.885  34.004  30.473  1.00  0.00     0.034 A 
BRANCH  43  57
ATOM     57  C   UNL A   1      46.558  29.441  28.495  1.00  0.00     0.023 A 
ATOM     58  C   UNL A   1      47.207  29.771  27.288  1.00  0.00     0.012 A 
ATOM     59  C   UNL A   1      47.243  28.683  29.464  1.00  0.00     0.148 A 
ATOM     60  C   UNL A   1      48.501  29.320  27.032  1.00  0.00     0.002 A 
ATOM     61  C   UNL A   1      48.549  28.274  29.219  1.00  0.00     0.091 A 
ATOM     62  F   UNL A   1      46.602  28.356  30.596  1.00  0.00    -0.205 F 
ATOM     63  C   UNL A   1      49.174  28.581  28.000  1.00  0.00     0.022 A 
BRANCH  61  64
ATOM     64  S   UNL A   1      49.519  27.384  30.441  1.00  0.00     0.127 S 
ATOM     65  O   UNL A   1      48.984  26.030  30.315  1.00  0.00    -0.237 OA
ATOM     66  O   UNL A   1      50.884  27.548  29.936  1.00  0.00    -0.237 OA
ATOM     67  O   UNL A   1      49.264  28.051  31.709  1.00  0.00    -0.744 OA
ENDBRANCH  61  64
ENDBRANCH  43  57
BRANCH  44  68
ATOM     68  C   UNL A   1      37.120  32.121  30.375  1.00  0.00     0.023 A 
ATOM     69  C   UNL A   1      36.632  31.869  31.671  1.00  0.00     0.012 A 
ATOM     70  C   UNL A   1      36.291  32.774  29.443  1.00  0.00     0.148 A 
ATOM     71  C   UNL A   1      35.335  32.238  32.028  1.00  0.00     0.002 A 
ATOM     72  C   UNL A   1      35.017  33.186  29.822  1.00  0.00     0.091 A 
ATOM     73  F   UNL A   1      36.770  32.997  28.212  1.00  0.00    -0.205 F 
ATOM     74  C   UNL A   1      34.532  32.906  31.109  1.00  0.00     0.022 A 
BRANCH  72  75
ATOM     75  S   UNL A   1      33.961  34.167  28.749  1.00  0.00     0.127 S 
ATOM     76  O   UNL A   1      34.877  35.212  28.301  1.00  0.00    -0.237 OA
ATOM     77  O   UNL A   1      33.588  33.193  27.721  1.00  0.00    -0.237 OA
ATOM     78  O   UNL A   1      32.854  34.610  29.584  1.00  0.00    -0.744 OA
ENDBRANCH  72  75
ENDBRANCH  44  68
BRANCH  56  79
ATOM     79  C   UNL A   1      43.286  35.374  30.951  1.00  0.00     0.023 A 
ATOM     80  C   UNL A   1      43.686  35.559  32.289  1.00  0.00     0.012 A 
ATOM     81  C   UNL A   1      43.367  36.451  30.047  1.00  0.00     0.148 A 
ATOM     82  C   UNL A   1      44.143  36.802  32.724  1.00  0.00     0.002 A 
ATOM     83  C   UNL A   1      43.866  37.676  30.477  1.00  0.00     0.091 A 
ATOM     84  F   UNL A   1      42.963  36.258  28.783  1.00  0.00    -0.205 F 
ATOM     85  C   UNL A   1      44.246  37.855  31.817  1.00  0.00     0.022 A 
BRANCH  83  86
ATOM     86  S   UNL A   1      44.122  39.055  29.355  1.00  0.00     0.127 S 
ATOM     87  O   UNL A   1      44.780  38.403  28.225  1.00  0.00    -0.237 OA
ATOM     88  O   UNL A   1      42.753  39.500  29.090  1.00  0.00    -0.237 OA
ATOM     89  O   UNL A   1      44.936  40.019  30.085  1.00  0.00    -0.744 OA
ENDBRANCH  83  86
ENDBRANCH  56  79
ENDBRANCH  30  31
ENDBRANCH  22  25
ENDBRANCH  20  21
ENDBRANCH  19  20
ENDBRANCH   1  19
TORSDOF 19
ENDMDL
MODEL 3
REMARK VINA RESULT:      -9.8      7.077     12.217
REMARK SMILES CC(C)(C)SSC[C@H]([NH3+])C(=O)NCCCCNC(=O)c1ccc(-c2c3nc(c(-c4cccc(S(=O)(=O)[O-])c4F)c4ccc([nH]4)c(-c4cccc(S(=O)(=O)[O-])c4F)c4nc(c(-c5cccc(S(=O)(=O)[O-])c5F)c5ccc2[nH]5)C=C4)C=C3)cc1
REMARK SMILES IDX 14 1 13 2 12 3 10 4 11 5 8 7 7 8 6 9 5 10 2 11 1 12 3 13
REMARK SMILES IDX 4 14 9 15 15 19 16 20 17 21 18 22 19 24 20 25 21 26 82 27
REMARK SMILES IDX 22 28 81 29 23 30 24 31 25 32 75 33 26 34 80 35 74 36 76 37
REMARK SMILES IDX 27 38 79 39 73 40 72 41 28 43 60 44 40 45 59 46 41 47 44 48
REMARK SMILES IDX 58 49 77 50 42 51 43 52 57 54 78 55 45 56 29 57 30 58 38 59
REMARK SMILES IDX 31 60 33 61 39 62 32 63 34 64 35 65 36 66 37 67 61 68 62 69
REMARK SMILES IDX 70 70 63 71 65 72 71 73 64 74 66 75 67 76 68 77 69 78 46 79
REMARK SMILES IDX 47 80 55 81 48 82 50 83 56 84 49 85 51 86 52 87 53 88 54 89
REMARK H PARENT 12 6 9 16 9 17 9 18 17 23 76 42 44 53
REMARK Flexibility Score: inf
ROOT
ATOM      1  C   UNL A   1      37.095  21.622  24.288  1.00  0.00     0.023 C 
ENDROOT
BRANCH   1   2
ATOM      2  C   UNL A   1      36.799  22.521  25.485  1.00  0.00     0.116 C 
BRANCH   2   3
ATOM      3  N   UNL A   1      35.542  23.231  25.337  1.00  0.00    -0.351 N 
ATOM      4  C   UNL A   1      34.256  22.834  25.562  1.00  0.00     0.279 C 
ATOM      5  O   UNL A   1      33.365  23.676  25.427  1.00  0.00    -0.268 OA
ATOM      6  H   UNL A   1      35.632  24.158  25.019  1.00  0.00     0.163 HD
BRANCH   4   7
ATOM      7  C   UNL A   1      33.923  21.400  26.012  1.00  0.00     0.281 C 
BRANCH   7   8
ATOM      8  C   UNL A   1      32.543  21.021  25.446  1.00  0.00     0.157 C 
BRANCH   8   9
ATOM      9  S   UNL A   1      32.573  19.785  24.100  1.00  0.00    -0.087 SA
BRANCH   9  10
ATOM     10  S   UNL A   1      32.616  18.011  25.137  1.00  0.00    -0.088 SA
BRANCH  10  11
ATOM     11  C   UNL A   1      34.106  17.119  24.502  1.00  0.00     0.018 C 
ATOM     12  C   UNL A   1      33.823  16.806  23.025  1.00  0.00     0.023 C 
ATOM     13  C   UNL A   1      34.305  15.807  25.271  1.00  0.00     0.023 C 
ATOM     14  C   UNL A   1      35.357  18.001  24.605  1.00  0.00     0.023 C 
ENDBRANCH  10  11
ENDBRANCH   9  10
ENDBRANCH   8   9
ENDBRANCH   7   8
BRANCH   7  15
ATOM     15  N   UNL A   1      34.099  21.242  27.476  1.00  0.00    -0.347 N 
ATOM     16  H   UNL A   1      34.994  21.644  27.756  1.00  0.00     0.345 HD
ATOM     17  H   UNL A   1      34.083  20.250  27.716  1.00  0.00     0.345 HD
ATOM     18  H   UNL A   1      33.343  21.722  27.964  1.00  0.00     0.345 HD
ENDBRANCH   7  15
ENDBRANCH   4   7
ENDBRANCH   2   3
ENDBRANCH   1   2
BRANCH   1  19
ATOM     19  C   UNL A   1      37.844  20.331  24.621  1.00  0.00     0.023 C 
BRANCH  19  20
ATOM     20  C   UNL A   1      38.613  20.341  25.938  1.00  0.00     0.116 C 
BRANCH  20  21
ATOM     21  N   UNL A   1      39.787  19.480  25.922  1.00  0.00    -0.352 N 
ATOM     22  C   UNL A   1      41.099  19.819  26.152  1.00  0.00     0.251 C 
ATOM     23  H   UNL A   1      39.619  18.530  25.721  1.00  0.00     0.163 HD
ATOM     24  O   UNL A   1      41.992  18.993  25.983  1.00  0.00    -0.269 OA
BRANCH  22  25
ATOM     25  C   UNL A   1      41.425  21.197  26.575  1.00  0.00     0.039 A 
ATOM     26  C   UNL A   1      41.821  21.430  27.895  1.00  0.00     0.014 A 
ATOM     27  C   UNL A   1      41.386  22.244  25.651  1.00  0.00     0.014 A 
ATOM     28  C   UNL A   1      42.248  22.705  28.272  1.00  0.00     0.010 A 
ATOM     29  C   UNL A   1      41.874  23.494  26.011  1.00  0.00     0.010 A 
ATOM     30  C   UNL A   1      42.311  23.739  27.323  1.00  0.00    -0.014 A 
BRANCH  30  31
ATOM     31  C   UNL A   1      42.829  25.088  27.660  1.00  0.00     0.031 A 
ATOM     32  C   UNL A   1      41.915  26.096  28.297  1.00  0.00     0.074 A 
ATOM     33  C   UNL A   1      44.067  25.450  27.268  1.00  0.00     0.049 A 
ATOM     34  N   UNL A   1      42.111  27.370  28.515  1.00  0.00    -0.248 NA
ATOM     35  C   UNL A   1      40.586  25.613  28.711  1.00  0.00     0.031 C 
ATOM     36  C   UNL A   1      45.023  24.585  26.575  1.00  0.00     0.029 A 
ATOM     37  N   UNL A   1      44.716  26.657  27.359  1.00  0.00    -0.354 N 
ATOM     38  C   UNL A   1      40.916  27.852  29.035  1.00  0.00     0.074 A 
ATOM     39  C   UNL A   1      39.993  26.739  29.080  1.00  0.00     0.031 C 
ATOM     40  C   UNL A   1      46.130  25.291  26.292  1.00  0.00     0.029 A 
ATOM     41  C   UNL A   1      45.951  26.665  26.753  1.00  0.00     0.049 A 
ATOM     42  H   UNL A   1      44.333  27.441  27.814  1.00  0.00     0.167 HD
ATOM     43  C   UNL A   1      40.621  29.104  29.460  1.00  0.00     0.034 A 
ATOM     44  C   UNL A   1      46.832  27.669  26.575  1.00  0.00     0.034 A 
ATOM     45  C   UNL A   1      41.561  30.190  29.475  1.00  0.00     0.049 A 
ATOM     46  C   UNL A   1      46.509  29.033  27.121  1.00  0.00     0.074 A 
ATOM     47  C   UNL A   1      41.392  31.468  29.975  1.00  0.00     0.029 A 
ATOM     48  N   UNL A   1      42.851  30.124  28.970  1.00  0.00    -0.354 N 
ATOM     49  N   UNL A   1      45.429  29.436  27.743  1.00  0.00    -0.248 NA
ATOM     50  C   UNL A   1      47.538  30.074  26.972  1.00  0.00     0.031 C 
ATOM     51  C   UNL A   1      42.579  32.178  29.768  1.00  0.00     0.029 A 
ATOM     52  C   UNL A   1      43.491  31.337  29.150  1.00  0.00     0.049 A 
ATOM     53  H   UNL A   1      43.252  29.331  28.546  1.00  0.00     0.167 HD
ATOM     54  C   UNL A   1      45.661  30.760  28.098  1.00  0.00     0.074 A 
ATOM     55  C   UNL A   1      46.991  31.090  27.629  1.00  0.00     0.031 C 
ATOM     56  C   UNL A   1      44.842  31.628  28.741  1.00  0.00     0.034 A 
BRANCH  43  57
ATOM     57  C   UNL A   1      39.236  29.344  30.001  1.00  0.00     0.023 A 
ATOM     58  C   UNL A   1      38.916  28.909  31.303  1.00  0.00     0.012 A 
ATOM     59  C   UNL A   1      38.266  30.028  29.242  1.00  0.00     0.148 A 
ATOM     60  C   UNL A   1      37.640  29.114  31.826  1.00  0.00     0.002 A 
ATOM     61  C   UNL A   1      37.010  30.266  29.787  1.00  0.00     0.091 A 
ATOM     62  F   UNL A   1      38.579  30.412  27.996  1.00  0.00    -0.205 F 
ATOM     63  C   UNL A   1      36.691  29.800  31.073  1.00  0.00     0.022 A 
BRANCH  61  64
ATOM     64  S   UNL A   1      35.752  31.210  28.918  1.00  0.00     0.127 S 
ATOM     65  O   UNL A   1      34.885  31.629  30.018  1.00  0.00    -0.237 OA
ATOM     66  O   UNL A   1      36.534  32.290  28.313  1.00  0.00    -0.237 OA
ATOM     67  O   UNL A   1      35.159  30.288  27.960  1.00  0.00    -0.744 OA
ENDBRANCH  61  64
ENDBRANCH  43  57
BRANCH  44  68
ATOM     68  C   UNL A   1      48.140  27.394  25.915  1.00  0.00     0.023 A 
ATOM     69  C   UNL A   1      49.208  26.899  26.688  1.00  0.00     0.012 A 
ATOM     70  C   UNL A   1      48.316  27.564  24.528  1.00  0.00     0.148 A 
ATOM     71  C   UNL A   1      50.436  26.601  26.097  1.00  0.00     0.002 A 
ATOM     72  C   UNL A   1      49.527  27.216  23.937  1.00  0.00     0.091 A 
ATOM     73  F   UNL A   1      47.291  28.045  23.811  1.00  0.00    -0.205 F 
ATOM     74  C   UNL A   1      50.593  26.748  24.722  1.00  0.00     0.022 A 
BRANCH  72  75
ATOM     75  S   UNL A   1      49.778  27.247  22.159  1.00  0.00     0.127 S 
ATOM     76  O   UNL A   1      51.150  26.761  22.041  1.00  0.00    -0.237 OA
ATOM     77  O   UNL A   1      48.751  26.313  21.693  1.00  0.00    -0.237 OA
ATOM     78  O   UNL A   1      49.559  28.629  21.755  1.00  0.00    -0.744 OA
ENDBRANCH  72  75
ENDBRANCH  44  68
BRANCH  56  79
ATOM     79  C   UNL A   1      45.364  33.010  29.026  1.00  0.00     0.023 A 
ATOM     80  C   UNL A   1      46.125  33.244  30.189  1.00  0.00     0.012 A 
ATOM     81  C   UNL A   1      45.191  34.048  28.090  1.00  0.00     0.148 A 
ATOM     82  C   UNL A   1      46.689  34.497  30.424  1.00  0.00     0.002 A 
ATOM     83  C   UNL A   1      45.793  35.282  28.309  1.00  0.00     0.091 A 
ATOM     84  F   UNL A   1      44.446  33.809  27.000  1.00  0.00    -0.205 F 
ATOM     85  C   UNL A   1      46.535  35.510  29.479  1.00  0.00     0.022 A 
BRANCH  83  86
ATOM     86  S   UNL A   1      45.726  36.610  27.102  1.00  0.00     0.127 S 
ATOM     87  O   UNL A   1      46.535  37.642  27.748  1.00  0.00    -0.237 OA
ATOM     88  O   UNL A   1      46.347  35.995  25.927  1.00  0.00    -0.237 OA
ATOM     89  O   UNL A   1      44.315  36.930  26.937  1.00  0.00    -0.744 OA
ENDBRANCH  83  86
ENDBRANCH  56  79
ENDBRANCH  30  31
ENDBRANCH  22  25
ENDBRANCH  20  21
ENDBRANCH  19  20
ENDBRANCH   1  19
TORSDOF 19
ENDMDL
