MODEL 1
REMARK VINA RESULT:     -12.3      0.000      0.000
REMARK SMILES CS(=O)(=O)c1ccc(/C=C(/C(=O)NCCCCNC(=O)c2ccc(-c3c4nc(c(-c5cccc(S(=O)(=O)[O-])c5F)c5ccc([nH]5)c(-c5cccc(S(=O)(=O)[O-])c5F)c5nc(c(-c6cccc(S(=O)(=O)[O-])c6F)c6ccc3[nH]6)C=C5)C=C4)cc2)c2ccc(O)cc2)cc1
REMARK SMILES IDX 16 1 15 2 14 3 13 4 11 5 12 6 10 8 9 9 8 10 5 11 6 12 92 13
REMARK SMILES IDX 7 14 91 15 2 16 1 17 3 18 4 19 84 20 85 21 90 22 86 23 89 24
REMARK SMILES IDX 87 25 88 26 17 28 18 29 19 30 20 32 21 33 22 34 83 35 23 36
REMARK SMILES IDX 82 37 24 38 25 39 26 40 76 41 27 42 81 43 75 44 77 45 28 46
REMARK SMILES IDX 80 47 74 48 73 49 29 51 61 52 41 53 60 54 42 55 45 56 59 57
REMARK SMILES IDX 78 58 43 59 44 60 58 62 79 63 46 64 30 65 31 66 39 67 32 68
REMARK SMILES IDX 34 69 40 70 33 71 35 72 36 73 37 74 38 75 62 76 63 77 71 78
REMARK SMILES IDX 64 79 66 80 72 81 65 82 67 83 68 84 69 85 70 86 47 87 48 88
REMARK SMILES IDX 56 89 49 90 51 91 57 92 50 93 52 94 53 95 54 96 55 97
REMARK H PARENT 13 7 88 27 18 31 77 50 45 61
REMARK Flexibility Score: inf
ROOT
ATOM      1  C   UNL A   1      36.605  23.654  24.725  1.00  0.00     0.023 C 
ENDROOT
BRANCH   1   2
ATOM      2  C   UNL A   1      35.729  22.904  23.715  1.00  0.00     0.023 C 
BRANCH   2   3
ATOM      3  C   UNL A   1      34.278  23.390  23.654  1.00  0.00     0.116 C 
BRANCH   3   4
ATOM      4  N   UNL A   1      33.605  23.128  24.911  1.00  0.00    -0.352 N 
ATOM      5  C   UNL A   1      32.706  23.817  25.663  1.00  0.00     0.251 C 
ATOM      6  O   UNL A   1      32.358  23.282  26.718  1.00  0.00    -0.269 OA
ATOM      7  H   UNL A   1      33.851  22.261  25.306  1.00  0.00     0.163 HD
BRANCH   5   8
ATOM      8  C   UNL A   1      32.075  25.125  25.231  1.00  0.00     0.047 C 
ATOM      9  C   UNL A   1      31.386  25.250  24.075  1.00  0.00     0.022 C 
BRANCH   9  10
ATOM     10  C   UNL A   1      30.605  26.397  23.560  1.00  0.00    -0.025 A 
ATOM     11  C   UNL A   1      29.027  28.593  22.815  1.00  0.00     0.067 A 
ATOM     12  C   UNL A   1      30.357  28.522  22.402  1.00  0.00     0.021 A 
ATOM     13  C   UNL A   1      28.462  27.564  23.569  1.00  0.00     0.021 A 
ATOM     14  C   UNL A   1      31.132  27.412  22.753  1.00  0.00     0.009 A 
ATOM     15  C   UNL A   1      29.252  26.470  23.934  1.00  0.00     0.009 A 
BRANCH  11  16
ATOM     16  S   UNL A   1      28.043  30.018  22.425  1.00  0.00     0.175 S 
ATOM     17  C   UNL A   1      28.959  31.364  23.128  1.00  0.00     0.163 C 
ATOM     18  O   UNL A   1      26.792  29.910  23.156  1.00  0.00    -0.224 OA
ATOM     19  O   UNL A   1      28.049  30.166  20.985  1.00  0.00    -0.224 OA
ENDBRANCH  11  16
ENDBRANCH   9  10
BRANCH   8  20
ATOM     20  C   UNL A   1      32.408  26.328  26.038  1.00  0.00    -0.013 A 
ATOM     21  C   UNL A   1      33.664  26.932  25.850  1.00  0.00     0.013 A 
ATOM     22  C   UNL A   1      31.482  26.941  26.893  1.00  0.00     0.013 A 
ATOM     23  C   UNL A   1      33.970  28.149  26.457  1.00  0.00     0.047 A 
ATOM     24  C   UNL A   1      31.783  28.172  27.489  1.00  0.00     0.047 A 
ATOM     25  C   UNL A   1      33.017  28.772  27.250  1.00  0.00     0.115 A 
BRANCH  25  26
ATOM     26  O   UNL A   1      33.327  29.996  27.763  1.00  0.00    -0.508 OA
ATOM     27  H   UNL A   1      33.853  30.593  27.268  1.00  0.00     0.293 HD
ENDBRANCH  25  26
ENDBRANCH   8  20
ENDBRANCH   5   8
ENDBRANCH   3   4
ENDBRANCH   2   3
ENDBRANCH   1   2
BRANCH   1  28
ATOM     28  C   UNL A   1      36.791  22.956  26.069  1.00  0.00     0.116 C 
BRANCH  28  29
ATOM     29  N   UNL A   1      38.002  22.151  26.130  1.00  0.00    -0.352 N 
ATOM     30  C   UNL A   1      39.283  22.554  26.426  1.00  0.00     0.251 C 
ATOM     31  H   UNL A   1      37.890  21.193  25.935  1.00  0.00     0.163 HD
ATOM     32  O   UNL A   1      40.215  21.763  26.324  1.00  0.00    -0.269 OA
BRANCH  30  33
ATOM     33  C   UNL A   1      39.527  23.954  26.829  1.00  0.00     0.039 A 
ATOM     34  C   UNL A   1      39.330  24.317  28.163  1.00  0.00     0.014 A 
ATOM     35  C   UNL A   1      39.984  24.892  25.899  1.00  0.00     0.014 A 
ATOM     36  C   UNL A   1      39.657  25.608  28.582  1.00  0.00     0.010 A 
ATOM     37  C   UNL A   1      40.370  26.157  26.331  1.00  0.00     0.010 A 
ATOM     38  C   UNL A   1      40.213  26.527  27.677  1.00  0.00    -0.014 A 
BRANCH  38  39
ATOM     39  C   UNL A   1      40.662  27.872  28.117  1.00  0.00     0.031 A 
ATOM     40  C   UNL A   1      42.128  28.207  28.148  1.00  0.00     0.074 A 
ATOM     41  C   UNL A   1      39.756  28.753  28.585  1.00  0.00     0.049 A 
ATOM     42  N   UNL A   1      42.714  29.296  28.572  1.00  0.00    -0.248 NA
ATOM     43  C   UNL A   1      43.059  27.172  27.669  1.00  0.00     0.031 C 
ATOM     44  C   UNL A   1      38.315  28.513  28.684  1.00  0.00     0.029 A 
ATOM     45  N   UNL A   1      39.917  30.016  29.096  1.00  0.00    -0.354 N 
ATOM     46  C   UNL A   1      44.079  29.066  28.447  1.00  0.00     0.074 A 
ATOM     47  C   UNL A   1      44.235  27.721  27.938  1.00  0.00     0.031 C 
ATOM     48  C   UNL A   1      37.725  29.591  29.224  1.00  0.00     0.029 A 
ATOM     49  C   UNL A   1      38.744  30.589  29.534  1.00  0.00     0.049 A 
ATOM     50  H   UNL A   1      40.789  30.471  29.147  1.00  0.00     0.167 HD
ATOM     51  C   UNL A   1      45.108  29.908  28.705  1.00  0.00     0.034 A 
ATOM     52  C   UNL A   1      38.517  31.779  30.122  1.00  0.00     0.034 A 
ATOM     53  C   UNL A   1      44.946  31.261  29.163  1.00  0.00     0.049 A 
ATOM     54  C   UNL A   1      39.674  32.715  30.349  1.00  0.00     0.074 A 
ATOM     55  C   UNL A   1      45.919  32.224  29.360  1.00  0.00     0.029 A 
ATOM     56  N   UNL A   1      43.733  31.842  29.499  1.00  0.00    -0.354 N 
ATOM     57  N   UNL A   1      40.942  32.542  30.066  1.00  0.00    -0.248 NA
ATOM     58  C   UNL A   1      39.365  34.025  30.942  1.00  0.00     0.031 C 
ATOM     59  C   UNL A   1      45.295  33.385  29.830  1.00  0.00     0.029 A 
ATOM     60  C   UNL A   1      43.933  33.149  29.908  1.00  0.00     0.049 A 
ATOM     61  H   UNL A   1      42.859  31.392  29.453  1.00  0.00     0.167 HD
ATOM     62  C   UNL A   1      41.576  33.729  30.412  1.00  0.00     0.074 A 
ATOM     63  C   UNL A   1      40.548  34.622  30.906  1.00  0.00     0.031 C 
ATOM     64  C   UNL A   1      42.892  34.047  30.341  1.00  0.00     0.034 A 
BRANCH  51  65
ATOM     65  C   UNL A   1      46.503  29.409  28.436  1.00  0.00     0.023 A 
ATOM     66  C   UNL A   1      47.106  29.677  27.189  1.00  0.00     0.012 A 
ATOM     67  C   UNL A   1      47.238  28.728  29.425  1.00  0.00     0.148 A 
ATOM     68  C   UNL A   1      48.404  29.248  26.919  1.00  0.00     0.002 A 
ATOM     69  C   UNL A   1      48.548  28.341  29.164  1.00  0.00     0.091 A 
ATOM     70  F   UNL A   1      46.643  28.462  30.597  1.00  0.00    -0.205 F 
ATOM     71  C   UNL A   1      49.128  28.589  27.909  1.00  0.00     0.022 A 
BRANCH  69  72
ATOM     72  S   UNL A   1      49.589  27.556  30.399  1.00  0.00     0.127 S 
ATOM     73  O   UNL A   1      49.492  28.502  31.511  1.00  0.00    -0.237 OA
ATOM     74  O   UNL A   1      48.902  26.284  30.622  1.00  0.00    -0.237 OA
ATOM     75  O   UNL A   1      50.908  27.436  29.794  1.00  0.00    -0.744 OA
ENDBRANCH  69  72
ENDBRANCH  51  65
BRANCH  52  76
ATOM     76  C   UNL A   1      37.125  32.184  30.468  1.00  0.00     0.023 A 
ATOM     77  C   UNL A   1      36.658  31.991  31.783  1.00  0.00     0.012 A 
ATOM     78  C   UNL A   1      36.274  32.784  29.519  1.00  0.00     0.148 A 
ATOM     79  C   UNL A   1      35.361  32.359  32.140  1.00  0.00     0.002 A 
ATOM     80  C   UNL A   1      35.001  33.198  29.896  1.00  0.00     0.091 A 
ATOM     81  F   UNL A   1      36.732  32.948  28.270  1.00  0.00    -0.205 F 
ATOM     82  C   UNL A   1      34.537  32.972  31.200  1.00  0.00     0.022 A 
BRANCH  80  83
ATOM     83  S   UNL A   1      33.922  34.114  28.789  1.00  0.00     0.127 S 
ATOM     84  O   UNL A   1      34.822  35.143  28.278  1.00  0.00    -0.237 OA
ATOM     85  O   UNL A   1      33.542  33.088  27.817  1.00  0.00    -0.237 OA
ATOM     86  O   UNL A   1      32.822  34.586  29.620  1.00  0.00    -0.744 OA
ENDBRANCH  80  83
ENDBRANCH  52  76
BRANCH  64  87
ATOM     87  C   UNL A   1      43.303  35.428  30.774  1.00  0.00     0.023 A 
ATOM     88  C   UNL A   1      43.729  35.647  32.100  1.00  0.00     0.012 A 
ATOM     89  C   UNL A   1      43.350  36.490  29.848  1.00  0.00     0.148 A 
ATOM     90  C   UNL A   1      44.167  36.908  32.503  1.00  0.00     0.002 A 
ATOM     91  C   UNL A   1      43.833  37.730  30.246  1.00  0.00     0.091 A 
ATOM     92  F   UNL A   1      42.922  36.265  28.597  1.00  0.00    -0.205 F 
ATOM     93  C   UNL A   1      44.232  37.944  31.575  1.00  0.00     0.022 A 
BRANCH  91  94
ATOM     94  S   UNL A   1      44.040  39.095  29.095  1.00  0.00     0.127 S 
ATOM     95  O   UNL A   1      44.942  38.513  28.103  1.00  0.00    -0.237 OA
ATOM     96  O   UNL A   1      42.672  39.314  28.624  1.00  0.00    -0.237 OA
ATOM     97  O   UNL A   1      44.592  40.195  29.874  1.00  0.00    -0.744 OA
ENDBRANCH  91  94
ENDBRANCH  64  87
ENDBRANCH  38  39
ENDBRANCH  30  33
ENDBRANCH  28  29
ENDBRANCH   1  28
TORSDOF 18
ENDMDL
MODEL 2
REMARK VINA RESULT:     -12.2      4.887      9.932
REMARK SMILES CS(=O)(=O)c1ccc(/C=C(/C(=O)NCCCCNC(=O)c2ccc(-c3c4nc(c(-c5cccc(S(=O)(=O)[O-])c5F)c5ccc([nH]5)c(-c5cccc(S(=O)(=O)[O-])c5F)c5nc(c(-c6cccc(S(=O)(=O)[O-])c6F)c6ccc3[nH]6)C=C5)C=C4)cc2)c2ccc(O)cc2)cc1
REMARK SMILES IDX 16 1 15 2 14 3 13 4 11 5 12 6 10 8 9 9 8 10 5 11 6 12 92 13
REMARK SMILES IDX 7 14 91 15 2 16 1 17 3 18 4 19 84 20 85 21 90 22 86 23 89 24
REMARK SMILES IDX 87 25 88 26 17 28 18 29 19 30 20 32 21 33 22 34 83 35 23 36
REMARK SMILES IDX 82 37 24 38 25 39 26 40 76 41 27 42 81 43 75 44 77 45 28 46
REMARK SMILES IDX 80 47 74 48 73 49 29 51 61 52 41 53 60 54 42 55 45 56 59 57
REMARK SMILES IDX 78 58 43 59 44 60 58 62 79 63 46 64 30 65 31 66 39 67 32 68
REMARK SMILES IDX 34 69 40 70 33 71 35 72 36 73 37 74 38 75 62 76 63 77 71 78
REMARK SMILES IDX 64 79 66 80 72 81 65 82 67 83 68 84 69 85 70 86 47 87 48 88
REMARK SMILES IDX 56 89 49 90 51 91 57 92 50 93 52 94 53 95 54 96 55 97
REMARK H PARENT 13 7 88 27 18 31 77 50 45 61
REMARK Flexibility Score: inf
ROOT
ATOM      1  C   UNL A   1      33.646  27.496  26.553  1.00  0.00     0.023 C 
ENDROOT
BRANCH   1   2
ATOM      2  C   UNL A   1      32.220  27.318  26.020  1.00  0.00     0.023 C 
BRANCH   2   3
ATOM      3  C   UNL A   1      31.957  25.962  25.360  1.00  0.00     0.116 C 
BRANCH   3   4
ATOM      4  N   UNL A   1      32.298  26.011  23.951  1.00  0.00    -0.352 N 
ATOM      5  C   UNL A   1      32.918  25.152  23.099  1.00  0.00     0.251 C 
ATOM      6  O   UNL A   1      33.062  25.548  21.940  1.00  0.00    -0.269 OA
ATOM      7  H   UNL A   1      32.020  26.849  23.517  1.00  0.00     0.163 HD
BRANCH   5   8
ATOM      8  C   UNL A   1      33.346  23.750  23.481  1.00  0.00     0.047 C 
ATOM      9  C   UNL A   1      32.466  22.730  23.594  1.00  0.00     0.022 C 
BRANCH   9  10
ATOM     10  C   UNL A   1      32.714  21.290  23.827  1.00  0.00    -0.025 A 
ATOM     11  C   UNL A   1      33.252  18.544  24.029  1.00  0.00     0.067 A 
ATOM     12  C   UNL A   1      33.686  19.412  25.031  1.00  0.00     0.021 A 
ATOM     13  C   UNL A   1      32.523  19.024  22.941  1.00  0.00     0.021 A 
ATOM     14  C   UNL A   1      33.390  20.776  24.940  1.00  0.00     0.009 A 
ATOM     15  C   UNL A   1      32.254  20.393  22.847  1.00  0.00     0.009 A 
BRANCH  11  16
ATOM     16  S   UNL A   1      33.663  16.819  24.100  1.00  0.00     0.175 S 
ATOM     17  C   UNL A   1      35.165  16.783  25.040  1.00  0.00     0.163 C 
ATOM     18  O   UNL A   1      33.979  16.380  22.751  1.00  0.00    -0.224 OA
ATOM     19  O   UNL A   1      32.628  16.160  24.870  1.00  0.00    -0.224 OA
ENDBRANCH  11  16
ENDBRANCH   9  10
BRANCH   8  20
ATOM     20  C   UNL A   1      34.754  23.575  23.920  1.00  0.00    -0.013 A 
ATOM     21  C   UNL A   1      35.105  23.985  25.219  1.00  0.00     0.013 A 
ATOM     22  C   UNL A   1      35.714  22.923  23.133  1.00  0.00     0.013 A 
ATOM     23  C   UNL A   1      36.366  23.701  25.742  1.00  0.00     0.047 A 
ATOM     24  C   UNL A   1      36.974  22.623  23.664  1.00  0.00     0.047 A 
ATOM     25  C   UNL A   1      37.280  22.999  24.970  1.00  0.00     0.115 A 
BRANCH  25  26
ATOM     26  O   UNL A   1      38.473  22.676  25.546  1.00  0.00    -0.508 OA
ATOM     27  H   UNL A   1      38.939  23.313  26.049  1.00  0.00     0.293 HD
ENDBRANCH  25  26
ENDBRANCH   8  20
ENDBRANCH   5   8
ENDBRANCH   3   4
ENDBRANCH   2   3
ENDBRANCH   1   2
BRANCH   1  28
ATOM     28  C   UNL A   1      34.406  28.695  25.992  1.00  0.00     0.116 C 
BRANCH  28  29
ATOM     29  N   UNL A   1      33.911  29.969  26.493  1.00  0.00    -0.352 N 
ATOM     30  C   UNL A   1      34.440  30.763  27.481  1.00  0.00     0.251 C 
ATOM     31  H   UNL A   1      33.089  30.306  26.068  1.00  0.00     0.163 HD
ATOM     32  O   UNL A   1      33.833  31.759  27.862  1.00  0.00    -0.269 OA
BRANCH  30  33
ATOM     33  C   UNL A   1      35.725  30.385  28.104  1.00  0.00     0.039 A 
ATOM     34  C   UNL A   1      35.710  29.650  29.292  1.00  0.00     0.014 A 
ATOM     35  C   UNL A   1      36.937  30.725  27.496  1.00  0.00     0.014 A 
ATOM     36  C   UNL A   1      36.912  29.194  29.836  1.00  0.00     0.010 A 
ATOM     37  C   UNL A   1      38.128  30.215  28.004  1.00  0.00     0.010 A 
ATOM     38  C   UNL A   1      38.128  29.443  29.177  1.00  0.00    -0.014 A 
BRANCH  38  39
ATOM     39  C   UNL A   1      39.408  28.886  29.679  1.00  0.00     0.031 A 
ATOM     40  C   UNL A   1      40.144  29.570  30.798  1.00  0.00     0.074 A 
ATOM     41  C   UNL A   1      39.958  27.824  29.058  1.00  0.00     0.049 A 
ATOM     42  N   UNL A   1      41.307  29.278  31.318  1.00  0.00    -0.248 NA
ATOM     43  C   UNL A   1      39.503  30.755  31.391  1.00  0.00     0.031 C 
ATOM     44  C   UNL A   1      39.383  27.125  27.907  1.00  0.00     0.029 A 
ATOM     45  N   UNL A   1      41.141  27.167  29.286  1.00  0.00    -0.354 N 
ATOM     46  C   UNL A   1      41.556  30.261  32.269  1.00  0.00     0.074 A 
ATOM     47  C   UNL A   1      40.436  31.176  32.233  1.00  0.00     0.031 C 
ATOM     48  C   UNL A   1      40.213  26.140  27.530  1.00  0.00     0.029 A 
ATOM     49  C   UNL A   1      41.391  26.151  28.391  1.00  0.00     0.049 A 
ATOM     50  H   UNL A   1      41.755  27.400  30.021  1.00  0.00     0.167 HD
ATOM     51  C   UNL A   1      42.606  30.374  33.117  1.00  0.00     0.034 A 
ATOM     52  C   UNL A   1      42.450  25.326  28.275  1.00  0.00     0.034 A 
ATOM     53  C   UNL A   1      43.691  29.435  33.184  1.00  0.00     0.049 A 
ATOM     54  C   UNL A   1      43.579  25.443  29.264  1.00  0.00     0.074 A 
ATOM     55  C   UNL A   1      44.752  29.408  34.073  1.00  0.00     0.029 A 
ATOM     56  N   UNL A   1      43.859  28.357  32.328  1.00  0.00    -0.354 N 
ATOM     57  N   UNL A   1      43.714  26.277  30.267  1.00  0.00    -0.248 NA
ATOM     58  C   UNL A   1      44.684  24.482  29.129  1.00  0.00     0.031 C 
ATOM     59  C   UNL A   1      45.569  28.321  33.744  1.00  0.00     0.029 A 
ATOM     60  C   UNL A   1      45.009  27.662  32.663  1.00  0.00     0.049 A 
ATOM     61  H   UNL A   1      43.250  28.121  31.591  1.00  0.00     0.167 HD
ATOM     62  C   UNL A   1      44.897  25.920  30.903  1.00  0.00     0.074 A 
ATOM     63  C   UNL A   1      45.430  24.781  30.184  1.00  0.00     0.031 C 
ATOM     64  C   UNL A   1      45.496  26.493  31.975  1.00  0.00     0.034 A 
BRANCH  51  65
ATOM     65  C   UNL A   1      42.599  31.527  34.087  1.00  0.00     0.023 A 
ATOM     66  C   UNL A   1      43.175  32.756  33.704  1.00  0.00     0.012 A 
ATOM     67  C   UNL A   1      41.979  31.417  35.346  1.00  0.00     0.148 A 
ATOM     68  C   UNL A   1      43.164  33.847  34.572  1.00  0.00     0.002 A 
ATOM     69  C   UNL A   1      41.935  32.522  36.189  1.00  0.00     0.091 A 
ATOM     70  F   UNL A   1      41.457  30.235  35.702  1.00  0.00    -0.205 F 
ATOM     71  C   UNL A   1      42.536  33.733  35.809  1.00  0.00     0.022 A 
BRANCH  69  72
ATOM     72  S   UNL A   1      41.081  32.500  37.769  1.00  0.00     0.127 S 
ATOM     73  O   UNL A   1      39.770  31.973  37.389  1.00  0.00    -0.237 OA
ATOM     74  O   UNL A   1      41.903  31.577  38.553  1.00  0.00    -0.237 OA
ATOM     75  O   UNL A   1      41.089  33.874  38.248  1.00  0.00    -0.744 OA
ENDBRANCH  69  72
ENDBRANCH  51  65
BRANCH  52  76
ATOM     76  C   UNL A   1      42.456  24.267  27.227  1.00  0.00     0.023 A 
ATOM     77  C   UNL A   1      43.108  24.514  26.003  1.00  0.00     0.012 A 
ATOM     78  C   UNL A   1      41.852  23.013  27.442  1.00  0.00     0.148 A 
ATOM     79  C   UNL A   1      43.132  23.544  25.000  1.00  0.00     0.002 A 
ATOM     80  C   UNL A   1      41.927  22.031  26.460  1.00  0.00     0.091 A 
ATOM     81  F   UNL A   1      41.227  22.801  28.609  1.00  0.00    -0.205 F 
ATOM     82  C   UNL A   1      42.552  22.300  25.233  1.00  0.00     0.022 A 
BRANCH  80  83
ATOM     83  S   UNL A   1      41.325  20.360  26.724  1.00  0.00     0.127 S 
ATOM     84  O   UNL A   1      39.884  20.572  26.821  1.00  0.00    -0.237 OA
ATOM     85  O   UNL A   1      41.769  19.680  25.506  1.00  0.00    -0.237 OA
ATOM     86  O   UNL A   1      41.983  19.896  27.939  1.00  0.00    -0.744 OA
ENDBRANCH  80  83
ENDBRANCH  52  76
BRANCH  64  87
ATOM     87  C   UNL A   1      46.781  25.884  32.468  1.00  0.00     0.023 A 
ATOM     88  C   UNL A   1      48.013  26.348  31.964  1.00  0.00     0.012 A 
ATOM     89  C   UNL A   1      46.773  24.914  33.490  1.00  0.00     0.148 A 
ATOM     90  C   UNL A   1      49.214  25.836  32.451  1.00  0.00     0.002 A 
ATOM     91  C   UNL A   1      47.975  24.443  34.002  1.00  0.00     0.091 A 
ATOM     92  F   UNL A   1      45.590  24.472  33.942  1.00  0.00    -0.205 F 
ATOM     93  C   UNL A   1      49.197  24.894  33.477  1.00  0.00     0.022 A 
BRANCH  91  94
ATOM     94  S   UNL A   1      48.048  23.302  35.389  1.00  0.00     0.127 S 
ATOM     95  O   UNL A   1      47.571  22.061  34.779  1.00  0.00    -0.237 OA
ATOM     96  O   UNL A   1      49.472  23.309  35.724  1.00  0.00    -0.237 OA
ATOM     97  O   UNL A   1      47.185  23.866  36.417  1.00  0.00    -0.744 OA
ENDBRANCH  91  94
ENDBRANCH  64  87
ENDBRANCH  38  39
ENDBRANCH  30  33
ENDBRANCH  28  29
ENDBRANCH   1  28
TORSDOF 18
ENDMDL
MODEL 3
REMARK VINA RESULT:     -12.2      1.801      2.398
REMARK SMILES CS(=O)(=O)c1ccc(/C=C(/C(=O)NCCCCNC(=O)c2ccc(-c3c4nc(c(-c5cccc(S(=O)(=O)[O-])c5F)c5ccc([nH]5)c(-c5cccc(S(=O)(=O)[O-])c5F)c5nc(c(-c6cccc(S(=O)(=O)[O-])c6F)c6ccc3[nH]6)C=C5)C=C4)cc2)c2ccc(O)cc2)cc1
REMARK SMILES IDX 16 1 15 2 14 3 13 4 11 5 12 6 10 8 9 9 8 10 5 11 6 12 92 13
REMARK SMILES IDX 7 14 91 15 2 16 1 17 3 18 4 19 84 20 85 21 90 22 86 23 89 24
REMARK SMILES IDX 87 25 88 26 17 28 18 29 19 30 20 32 21 33 22 34 83 35 23 36
REMARK SMILES IDX 82 37 24 38 25 39 26 40 76 41 27 42 81 43 75 44 77 45 28 46
REMARK SMILES IDX 80 47 74 48 73 49 29 51 61 52 41 53 60 54 42 55 45 56 59 57
REMARK SMILES IDX 78 58 43 59 44 60 58 62 79 63 46 64 30 65 31 66 39 67 32 68
REMARK SMILES IDX 34 69 40 70 33 71 35 72 36 73 37 74 38 75 62 76 63 77 71 78
REMARK SMILES IDX 64 79 66 80 72 81 65 82 67 83 68 84 69 85 70 86 47 87 48 88
REMARK SMILES IDX 56 89 49 90 51 91 57 92 50 93 52 94 53 95 54 96 55 97
REMARK H PARENT 13 7 88 27 18 31 77 50 45 61
REMARK Flexibility Score: inf
ROOT
ATOM      1  C   UNL A   1      35.873  21.583  24.528  1.00  0.00     0.023 C 
ENDROOT
BRANCH   1   2
ATOM      2  C   UNL A   1      35.685  22.835  23.664  1.00  0.00     0.023 C 
BRANCH   2   3
ATOM      3  C   UNL A   1      34.250  23.369  23.629  1.00  0.00     0.116 C 
BRANCH   3   4
ATOM      4  N   UNL A   1      33.594  23.135  24.901  1.00  0.00    -0.352 N 
ATOM      5  C   UNL A   1      32.716  23.848  25.656  1.00  0.00     0.251 C 
ATOM      6  O   UNL A   1      32.378  23.333  26.725  1.00  0.00    -0.269 OA
ATOM      7  H   UNL A   1      33.835  22.270  25.305  1.00  0.00     0.163 HD
BRANCH   5   8
ATOM      8  C   UNL A   1      32.097  25.158  25.215  1.00  0.00     0.047 C 
ATOM      9  C   UNL A   1      31.422  25.284  24.051  1.00  0.00     0.022 C 
BRANCH   9  10
ATOM     10  C   UNL A   1      30.652  26.434  23.526  1.00  0.00    -0.025 A 
ATOM     11  C   UNL A   1      29.087  28.631  22.756  1.00  0.00     0.067 A 
ATOM     12  C   UNL A   1      30.432  28.574  22.389  1.00  0.00     0.021 A 
ATOM     13  C   UNL A   1      28.503  27.589  23.475  1.00  0.00     0.021 A 
ATOM     14  C   UNL A   1      31.201  27.463  22.751  1.00  0.00     0.009 A 
ATOM     15  C   UNL A   1      29.286  26.494  23.853  1.00  0.00     0.009 A 
BRANCH  11  16
ATOM     16  S   UNL A   1      28.110  30.056  22.352  1.00  0.00     0.175 S 
ATOM     17  C   UNL A   1      29.096  31.416  22.917  1.00  0.00     0.163 C 
ATOM     18  O   UNL A   1      26.907  30.018  23.168  1.00  0.00    -0.224 OA
ATOM     19  O   UNL A   1      28.023  30.125  20.909  1.00  0.00    -0.224 OA
ENDBRANCH  11  16
ENDBRANCH   9  10
BRANCH   8  20
ATOM     20  C   UNL A   1      32.426  26.360  26.024  1.00  0.00    -0.013 A 
ATOM     21  C   UNL A   1      33.682  26.967  25.839  1.00  0.00     0.013 A 
ATOM     22  C   UNL A   1      31.498  26.972  26.878  1.00  0.00     0.013 A 
ATOM     23  C   UNL A   1      33.984  28.184  26.447  1.00  0.00     0.047 A 
ATOM     24  C   UNL A   1      31.795  28.203  27.475  1.00  0.00     0.047 A 
ATOM     25  C   UNL A   1      33.029  28.805  27.239  1.00  0.00     0.115 A 
BRANCH  25  26
ATOM     26  O   UNL A   1      33.336  30.029  27.754  1.00  0.00    -0.508 OA
ATOM     27  H   UNL A   1      33.080  30.248  28.628  1.00  0.00     0.293 HD
ENDBRANCH  25  26
ENDBRANCH   8  20
ENDBRANCH   5   8
ENDBRANCH   3   4
ENDBRANCH   2   3
ENDBRANCH   1   2
BRANCH   1  28
ATOM     28  C   UNL A   1      36.800  21.755  25.729  1.00  0.00     0.116 C 
BRANCH  28  29
ATOM     29  N   UNL A   1      37.859  20.758  25.779  1.00  0.00    -0.352 N 
ATOM     30  C   UNL A   1      39.183  20.932  26.105  1.00  0.00     0.251 C 
ATOM     31  H   UNL A   1      37.593  19.838  25.550  1.00  0.00     0.163 HD
ATOM     32  O   UNL A   1      39.973  20.001  25.989  1.00  0.00    -0.269 OA
BRANCH  30  33
ATOM     33  C   UNL A   1      39.649  22.259  26.558  1.00  0.00     0.039 A 
ATOM     34  C   UNL A   1      40.700  22.328  27.476  1.00  0.00     0.014 A 
ATOM     35  C   UNL A   1      39.074  23.427  26.050  1.00  0.00     0.014 A 
ATOM     36  C   UNL A   1      41.222  23.572  27.833  1.00  0.00     0.010 A 
ATOM     37  C   UNL A   1      39.638  24.661  26.357  1.00  0.00     0.010 A 
ATOM     38  C   UNL A   1      40.719  24.747  27.249  1.00  0.00    -0.014 A 
BRANCH  38  39
ATOM     39  C   UNL A   1      41.320  26.073  27.535  1.00  0.00     0.031 A 
ATOM     40  C   UNL A   1      42.735  26.367  27.120  1.00  0.00     0.074 A 
ATOM     41  C   UNL A   1      40.626  26.973  28.259  1.00  0.00     0.049 A 
ATOM     42  N   UNL A   1      43.455  27.434  27.347  1.00  0.00    -0.248 NA
ATOM     43  C   UNL A   1      43.445  25.312  26.377  1.00  0.00     0.031 C 
ATOM     44  C   UNL A   1      39.277  26.773  28.792  1.00  0.00     0.029 A 
ATOM     45  N   UNL A   1      40.973  28.226  28.700  1.00  0.00    -0.354 N 
ATOM     46  C   UNL A   1      44.710  27.167  26.813  1.00  0.00     0.074 A 
ATOM     47  C   UNL A   1      44.664  25.825  26.276  1.00  0.00     0.031 C 
ATOM     48  C   UNL A   1      38.912  27.861  29.487  1.00  0.00     0.029 A 
ATOM     49  C   UNL A   1      40.007  28.826  29.475  1.00  0.00     0.049 A 
ATOM     50  H   UNL A   1      41.833  28.655  28.484  1.00  0.00     0.167 HD
ATOM     51  C   UNL A   1      45.793  27.977  26.747  1.00  0.00     0.034 A 
ATOM     52  C   UNL A   1      40.005  30.015  30.108  1.00  0.00     0.034 A 
ATOM     53  C   UNL A   1      45.819  29.329  27.236  1.00  0.00     0.049 A 
ATOM     54  C   UNL A   1      41.204  30.916  29.974  1.00  0.00     0.074 A 
ATOM     55  C   UNL A   1      46.835  30.262  27.130  1.00  0.00     0.029 A 
ATOM     56  N   UNL A   1      44.784  29.940  27.927  1.00  0.00    -0.354 N 
ATOM     57  N   UNL A   1      42.320  30.710  29.318  1.00  0.00    -0.248 NA
ATOM     58  C   UNL A   1      41.129  32.227  30.637  1.00  0.00     0.031 C 
ATOM     59  C   UNL A   1      46.418  31.435  27.771  1.00  0.00     0.029 A 
ATOM     60  C   UNL A   1      45.138  31.236  28.259  1.00  0.00     0.049 A 
ATOM     61  H   UNL A   1      43.924  29.515  28.148  1.00  0.00     0.167 HD
ATOM     62  C   UNL A   1      43.064  31.876  29.458  1.00  0.00     0.074 A 
ATOM     63  C   UNL A   1      42.263  32.791  30.243  1.00  0.00     0.031 C 
ATOM     64  C   UNL A   1      44.305  32.157  28.991  1.00  0.00     0.034 A 
BRANCH  51  65
ATOM     65  C   UNL A   1      47.025  27.443  26.065  1.00  0.00     0.023 A 
ATOM     66  C   UNL A   1      47.188  27.640  24.678  1.00  0.00     0.012 A 
ATOM     67  C   UNL A   1      48.043  26.800  26.795  1.00  0.00     0.148 A 
ATOM     68  C   UNL A   1      48.328  27.177  24.023  1.00  0.00     0.002 A 
ATOM     69  C   UNL A   1      49.196  26.378  26.143  1.00  0.00     0.091 A 
ATOM     70  F   UNL A   1      47.861  26.601  28.109  1.00  0.00    -0.205 F 
ATOM     71  C   UNL A   1      49.336  26.555  24.757  1.00  0.00     0.022 A 
BRANCH  69  72
ATOM     72  S   UNL A   1      50.583  25.638  27.011  1.00  0.00     0.127 S 
ATOM     73  O   UNL A   1      49.960  24.458  27.611  1.00  0.00    -0.237 OA
ATOM     74  O   UNL A   1      51.511  25.345  25.918  1.00  0.00    -0.237 OA
ATOM     75  O   UNL A   1      51.052  26.645  27.951  1.00  0.00    -0.744 OA
ENDBRANCH  69  72
ENDBRANCH  51  65
BRANCH  52  76
ATOM     76  C   UNL A   1      38.797  30.455  30.862  1.00  0.00     0.023 A 
ATOM     77  C   UNL A   1      38.713  30.189  32.243  1.00  0.00     0.012 A 
ATOM     78  C   UNL A   1      37.750  31.156  30.233  1.00  0.00     0.148 A 
ATOM     79  C   UNL A   1      37.596  30.587  32.978  1.00  0.00     0.002 A 
ATOM     80  C   UNL A   1      36.665  31.598  30.983  1.00  0.00     0.091 A 
ATOM     81  F   UNL A   1      37.842  31.389  28.916  1.00  0.00    -0.205 F 
ATOM     82  C   UNL A   1      36.578  31.300  32.351  1.00  0.00     0.022 A 
BRANCH  80  83
ATOM     83  S   UNL A   1      35.375  32.635  30.287  1.00  0.00     0.127 S 
ATOM     84  O   UNL A   1      36.124  33.828  29.904  1.00  0.00    -0.237 OA
ATOM     85  O   UNL A   1      34.899  31.820  29.168  1.00  0.00    -0.237 OA
ATOM     86  O   UNL A   1      34.398  32.812  31.354  1.00  0.00    -0.744 OA
ENDBRANCH  80  83
ENDBRANCH  52  76
BRANCH  64  87
ATOM     87  C   UNL A   1      44.870  33.522  29.282  1.00  0.00     0.023 A 
ATOM     88  C   UNL A   1      45.753  33.696  30.367  1.00  0.00     0.012 A 
ATOM     89  C   UNL A   1      44.595  34.611  28.432  1.00  0.00     0.148 A 
ATOM     90  C   UNL A   1      46.330  34.940  30.617  1.00  0.00     0.002 A 
ATOM     91  C   UNL A   1      45.212  35.836  28.660  1.00  0.00     0.091 A 
ATOM     92  F   UNL A   1      43.738  34.430  27.416  1.00  0.00    -0.205 F 
ATOM     93  C   UNL A   1      46.071  36.005  29.758  1.00  0.00     0.022 A 
BRANCH  91  94
ATOM     94  S   UNL A   1      45.010  37.235  27.550  1.00  0.00     0.127 S 
ATOM     95  O   UNL A   1      43.743  36.915  26.894  1.00  0.00    -0.237 OA
ATOM     96  O   UNL A   1      44.949  38.363  28.480  1.00  0.00    -0.237 OA
ATOM     97  O   UNL A   1      46.182  37.231  26.685  1.00  0.00    -0.744 OA
ENDBRANCH  91  94
ENDBRANCH  64  87
ENDBRANCH  38  39
ENDBRANCH  30  33
ENDBRANCH  28  29
ENDBRANCH   1  28
TORSDOF 18
ENDMDL
