MODEL 1
REMARK VINA RESULT:     -12.4      0.000      0.000
REMARK SMILES CN(C)C(=O)Nc1cccc(/C=C/C(=O)NCCCCNC(=O)c2ccc(-c3c4nc(c(-c5cccc(S(=O)(=O)[O-])c5F)c5ccc([nH]5)c(-c5cccc(S(=O)(=O)[O-])c5F)c5nc(c(-c6cccc(S(=O)(=O)[O-])c6F)c6ccc3[nH]6)C=C5)C=C4)cc2)n1
REMARK SMILES IDX 19 1 18 2 17 3 16 4 14 5 15 6 13 8 12 9 11 10 7 11 8 12
REMARK SMILES IDX 87 13 9 14 10 15 6 16 1 17 2 18 3 19 4 20 5 21 20 23 21 24
REMARK SMILES IDX 22 25 23 27 24 28 25 29 86 30 26 31 85 32 27 33 28 34 29 35
REMARK SMILES IDX 79 36 30 37 84 38 78 39 80 40 31 41 83 42 77 43 76 44 32 46
REMARK SMILES IDX 64 47 44 48 63 49 45 50 48 51 62 52 81 53 46 54 47 55 61 57
REMARK SMILES IDX 82 58 49 59 33 60 34 61 42 62 35 63 37 64 43 65 36 66 38 67
REMARK SMILES IDX 39 68 40 69 41 70 65 71 66 72 74 73 67 74 69 75 75 76 68 77
REMARK SMILES IDX 70 78 71 79 72 80 73 81 50 82 51 83 59 84 52 85 54 86 60 87
REMARK SMILES IDX 53 88 55 89 56 90 57 91 58 92
REMARK H PARENT 16 7 6 22 21 26 80 45 48 56
REMARK Flexibility Score: inf
ROOT
ATOM      1  C   UNL A   1      35.503  21.319  24.865  1.00  0.00     0.023 C 
ENDROOT
BRANCH   1   2
ATOM      2  C   UNL A   1      34.320  22.213  25.236  1.00  0.00     0.023 C 
BRANCH   2   3
ATOM      3  C   UNL A   1      34.358  22.764  26.663  1.00  0.00     0.116 C 
BRANCH   3   4
ATOM      4  N   UNL A   1      33.028  22.851  27.234  1.00  0.00    -0.353 N 
ATOM      5  C   UNL A   1      31.995  23.692  26.952  1.00  0.00     0.244 C 
ATOM      6  O   UNL A   1      30.894  23.498  27.462  1.00  0.00    -0.270 OA
ATOM      7  H   UNL A   1      32.840  22.193  27.943  1.00  0.00     0.163 HD
BRANCH   5   8
ATOM      8  C   UNL A   1      32.146  24.789  25.971  1.00  0.00     0.073 C 
ATOM      9  C   UNL A   1      32.296  26.087  26.278  1.00  0.00     0.034 C 
BRANCH   9  10
ATOM     10  C   UNL A   1      32.440  27.143  25.276  1.00  0.00     0.066 A 
ATOM     11  C   UNL A   1      31.619  29.098  24.358  1.00  0.00     0.134 A 
ATOM     12  C   UNL A   1      32.607  29.107  23.383  1.00  0.00     0.047 A 
ATOM     13  N   UNL A   1      31.551  28.159  25.320  1.00  0.00    -0.231 NA
ATOM     14  C   UNL A   1      33.530  28.066  23.359  1.00  0.00     0.006 A 
ATOM     15  C   UNL A   1      33.441  27.061  24.314  1.00  0.00     0.028 A 
BRANCH  11  16
ATOM     16  N   UNL A   1      30.628  30.069  24.439  1.00  0.00    -0.292 N 
ATOM     17  C   UNL A   1      28.081  29.937  21.796  1.00  0.00     0.148 C 
ATOM     18  N   UNL A   1      29.037  29.480  22.787  1.00  0.00    -0.331 N 
ATOM     19  C   UNL A   1      28.989  28.053  23.088  1.00  0.00     0.148 C 
ATOM     20  C   UNL A   1      29.656  30.435  23.570  1.00  0.00     0.322 C 
ATOM     21  O   UNL A   1      29.285  31.611  23.567  1.00  0.00    -0.248 OA
ATOM     22  H   UNL A   1      30.633  30.582  25.279  1.00  0.00     0.173 HD
ENDBRANCH  11  16
ENDBRANCH   9  10
ENDBRANCH   5   8
ENDBRANCH   3   4
ENDBRANCH   2   3
ENDBRANCH   1   2
BRANCH   1  23
ATOM     23  C   UNL A   1      36.862  21.794  25.368  1.00  0.00     0.116 C 
BRANCH  23  24
ATOM     24  N   UNL A   1      37.855  20.730  25.457  1.00  0.00    -0.352 N 
ATOM     25  C   UNL A   1      39.136  20.804  25.953  1.00  0.00     0.251 C 
ATOM     26  H   UNL A   1      37.573  19.849  25.120  1.00  0.00     0.163 HD
ATOM     27  O   UNL A   1      39.889  19.838  25.878  1.00  0.00    -0.269 OA
BRANCH  25  28
ATOM     28  C   UNL A   1      39.600  22.078  26.535  1.00  0.00     0.039 A 
ATOM     29  C   UNL A   1      40.569  22.049  27.541  1.00  0.00     0.014 A 
ATOM     30  C   UNL A   1      39.139  23.293  26.024  1.00  0.00     0.014 A 
ATOM     31  C   UNL A   1      41.143  23.245  27.976  1.00  0.00     0.010 A 
ATOM     32  C   UNL A   1      39.757  24.476  26.412  1.00  0.00     0.010 A 
ATOM     33  C   UNL A   1      40.772  24.462  27.380  1.00  0.00    -0.014 A 
BRANCH  33  34
ATOM     34  C   UNL A   1      41.465  25.731  27.711  1.00  0.00     0.031 A 
ATOM     35  C   UNL A   1      40.746  26.808  28.470  1.00  0.00     0.074 A 
ATOM     36  C   UNL A   1      42.701  25.957  27.221  1.00  0.00     0.049 A 
ATOM     37  N   UNL A   1      41.150  28.013  28.772  1.00  0.00    -0.248 NA
ATOM     38  C   UNL A   1      39.381  26.498  28.926  1.00  0.00     0.031 C 
ATOM     39  C   UNL A   1      43.474  25.015  26.410  1.00  0.00     0.029 A 
ATOM     40  N   UNL A   1      43.511  27.061  27.310  1.00  0.00    -0.354 N 
ATOM     41  C   UNL A   1      40.082  28.619  29.422  1.00  0.00     0.074 A 
ATOM     42  C   UNL A   1      38.999  27.659  29.439  1.00  0.00     0.031 C 
ATOM     43  C   UNL A   1      44.649  25.577  26.084  1.00  0.00     0.029 A 
ATOM     44  C   UNL A   1      44.699  26.928  26.632  1.00  0.00     0.049 A 
ATOM     45  H   UNL A   1      43.264  27.871  27.812  1.00  0.00     0.167 HD
ATOM     46  C   UNL A   1      40.018  29.850  29.982  1.00  0.00     0.034 A 
ATOM     47  C   UNL A   1      45.713  27.800  26.465  1.00  0.00     0.034 A 
ATOM     48  C   UNL A   1      41.111  30.783  30.000  1.00  0.00     0.049 A 
ATOM     49  C   UNL A   1      45.617  29.163  27.094  1.00  0.00     0.074 A 
ATOM     50  C   UNL A   1      41.186  32.009  30.636  1.00  0.00     0.029 A 
ATOM     51  N   UNL A   1      42.318  30.598  29.343  1.00  0.00    -0.354 N 
ATOM     52  N   UNL A   1      44.667  29.656  27.851  1.00  0.00    -0.248 NA
ATOM     53  C   UNL A   1      46.742  30.082  26.865  1.00  0.00     0.031 C 
ATOM     54  C   UNL A   1      42.433  32.575  30.346  1.00  0.00     0.029 A 
ATOM     55  C   UNL A   1      43.138  31.697  29.538  1.00  0.00     0.049 A 
ATOM     56  H   UNL A   1      42.557  29.802  28.815  1.00  0.00     0.167 HD
ATOM     57  C   UNL A   1      45.089  30.930  28.210  1.00  0.00     0.074 A 
ATOM     58  C   UNL A   1      46.390  31.126  27.603  1.00  0.00     0.031 C 
ATOM     59  C   UNL A   1      44.448  31.861  28.961  1.00  0.00     0.034 A 
BRANCH  46  60
ATOM     60  C   UNL A   1      38.735  30.225  30.675  1.00  0.00     0.023 A 
ATOM     61  C   UNL A   1      38.523  29.810  32.006  1.00  0.00     0.012 A 
ATOM     62  C   UNL A   1      37.752  30.998  30.028  1.00  0.00     0.148 A 
ATOM     63  C   UNL A   1      37.335  30.121  32.667  1.00  0.00     0.002 A 
ATOM     64  C   UNL A   1      36.588  31.338  30.709  1.00  0.00     0.091 A 
ATOM     65  F   UNL A   1      37.956  31.362  28.753  1.00  0.00    -0.205 F 
ATOM     66  C   UNL A   1      36.373  30.891  32.022  1.00  0.00     0.022 A 
BRANCH  64  67
ATOM     67  S   UNL A   1      35.325  32.385  29.976  1.00  0.00     0.127 S 
ATOM     68  O   UNL A   1      34.390  32.543  31.087  1.00  0.00    -0.237 OA
ATOM     69  O   UNL A   1      36.078  33.594  29.637  1.00  0.00    -0.237 OA
ATOM     70  O   UNL A   1      34.825  31.647  28.824  1.00  0.00    -0.744 OA
ENDBRANCH  64  67
ENDBRANCH  46  60
BRANCH  47  71
ATOM     71  C   UNL A   1      46.940  27.376  25.735  1.00  0.00     0.023 A 
ATOM     72  C   UNL A   1      47.861  26.535  26.388  1.00  0.00     0.012 A 
ATOM     73  C   UNL A   1      47.177  27.749  24.397  1.00  0.00     0.148 A 
ATOM     74  C   UNL A   1      49.006  26.085  25.728  1.00  0.00     0.002 A 
ATOM     75  C   UNL A   1      48.295  27.257  23.731  1.00  0.00     0.091 A 
ATOM     76  F   UNL A   1      46.293  28.559  23.798  1.00  0.00    -0.205 F 
ATOM     77  C   UNL A   1      49.217  26.436  24.399  1.00  0.00     0.022 A 
BRANCH  75  78
ATOM     78  S   UNL A   1      48.586  27.551  21.982  1.00  0.00     0.127 S 
ATOM     79  O   UNL A   1      49.701  28.494  22.020  1.00  0.00    -0.237 OA
ATOM     80  O   UNL A   1      48.927  26.211  21.505  1.00  0.00    -0.237 OA
ATOM     81  O   UNL A   1      47.334  28.076  21.457  1.00  0.00    -0.744 OA
ENDBRANCH  75  78
ENDBRANCH  47  71
BRANCH  59  82
ATOM     82  C   UNL A   1      45.142  33.179  29.179  1.00  0.00     0.023 A 
ATOM     83  C   UNL A   1      45.981  33.342  30.299  1.00  0.00     0.012 A 
ATOM     84  C   UNL A   1      45.036  34.219  28.235  1.00  0.00     0.148 A 
ATOM     85  C   UNL A   1      46.689  34.529  30.487  1.00  0.00     0.002 A 
ATOM     86  C   UNL A   1      45.779  35.382  28.406  1.00  0.00     0.091 A 
ATOM     87  F   UNL A   1      44.219  34.049  27.186  1.00  0.00    -0.205 F 
ATOM     88  C   UNL A   1      46.597  35.542  29.536  1.00  0.00     0.022 A 
BRANCH  86  89
ATOM     89  S   UNL A   1      45.796  36.706  27.191  1.00  0.00     0.127 S 
ATOM     90  O   UNL A   1      44.389  37.106  27.167  1.00  0.00    -0.237 OA
ATOM     91  O   UNL A   1      46.697  37.679  27.807  1.00  0.00    -0.237 OA
ATOM     92  O   UNL A   1      46.297  36.114  25.958  1.00  0.00    -0.744 OA
ENDBRANCH  86  89
ENDBRANCH  59  82
ENDBRANCH  33  34
ENDBRANCH  25  28
ENDBRANCH  23  24
ENDBRANCH   1  23
TORSDOF 16
ENDMDL
MODEL 2
REMARK VINA RESULT:     -12.2      5.331     10.741
REMARK SMILES CN(C)C(=O)Nc1cccc(/C=C/C(=O)NCCCCNC(=O)c2ccc(-c3c4nc(c(-c5cccc(S(=O)(=O)[O-])c5F)c5ccc([nH]5)c(-c5cccc(S(=O)(=O)[O-])c5F)c5nc(c(-c6cccc(S(=O)(=O)[O-])c6F)c6ccc3[nH]6)C=C5)C=C4)cc2)n1
REMARK SMILES IDX 19 1 18 2 17 3 16 4 14 5 15 6 13 8 12 9 11 10 7 11 8 12
REMARK SMILES IDX 87 13 9 14 10 15 6 16 1 17 2 18 3 19 4 20 5 21 20 23 21 24
REMARK SMILES IDX 22 25 23 27 24 28 25 29 86 30 26 31 85 32 27 33 28 34 29 35
REMARK SMILES IDX 79 36 30 37 84 38 78 39 80 40 31 41 83 42 77 43 76 44 32 46
REMARK SMILES IDX 64 47 44 48 63 49 45 50 48 51 62 52 81 53 46 54 47 55 61 57
REMARK SMILES IDX 82 58 49 59 33 60 34 61 42 62 35 63 37 64 43 65 36 66 38 67
REMARK SMILES IDX 39 68 40 69 41 70 65 71 66 72 74 73 67 74 69 75 75 76 68 77
REMARK SMILES IDX 70 78 71 79 72 80 73 81 50 82 51 83 59 84 52 85 54 86 60 87
REMARK SMILES IDX 53 88 55 89 56 90 57 91 58 92
REMARK H PARENT 16 7 6 22 21 26 80 45 48 56
REMARK Flexibility Score: inf
ROOT
ATOM      1  C   UNL A   1      31.725  29.528  24.936  1.00  0.00     0.023 C 
ENDROOT
BRANCH   1   2
ATOM      2  C   UNL A   1      32.462  28.624  23.947  1.00  0.00     0.023 C 
BRANCH   2   3
ATOM      3  C   UNL A   1      31.612  27.498  23.357  1.00  0.00     0.116 C 
BRANCH   3   4
ATOM      4  N   UNL A   1      32.210  26.956  22.151  1.00  0.00    -0.353 N 
ATOM      5  C   UNL A   1      32.999  25.862  21.968  1.00  0.00     0.244 C 
ATOM      6  O   UNL A   1      33.282  25.499  20.829  1.00  0.00    -0.270 OA
ATOM      7  H   UNL A   1      32.013  27.463  21.330  1.00  0.00     0.163 HD
BRANCH   5   8
ATOM      8  C   UNL A   1      33.453  25.043  23.114  1.00  0.00     0.073 C 
ATOM      9  C   UNL A   1      33.344  23.709  23.204  1.00  0.00     0.034 C 
BRANCH   9  10
ATOM     10  C   UNL A   1      33.805  22.936  24.357  1.00  0.00     0.066 A 
ATOM     11  C   UNL A   1      33.607  21.027  25.642  1.00  0.00     0.134 A 
ATOM     12  C   UNL A   1      34.568  21.476  26.537  1.00  0.00     0.047 A 
ATOM     13  N   UNL A   1      33.253  21.718  24.543  1.00  0.00    -0.231 NA
ATOM     14  C   UNL A   1      35.145  22.724  26.326  1.00  0.00     0.006 A 
ATOM     15  C   UNL A   1      34.751  23.474  25.223  1.00  0.00     0.028 A 
BRANCH  11  16
ATOM     16  N   UNL A   1      32.943  19.815  25.791  1.00  0.00    -0.292 N 
ATOM     17  C   UNL A   1      33.882  17.205  23.383  1.00  0.00     0.148 C 
ATOM     18  N   UNL A   1      34.017  18.326  24.295  1.00  0.00    -0.331 N 
ATOM     19  C   UNL A   1      35.388  18.700  24.626  1.00  0.00     0.148 C 
ATOM     20  C   UNL A   1      32.896  18.714  25.003  1.00  0.00     0.322 C 
ATOM     21  O   UNL A   1      31.869  18.032  25.011  1.00  0.00    -0.248 OA
ATOM     22  H   UNL A   1      32.414  19.743  26.618  1.00  0.00     0.173 HD
ENDBRANCH  11  16
ENDBRANCH   9  10
ENDBRANCH   5   8
ENDBRANCH   3   4
ENDBRANCH   2   3
ENDBRANCH   1   2
BRANCH   1  23
ATOM     23  C   UNL A   1      32.554  30.005  26.124  1.00  0.00     0.116 C 
BRANCH  23  24
ATOM     24  N   UNL A   1      32.271  31.381  26.515  1.00  0.00    -0.352 N 
ATOM     25  C   UNL A   1      33.042  32.219  27.287  1.00  0.00     0.251 C 
ATOM     26  H   UNL A   1      31.424  31.758  26.185  1.00  0.00     0.163 HD
ATOM     27  O   UNL A   1      32.626  33.329  27.608  1.00  0.00    -0.269 OA
BRANCH  25  28
ATOM     28  C   UNL A   1      34.356  31.742  27.760  1.00  0.00     0.039 A 
ATOM     29  C   UNL A   1      35.405  32.657  27.880  1.00  0.00     0.014 A 
ATOM     30  C   UNL A   1      34.518  30.414  28.161  1.00  0.00     0.014 A 
ATOM     31  C   UNL A   1      36.596  32.259  28.490  1.00  0.00     0.010 A 
ATOM     32  C   UNL A   1      35.680  30.038  28.824  1.00  0.00     0.010 A 
ATOM     33  C   UNL A   1      36.723  30.958  29.007  1.00  0.00    -0.014 A 
BRANCH  33  34
ATOM     34  C   UNL A   1      37.914  30.547  29.789  1.00  0.00     0.031 A 
ATOM     35  C   UNL A   1      38.881  29.548  29.222  1.00  0.00     0.074 A 
ATOM     36  C   UNL A   1      38.056  30.983  31.056  1.00  0.00     0.049 A 
ATOM     37  N   UNL A   1      39.924  28.999  29.787  1.00  0.00    -0.248 NA
ATOM     38  C   UNL A   1      38.625  29.084  27.849  1.00  0.00     0.031 C 
ATOM     39  C   UNL A   1      37.144  31.901  31.742  1.00  0.00     0.029 A 
ATOM     40  N   UNL A   1      39.006  30.692  32.003  1.00  0.00    -0.354 N 
ATOM     41  C   UNL A   1      40.430  28.101  28.855  1.00  0.00     0.074 A 
ATOM     42  C   UNL A   1      39.558  28.154  27.701  1.00  0.00     0.031 C 
ATOM     43  C   UNL A   1      37.582  32.103  32.994  1.00  0.00     0.029 A 
ATOM     44  C   UNL A   1      38.785  31.306  33.213  1.00  0.00     0.049 A 
ATOM     45  H   UNL A   1      39.772  30.098  31.832  1.00  0.00     0.167 HD
ATOM     46  C   UNL A   1      41.538  27.328  28.938  1.00  0.00     0.034 A 
ATOM     47  C   UNL A   1      39.471  31.231  34.370  1.00  0.00     0.034 A 
ATOM     48  C   UNL A   1      42.425  27.312  30.069  1.00  0.00     0.049 A 
ATOM     49  C   UNL A   1      40.697  30.362  34.438  1.00  0.00     0.074 A 
ATOM     50  C   UNL A   1      43.630  26.648  30.209  1.00  0.00     0.029 A 
ATOM     51  N   UNL A   1      42.196  27.982  31.261  1.00  0.00    -0.354 N 
ATOM     52  N   UNL A   1      41.257  29.651  33.490  1.00  0.00    -0.248 NA
ATOM     53  C   UNL A   1      41.397  30.300  35.730  1.00  0.00     0.031 C 
ATOM     54  C   UNL A   1      44.121  26.902  31.495  1.00  0.00     0.029 A 
ATOM     55  C   UNL A   1      43.226  27.732  32.152  1.00  0.00     0.049 A 
ATOM     56  H   UNL A   1      41.416  28.553  31.447  1.00  0.00     0.167 HD
ATOM     57  C   UNL A   1      42.388  29.079  34.060  1.00  0.00     0.074 A 
ATOM     58  C   UNL A   1      42.443  29.542  35.432  1.00  0.00     0.031 C 
ATOM     59  C   UNL A   1      43.290  28.233  33.502  1.00  0.00     0.034 A 
BRANCH  46  60
ATOM     60  C   UNL A   1      41.879  26.482  27.740  1.00  0.00     0.023 A 
ATOM     61  C   UNL A   1      42.531  27.076  26.640  1.00  0.00     0.012 A 
ATOM     62  C   UNL A   1      41.577  25.107  27.705  1.00  0.00     0.148 A 
ATOM     63  C   UNL A   1      42.838  26.325  25.506  1.00  0.00     0.002 A 
ATOM     64  C   UNL A   1      41.923  24.357  26.585  1.00  0.00     0.091 A 
ATOM     65  F   UNL A   1      40.931  24.563  28.746  1.00  0.00    -0.205 F 
ATOM     66  C   UNL A   1      42.543  24.966  25.483  1.00  0.00     0.022 A 
BRANCH  64  67
ATOM     67  S   UNL A   1      41.640  22.585  26.500  1.00  0.00     0.127 S 
ATOM     68  O   UNL A   1      42.298  22.241  25.241  1.00  0.00    -0.237 OA
ATOM     69  O   UNL A   1      42.327  22.099  27.698  1.00  0.00    -0.237 OA
ATOM     70  O   UNL A   1      40.193  22.418  26.528  1.00  0.00    -0.744 OA
ENDBRANCH  64  67
ENDBRANCH  46  60
BRANCH  47  71
ATOM     71  C   UNL A   1      39.057  32.068  35.531  1.00  0.00     0.023 A 
ATOM     72  C   UNL A   1      38.164  31.525  36.474  1.00  0.00     0.012 A 
ATOM     73  C   UNL A   1      39.573  33.362  35.737  1.00  0.00     0.148 A 
ATOM     74  C   UNL A   1      37.778  32.261  37.595  1.00  0.00     0.002 A 
ATOM     75  C   UNL A   1      39.222  34.071  36.881  1.00  0.00     0.091 A 
ATOM     76  F   UNL A   1      40.412  33.864  34.821  1.00  0.00    -0.205 F 
ATOM     77  C   UNL A   1      38.315  33.527  37.804  1.00  0.00     0.022 A 
BRANCH  75  78
ATOM     78  S   UNL A   1      39.956  35.656  37.301  1.00  0.00     0.127 S 
ATOM     79  O   UNL A   1      41.365  35.300  37.459  1.00  0.00    -0.237 OA
ATOM     80  O   UNL A   1      39.652  36.453  36.113  1.00  0.00    -0.237 OA
ATOM     81  O   UNL A   1      39.278  36.096  38.512  1.00  0.00    -0.744 OA
ENDBRANCH  75  78
ENDBRANCH  47  71
BRANCH  59  82
ATOM     82  C   UNL A   1      44.423  27.752  34.368  1.00  0.00     0.023 A 
ATOM     83  C   UNL A   1      45.606  28.513  34.444  1.00  0.00     0.012 A 
ATOM     84  C   UNL A   1      44.285  26.602  35.169  1.00  0.00     0.148 A 
ATOM     85  C   UNL A   1      46.644  28.126  35.292  1.00  0.00     0.002 A 
ATOM     86  C   UNL A   1      45.307  26.247  36.044  1.00  0.00     0.091 A 
ATOM     87  F   UNL A   1      43.159  25.883  35.068  1.00  0.00    -0.205 F 
ATOM     88  C   UNL A   1      46.489  27.002  36.099  1.00  0.00     0.022 A 
BRANCH  86  89
ATOM     89  S   UNL A   1      45.164  24.867  37.188  1.00  0.00     0.127 S 
ATOM     90  O   UNL A   1      44.242  25.405  38.188  1.00  0.00    -0.237 OA
ATOM     91  O   UNL A   1      44.600  23.819  36.338  1.00  0.00    -0.237 OA
ATOM     92  O   UNL A   1      46.514  24.599  37.664  1.00  0.00    -0.744 OA
ENDBRANCH  86  89
ENDBRANCH  59  82
ENDBRANCH  33  34
ENDBRANCH  25  28
ENDBRANCH  23  24
ENDBRANCH   1  23
TORSDOF 16
ENDMDL
MODEL 3
REMARK VINA RESULT:     -12.0      1.902      7.996
REMARK SMILES CN(C)C(=O)Nc1cccc(/C=C/C(=O)NCCCCNC(=O)c2ccc(-c3c4nc(c(-c5cccc(S(=O)(=O)[O-])c5F)c5ccc([nH]5)c(-c5cccc(S(=O)(=O)[O-])c5F)c5nc(c(-c6cccc(S(=O)(=O)[O-])c6F)c6ccc3[nH]6)C=C5)C=C4)cc2)n1
REMARK SMILES IDX 19 1 18 2 17 3 16 4 14 5 15 6 13 8 12 9 11 10 7 11 8 12
REMARK SMILES IDX 87 13 9 14 10 15 6 16 1 17 2 18 3 19 4 20 5 21 20 23 21 24
REMARK SMILES IDX 22 25 23 27 24 28 25 29 86 30 26 31 85 32 27 33 28 34 29 35
REMARK SMILES IDX 79 36 30 37 84 38 78 39 80 40 31 41 83 42 77 43 76 44 32 46
REMARK SMILES IDX 64 47 44 48 63 49 45 50 48 51 62 52 81 53 46 54 47 55 61 57
REMARK SMILES IDX 82 58 49 59 33 60 34 61 42 62 35 63 37 64 43 65 36 66 38 67
REMARK SMILES IDX 39 68 40 69 41 70 65 71 66 72 74 73 67 74 69 75 75 76 68 77
REMARK SMILES IDX 70 78 71 79 72 80 73 81 50 82 51 83 59 84 52 85 54 86 60 87
REMARK SMILES IDX 53 88 55 89 56 90 57 91 58 92
REMARK H PARENT 16 7 6 22 21 26 80 45 48 56
REMARK Flexibility Score: inf
ROOT
ATOM      1  C   UNL A   1      38.400  19.951  24.742  1.00  0.00     0.023 C 
ENDROOT
BRANCH   1   2
ATOM      2  C   UNL A   1      37.395  21.091  24.573  1.00  0.00     0.023 C 
BRANCH   2   3
ATOM      3  C   UNL A   1      36.229  21.065  25.564  1.00  0.00     0.116 C 
BRANCH   3   4
ATOM      4  N   UNL A   1      35.232  20.082  25.187  1.00  0.00    -0.353 N 
ATOM      5  C   UNL A   1      33.975  20.240  24.689  1.00  0.00     0.244 C 
ATOM      6  O   UNL A   1      33.346  19.259  24.299  1.00  0.00    -0.270 OA
ATOM      7  H   UNL A   1      35.511  19.145  25.309  1.00  0.00     0.163 HD
BRANCH   5   8
ATOM      8  C   UNL A   1      33.379  21.584  24.525  1.00  0.00     0.073 C 
ATOM      9  C   UNL A   1      32.757  22.025  23.421  1.00  0.00     0.034 C 
BRANCH   9  10
ATOM     10  C   UNL A   1      32.182  23.365  23.298  1.00  0.00     0.066 A 
ATOM     11  C   UNL A   1      32.536  25.634  23.049  1.00  0.00     0.134 A 
ATOM     12  C   UNL A   1      31.177  25.901  23.137  1.00  0.00     0.047 A 
ATOM     13  N   UNL A   1      33.040  24.387  23.086  1.00  0.00    -0.231 NA
ATOM     14  C   UNL A   1      30.301  24.839  23.336  1.00  0.00     0.006 A 
ATOM     15  C   UNL A   1      30.810  23.549  23.428  1.00  0.00     0.028 A 
BRANCH  11  16
ATOM     16  N   UNL A   1      33.494  26.630  22.894  1.00  0.00    -0.292 N 
ATOM     17  C   UNL A   1      33.831  28.940  25.729  1.00  0.00     0.148 C 
ATOM     18  N   UNL A   1      33.632  27.700  25.001  1.00  0.00    -0.331 N 
ATOM     19  C   UNL A   1      33.651  26.489  25.815  1.00  0.00     0.148 C 
ATOM     20  C   UNL A   1      33.767  27.736  23.627  1.00  0.00     0.322 C 
ATOM     21  O   UNL A   1      34.221  28.725  23.048  1.00  0.00    -0.248 OA
ATOM     22  H   UNL A   1      34.078  26.510  22.111  1.00  0.00     0.173 HD
ENDBRANCH  11  16
ENDBRANCH   9  10
ENDBRANCH   5   8
ENDBRANCH   3   4
ENDBRANCH   2   3
ENDBRANCH   1   2
BRANCH   1  23
ATOM     23  C   UNL A   1      39.032  19.838  26.125  1.00  0.00     0.116 C 
BRANCH  23  24
ATOM     24  N   UNL A   1      40.342  19.199  26.116  1.00  0.00    -0.352 N 
ATOM     25  C   UNL A   1      41.570  19.779  26.331  1.00  0.00     0.251 C 
ATOM     26  H   UNL A   1      40.348  18.232  25.933  1.00  0.00     0.163 HD
ATOM     27  O   UNL A   1      42.600  19.124  26.201  1.00  0.00    -0.269 OA
BRANCH  25  28
ATOM     28  C   UNL A   1      41.629  21.212  26.677  1.00  0.00     0.039 A 
ATOM     29  C   UNL A   1      42.097  21.586  27.939  1.00  0.00     0.014 A 
ATOM     30  C   UNL A   1      41.303  22.179  25.723  1.00  0.00     0.014 A 
ATOM     31  C   UNL A   1      42.324  22.935  28.216  1.00  0.00     0.010 A 
ATOM     32  C   UNL A   1      41.589  23.515  25.978  1.00  0.00     0.010 A 
ATOM     33  C   UNL A   1      42.115  23.904  27.219  1.00  0.00    -0.014 A 
BRANCH  33  34
ATOM     34  C   UNL A   1      42.484  25.325  27.429  1.00  0.00     0.031 A 
ATOM     35  C   UNL A   1      43.849  25.814  27.039  1.00  0.00     0.074 A 
ATOM     36  C   UNL A   1      41.631  26.141  28.078  1.00  0.00     0.049 A 
ATOM     37  N   UNL A   1      44.386  26.992  27.226  1.00  0.00    -0.248 NA
ATOM     38  C   UNL A   1      44.737  24.845  26.378  1.00  0.00     0.031 C 
ATOM     39  C   UNL A   1      40.305  25.761  28.568  1.00  0.00     0.029 A 
ATOM     40  N   UNL A   1      41.764  27.451  28.464  1.00  0.00    -0.354 N 
ATOM     41  C   UNL A   1      45.683  26.897  26.739  1.00  0.00     0.074 A 
ATOM     42  C   UNL A   1      45.864  25.536  26.279  1.00  0.00     0.031 C 
ATOM     43  C   UNL A   1      39.744  26.815  29.181  1.00  0.00     0.029 A 
ATOM     44  C   UNL A   1      40.680  27.934  29.158  1.00  0.00     0.049 A 
ATOM     45  H   UNL A   1      42.561  27.994  28.264  1.00  0.00     0.167 HD
ATOM     46  C   UNL A   1      46.628  27.863  26.650  1.00  0.00     0.034 A 
ATOM     47  C   UNL A   1      40.467  29.141  29.718  1.00  0.00     0.034 A 
ATOM     48  C   UNL A   1      46.428  29.224  27.067  1.00  0.00     0.049 A 
ATOM     49  C   UNL A   1      41.533  30.196  29.609  1.00  0.00     0.074 A 
ATOM     50  C   UNL A   1      47.281  30.303  26.920  1.00  0.00     0.029 A 
ATOM     51  N   UNL A   1      45.300  29.691  27.724  1.00  0.00    -0.354 N 
ATOM     52  N   UNL A   1      42.689  30.140  28.993  1.00  0.00    -0.248 NA
ATOM     53  C   UNL A   1      41.257  31.488  30.255  1.00  0.00     0.031 C 
ATOM     54  C   UNL A   1      46.675  31.420  27.507  1.00  0.00     0.029 A 
ATOM     55  C   UNL A   1      45.441  31.038  28.011  1.00  0.00     0.049 A 
ATOM     56  H   UNL A   1      44.514  29.145  27.953  1.00  0.00     0.167 HD
ATOM     57  C   UNL A   1      43.268  31.393  29.153  1.00  0.00     0.074 A 
ATOM     58  C   UNL A   1      42.325  32.194  29.908  1.00  0.00     0.031 C 
ATOM     59  C   UNL A   1      44.477  31.835  28.727  1.00  0.00     0.034 A 
BRANCH  46  60
ATOM     60  C   UNL A   1      47.942  27.485  26.021  1.00  0.00     0.023 A 
ATOM     61  C   UNL A   1      48.988  27.011  26.840  1.00  0.00     0.012 A 
ATOM     62  C   UNL A   1      48.142  27.577  24.630  1.00  0.00     0.148 A 
ATOM     63  C   UNL A   1      50.225  26.675  26.291  1.00  0.00     0.002 A 
ATOM     64  C   UNL A   1      49.366  27.202  24.086  1.00  0.00     0.091 A 
ATOM     65  F   UNL A   1      47.149  28.057  23.868  1.00  0.00    -0.205 F 
ATOM     66  C   UNL A   1      50.410  26.762  24.915  1.00  0.00     0.022 A 
BRANCH  64  67
ATOM     67  S   UNL A   1      49.668  27.219  22.315  1.00  0.00     0.127 S 
ATOM     68  O   UNL A   1      48.693  26.240  21.839  1.00  0.00    -0.237 OA
ATOM     69  O   UNL A   1      49.364  28.606  21.957  1.00  0.00    -0.237 OA
ATOM     70  O   UNL A   1      51.069  26.851  22.154  1.00  0.00    -0.744 OA
ENDBRANCH  64  67
ENDBRANCH  46  60
BRANCH  47  71
ATOM     71  C   UNL A   1      39.155  29.437  30.360  1.00  0.00     0.023 A 
ATOM     72  C   UNL A   1      38.900  28.929  31.647  1.00  0.00     0.012 A 
ATOM     73  C   UNL A   1      38.190  30.252  29.737  1.00  0.00     0.148 A 
ATOM     74  C   UNL A   1      37.699  29.212  32.299  1.00  0.00     0.002 A 
ATOM     75  C   UNL A   1      37.015  30.570  30.412  1.00  0.00     0.091 A 
ATOM     76  F   UNL A   1      38.448  30.716  28.507  1.00  0.00    -0.205 F 
ATOM     77  C   UNL A   1      36.763  30.041  31.688  1.00  0.00     0.022 A 
BRANCH  75  78
ATOM     78  S   UNL A   1      35.807  31.729  29.760  1.00  0.00     0.127 S 
ATOM     79  O   UNL A   1      35.204  30.954  28.678  1.00  0.00    -0.237 OA
ATOM     80  O   UNL A   1      34.942  31.946  30.919  1.00  0.00    -0.237 OA
ATOM     81  O   UNL A   1      36.567  32.900  29.348  1.00  0.00    -0.744 OA
ENDBRANCH  75  78
ENDBRANCH  47  71
BRANCH  59  82
ATOM     82  C   UNL A   1      44.858  33.253  29.059  1.00  0.00     0.023 A 
ATOM     83  C   UNL A   1      45.475  33.530  30.295  1.00  0.00     0.012 A 
ATOM     84  C   UNL A   1      44.689  34.288  28.120  1.00  0.00     0.148 A 
ATOM     85  C   UNL A   1      45.901  34.824  30.600  1.00  0.00     0.002 A 
ATOM     86  C   UNL A   1      45.155  35.566  28.413  1.00  0.00     0.091 A 
ATOM     87  F   UNL A   1      44.085  34.005  26.958  1.00  0.00    -0.205 F 
ATOM     88  C   UNL A   1      45.752  35.836  29.655  1.00  0.00     0.022 A 
BRANCH  86  89
ATOM     89  S   UNL A   1      45.090  36.914  27.227  1.00  0.00     0.127 S 
ATOM     90  O   UNL A   1      45.965  36.420  26.165  1.00  0.00    -0.237 OA
ATOM     91  O   UNL A   1      43.669  36.951  26.880  1.00  0.00    -0.237 OA
ATOM     92  O   UNL A   1      45.570  38.094  27.933  1.00  0.00    -0.744 OA
ENDBRANCH  86  89
ENDBRANCH  59  82
ENDBRANCH  33  34
ENDBRANCH  25  28
ENDBRANCH  23  24
ENDBRANCH   1  23
TORSDOF 16
ENDMDL
