MODEL 1
REMARK VINA RESULT:     -11.3      0.000      0.000
REMARK SMILES C[C@H]1CN([C@@H](C(=O)NCCCCNC(=O)c2ccc(-c3c4nc(c(-c5cccc(S(=O)(=O)[O-])c5F)c5ccc([nH]5)c(-c5cccc(S(=O)(=O)[O-])c5F)c5nc(c(-c6cccc(S(=O)(=O)[O-])c6F)c6ccc3[nH]6)C=C5)C=C4)cc2)C(C)(C)C)S(=O)(=O)C1
REMARK SMILES IDX 11 1 10 2 9 3 8 4 6 5 7 6 5 8 4 9 1 10 2 11 3 12 86 13 83 14
REMARK SMILES IDX 84 15 85 16 79 17 80 18 81 19 82 20 12 21 13 22 14 23 15 25
REMARK SMILES IDX 16 26 17 27 78 28 18 29 77 30 19 31 20 32 21 33 71 34 22 35
REMARK SMILES IDX 76 36 70 37 72 38 23 39 75 40 69 41 68 42 24 44 56 45 36 46
REMARK SMILES IDX 55 47 37 48 40 49 54 50 73 51 38 52 39 53 53 55 74 56 41 57
REMARK SMILES IDX 25 58 26 59 34 60 27 61 29 62 35 63 28 64 30 65 31 66 32 67
REMARK SMILES IDX 33 68 57 69 58 70 66 71 59 72 61 73 67 74 60 75 62 76 63 77
REMARK SMILES IDX 64 78 65 79 42 80 43 81 51 82 44 83 46 84 52 85 45 86 47 87
REMARK SMILES IDX 48 88 49 89 50 90
REMARK H PARENT 8 7 13 24 72 43 40 54
REMARK Flexibility Score: inf
ROOT
ATOM      1  C   UNL A   1      32.043  28.937  26.394  1.00  0.00     0.023 C 
ENDROOT
BRANCH   1   2
ATOM      2  C   UNL A   1      32.339  27.446  26.488  1.00  0.00     0.023 C 
BRANCH   2   3
ATOM      3  C   UNL A   1      33.699  26.995  25.939  1.00  0.00     0.116 C 
BRANCH   3   4
ATOM      4  N   UNL A   1      33.697  26.691  24.515  1.00  0.00    -0.355 N 
ATOM      5  C   UNL A   1      33.401  25.572  23.778  1.00  0.00     0.238 C 
ATOM      6  O   UNL A   1      33.440  25.723  22.556  1.00  0.00    -0.273 OA
ATOM      7  H   UNL A   1      33.969  27.457  23.959  1.00  0.00     0.163 HD
BRANCH   5   8
ATOM      8  C   UNL A   1      33.016  24.229  24.441  1.00  0.00     0.167 C 
BRANCH   8   9
ATOM      9  N   UNL A   1      33.930  23.073  24.141  1.00  0.00    -0.189 NA
ATOM     10  C   UNL A   1      34.736  21.796  26.919  1.00  0.00     0.010 C 
ATOM     11  C   UNL A   1      34.623  21.184  25.513  1.00  0.00     0.017 C 
ATOM     12  C   UNL A   1      33.514  21.734  24.587  1.00  0.00     0.107 C 
ATOM     13  C   UNL A   1      35.887  21.492  24.722  1.00  0.00     0.159 C 
ATOM     14  S   UNL A   1      35.626  23.157  24.119  1.00  0.00     0.215 S 
ATOM     15  O   UNL A   1      36.057  23.201  22.743  1.00  0.00    -0.212 OA
ATOM     16  O   UNL A   1      36.089  24.083  25.126  1.00  0.00    -0.212 OA
ENDBRANCH   8   9
BRANCH   8  17
ATOM     17  C   UNL A   1      31.478  23.872  24.306  1.00  0.00    -0.013 C 
ATOM     18  C   UNL A   1      30.994  23.199  25.611  1.00  0.00     0.013 C 
ATOM     19  C   UNL A   1      30.643  25.167  24.136  1.00  0.00     0.013 C 
ATOM     20  C   UNL A   1      31.099  22.955  23.126  1.00  0.00     0.013 C 
ENDBRANCH   8  17
ENDBRANCH   5   8
ENDBRANCH   3   4
ENDBRANCH   2   3
ENDBRANCH   1   2
BRANCH   1  21
ATOM     21  C   UNL A   1      33.277  29.766  26.129  1.00  0.00     0.116 C 
BRANCH  21  22
ATOM     22  N   UNL A   1      33.081  31.160  26.519  1.00  0.00    -0.352 N 
ATOM     23  C   UNL A   1      33.765  31.899  27.451  1.00  0.00     0.251 C 
ATOM     24  H   UNL A   1      32.359  31.635  26.048  1.00  0.00     0.163 HD
ATOM     25  O   UNL A   1      33.331  32.985  27.818  1.00  0.00    -0.269 OA
BRANCH  23  26
ATOM     26  C   UNL A   1      35.019  31.356  28.006  1.00  0.00     0.039 A 
ATOM     27  C   UNL A   1      36.145  32.175  28.094  1.00  0.00     0.014 A 
ATOM     28  C   UNL A   1      35.053  30.043  28.479  1.00  0.00     0.014 A 
ATOM     29  C   UNL A   1      37.296  31.682  28.708  1.00  0.00     0.010 A 
ATOM     30  C   UNL A   1      36.145  29.606  29.206  1.00  0.00     0.010 A 
ATOM     31  C   UNL A   1      37.291  30.405  29.294  1.00  0.00    -0.014 A 
BRANCH  31  32
ATOM     32  C   UNL A   1      38.486  29.856  29.972  1.00  0.00     0.031 A 
ATOM     33  C   UNL A   1      38.866  30.372  31.335  1.00  0.00     0.074 A 
ATOM     34  C   UNL A   1      39.269  28.971  29.327  1.00  0.00     0.049 A 
ATOM     35  N   UNL A   1      39.905  30.074  32.067  1.00  0.00    -0.248 NA
ATOM     36  C   UNL A   1      37.984  31.388  31.939  1.00  0.00     0.031 C 
ATOM     37  C   UNL A   1      39.045  28.474  27.966  1.00  0.00     0.029 A 
ATOM     38  N   UNL A   1      40.424  28.348  29.722  1.00  0.00    -0.354 N 
ATOM     39  C   UNL A   1      39.824  30.892  33.187  1.00  0.00     0.074 A 
ATOM     40  C   UNL A   1      38.666  31.738  33.017  1.00  0.00     0.031 C 
ATOM     41  C   UNL A   1      40.022  27.611  27.648  1.00  0.00     0.029 A 
ATOM     42  C   UNL A   1      40.960  27.521  28.762  1.00  0.00     0.049 A 
ATOM     43  H   UNL A   1      40.832  28.480  30.608  1.00  0.00     0.167 HD
ATOM     44  C   UNL A   1      40.624  30.914  34.278  1.00  0.00     0.034 A 
ATOM     45  C   UNL A   1      42.085  26.783  28.779  1.00  0.00     0.034 A 
ATOM     46  C   UNL A   1      41.744  30.034  34.456  1.00  0.00     0.049 A 
ATOM     47  C   UNL A   1      42.929  26.788  30.024  1.00  0.00     0.074 A 
ATOM     48  C   UNL A   1      42.564  29.899  35.560  1.00  0.00     0.029 A 
ATOM     49  N   UNL A   1      42.207  29.146  33.497  1.00  0.00    -0.354 N 
ATOM     50  N   UNL A   1      42.750  27.452  31.140  1.00  0.00    -0.248 NA
ATOM     51  C   UNL A   1      44.112  25.915  30.027  1.00  0.00     0.031 C 
ATOM     52  C   UNL A   1      43.548  28.955  35.254  1.00  0.00     0.029 A 
ATOM     53  C   UNL A   1      43.312  28.469  33.978  1.00  0.00     0.049 A 
ATOM     54  H   UNL A   1      41.808  29.016  32.607  1.00  0.00     0.167 HD
ATOM     55  C   UNL A   1      43.772  27.051  31.992  1.00  0.00     0.074 A 
ATOM     56  C   UNL A   1      44.555  26.070  31.267  1.00  0.00     0.031 C 
ATOM     57  C   UNL A   1      44.047  27.463  33.254  1.00  0.00     0.034 A 
BRANCH  44  58
ATOM     58  C   UNL A   1      40.288  31.890  35.376  1.00  0.00     0.023 A 
ATOM     59  C   UNL A   1      41.054  33.064  35.532  1.00  0.00     0.012 A 
ATOM     60  C   UNL A   1      39.187  31.666  36.225  1.00  0.00     0.148 A 
ATOM     61  C   UNL A   1      40.755  33.979  36.540  1.00  0.00     0.002 A 
ATOM     62  C   UNL A   1      38.863  32.610  37.192  1.00  0.00     0.091 A 
ATOM     63  F   UNL A   1      38.485  30.534  36.078  1.00  0.00    -0.205 F 
ATOM     64  C   UNL A   1      39.654  33.758  37.362  1.00  0.00     0.022 A 
BRANCH  62  65
ATOM     65  S   UNL A   1      37.417  32.460  38.246  1.00  0.00     0.127 S 
ATOM     66  O   UNL A   1      36.381  33.068  37.412  1.00  0.00    -0.237 OA
ATOM     67  O   UNL A   1      37.302  31.011  38.401  1.00  0.00    -0.237 OA
ATOM     68  O   UNL A   1      37.733  33.182  39.470  1.00  0.00    -0.744 OA
ENDBRANCH  62  65
ENDBRANCH  44  58
BRANCH  45  69
ATOM     69  C   UNL A   1      42.442  25.938  27.606  1.00  0.00     0.023 A 
ATOM     70  C   UNL A   1      43.266  26.466  26.594  1.00  0.00     0.012 A 
ATOM     71  C   UNL A   1      41.996  24.606  27.504  1.00  0.00     0.148 A 
ATOM     72  C   UNL A   1      43.610  25.696  25.481  1.00  0.00     0.002 A 
ATOM     73  C   UNL A   1      42.390  23.827  26.422  1.00  0.00     0.091 A 
ATOM     74  F   UNL A   1      41.210  24.125  28.476  1.00  0.00    -0.205 F 
ATOM     75  C   UNL A   1      43.180  24.375  25.400  1.00  0.00     0.022 A 
BRANCH  73  76
ATOM     76  S   UNL A   1      41.995  22.079  26.301  1.00  0.00     0.127 S 
ATOM     77  O   UNL A   1      40.545  22.112  26.126  1.00  0.00    -0.237 OA
ATOM     78  O   UNL A   1      42.751  21.683  25.112  1.00  0.00    -0.237 OA
ATOM     79  O   UNL A   1      42.469  21.481  27.542  1.00  0.00    -0.744 OA
ENDBRANCH  73  76
ENDBRANCH  45  69
BRANCH  57  80
ATOM     80  C   UNL A   1      45.214  26.823  33.956  1.00  0.00     0.023 A 
ATOM     81  C   UNL A   1      46.492  27.412  33.885  1.00  0.00     0.012 A 
ATOM     82  C   UNL A   1      45.022  25.676  34.752  1.00  0.00     0.148 A 
ATOM     83  C   UNL A   1      47.569  26.847  34.567  1.00  0.00     0.002 A 
ATOM     84  C   UNL A   1      46.086  25.154  35.473  1.00  0.00     0.091 A 
ATOM     85  F   UNL A   1      43.801  25.124  34.792  1.00  0.00    -0.205 F 
ATOM     86  C   UNL A   1      47.364  25.728  35.370  1.00  0.00     0.022 A 
BRANCH  84  87
ATOM     87  S   UNL A   1      45.893  23.780  36.612  1.00  0.00     0.127 S 
ATOM     88  O   UNL A   1      47.249  23.635  37.137  1.00  0.00    -0.237 OA
ATOM     89  O   UNL A   1      44.921  24.309  37.570  1.00  0.00    -0.237 OA
ATOM     90  O   UNL A   1      45.410  22.659  35.817  1.00  0.00    -0.744 OA
ENDBRANCH  84  87
ENDBRANCH  57  80
ENDBRANCH  31  32
ENDBRANCH  23  26
ENDBRANCH  21  22
ENDBRANCH   1  21
TORSDOF 16
ENDMDL
MODEL 2
REMARK VINA RESULT:     -11.2      5.163     10.069
REMARK SMILES C[C@H]1CN([C@@H](C(=O)NCCCCNC(=O)c2ccc(-c3c4nc(c(-c5cccc(S(=O)(=O)[O-])c5F)c5ccc([nH]5)c(-c5cccc(S(=O)(=O)[O-])c5F)c5nc(c(-c6cccc(S(=O)(=O)[O-])c6F)c6ccc3[nH]6)C=C5)C=C4)cc2)C(C)(C)C)S(=O)(=O)C1
REMARK SMILES IDX 11 1 10 2 9 3 8 4 6 5 7 6 5 8 4 9 1 10 2 11 3 12 86 13 83 14
REMARK SMILES IDX 84 15 85 16 79 17 80 18 81 19 82 20 12 21 13 22 14 23 15 25
REMARK SMILES IDX 16 26 17 27 78 28 18 29 77 30 19 31 20 32 21 33 71 34 22 35
REMARK SMILES IDX 76 36 70 37 72 38 23 39 75 40 69 41 68 42 24 44 56 45 36 46
REMARK SMILES IDX 55 47 37 48 40 49 54 50 73 51 38 52 39 53 53 55 74 56 41 57
REMARK SMILES IDX 25 58 26 59 34 60 27 61 29 62 35 63 28 64 30 65 31 66 32 67
REMARK SMILES IDX 33 68 57 69 58 70 66 71 59 72 61 73 67 74 60 75 62 76 63 77
REMARK SMILES IDX 64 78 65 79 42 80 43 81 51 82 44 83 46 84 52 85 45 86 47 87
REMARK SMILES IDX 48 88 49 89 50 90
REMARK H PARENT 8 7 13 24 72 43 40 54
REMARK Flexibility Score: inf
ROOT
ATOM      1  C   UNL A   1      36.095  22.529  24.201  1.00  0.00     0.023 C 
ENDROOT
BRANCH   1   2
ATOM      2  C   UNL A   1      34.625  22.217  23.955  1.00  0.00     0.023 C 
BRANCH   2   3
ATOM      3  C   UNL A   1      33.926  23.070  22.887  1.00  0.00     0.116 C 
BRANCH   3   4
ATOM      4  N   UNL A   1      32.473  23.062  22.974  1.00  0.00    -0.355 N 
ATOM      5  C   UNL A   1      31.542  23.932  23.482  1.00  0.00     0.238 C 
ATOM      6  O   UNL A   1      30.367  23.611  23.297  1.00  0.00    -0.273 OA
ATOM      7  H   UNL A   1      32.070  22.253  22.582  1.00  0.00     0.163 HD
BRANCH   5   8
ATOM      8  C   UNL A   1      31.946  25.237  24.206  1.00  0.00     0.167 C 
BRANCH   8   9
ATOM      9  N   UNL A   1      32.926  26.109  23.470  1.00  0.00    -0.189 NA
ATOM     10  C   UNL A   1      32.185  29.105  24.160  1.00  0.00     0.010 C 
ATOM     11  C   UNL A   1      33.521  28.452  23.770  1.00  0.00     0.017 C 
ATOM     12  C   UNL A   1      33.776  27.010  24.265  1.00  0.00     0.107 C 
ATOM     13  C   UNL A   1      33.586  28.291  22.258  1.00  0.00     0.159 C 
ATOM     14  S   UNL A   1      32.656  26.795  21.941  1.00  0.00     0.215 S 
ATOM     15  O   UNL A   1      33.385  26.020  20.966  1.00  0.00    -0.212 OA
ATOM     16  O   UNL A   1      31.264  27.147  21.794  1.00  0.00    -0.212 OA
ENDBRANCH   8   9
BRANCH   8  17
ATOM     17  C   UNL A   1      32.307  25.030  25.735  1.00  0.00    -0.013 C 
ATOM     18  C   UNL A   1      31.737  26.207  26.558  1.00  0.00     0.013 C 
ATOM     19  C   UNL A   1      31.632  23.742  26.273  1.00  0.00     0.013 C 
ATOM     20  C   UNL A   1      33.808  24.900  26.064  1.00  0.00     0.013 C 
ENDBRANCH   8  17
ENDBRANCH   5   8
ENDBRANCH   3   4
ENDBRANCH   2   3
ENDBRANCH   1   2
BRANCH   1  21
ATOM     21  C   UNL A   1      36.505  22.329  25.640  1.00  0.00     0.116 C 
BRANCH  21  22
ATOM     22  N   UNL A   1      37.473  21.243  25.776  1.00  0.00    -0.352 N 
ATOM     23  C   UNL A   1      38.813  21.313  26.061  1.00  0.00     0.251 C 
ATOM     24  H   UNL A   1      37.114  20.336  25.646  1.00  0.00     0.163 HD
ATOM     25  O   UNL A   1      39.528  20.328  25.917  1.00  0.00    -0.269 OA
BRANCH  23  26
ATOM     26  C   UNL A   1      39.373  22.595  26.528  1.00  0.00     0.039 A 
ATOM     27  C   UNL A   1      40.369  22.597  27.505  1.00  0.00     0.014 A 
ATOM     28  C   UNL A   1      38.934  23.790  25.955  1.00  0.00     0.014 A 
ATOM     29  C   UNL A   1      40.958  23.807  27.870  1.00  0.00     0.010 A 
ATOM     30  C   UNL A   1      39.613  24.966  26.218  1.00  0.00     0.010 A 
ATOM     31  C   UNL A   1      40.605  24.993  27.206  1.00  0.00    -0.014 A 
BRANCH  31  32
ATOM     32  C   UNL A   1      41.224  26.292  27.552  1.00  0.00     0.031 A 
ATOM     33  C   UNL A   1      42.644  26.569  27.134  1.00  0.00     0.074 A 
ATOM     34  C   UNL A   1      40.544  27.172  28.310  1.00  0.00     0.049 A 
ATOM     35  N   UNL A   1      43.389  27.609  27.393  1.00  0.00    -0.248 NA
ATOM     36  C   UNL A   1      43.333  25.521  26.359  1.00  0.00     0.031 C 
ATOM     37  C   UNL A   1      39.196  26.965  28.848  1.00  0.00     0.029 A 
ATOM     38  N   UNL A   1      40.902  28.409  28.780  1.00  0.00    -0.354 N 
ATOM     39  C   UNL A   1      44.637  27.322  26.855  1.00  0.00     0.074 A 
ATOM     40  C   UNL A   1      44.569  25.990  26.301  1.00  0.00     0.031 C 
ATOM     41  C   UNL A   1      38.835  28.045  29.558  1.00  0.00     0.029 A 
ATOM     42  C   UNL A   1      39.937  29.002  29.560  1.00  0.00     0.049 A 
ATOM     43  H   UNL A   1      41.767  28.832  28.578  1.00  0.00     0.167 HD
ATOM     44  C   UNL A   1      45.734  28.111  26.794  1.00  0.00     0.034 A 
ATOM     45  C   UNL A   1      39.947  30.182  30.208  1.00  0.00     0.034 A 
ATOM     46  C   UNL A   1      45.773  29.452  27.306  1.00  0.00     0.049 A 
ATOM     47  C   UNL A   1      41.161  31.061  30.083  1.00  0.00     0.074 A 
ATOM     48  C   UNL A   1      46.796  30.377  27.213  1.00  0.00     0.029 A 
ATOM     49  N   UNL A   1      44.746  30.054  28.014  1.00  0.00    -0.354 N 
ATOM     50  N   UNL A   1      42.278  30.838  29.435  1.00  0.00    -0.248 NA
ATOM     51  C   UNL A   1      41.104  32.370  30.750  1.00  0.00     0.031 C 
ATOM     52  C   UNL A   1      46.400  31.528  27.900  1.00  0.00     0.029 A 
ATOM     53  C   UNL A   1      45.114  31.336  28.380  1.00  0.00     0.049 A 
ATOM     54  H   UNL A   1      43.882  29.633  28.225  1.00  0.00     0.167 HD
ATOM     55  C   UNL A   1      43.041  31.989  29.581  1.00  0.00     0.074 A 
ATOM     56  C   UNL A   1      42.248  32.916  30.365  1.00  0.00     0.031 C 
ATOM     57  C   UNL A   1      44.289  32.255  29.121  1.00  0.00     0.034 A 
BRANCH  44  58
ATOM     58  C   UNL A   1      46.961  27.558  26.117  1.00  0.00     0.023 A 
ATOM     59  C   UNL A   1      47.175  27.797  24.744  1.00  0.00     0.012 A 
ATOM     60  C   UNL A   1      47.924  26.838  26.849  1.00  0.00     0.148 A 
ATOM     61  C   UNL A   1      48.306  27.296  24.102  1.00  0.00     0.002 A 
ATOM     62  C   UNL A   1      49.075  26.387  26.215  1.00  0.00     0.091 A 
ATOM     63  F   UNL A   1      47.692  26.598  28.148  1.00  0.00    -0.205 F 
ATOM     64  C   UNL A   1      49.261  26.602  24.839  1.00  0.00     0.022 A 
BRANCH  62  65
ATOM     65  S   UNL A   1      50.404  25.556  27.091  1.00  0.00     0.127 S 
ATOM     66  O   UNL A   1      49.730  24.351  27.573  1.00  0.00    -0.237 OA
ATOM     67  O   UNL A   1      51.375  25.326  26.023  1.00  0.00    -0.237 OA
ATOM     68  O   UNL A   1      50.843  26.479  28.128  1.00  0.00    -0.744 OA
ENDBRANCH  62  65
ENDBRANCH  44  58
BRANCH  45  69
ATOM     69  C   UNL A   1      38.751  30.620  30.980  1.00  0.00     0.023 A 
ATOM     70  C   UNL A   1      38.699  30.396  32.370  1.00  0.00     0.012 A 
ATOM     71  C   UNL A   1      37.680  31.284  30.351  1.00  0.00     0.148 A 
ATOM     72  C   UNL A   1      37.587  30.792  33.114  1.00  0.00     0.002 A 
ATOM     73  C   UNL A   1      36.601  31.726  31.107  1.00  0.00     0.091 A 
ATOM     74  F   UNL A   1      37.747  31.483  29.028  1.00  0.00    -0.205 F 
ATOM     75  C   UNL A   1      36.543  31.465  32.485  1.00  0.00     0.022 A 
BRANCH  73  76
ATOM     76  S   UNL A   1      35.276  32.717  30.407  1.00  0.00     0.127 S 
ATOM     77  O   UNL A   1      35.997  33.908  29.965  1.00  0.00    -0.237 OA
ATOM     78  O   UNL A   1      34.794  31.851  29.330  1.00  0.00    -0.237 OA
ATOM     79  O   UNL A   1      34.322  32.920  31.488  1.00  0.00    -0.744 OA
ENDBRANCH  73  76
ENDBRANCH  45  69
BRANCH  57  80
ATOM     80  C   UNL A   1      44.860  33.618  29.408  1.00  0.00     0.023 A 
ATOM     81  C   UNL A   1      45.574  33.848  30.600  1.00  0.00     0.012 A 
ATOM     82  C   UNL A   1      44.754  34.647  28.452  1.00  0.00     0.148 A 
ATOM     83  C   UNL A   1      46.142  35.096  30.853  1.00  0.00     0.002 A 
ATOM     84  C   UNL A   1      45.371  35.868  28.686  1.00  0.00     0.091 A 
ATOM     85  F   UNL A   1      44.058  34.410  27.332  1.00  0.00    -0.205 F 
ATOM     86  C   UNL A   1      46.052  36.101  29.892  1.00  0.00     0.022 A 
BRANCH  84  87
ATOM     87  S   UNL A   1      45.397  37.182  27.462  1.00  0.00     0.127 S 
ATOM     88  O   UNL A   1      46.128  38.232  28.168  1.00  0.00    -0.237 OA
ATOM     89  O   UNL A   1      46.132  36.562  26.360  1.00  0.00    -0.237 OA
ATOM     90  O   UNL A   1      44.003  37.486  27.165  1.00  0.00    -0.744 OA
ENDBRANCH  84  87
ENDBRANCH  57  80
ENDBRANCH  31  32
ENDBRANCH  23  26
ENDBRANCH  21  22
ENDBRANCH   1  21
TORSDOF 16
ENDMDL
MODEL 3
REMARK VINA RESULT:     -11.2      1.546      1.900
REMARK SMILES C[C@H]1CN([C@@H](C(=O)NCCCCNC(=O)c2ccc(-c3c4nc(c(-c5cccc(S(=O)(=O)[O-])c5F)c5ccc([nH]5)c(-c5cccc(S(=O)(=O)[O-])c5F)c5nc(c(-c6cccc(S(=O)(=O)[O-])c6F)c6ccc3[nH]6)C=C5)C=C4)cc2)C(C)(C)C)S(=O)(=O)C1
REMARK SMILES IDX 11 1 10 2 9 3 8 4 6 5 7 6 5 8 4 9 1 10 2 11 3 12 86 13 83 14
REMARK SMILES IDX 84 15 85 16 79 17 80 18 81 19 82 20 12 21 13 22 14 23 15 25
REMARK SMILES IDX 16 26 17 27 78 28 18 29 77 30 19 31 20 32 21 33 71 34 22 35
REMARK SMILES IDX 76 36 70 37 72 38 23 39 75 40 69 41 68 42 24 44 56 45 36 46
REMARK SMILES IDX 55 47 37 48 40 49 54 50 73 51 38 52 39 53 53 55 74 56 41 57
REMARK SMILES IDX 25 58 26 59 34 60 27 61 29 62 35 63 28 64 30 65 31 66 32 67
REMARK SMILES IDX 33 68 57 69 58 70 66 71 59 72 61 73 67 74 60 75 62 76 63 77
REMARK SMILES IDX 64 78 65 79 42 80 43 81 51 82 44 83 46 84 52 85 45 86 47 87
REMARK SMILES IDX 48 88 49 89 50 90
REMARK H PARENT 8 7 13 24 72 43 40 54
REMARK Flexibility Score: inf
ROOT
ATOM      1  C   UNL A   1      32.624  29.424  24.945  1.00  0.00     0.023 C 
ENDROOT
BRANCH   1   2
ATOM      2  C   UNL A   1      33.610  28.273  24.790  1.00  0.00     0.023 C 
BRANCH   2   3
ATOM      3  C   UNL A   1      33.943  27.862  23.349  1.00  0.00     0.116 C 
BRANCH   3   4
ATOM      4  N   UNL A   1      32.955  26.988  22.734  1.00  0.00    -0.355 N 
ATOM      5  C   UNL A   1      32.242  25.899  23.168  1.00  0.00     0.238 C 
ATOM      6  O   UNL A   1      31.418  25.458  22.365  1.00  0.00    -0.273 OA
ATOM      7  H   UNL A   1      32.754  27.232  21.801  1.00  0.00     0.163 HD
BRANCH   5   8
ATOM      8  C   UNL A   1      32.442  25.293  24.577  1.00  0.00     0.167 C 
BRANCH   8   9
ATOM      9  N   UNL A   1      32.966  23.884  24.608  1.00  0.00    -0.189 NA
ATOM     10  C   UNL A   1      36.059  24.072  25.239  1.00  0.00     0.010 C 
ATOM     11  C   UNL A   1      35.029  22.966  25.521  1.00  0.00     0.017 C 
ATOM     12  C   UNL A   1      33.586  23.409  25.855  1.00  0.00     0.107 C 
ATOM     13  C   UNL A   1      34.827  22.127  24.266  1.00  0.00     0.159 C 
ATOM     14  S   UNL A   1      33.672  23.082  23.288  1.00  0.00     0.215 S 
ATOM     15  O   UNL A   1      32.696  22.171  22.742  1.00  0.00    -0.212 OA
ATOM     16  O   UNL A   1      34.422  24.017  22.484  1.00  0.00    -0.212 OA
ENDBRANCH   8   9
BRANCH   8  17
ATOM     17  C   UNL A   1      31.215  25.534  25.551  1.00  0.00    -0.013 C 
ATOM     18  C   UNL A   1      30.593  24.172  25.933  1.00  0.00     0.013 C 
ATOM     19  C   UNL A   1      31.703  26.187  26.870  1.00  0.00     0.013 C 
ATOM     20  C   UNL A   1      30.091  26.440  25.011  1.00  0.00     0.013 C 
ENDBRANCH   8  17
ENDBRANCH   5   8
ENDBRANCH   3   4
ENDBRANCH   2   3
ENDBRANCH   1   2
BRANCH   1  21
ATOM     21  C   UNL A   1      32.440  29.851  26.382  1.00  0.00     0.116 C 
BRANCH  21  22
ATOM     22  N   UNL A   1      32.351  31.304  26.502  1.00  0.00    -0.352 N 
ATOM     23  C   UNL A   1      33.130  32.157  27.242  1.00  0.00     0.251 C 
ATOM     24  H   UNL A   1      31.633  31.730  25.981  1.00  0.00     0.163 HD
ATOM     25  O   UNL A   1      32.784  33.321  27.411  1.00  0.00    -0.269 OA
BRANCH  23  26
ATOM     26  C   UNL A   1      34.378  31.643  27.836  1.00  0.00     0.039 A 
ATOM     27  C   UNL A   1      35.445  32.514  28.059  1.00  0.00     0.014 A 
ATOM     28  C   UNL A   1      34.463  30.300  28.210  1.00  0.00     0.014 A 
ATOM     29  C   UNL A   1      36.584  32.039  28.708  1.00  0.00     0.010 A 
ATOM     30  C   UNL A   1      35.533  29.869  28.972  1.00  0.00     0.010 A 
ATOM     31  C   UNL A   1      36.621  30.721  29.195  1.00  0.00    -0.014 A 
BRANCH  31  32
ATOM     32  C   UNL A   1      37.804  30.189  29.907  1.00  0.00     0.031 A 
ATOM     33  C   UNL A   1      38.078  30.630  31.320  1.00  0.00     0.074 A 
ATOM     34  C   UNL A   1      38.668  29.388  29.254  1.00  0.00     0.049 A 
ATOM     35  N   UNL A   1      39.088  30.336  32.092  1.00  0.00    -0.248 NA
ATOM     36  C   UNL A   1      37.110  31.557  31.934  1.00  0.00     0.031 C 
ATOM     37  C   UNL A   1      38.548  28.973  27.853  1.00  0.00     0.029 A 
ATOM     38  N   UNL A   1      39.831  28.799  29.677  1.00  0.00    -0.354 N 
ATOM     39  C   UNL A   1      38.901  31.071  33.255  1.00  0.00     0.074 A 
ATOM     40  C   UNL A   1      37.711  31.868  33.071  1.00  0.00     0.031 C 
ATOM     41  C   UNL A   1      39.586  28.183  27.539  1.00  0.00     0.029 A 
ATOM     42  C   UNL A   1      40.463  28.066  28.699  1.00  0.00     0.049 A 
ATOM     43  H   UNL A   1      40.180  28.891  30.592  1.00  0.00     0.167 HD
ATOM     44  C   UNL A   1      39.635  31.060  34.392  1.00  0.00     0.034 A 
ATOM     45  C   UNL A   1      41.623  27.385  28.737  1.00  0.00     0.034 A 
ATOM     46  C   UNL A   1      40.790  30.227  34.579  1.00  0.00     0.049 A 
ATOM     47  C   UNL A   1      42.395  27.348  30.028  1.00  0.00     0.074 A 
ATOM     48  C   UNL A   1      41.552  30.059  35.720  1.00  0.00     0.029 A 
ATOM     49  N   UNL A   1      41.352  29.429  33.596  1.00  0.00    -0.354 N 
ATOM     50  N   UNL A   1      42.118  27.926  31.171  1.00  0.00    -0.248 NA
ATOM     51  C   UNL A   1      43.620  26.537  30.046  1.00  0.00     0.031 C 
ATOM     52  C   UNL A   1      42.601  29.187  35.414  1.00  0.00     0.029 A 
ATOM     53  C   UNL A   1      42.463  28.777  34.096  1.00  0.00     0.049 A 
ATOM     54  H   UNL A   1      41.012  29.340  32.677  1.00  0.00     0.167 HD
ATOM     55  C   UNL A   1      43.110  27.520  32.055  1.00  0.00     0.074 A 
ATOM     56  C   UNL A   1      43.984  26.630  31.317  1.00  0.00     0.031 C 
ATOM     57  C   UNL A   1      43.290  27.860  33.355  1.00  0.00     0.034 A 
BRANCH  44  58
ATOM     58  C   UNL A   1      39.186  31.942  35.527  1.00  0.00     0.023 A 
ATOM     59  C   UNL A   1      38.282  31.444  36.489  1.00  0.00     0.012 A 
ATOM     60  C   UNL A   1      39.692  33.248  35.667  1.00  0.00     0.148 A 
ATOM     61  C   UNL A   1      37.859  32.245  37.549  1.00  0.00     0.002 A 
ATOM     62  C   UNL A   1      39.306  34.022  36.756  1.00  0.00     0.091 A 
ATOM     63  F   UNL A   1      40.530  33.713  34.731  1.00  0.00    -0.205 F 
ATOM     64  C   UNL A   1      38.379  33.528  37.688  1.00  0.00     0.022 A 
BRANCH  62  65
ATOM     65  S   UNL A   1      39.981  35.655  37.072  1.00  0.00     0.127 S 
ATOM     66  O   UNL A   1      39.283  36.029  38.302  1.00  0.00    -0.237 OA
ATOM     67  O   UNL A   1      41.405  35.368  37.243  1.00  0.00    -0.237 OA
ATOM     68  O   UNL A   1      39.656  36.460  35.903  1.00  0.00    -0.744 OA
ENDBRANCH  62  65
ENDBRANCH  44  58
BRANCH  45  69
ATOM     69  C   UNL A   1      42.091  26.639  27.535  1.00  0.00     0.023 A 
ATOM     70  C   UNL A   1      42.796  27.321  26.524  1.00  0.00     0.012 A 
ATOM     71  C   UNL A   1      41.869  25.255  27.404  1.00  0.00     0.148 A 
ATOM     72  C   UNL A   1      43.239  26.645  25.386  1.00  0.00     0.002 A 
ATOM     73  C   UNL A   1      42.363  24.577  26.295  1.00  0.00     0.091 A 
ATOM     74  F   UNL A   1      41.194  24.626  28.376  1.00  0.00    -0.205 F 
ATOM     75  C   UNL A   1      43.031  25.273  25.276  1.00  0.00     0.022 A 
BRANCH  73  76
ATOM     76  S   UNL A   1      42.260  22.792  26.133  1.00  0.00     0.127 S 
ATOM     77  O   UNL A   1      42.933  22.569  24.856  1.00  0.00    -0.237 OA
ATOM     78  O   UNL A   1      43.006  22.342  27.310  1.00  0.00    -0.237 OA
ATOM     79  O   UNL A   1      40.839  22.475  26.164  1.00  0.00    -0.744 OA
ENDBRANCH  73  76
ENDBRANCH  45  69
BRANCH  57  80
ATOM     80  C   UNL A   1      44.449  27.233  34.083  1.00  0.00     0.023 A 
ATOM     81  C   UNL A   1      45.711  27.858  34.075  1.00  0.00     0.012 A 
ATOM     82  C   UNL A   1      44.260  26.061  34.842  1.00  0.00     0.148 A 
ATOM     83  C   UNL A   1      46.778  27.304  34.781  1.00  0.00     0.002 A 
ATOM     84  C   UNL A   1      45.311  25.548  35.588  1.00  0.00     0.091 A 
ATOM     85  F   UNL A   1      43.054  25.475  34.823  1.00  0.00    -0.205 F 
ATOM     86  C   UNL A   1      46.576  26.159  35.547  1.00  0.00     0.022 A 
BRANCH  84  87
ATOM     87  S   UNL A   1      45.115  24.140  36.684  1.00  0.00     0.127 S 
ATOM     88  O   UNL A   1      46.484  23.935  37.155  1.00  0.00    -0.237 OA
ATOM     89  O   UNL A   1      44.194  24.662  37.694  1.00  0.00    -0.237 OA
ATOM     90  O   UNL A   1      44.571  23.064  35.867  1.00  0.00    -0.744 OA
ENDBRANCH  84  87
ENDBRANCH  57  80
ENDBRANCH  31  32
ENDBRANCH  23  26
ENDBRANCH  21  22
ENDBRANCH   1  21
TORSDOF 16
ENDMDL
