MODEL 1
REMARK VINA RESULT:     -12.2      0.000      0.000
REMARK SMILES C[C@@H]1C(=O)NC(=O)CN1C(=O)NC1(CC(=O)NCCCCNC(=O)c2ccc(-c3c4nc(c(-c5cccc(S(=O)(=O)[O-])c5F)c5ccc([nH]5)c(-c5cccc(S(=O)(=O)[O-])c5F)c5nc(c(-c6cccc(S(=O)(=O)[O-])c6F)c6ccc3[nH]6)C=C5)C=C4)cc2)CCC1
REMARK SMILES IDX 19 1 18 2 17 3 15 4 16 5 14 7 13 8 88 9 90 10 89 11 12 12
REMARK SMILES IDX 10 13 11 14 9 16 1 17 2 18 3 19 4 20 5 21 8 22 6 23 7 25
REMARK SMILES IDX 20 26 21 27 22 28 23 29 24 31 25 32 26 33 87 34 27 35 86 36
REMARK SMILES IDX 28 37 29 38 30 39 80 40 31 41 85 42 79 43 81 44 32 45 84 46
REMARK SMILES IDX 78 47 77 48 33 50 65 51 45 52 64 53 46 54 49 55 63 56 82 57
REMARK SMILES IDX 47 58 48 59 62 61 83 62 50 63 34 64 35 65 43 66 36 67 38 68
REMARK SMILES IDX 44 69 37 70 39 71 40 72 41 73 42 74 66 75 67 76 75 77 68 78
REMARK SMILES IDX 70 79 76 80 69 81 71 82 72 83 73 84 74 85 51 86 52 87 60 88
REMARK SMILES IDX 53 89 55 90 61 91 54 92 56 93 57 94 58 95 59 96
REMARK H PARENT 17 6 12 15 5 24 22 30 81 49 49 60
REMARK Flexibility Score: inf
ROOT
ATOM      1  C   UNL A   1      31.577  30.448  26.669  1.00  0.00     0.023 C 
ENDROOT
BRANCH   1   2
ATOM      2  C   UNL A   1      33.001  29.891  26.569  1.00  0.00     0.116 C 
BRANCH   2   3
ATOM      3  N   UNL A   1      33.303  29.576  25.191  1.00  0.00    -0.356 N 
ATOM      4  C   UNL A   1      33.176  28.317  24.679  1.00  0.00     0.222 C 
ATOM      5  O   UNL A   1      34.117  27.851  24.049  1.00  0.00    -0.275 OA
ATOM      6  H   UNL A   1      33.615  30.297  24.598  1.00  0.00     0.163 HD
BRANCH   4   7
ATOM      7  C   UNL A   1      31.841  27.639  24.854  1.00  0.00     0.128 C 
BRANCH   7   8
ATOM      8  C   UNL A   1      31.320  26.807  23.690  1.00  0.00     0.051 C 
ATOM      9  C   UNL A   1      30.623  27.685  22.583  1.00  0.00     0.029 C 
ATOM     10  C   UNL A   1      29.871  26.266  23.992  1.00  0.00     0.029 C 
ATOM     11  C   UNL A   1      29.298  27.549  23.355  1.00  0.00     0.005 C 
BRANCH   8  12
ATOM     12  N   UNL A   1      32.158  25.775  23.020  1.00  0.00    -0.332 N 
ATOM     13  C   UNL A   1      32.529  24.485  23.090  1.00  0.00     0.318 C 
ATOM     14  O   UNL A   1      32.871  24.010  21.998  1.00  0.00    -0.249 OA
ATOM     15  H   UNL A   1      32.602  26.187  22.245  1.00  0.00     0.165 HD
BRANCH  13  16
ATOM     16  N   UNL A   1      32.576  23.725  24.207  1.00  0.00    -0.304 N 
ATOM     17  C   UNL A   1      34.019  24.216  26.167  1.00  0.00     0.042 C 
ATOM     18  C   UNL A   1      32.604  24.178  25.593  1.00  0.00     0.174 C 
ATOM     19  C   UNL A   1      31.730  23.286  26.492  1.00  0.00     0.249 C 
ATOM     20  O   UNL A   1      31.349  23.653  27.604  1.00  0.00    -0.272 OA
ATOM     21  N   UNL A   1      31.530  21.991  26.078  1.00  0.00    -0.293 N 
ATOM     22  C   UNL A   1      32.841  22.298  24.009  1.00  0.00     0.222 C 
ATOM     23  C   UNL A   1      32.024  21.408  24.937  1.00  0.00     0.246 C 
ATOM     24  H   UNL A   1      30.976  21.422  26.660  1.00  0.00     0.173 HD
ATOM     25  O   UNL A   1      31.940  20.192  24.779  1.00  0.00    -0.273 OA
ENDBRANCH  13  16
ENDBRANCH   8  12
ENDBRANCH   7   8
ENDBRANCH   4   7
ENDBRANCH   2   3
ENDBRANCH   1   2
BRANCH   1  26
ATOM     26  C   UNL A   1      31.505  31.980  26.667  1.00  0.00     0.023 C 
BRANCH  26  27
ATOM     27  C   UNL A   1      32.757  32.664  27.194  1.00  0.00     0.116 C 
BRANCH  27  28
ATOM     28  N   UNL A   1      32.488  33.999  27.711  1.00  0.00    -0.352 N 
ATOM     29  C   UNL A   1      33.174  34.683  28.682  1.00  0.00     0.251 C 
ATOM     30  H   UNL A   1      31.719  34.469  27.314  1.00  0.00     0.163 HD
ATOM     31  O   UNL A   1      32.806  35.781  29.063  1.00  0.00    -0.269 OA
BRANCH  29  32
ATOM     32  C   UNL A   1      34.341  34.015  29.274  1.00  0.00     0.039 A 
ATOM     33  C   UNL A   1      35.613  34.416  28.867  1.00  0.00     0.014 A 
ATOM     34  C   UNL A   1      34.159  33.095  30.309  1.00  0.00     0.014 A 
ATOM     35  C   UNL A   1      36.726  33.914  29.535  1.00  0.00     0.010 A 
ATOM     36  C   UNL A   1      35.263  32.652  31.016  1.00  0.00     0.010 A 
ATOM     37  C   UNL A   1      36.554  33.046  30.625  1.00  0.00    -0.014 A 
BRANCH  37  38
ATOM     38  C   UNL A   1      37.712  32.481  31.347  1.00  0.00     0.031 A 
ATOM     39  C   UNL A   1      38.471  31.351  30.713  1.00  0.00     0.074 A 
ATOM     40  C   UNL A   1      38.002  32.905  32.591  1.00  0.00     0.049 A 
ATOM     41  N   UNL A   1      39.419  30.608  31.217  1.00  0.00    -0.248 NA
ATOM     42  C   UNL A   1      38.079  30.978  29.341  1.00  0.00     0.031 C 
ATOM     43  C   UNL A   1      37.280  33.948  33.323  1.00  0.00     0.029 A 
ATOM     44  N   UNL A   1      38.963  32.485  33.473  1.00  0.00    -0.354 N 
ATOM     45  C   UNL A   1      39.693  29.647  30.252  1.00  0.00     0.074 A 
ATOM     46  C   UNL A   1      38.794  29.880  29.145  1.00  0.00     0.031 C 
ATOM     47  C   UNL A   1      37.823  34.085  34.544  1.00  0.00     0.029 A 
ATOM     48  C   UNL A   1      38.911  33.124  34.691  1.00  0.00     0.049 A 
ATOM     49  H   UNL A   1      39.628  31.792  33.257  1.00  0.00     0.167 HD
ATOM     50  C   UNL A   1      40.637  28.679  30.274  1.00  0.00     0.034 A 
ATOM     51  C   UNL A   1      39.659  32.944  35.797  1.00  0.00     0.034 A 
ATOM     52  C   UNL A   1      41.578  28.517  31.346  1.00  0.00     0.049 A 
ATOM     53  C   UNL A   1      40.759  31.915  35.761  1.00  0.00     0.074 A 
ATOM     54  C   UNL A   1      42.637  27.634  31.435  1.00  0.00     0.029 A 
ATOM     55  N   UNL A   1      41.577  29.270  32.510  1.00  0.00    -0.354 N 
ATOM     56  N   UNL A   1      41.098  31.107  34.785  1.00  0.00    -0.248 NA
ATOM     57  C   UNL A   1      41.602  31.798  36.959  1.00  0.00     0.031 C 
ATOM     58  C   UNL A   1      43.281  27.856  32.656  1.00  0.00     0.029 A 
ATOM     59  C   UNL A   1      42.626  28.882  33.322  1.00  0.00     0.049 A 
ATOM     60  H   UNL A   1      40.927  29.976  32.726  1.00  0.00     0.167 HD
ATOM     61  C   UNL A   1      42.217  30.415  35.233  1.00  0.00     0.074 A 
ATOM     62  C   UNL A   1      42.505  30.909  36.566  1.00  0.00     0.031 C 
ATOM     63  C   UNL A   1      42.933  29.449  34.609  1.00  0.00     0.034 A 
BRANCH  50  64
ATOM     64  C   UNL A   1      40.737  27.776  29.076  1.00  0.00     0.023 A 
ATOM     65  C   UNL A   1      39.895  26.649  28.987  1.00  0.00     0.012 A 
ATOM     66  C   UNL A   1      41.633  28.055  28.027  1.00  0.00     0.148 A 
ATOM     67  C   UNL A   1      39.969  25.792  27.891  1.00  0.00     0.002 A 
ATOM     68  C   UNL A   1      41.670  27.220  26.915  1.00  0.00     0.091 A 
ATOM     69  F   UNL A   1      42.445  29.116  28.142  1.00  0.00    -0.205 F 
ATOM     70  C   UNL A   1      40.848  26.083  26.850  1.00  0.00     0.022 A 
BRANCH  68  71
ATOM     71  S   UNL A   1      42.714  27.552  25.492  1.00  0.00     0.127 S 
ATOM     72  O   UNL A   1      42.478  26.367  24.669  1.00  0.00    -0.237 OA
ATOM     73  O   UNL A   1      42.132  28.787  24.963  1.00  0.00    -0.237 OA
ATOM     74  O   UNL A   1      44.066  27.696  26.013  1.00  0.00    -0.744 OA
ENDBRANCH  68  71
ENDBRANCH  50  64
BRANCH  51  75
ATOM     75  C   UNL A   1      39.453  33.815  36.988  1.00  0.00     0.023 A 
ATOM     76  C   UNL A   1      39.861  35.162  36.929  1.00  0.00     0.012 A 
ATOM     77  C   UNL A   1      38.830  33.339  38.157  1.00  0.00     0.148 A 
ATOM     78  C   UNL A   1      39.680  36.012  38.020  1.00  0.00     0.002 A 
ATOM     79  C   UNL A   1      38.608  34.204  39.224  1.00  0.00     0.091 A 
ATOM     80  F   UNL A   1      38.459  32.052  38.202  1.00  0.00    -0.205 F 
ATOM     81  C   UNL A   1      39.045  35.536  39.164  1.00  0.00     0.022 A 
BRANCH  79  82
ATOM     82  S   UNL A   1      37.686  33.709  40.685  1.00  0.00     0.127 S 
ATOM     83  O   UNL A   1      36.472  33.148  40.098  1.00  0.00    -0.237 OA
ATOM     84  O   UNL A   1      38.584  32.729  41.297  1.00  0.00    -0.237 OA
ATOM     85  O   UNL A   1      37.515  34.928  41.464  1.00  0.00    -0.744 OA
ENDBRANCH  79  82
ENDBRANCH  51  75
BRANCH  63  86
ATOM     86  C   UNL A   1      44.131  28.889  35.325  1.00  0.00     0.023 A 
ATOM     87  C   UNL A   1      45.387  29.501  35.163  1.00  0.00     0.012 A 
ATOM     88  C   UNL A   1      43.980  27.839  36.252  1.00  0.00     0.148 A 
ATOM     89  C   UNL A   1      46.483  29.068  35.906  1.00  0.00     0.002 A 
ATOM     90  C   UNL A   1      45.065  27.442  37.021  1.00  0.00     0.091 A 
ATOM     91  F   UNL A   1      42.775  27.262  36.375  1.00  0.00    -0.205 F 
ATOM     92  C   UNL A   1      46.320  28.050  36.843  1.00  0.00     0.022 A 
BRANCH  90  93
ATOM     93  S   UNL A   1      44.924  26.211  38.321  1.00  0.00     0.127 S 
ATOM     94  O   UNL A   1      44.520  25.026  37.565  1.00  0.00    -0.237 OA
ATOM     95  O   UNL A   1      46.287  26.160  38.851  1.00  0.00    -0.237 OA
ATOM     96  O   UNL A   1      43.931  26.725  39.254  1.00  0.00    -0.744 OA
ENDBRANCH  90  93
ENDBRANCH  63  86
ENDBRANCH  37  38
ENDBRANCH  29  32
ENDBRANCH  27  28
ENDBRANCH  26  27
ENDBRANCH   1  26
TORSDOF 17
ENDMDL
MODEL 2
REMARK VINA RESULT:     -11.9      3.780      8.911
REMARK SMILES C[C@@H]1C(=O)NC(=O)CN1C(=O)NC1(CC(=O)NCCCCNC(=O)c2ccc(-c3c4nc(c(-c5cccc(S(=O)(=O)[O-])c5F)c5ccc([nH]5)c(-c5cccc(S(=O)(=O)[O-])c5F)c5nc(c(-c6cccc(S(=O)(=O)[O-])c6F)c6ccc3[nH]6)C=C5)C=C4)cc2)CCC1
REMARK SMILES IDX 19 1 18 2 17 3 15 4 16 5 14 7 13 8 88 9 90 10 89 11 12 12
REMARK SMILES IDX 10 13 11 14 9 16 1 17 2 18 3 19 4 20 5 21 8 22 6 23 7 25
REMARK SMILES IDX 20 26 21 27 22 28 23 29 24 31 25 32 26 33 87 34 27 35 86 36
REMARK SMILES IDX 28 37 29 38 30 39 80 40 31 41 85 42 79 43 81 44 32 45 84 46
REMARK SMILES IDX 78 47 77 48 33 50 65 51 45 52 64 53 46 54 49 55 63 56 82 57
REMARK SMILES IDX 47 58 48 59 62 61 83 62 50 63 34 64 35 65 43 66 36 67 38 68
REMARK SMILES IDX 44 69 37 70 39 71 40 72 41 73 42 74 66 75 67 76 75 77 68 78
REMARK SMILES IDX 70 79 76 80 69 81 71 82 72 83 73 84 74 85 51 86 52 87 60 88
REMARK SMILES IDX 53 89 55 90 61 91 54 92 56 93 57 94 58 95 59 96
REMARK H PARENT 17 6 12 15 5 24 22 30 81 49 49 60
REMARK Flexibility Score: inf
ROOT
ATOM      1  C   UNL A   1      32.162  28.025  26.982  1.00  0.00     0.023 C 
ENDROOT
BRANCH   1   2
ATOM      2  C   UNL A   1      31.030  27.144  26.442  1.00  0.00     0.116 C 
BRANCH   2   3
ATOM      3  N   UNL A   1      31.461  25.764  26.412  1.00  0.00    -0.356 N 
ATOM      4  C   UNL A   1      31.020  24.876  25.474  1.00  0.00     0.222 C 
ATOM      5  O   UNL A   1      30.595  23.793  25.858  1.00  0.00    -0.275 OA
ATOM      6  H   UNL A   1      32.095  25.452  27.096  1.00  0.00     0.163 HD
BRANCH   4   7
ATOM      7  C   UNL A   1      31.184  25.270  24.029  1.00  0.00     0.128 C 
BRANCH   7   8
ATOM      8  C   UNL A   1      32.333  24.638  23.256  1.00  0.00     0.051 C 
ATOM      9  C   UNL A   1      33.733  25.243  23.653  1.00  0.00     0.029 C 
ATOM     10  C   UNL A   1      32.551  25.369  21.877  1.00  0.00     0.029 C 
ATOM     11  C   UNL A   1      33.531  26.331  22.583  1.00  0.00     0.005 C 
BRANCH   8  12
ATOM     12  N   UNL A   1      32.475  23.163  23.118  1.00  0.00    -0.332 N 
ATOM     13  C   UNL A   1      32.796  22.049  23.799  1.00  0.00     0.318 C 
ATOM     14  O   UNL A   1      32.286  21.021  23.331  1.00  0.00    -0.249 OA
ATOM     15  H   UNL A   1      32.256  22.912  22.192  1.00  0.00     0.165 HD
BRANCH  13  16
ATOM     16  N   UNL A   1      33.607  21.975  24.877  1.00  0.00    -0.304 N 
ATOM     17  C   UNL A   1      35.694  20.632  24.962  1.00  0.00     0.042 C 
ATOM     18  C   UNL A   1      35.064  22.023  24.901  1.00  0.00     0.174 C 
ATOM     19  C   UNL A   1      35.580  22.851  26.091  1.00  0.00     0.249 C 
ATOM     20  O   UNL A   1      36.730  23.290  26.132  1.00  0.00    -0.272 OA
ATOM     21  N   UNL A   1      34.760  22.938  27.190  1.00  0.00    -0.293 N 
ATOM     22  C   UNL A   1      32.973  21.595  26.142  1.00  0.00     0.222 C 
ATOM     23  C   UNL A   1      33.519  22.368  27.335  1.00  0.00     0.246 C 
ATOM     24  H   UNL A   1      35.096  23.463  27.952  1.00  0.00     0.173 HD
ATOM     25  O   UNL A   1      32.971  22.353  28.436  1.00  0.00    -0.273 OA
ENDBRANCH  13  16
ENDBRANCH   8  12
ENDBRANCH   7   8
ENDBRANCH   4   7
ENDBRANCH   2   3
ENDBRANCH   1   2
BRANCH   1  26
ATOM     26  C   UNL A   1      33.561  27.590  26.531  1.00  0.00     0.023 C 
BRANCH  26  27
ATOM     27  C   UNL A   1      34.508  28.743  26.232  1.00  0.00     0.116 C 
BRANCH  27  28
ATOM     28  N   UNL A   1      34.005  30.019  26.722  1.00  0.00    -0.352 N 
ATOM     29  C   UNL A   1      34.571  30.845  27.659  1.00  0.00     0.251 C 
ATOM     30  H   UNL A   1      33.155  30.327  26.332  1.00  0.00     0.163 HD
ATOM     31  O   UNL A   1      34.012  31.866  28.022  1.00  0.00    -0.269 OA
BRANCH  29  32
ATOM     32  C   UNL A   1      35.852  30.423  28.239  1.00  0.00     0.039 A 
ATOM     33  C   UNL A   1      35.833  29.661  29.408  1.00  0.00     0.014 A 
ATOM     34  C   UNL A   1      37.040  30.681  27.551  1.00  0.00     0.014 A 
ATOM     35  C   UNL A   1      37.024  29.115  29.876  1.00  0.00     0.010 A 
ATOM     36  C   UNL A   1      38.210  30.079  27.982  1.00  0.00     0.010 A 
ATOM     37  C   UNL A   1      38.213  29.305  29.154  1.00  0.00    -0.014 A 
BRANCH  37  38
ATOM     38  C   UNL A   1      39.499  28.754  29.631  1.00  0.00     0.031 A 
ATOM     39  C   UNL A   1      40.212  29.460  30.746  1.00  0.00     0.074 A 
ATOM     40  C   UNL A   1      40.058  27.706  28.997  1.00  0.00     0.049 A 
ATOM     41  N   UNL A   1      41.407  29.249  31.226  1.00  0.00    -0.248 NA
ATOM     42  C   UNL A   1      39.501  30.587  31.379  1.00  0.00     0.031 C 
ATOM     43  C   UNL A   1      39.477  26.994  27.856  1.00  0.00     0.029 A 
ATOM     44  N   UNL A   1      41.258  27.078  29.205  1.00  0.00    -0.354 N 
ATOM     45  C   UNL A   1      41.614  30.248  32.169  1.00  0.00     0.074 A 
ATOM     46  C   UNL A   1      40.435  31.084  32.175  1.00  0.00     0.031 C 
ATOM     47  C   UNL A   1      40.324  26.028  27.464  1.00  0.00     0.029 A 
ATOM     48  C   UNL A   1      41.515  26.069  28.305  1.00  0.00     0.049 A 
ATOM     49  H   UNL A   1      41.878  27.325  29.929  1.00  0.00     0.167 HD
ATOM     50  C   UNL A   1      42.679  30.429  32.983  1.00  0.00     0.034 A 
ATOM     51  C   UNL A   1      42.596  25.276  28.179  1.00  0.00     0.034 A 
ATOM     52  C   UNL A   1      43.804  29.538  33.022  1.00  0.00     0.049 A 
ATOM     53  C   UNL A   1      43.731  25.446  29.154  1.00  0.00     0.074 A 
ATOM     54  C   UNL A   1      44.894  29.567  33.870  1.00  0.00     0.029 A 
ATOM     55  N   UNL A   1      43.970  28.448  32.182  1.00  0.00    -0.354 N 
ATOM     56  N   UNL A   1      43.850  26.308  30.136  1.00  0.00    -0.248 NA
ATOM     57  C   UNL A   1      44.861  24.515  29.033  1.00  0.00     0.031 C 
ATOM     58  C   UNL A   1      45.722  28.489  33.542  1.00  0.00     0.029 A 
ATOM     59  C   UNL A   1      45.141  27.786  32.497  1.00  0.00     0.049 A 
ATOM     60  H   UNL A   1      43.347  28.185  31.467  1.00  0.00     0.167 HD
ATOM     61  C   UNL A   1      45.045  25.999  30.774  1.00  0.00     0.074 A 
ATOM     62  C   UNL A   1      45.607  24.861  30.075  1.00  0.00     0.031 C 
ATOM     63  C   UNL A   1      45.633  26.607  31.832  1.00  0.00     0.034 A 
BRANCH  50  64
ATOM     64  C   UNL A   1      42.637  31.589  33.938  1.00  0.00     0.023 A 
ATOM     65  C   UNL A   1      43.136  32.842  33.527  1.00  0.00     0.012 A 
ATOM     66  C   UNL A   1      42.078  31.456  35.223  1.00  0.00     0.148 A 
ATOM     67  C   UNL A   1      43.114  33.935  34.392  1.00  0.00     0.002 A 
ATOM     68  C   UNL A   1      42.018  32.561  36.065  1.00  0.00     0.091 A 
ATOM     69  F   UNL A   1      41.633  30.250  35.606  1.00  0.00    -0.205 F 
ATOM     70  C   UNL A   1      42.546  33.797  35.656  1.00  0.00     0.022 A 
BRANCH  68  71
ATOM     71  S   UNL A   1      41.240  32.503  37.682  1.00  0.00     0.127 S 
ATOM     72  O   UNL A   1      41.271  33.911  38.076  1.00  0.00    -0.237 OA
ATOM     73  O   UNL A   1      39.906  31.989  37.365  1.00  0.00    -0.237 OA
ATOM     74  O   UNL A   1      42.057  31.607  38.487  1.00  0.00    -0.744 OA
ENDBRANCH  68  71
ENDBRANCH  50  64
BRANCH  51  75
ATOM     75  C   UNL A   1      42.614  24.196  27.152  1.00  0.00     0.023 A 
ATOM     76  C   UNL A   1      43.292  24.418  25.937  1.00  0.00     0.012 A 
ATOM     77  C   UNL A   1      42.005  22.947  27.378  1.00  0.00     0.148 A 
ATOM     78  C   UNL A   1      43.337  23.429  24.954  1.00  0.00     0.002 A 
ATOM     79  C   UNL A   1      42.095  21.948  26.414  1.00  0.00     0.091 A 
ATOM     80  F   UNL A   1      41.353  22.756  28.534  1.00  0.00    -0.205 F 
ATOM     81  C   UNL A   1      42.748  22.192  25.196  1.00  0.00     0.022 A 
BRANCH  79  82
ATOM     82  S   UNL A   1      41.474  20.285  26.693  1.00  0.00     0.127 S 
ATOM     83  O   UNL A   1      42.224  19.880  27.878  1.00  0.00    -0.237 OA
ATOM     84  O   UNL A   1      40.048  20.524  26.918  1.00  0.00    -0.237 OA
ATOM     85  O   UNL A   1      41.770  19.553  25.469  1.00  0.00    -0.744 OA
ENDBRANCH  79  82
ENDBRANCH  51  75
BRANCH  63  86
ATOM     86  C   UNL A   1      46.926  26.035  32.342  1.00  0.00     0.023 A 
ATOM     87  C   UNL A   1      46.916  25.174  33.454  1.00  0.00     0.012 A 
ATOM     88  C   UNL A   1      48.128  26.252  31.638  1.00  0.00     0.148 A 
ATOM     89  C   UNL A   1      48.087  24.544  33.869  1.00  0.00     0.002 A 
ATOM     90  C   UNL A   1      49.282  25.588  32.031  1.00  0.00     0.091 A 
ATOM     91  F   UNL A   1      48.114  27.091  30.592  1.00  0.00    -0.205 F 
ATOM     92  C   UNL A   1      49.265  24.739  33.151  1.00  0.00     0.022 A 
BRANCH  90  93
ATOM     93  S   UNL A   1      50.818  25.699  31.106  1.00  0.00     0.127 S 
ATOM     94  O   UNL A   1      50.409  25.207  29.792  1.00  0.00    -0.237 OA
ATOM     95  O   UNL A   1      51.108  27.132  31.157  1.00  0.00    -0.237 OA
ATOM     96  O   UNL A   1      51.776  24.863  31.816  1.00  0.00    -0.744 OA
ENDBRANCH  90  93
ENDBRANCH  63  86
ENDBRANCH  37  38
ENDBRANCH  29  32
ENDBRANCH  27  28
ENDBRANCH  26  27
ENDBRANCH   1  26
TORSDOF 17
ENDMDL
MODEL 3
REMARK VINA RESULT:     -11.8      5.737     11.777
REMARK SMILES C[C@@H]1C(=O)NC(=O)CN1C(=O)NC1(CC(=O)NCCCCNC(=O)c2ccc(-c3c4nc(c(-c5cccc(S(=O)(=O)[O-])c5F)c5ccc([nH]5)c(-c5cccc(S(=O)(=O)[O-])c5F)c5nc(c(-c6cccc(S(=O)(=O)[O-])c6F)c6ccc3[nH]6)C=C5)C=C4)cc2)CCC1
REMARK SMILES IDX 19 1 18 2 17 3 15 4 16 5 14 7 13 8 88 9 90 10 89 11 12 12
REMARK SMILES IDX 10 13 11 14 9 16 1 17 2 18 3 19 4 20 5 21 8 22 6 23 7 25
REMARK SMILES IDX 20 26 21 27 22 28 23 29 24 31 25 32 26 33 87 34 27 35 86 36
REMARK SMILES IDX 28 37 29 38 30 39 80 40 31 41 85 42 79 43 81 44 32 45 84 46
REMARK SMILES IDX 78 47 77 48 33 50 65 51 45 52 64 53 46 54 49 55 63 56 82 57
REMARK SMILES IDX 47 58 48 59 62 61 83 62 50 63 34 64 35 65 43 66 36 67 38 68
REMARK SMILES IDX 44 69 37 70 39 71 40 72 41 73 42 74 66 75 67 76 75 77 68 78
REMARK SMILES IDX 70 79 76 80 69 81 71 82 72 83 73 84 74 85 51 86 52 87 60 88
REMARK SMILES IDX 53 89 55 90 61 91 54 92 56 93 57 94 58 95 59 96
REMARK H PARENT 17 6 12 15 5 24 22 30 81 49 49 60
REMARK Flexibility Score: inf
ROOT
ATOM      1  C   UNL A   1      37.236  20.983  24.753  1.00  0.00     0.023 C 
ENDROOT
BRANCH   1   2
ATOM      2  C   UNL A   1      35.856  20.730  25.370  1.00  0.00     0.116 C 
BRANCH   2   3
ATOM      3  N   UNL A   1      35.307  21.975  25.858  1.00  0.00    -0.356 N 
ATOM      4  C   UNL A   1      35.049  23.037  25.040  1.00  0.00     0.222 C 
ATOM      5  O   UNL A   1      35.472  24.138  25.371  1.00  0.00    -0.275 OA
ATOM      6  H   UNL A   1      35.112  22.061  26.819  1.00  0.00     0.163 HD
BRANCH   4   7
ATOM      7  C   UNL A   1      34.178  22.778  23.838  1.00  0.00     0.128 C 
BRANCH   7   8
ATOM      8  C   UNL A   1      32.680  22.639  24.075  1.00  0.00     0.051 C 
ATOM      9  C   UNL A   1      32.261  21.168  24.453  1.00  0.00     0.029 C 
ATOM     10  C   UNL A   1      31.920  22.371  22.721  1.00  0.00     0.029 C 
ATOM     11  C   UNL A   1      32.115  20.857  22.952  1.00  0.00     0.005 C 
BRANCH   8  12
ATOM     12  N   UNL A   1      31.927  23.584  24.944  1.00  0.00    -0.332 N 
ATOM     13  C   UNL A   1      31.351  24.799  24.959  1.00  0.00     0.318 C 
ATOM     14  O   UNL A   1      30.441  24.904  25.793  1.00  0.00    -0.249 OA
ATOM     15  H   UNL A   1      31.808  23.171  25.829  1.00  0.00     0.165 HD
BRANCH  13  16
ATOM     16  N   UNL A   1      31.695  25.857  24.191  1.00  0.00    -0.304 N 
ATOM     17  C   UNL A   1      33.718  27.249  24.561  1.00  0.00     0.042 C 
ATOM     18  C   UNL A   1      33.020  26.204  23.692  1.00  0.00     0.174 C 
ATOM     19  C   UNL A   1      32.957  26.725  22.246  1.00  0.00     0.249 C 
ATOM     20  O   UNL A   1      33.953  26.771  21.523  1.00  0.00    -0.272 OA
ATOM     21  N   UNL A   1      31.776  27.302  21.844  1.00  0.00    -0.293 N 
ATOM     22  C   UNL A   1      30.669  26.888  24.012  1.00  0.00     0.222 C 
ATOM     23  C   UNL A   1      30.638  27.454  22.598  1.00  0.00     0.246 C 
ATOM     24  H   UNL A   1      31.741  27.640  20.920  1.00  0.00     0.173 HD
ATOM     25  O   UNL A   1      29.717  28.160  22.191  1.00  0.00    -0.273 OA
ENDBRANCH  13  16
ENDBRANCH   8  12
ENDBRANCH   7   8
ENDBRANCH   4   7
ENDBRANCH   2   3
ENDBRANCH   1   2
BRANCH   1  26
ATOM     26  C   UNL A   1      38.226  19.827  24.945  1.00  0.00     0.023 C 
BRANCH  26  27
ATOM     27  C   UNL A   1      39.293  20.088  25.997  1.00  0.00     0.116 C 
BRANCH  27  28
ATOM     28  N   UNL A   1      40.403  19.149  25.910  1.00  0.00    -0.352 N 
ATOM     29  C   UNL A   1      41.740  19.403  26.084  1.00  0.00     0.251 C 
ATOM     30  H   UNL A   1      40.165  18.216  25.702  1.00  0.00     0.163 HD
ATOM     31  O   UNL A   1      42.576  18.530  25.927  1.00  0.00    -0.269 OA
BRANCH  29  32
ATOM     32  C   UNL A   1      42.122  20.781  26.421  1.00  0.00     0.039 A 
ATOM     33  C   UNL A   1      42.415  21.083  27.751  1.00  0.00     0.014 A 
ATOM     34  C   UNL A   1      42.303  21.716  25.399  1.00  0.00     0.014 A 
ATOM     35  C   UNL A   1      42.937  22.335  28.059  1.00  0.00     0.010 A 
ATOM     36  C   UNL A   1      42.887  22.935  25.701  1.00  0.00     0.010 A 
ATOM     37  C   UNL A   1      43.194  23.258  27.033  1.00  0.00    -0.014 A 
BRANCH  37  38
ATOM     38  C   UNL A   1      43.732  24.603  27.325  1.00  0.00     0.031 A 
ATOM     39  C   UNL A   1      42.793  25.654  27.843  1.00  0.00     0.074 A 
ATOM     40  C   UNL A   1      45.011  24.895  27.026  1.00  0.00     0.049 A 
ATOM     41  N   UNL A   1      43.003  26.928  28.030  1.00  0.00    -0.248 NA
ATOM     42  C   UNL A   1      41.418  25.220  28.151  1.00  0.00     0.031 C 
ATOM     43  C   UNL A   1      45.985  23.963  26.453  1.00  0.00     0.029 A 
ATOM     44  N   UNL A   1      45.703  26.074  27.135  1.00  0.00    -0.354 N 
ATOM     45  C   UNL A   1      41.778  27.457  28.416  1.00  0.00     0.074 A 
ATOM     46  C   UNL A   1      40.822  26.374  28.410  1.00  0.00     0.031 C 
ATOM     47  C   UNL A   1      47.148  24.606  26.258  1.00  0.00     0.029 A 
ATOM     48  C   UNL A   1      46.995  25.999  26.666  1.00  0.00     0.049 A 
ATOM     49  H   UNL A   1      45.313  26.895  27.511  1.00  0.00     0.167 HD
ATOM     50  C   UNL A   1      41.487  28.726  28.779  1.00  0.00     0.034 A 
ATOM     51  C   UNL A   1      47.940  26.954  26.576  1.00  0.00     0.034 A 
ATOM     52  C   UNL A   1      42.469  29.770  28.861  1.00  0.00     0.049 A 
ATOM     53  C   UNL A   1      47.612  28.339  27.067  1.00  0.00     0.074 A 
ATOM     54  C   UNL A   1      42.310  31.068  29.306  1.00  0.00     0.029 A 
ATOM     55  N   UNL A   1      43.800  29.624  28.501  1.00  0.00    -0.354 N 
ATOM     56  N   UNL A   1      46.485  28.790  27.565  1.00  0.00    -0.248 NA
ATOM     57  C   UNL A   1      48.690  29.336  27.023  1.00  0.00     0.031 C 
ATOM     58  C   UNL A   1      43.549  31.709  29.218  1.00  0.00     0.029 A 
ATOM     59  C   UNL A   1      44.480  30.805  28.725  1.00  0.00     0.049 A 
ATOM     60  H   UNL A   1      44.201  28.801  28.140  1.00  0.00     0.167 HD
ATOM     61  C   UNL A   1      46.728  30.109  27.929  1.00  0.00     0.074 A 
ATOM     62  C   UNL A   1      48.115  30.381  27.607  1.00  0.00     0.031 C 
ATOM     63  C   UNL A   1      45.881  31.019  28.468  1.00  0.00     0.034 A 
BRANCH  50  64
ATOM     64  C   UNL A   1      40.070  29.029  29.180  1.00  0.00     0.023 A 
ATOM     65  C   UNL A   1      39.109  29.288  28.181  1.00  0.00     0.012 A 
ATOM     66  C   UNL A   1      39.678  29.025  30.532  1.00  0.00     0.148 A 
ATOM     67  C   UNL A   1      37.789  29.576  28.522  1.00  0.00     0.002 A 
ATOM     68  C   UNL A   1      38.349  29.269  30.863  1.00  0.00     0.091 A 
ATOM     69  F   UNL A   1      40.611  28.804  31.469  1.00  0.00    -0.205 F 
ATOM     70  C   UNL A   1      37.407  29.556  29.861  1.00  0.00     0.022 A 
BRANCH  68  71
ATOM     71  S   UNL A   1      37.745  29.192  32.552  1.00  0.00     0.127 S 
ATOM     72  O   UNL A   1      38.684  30.076  33.242  1.00  0.00    -0.237 OA
ATOM     73  O   UNL A   1      36.389  29.727  32.421  1.00  0.00    -0.237 OA
ATOM     74  O   UNL A   1      37.807  27.789  32.935  1.00  0.00    -0.744 OA
ENDBRANCH  68  71
ENDBRANCH  50  64
BRANCH  51  75
ATOM     75  C   UNL A   1      49.306  26.610  26.088  1.00  0.00     0.023 A 
ATOM     76  C   UNL A   1      50.122  25.773  26.873  1.00  0.00     0.012 A 
ATOM     77  C   UNL A   1      49.787  27.069  24.847  1.00  0.00     0.148 A 
ATOM     78  C   UNL A   1      51.404  25.423  26.447  1.00  0.00     0.002 A 
ATOM     79  C   UNL A   1      51.047  26.676  24.405  1.00  0.00     0.091 A 
ATOM     80  F   UNL A   1      49.003  27.875  24.118  1.00  0.00    -0.205 F 
ATOM     81  C   UNL A   1      51.863  25.867  25.210  1.00  0.00     0.022 A 
BRANCH  79  82
ATOM     82  S   UNL A   1      51.667  27.097  22.772  1.00  0.00     0.127 S 
ATOM     83  O   UNL A   1      52.887  26.300  22.700  1.00  0.00    -0.237 OA
ATOM     84  O   UNL A   1      50.579  26.639  21.905  1.00  0.00    -0.237 OA
ATOM     85  O   UNL A   1      51.846  28.542  22.789  1.00  0.00    -0.744 OA
ENDBRANCH  79  82
ENDBRANCH  51  75
BRANCH  63  86
ATOM     86  C   UNL A   1      46.428  32.380  28.796  1.00  0.00     0.023 A 
ATOM     87  C   UNL A   1      47.035  32.604  30.045  1.00  0.00     0.012 A 
ATOM     88  C   UNL A   1      46.451  33.393  27.816  1.00  0.00     0.148 A 
ATOM     89  C   UNL A   1      47.648  33.824  30.322  1.00  0.00     0.002 A 
ATOM     90  C   UNL A   1      47.102  34.590  28.084  1.00  0.00     0.091 A 
ATOM     91  F   UNL A   1      45.850  33.160  26.640  1.00  0.00    -0.205 F 
ATOM     92  C   UNL A   1      47.694  34.810  29.339  1.00  0.00     0.022 A 
BRANCH  90  93
ATOM     93  S   UNL A   1      47.298  35.875  26.844  1.00  0.00     0.127 S 
ATOM     94  O   UNL A   1      48.201  36.805  27.521  1.00  0.00    -0.237 OA
ATOM     95  O   UNL A   1      47.900  35.143  25.730  1.00  0.00    -0.237 OA
ATOM     96  O   UNL A   1      45.960  36.386  26.580  1.00  0.00    -0.744 OA
ENDBRANCH  90  93
ENDBRANCH  63  86
ENDBRANCH  37  38
ENDBRANCH  29  32
ENDBRANCH  27  28
ENDBRANCH  26  27
ENDBRANCH   1  26
TORSDOF 17
ENDMDL
