MODEL 1
REMARK VINA RESULT:     -12.9      0.000      0.000
REMARK SMILES C=CCN1C(=O)/C(=C/c2ccccn2)S/C1=[NH+]\c1ccc(C(=O)NCCCCNC(=O)c2ccc(-c3c4nc(c(-c5cccc(S(=O)(=O)[O-])c5F)c5ccc([nH]5)c(-c5cccc(S(=O)(=O)[O-])c5F)c5nc(c(-c6cccc(S(=O)(=O)[O-])c6F)c6ccc3[nH]6)C=C5)C=C4)cc2)cc1
REMARK SMILES IDX 26 1 25 2 24 3 22 4 23 5 21 7 18 8 19 9 96 10 20 11 95 12
REMARK SMILES IDX 17 13 4 14 5 15 16 16 6 17 7 18 15 19 8 20 3 22 2 23 1 24
REMARK SMILES IDX 9 25 10 26 14 27 11 28 13 29 12 30 27 31 28 32 29 33 30 34
REMARK SMILES IDX 31 36 32 37 33 38 94 39 34 40 93 41 35 42 36 43 37 44 87 45
REMARK SMILES IDX 38 46 92 47 86 48 88 49 39 50 91 51 85 52 84 53 40 55 72 56
REMARK SMILES IDX 52 57 71 58 53 59 56 60 70 61 89 62 54 63 55 64 69 66 90 67
REMARK SMILES IDX 57 68 41 69 42 70 50 71 43 72 45 73 51 74 44 75 46 76 47 77
REMARK SMILES IDX 48 78 49 79 73 80 74 81 82 82 75 83 77 84 83 85 76 86 78 87
REMARK SMILES IDX 79 88 80 89 81 90 58 91 59 92 67 93 60 94 62 95 68 96 61 97
REMARK SMILES IDX 63 98 64 99 65 100 66 101
REMARK H PARENT 24 6 17 21 29 35 88 54 56 65
REMARK Flexibility Score: inf
ROOT
ATOM      1  C   UNL A   1      42.810  24.196  27.279  1.00  0.00     0.023 C 
ENDROOT
BRANCH   1   2
ATOM      2  C   UNL A   1      42.225  23.370  26.131  1.00  0.00     0.116 C 
BRANCH   2   3
ATOM      3  N   UNL A   1      41.831  22.055  26.597  1.00  0.00    -0.352 N 
ATOM      4  C   UNL A   1      40.604  21.448  26.695  1.00  0.00     0.251 C 
ATOM      5  O   UNL A   1      40.563  20.282  27.090  1.00  0.00    -0.269 OA
ATOM      6  H   UNL A   1      42.582  21.493  26.899  1.00  0.00     0.163 HD
BRANCH   4   7
ATOM      7  C   UNL A   1      39.335  22.113  26.290  1.00  0.00     0.040 A 
ATOM      8  C   UNL A   1      36.950  23.280  25.341  1.00  0.00     0.125 A 
ATOM      9  C   UNL A   1      37.345  22.025  24.884  1.00  0.00     0.052 A 
ATOM     10  C   UNL A   1      37.705  23.905  26.338  1.00  0.00     0.052 A 
ATOM     11  C   UNL A   1      38.532  21.447  25.350  1.00  0.00     0.018 A 
ATOM     12  C   UNL A   1      38.878  23.321  26.818  1.00  0.00     0.018 A 
BRANCH   8  13
ATOM     13  N   UNL A   1      35.774  23.875  24.872  1.00  0.00    -0.234 N 
ATOM     14  N   UNL A   1      33.615  23.668  24.011  1.00  0.00    -0.182 N 
ATOM     15  C   UNL A   1      32.627  22.776  23.651  1.00  0.00     0.349 C 
ATOM     16  C   UNL A   1      34.746  23.145  24.583  1.00  0.00     0.324 C 
ATOM     17  O   UNL A   1      31.554  23.051  23.125  1.00  0.00    -0.240 OA
ATOM     18  C   UNL A   1      33.031  21.393  24.021  1.00  0.00     0.111 C 
ATOM     19  S   UNL A   1      34.558  21.420  24.812  1.00  0.00     0.007 SA
ATOM     20  C   UNL A   1      32.279  20.323  23.730  1.00  0.00     0.052 C 
ATOM     21  H   UNL A   1      35.728  24.853  24.762  1.00  0.00     0.313 HD
BRANCH  14  22
ATOM     22  C   UNL A   1      33.462  25.087  23.766  1.00  0.00     0.275 C 
BRANCH  22  23
ATOM     23  C   UNL A   1      33.748  25.375  22.319  1.00  0.00     0.011 C 
ATOM     24  C   UNL A   1      32.826  25.777  21.434  1.00  0.00     0.008 C 
ENDBRANCH  22  23
ENDBRANCH  14  22
BRANCH  20  25
ATOM     25  C   UNL A   1      32.595  18.944  24.097  1.00  0.00     0.064 A 
ATOM     26  C   UNL A   1      33.128  18.050  23.171  1.00  0.00     0.028 A 
ATOM     27  N   UNL A   1      32.370  18.618  25.389  1.00  0.00    -0.257 NA
ATOM     28  C   UNL A   1      33.398  16.747  23.577  1.00  0.00     0.004 A 
ATOM     29  C   UNL A   1      32.635  17.342  25.751  1.00  0.00     0.111 A 
ATOM     30  C   UNL A   1      33.139  16.380  24.892  1.00  0.00     0.020 A 
ENDBRANCH  20  25
ENDBRANCH   8  13
ENDBRANCH   4   7
ENDBRANCH   2   3
ENDBRANCH   1   2
BRANCH   1  31
ATOM     31  C   UNL A   1      44.200  24.769  26.991  1.00  0.00     0.023 C 
BRANCH  31  32
ATOM     32  C   UNL A   1      44.277  26.290  26.988  1.00  0.00     0.116 C 
BRANCH  32  33
ATOM     33  N   UNL A   1      43.758  26.887  25.764  1.00  0.00    -0.352 N 
ATOM     34  C   UNL A   1      42.812  27.874  25.632  1.00  0.00     0.251 C 
ATOM     35  H   UNL A   1      44.134  26.537  24.924  1.00  0.00     0.163 HD
ATOM     36  O   UNL A   1      42.393  28.183  24.521  1.00  0.00    -0.269 OA
BRANCH  34  37
ATOM     37  C   UNL A   1      42.284  28.532  26.844  1.00  0.00     0.039 A 
ATOM     38  C   UNL A   1      41.238  27.925  27.540  1.00  0.00     0.014 A 
ATOM     39  C   UNL A   1      42.848  29.723  27.309  1.00  0.00     0.014 A 
ATOM     40  C   UNL A   1      40.797  28.483  28.741  1.00  0.00     0.010 A 
ATOM     41  C   UNL A   1      42.462  30.231  28.545  1.00  0.00     0.010 A 
ATOM     42  C   UNL A   1      41.429  29.620  29.270  1.00  0.00    -0.014 A 
BRANCH  42  43
ATOM     43  C   UNL A   1      41.026  30.178  30.587  1.00  0.00     0.031 A 
ATOM     44  C   UNL A   1      39.744  30.954  30.723  1.00  0.00     0.074 A 
ATOM     45  C   UNL A   1      41.852  30.048  31.644  1.00  0.00     0.049 A 
ATOM     46  N   UNL A   1      39.243  31.536  31.781  1.00  0.00    -0.248 NA
ATOM     47  C   UNL A   1      38.929  31.118  29.507  1.00  0.00     0.031 C 
ATOM     48  C   UNL A   1      43.160  29.387  31.620  1.00  0.00     0.029 A 
ATOM     49  N   UNL A   1      41.724  30.481  32.940  1.00  0.00    -0.354 N 
ATOM     50  C   UNL A   1      38.077  32.161  31.355  1.00  0.00     0.074 A 
ATOM     51  C   UNL A   1      37.965  31.920  29.934  1.00  0.00     0.031 C 
ATOM     52  C   UNL A   1      43.707  29.447  32.845  1.00  0.00     0.029 A 
ATOM     53  C   UNL A   1      42.808  30.177  33.732  1.00  0.00     0.049 A 
ATOM     54  H   UNL A   1      40.933  30.963  33.271  1.00  0.00     0.167 HD
ATOM     55  C   UNL A   1      37.163  32.844  32.084  1.00  0.00     0.034 A 
ATOM     56  C   UNL A   1      43.051  30.461  35.027  1.00  0.00     0.034 A 
ATOM     57  C   UNL A   1      37.263  33.054  33.504  1.00  0.00     0.049 A 
ATOM     58  C   UNL A   1      42.009  31.200  35.821  1.00  0.00     0.074 A 
ATOM     59  C   UNL A   1      36.353  33.664  34.349  1.00  0.00     0.029 A 
ATOM     60  N   UNL A   1      38.341  32.672  34.287  1.00  0.00    -0.354 N 
ATOM     61  N   UNL A   1      40.839  31.648  35.433  1.00  0.00    -0.248 NA
ATOM     62  C   UNL A   1      42.304  31.441  37.241  1.00  0.00     0.031 C 
ATOM     63  C   UNL A   1      36.896  33.680  35.637  1.00  0.00     0.029 A 
ATOM     64  C   UNL A   1      38.125  33.043  35.603  1.00  0.00     0.049 A 
ATOM     65  H   UNL A   1      39.142  32.204  33.956  1.00  0.00     0.167 HD
ATOM     66  C   UNL A   1      40.241  32.187  36.567  1.00  0.00     0.074 A 
ATOM     67  C   UNL A   1      41.172  31.990  37.660  1.00  0.00     0.031 C 
ATOM     68  C   UNL A   1      39.038  32.799  36.691  1.00  0.00     0.034 A 
BRANCH  55  69
ATOM     69  C   UNL A   1      35.950  33.377  31.366  1.00  0.00     0.023 A 
ATOM     70  C   UNL A   1      35.325  32.594  30.375  1.00  0.00     0.012 A 
ATOM     71  C   UNL A   1      35.397  34.627  31.708  1.00  0.00     0.148 A 
ATOM     72  C   UNL A   1      34.193  33.060  29.707  1.00  0.00     0.002 A 
ATOM     73  C   UNL A   1      34.240  35.064  31.073  1.00  0.00     0.091 A 
ATOM     74  F   UNL A   1      36.016  35.368  32.638  1.00  0.00    -0.205 F 
ATOM     75  C   UNL A   1      33.645  34.289  30.064  1.00  0.00     0.022 A 
BRANCH  73  76
ATOM     76  S   UNL A   1      33.408  36.593  31.515  1.00  0.00     0.127 S 
ATOM     77  O   UNL A   1      33.265  37.237  30.210  1.00  0.00    -0.237 OA
ATOM     78  O   UNL A   1      32.157  36.105  32.094  1.00  0.00    -0.237 OA
ATOM     79  O   UNL A   1      34.289  37.275  32.453  1.00  0.00    -0.744 OA
ENDBRANCH  73  76
ENDBRANCH  55  69
BRANCH  56  80
ATOM     80  C   UNL A   1      44.310  29.991  35.671  1.00  0.00     0.023 A 
ATOM     81  C   UNL A   1      45.484  30.761  35.545  1.00  0.00     0.012 A 
ATOM     82  C   UNL A   1      44.350  28.799  36.419  1.00  0.00     0.148 A 
ATOM     83  C   UNL A   1      46.682  30.334  36.119  1.00  0.00     0.002 A 
ATOM     84  C   UNL A   1      45.533  28.408  37.037  1.00  0.00     0.091 A 
ATOM     85  F   UNL A   1      43.225  28.077  36.522  1.00  0.00    -0.205 F 
ATOM     86  C   UNL A   1      46.704  29.163  36.872  1.00  0.00     0.022 A 
BRANCH  84  87
ATOM     87  S   UNL A   1      45.625  26.987  38.131  1.00  0.00     0.127 S 
ATOM     88  O   UNL A   1      45.512  25.877  37.188  1.00  0.00    -0.237 OA
ATOM     89  O   UNL A   1      46.949  27.156  38.730  1.00  0.00    -0.237 OA
ATOM     90  O   UNL A   1      44.519  27.137  39.066  1.00  0.00    -0.744 OA
ENDBRANCH  84  87
ENDBRANCH  56  80
BRANCH  68  91
ATOM     91  C   UNL A   1      38.628  33.262  38.065  1.00  0.00     0.023 A 
ATOM     92  C   UNL A   1      39.026  34.532  38.531  1.00  0.00     0.012 A 
ATOM     93  C   UNL A   1      37.792  32.462  38.869  1.00  0.00     0.148 A 
ATOM     94  C   UNL A   1      38.631  34.980  39.791  1.00  0.00     0.002 A 
ATOM     95  C   UNL A   1      37.356  32.939  40.099  1.00  0.00     0.091 A 
ATOM     96  F   UNL A   1      37.437  31.251  38.415  1.00  0.00    -0.205 F 
ATOM     97  C   UNL A   1      37.788  34.190  40.569  1.00  0.00     0.022 A 
BRANCH  95  98
ATOM     98  S   UNL A   1      36.190  32.035  41.124  1.00  0.00     0.127 S 
ATOM     99  O   UNL A   1      37.010  30.922  41.598  1.00  0.00    -0.237 OA
ATOM    100  O   UNL A   1      35.850  33.023  42.148  1.00  0.00    -0.237 OA
ATOM    101  O   UNL A   1      35.085  31.668  40.249  1.00  0.00    -0.744 OA
ENDBRANCH  95  98
ENDBRANCH  68  91
ENDBRANCH  42  43
ENDBRANCH  34  37
ENDBRANCH  32  33
ENDBRANCH  31  32
ENDBRANCH   1  31
TORSDOF 18
ENDMDL
MODEL 2
REMARK VINA RESULT:     -12.7      3.175      8.465
REMARK SMILES C=CCN1C(=O)/C(=C/c2ccccn2)S/C1=[NH+]\c1ccc(C(=O)NCCCCNC(=O)c2ccc(-c3c4nc(c(-c5cccc(S(=O)(=O)[O-])c5F)c5ccc([nH]5)c(-c5cccc(S(=O)(=O)[O-])c5F)c5nc(c(-c6cccc(S(=O)(=O)[O-])c6F)c6ccc3[nH]6)C=C5)C=C4)cc2)cc1
REMARK SMILES IDX 26 1 25 2 24 3 22 4 23 5 21 7 18 8 19 9 96 10 20 11 95 12
REMARK SMILES IDX 17 13 4 14 5 15 16 16 6 17 7 18 15 19 8 20 3 22 2 23 1 24
REMARK SMILES IDX 9 25 10 26 14 27 11 28 13 29 12 30 27 31 28 32 29 33 30 34
REMARK SMILES IDX 31 36 32 37 33 38 94 39 34 40 93 41 35 42 36 43 37 44 87 45
REMARK SMILES IDX 38 46 92 47 86 48 88 49 39 50 91 51 85 52 84 53 40 55 72 56
REMARK SMILES IDX 52 57 71 58 53 59 56 60 70 61 89 62 54 63 55 64 69 66 90 67
REMARK SMILES IDX 57 68 41 69 42 70 50 71 43 72 45 73 51 74 44 75 46 76 47 77
REMARK SMILES IDX 48 78 49 79 73 80 74 81 82 82 75 83 77 84 83 85 76 86 78 87
REMARK SMILES IDX 79 88 80 89 81 90 58 91 59 92 67 93 60 94 62 95 68 96 61 97
REMARK SMILES IDX 63 98 64 99 65 100 66 101
REMARK H PARENT 24 6 17 21 29 35 88 54 56 65
REMARK Flexibility Score: inf
ROOT
ATOM      1  C   UNL A   1      34.486  33.002  29.103  1.00  0.00     0.023 C 
ENDROOT
BRANCH   1   2
ATOM      2  C   UNL A   1      35.179  32.550  27.815  1.00  0.00     0.116 C 
BRANCH   2   3
ATOM      3  N   UNL A   1      36.145  31.506  28.095  1.00  0.00    -0.352 N 
ATOM      4  C   UNL A   1      36.096  30.145  27.930  1.00  0.00     0.251 C 
ATOM      5  O   UNL A   1      37.099  29.489  28.212  1.00  0.00    -0.269 OA
ATOM      6  H   UNL A   1      36.994  31.834  28.473  1.00  0.00     0.163 HD
BRANCH   4   7
ATOM      7  C   UNL A   1      34.911  29.437  27.370  1.00  0.00     0.040 A 
ATOM      8  C   UNL A   1      32.717  28.174  26.127  1.00  0.00     0.125 A 
ATOM      9  C   UNL A   1      33.898  28.385  25.418  1.00  0.00     0.052 A 
ATOM     10  C   UNL A   1      32.672  28.516  27.482  1.00  0.00     0.052 A 
ATOM     11  C   UNL A   1      34.985  29.017  26.033  1.00  0.00     0.018 A 
ATOM     12  C   UNL A   1      33.763  29.129  28.102  1.00  0.00     0.018 A 
BRANCH   8  13
ATOM     13  N   UNL A   1      31.618  27.557  25.521  1.00  0.00    -0.234 N 
ATOM     14  N   UNL A   1      30.723  25.776  24.308  1.00  0.00    -0.182 N 
ATOM     15  C   UNL A   1      31.001  24.557  23.726  1.00  0.00     0.349 C 
ATOM     16  C   UNL A   1      31.735  26.372  25.014  1.00  0.00     0.324 C 
ATOM     17  O   UNL A   1      30.231  23.877  23.056  1.00  0.00    -0.240 OA
ATOM     18  C   UNL A   1      32.392  24.145  24.050  1.00  0.00     0.111 C 
ATOM     19  S   UNL A   1      33.126  25.312  25.078  1.00  0.00     0.007 SA
ATOM     20  C   UNL A   1      32.942  23.025  23.561  1.00  0.00     0.052 C 
ATOM     21  H   UNL A   1      30.752  28.025  25.479  1.00  0.00     0.313 HD
BRANCH  14  22
ATOM     22  C   UNL A   1      29.424  26.398  24.150  1.00  0.00     0.275 C 
BRANCH  22  23
ATOM     23  C   UNL A   1      29.464  27.342  22.982  1.00  0.00     0.011 C 
ATOM     24  C   UNL A   1      29.317  28.670  23.081  1.00  0.00     0.008 C 
ENDBRANCH  22  23
ENDBRANCH  14  22
BRANCH  20  25
ATOM     25  C   UNL A   1      34.287  22.539  23.867  1.00  0.00     0.064 A 
ATOM     26  C   UNL A   1      35.412  23.079  23.251  1.00  0.00     0.028 A 
ATOM     27  N   UNL A   1      34.356  21.570  24.806  1.00  0.00    -0.257 NA
ATOM     28  C   UNL A   1      36.664  22.569  23.576  1.00  0.00     0.004 A 
ATOM     29  C   UNL A   1      35.586  21.088  25.096  1.00  0.00     0.111 A 
ATOM     30  C   UNL A   1      36.755  21.546  24.512  1.00  0.00     0.020 A 
ENDBRANCH  20  25
ENDBRANCH   8  13
ENDBRANCH   4   7
ENDBRANCH   2   3
ENDBRANCH   1   2
BRANCH   1  31
ATOM     31  C   UNL A   1      33.409  34.069  28.890  1.00  0.00     0.023 C 
BRANCH  31  32
ATOM     32  C   UNL A   1      33.704  35.415  29.541  1.00  0.00     0.116 C 
BRANCH  32  33
ATOM     33  N   UNL A   1      32.721  35.792  30.547  1.00  0.00    -0.352 N 
ATOM     34  C   UNL A   1      32.756  35.564  31.901  1.00  0.00     0.251 C 
ATOM     35  H   UNL A   1      31.928  36.271  30.213  1.00  0.00     0.163 HD
ATOM     36  O   UNL A   1      31.785  35.839  32.599  1.00  0.00    -0.269 OA
BRANCH  34  37
ATOM     37  C   UNL A   1      33.962  34.955  32.498  1.00  0.00     0.039 A 
ATOM     38  C   UNL A   1      33.855  33.702  33.103  1.00  0.00     0.014 A 
ATOM     39  C   UNL A   1      35.197  35.603  32.422  1.00  0.00     0.014 A 
ATOM     40  C   UNL A   1      35.005  33.070  33.581  1.00  0.00     0.010 A 
ATOM     41  C   UNL A   1      36.350  34.937  32.825  1.00  0.00     0.010 A 
ATOM     42  C   UNL A   1      36.265  33.667  33.415  1.00  0.00    -0.014 A 
BRANCH  42  43
ATOM     43  C   UNL A   1      37.505  32.972  33.843  1.00  0.00     0.031 A 
ATOM     44  C   UNL A   1      38.052  31.827  33.035  1.00  0.00     0.074 A 
ATOM     45  C   UNL A   1      38.099  33.326  35.001  1.00  0.00     0.049 A 
ATOM     46  N   UNL A   1      39.104  31.085  33.267  1.00  0.00    -0.248 NA
ATOM     47  C   UNL A   1      37.309  31.449  31.822  1.00  0.00     0.031 C 
ATOM     48  C   UNL A   1      37.619  34.367  35.914  1.00  0.00     0.029 A 
ATOM     49  N   UNL A   1      39.223  32.837  35.618  1.00  0.00    -0.354 N 
ATOM     50  C   UNL A   1      39.131  30.136  32.251  1.00  0.00     0.074 A 
ATOM     51  C   UNL A   1      37.968  30.370  31.424  1.00  0.00     0.031 C 
ATOM     52  C   UNL A   1      38.450  34.447  36.966  1.00  0.00     0.029 A 
ATOM     53  C   UNL A   1      39.500  33.444  36.821  1.00  0.00     0.049 A 
ATOM     54  H   UNL A   1      39.778  32.119  35.236  1.00  0.00     0.167 HD
ATOM     55  C   UNL A   1      40.056  29.178  32.008  1.00  0.00     0.034 A 
ATOM     56  C   UNL A   1      40.486  33.215  37.711  1.00  0.00     0.034 A 
ATOM     57  C   UNL A   1      41.228  28.968  32.815  1.00  0.00     0.049 A 
ATOM     58  C   UNL A   1      41.515  32.160  37.404  1.00  0.00     0.074 A 
ATOM     59  C   UNL A   1      42.266  28.077  32.609  1.00  0.00     0.029 A 
ATOM     60  N   UNL A   1      41.513  29.649  33.989  1.00  0.00    -0.354 N 
ATOM     61  N   UNL A   1      41.607  31.377  36.356  1.00  0.00    -0.248 NA
ATOM     62  C   UNL A   1      42.595  31.983  38.384  1.00  0.00     0.031 C 
ATOM     63  C   UNL A   1      43.161  28.196  33.676  1.00  0.00     0.029 A 
ATOM     64  C   UNL A   1      42.704  29.190  34.525  1.00  0.00     0.049 A 
ATOM     65  H   UNL A   1      40.951  30.356  34.382  1.00  0.00     0.167 HD
ATOM     66  C   UNL A   1      42.776  30.643  36.531  1.00  0.00     0.074 A 
ATOM     67  C   UNL A   1      43.366  31.092  37.775  1.00  0.00     0.031 C 
ATOM     68  C   UNL A   1      43.305  29.679  35.739  1.00  0.00     0.034 A 
BRANCH  55  69
ATOM     69  C   UNL A   1      39.861  28.309  30.791  1.00  0.00     0.023 A 
ATOM     70  C   UNL A   1      38.981  27.209  30.852  1.00  0.00     0.012 A 
ATOM     71  C   UNL A   1      40.503  28.611  29.575  1.00  0.00     0.148 A 
ATOM     72  C   UNL A   1      38.773  26.400  29.736  1.00  0.00     0.002 A 
ATOM     73  C   UNL A   1      40.254  27.830  28.453  1.00  0.00     0.091 A 
ATOM     74  F   UNL A   1      41.351  29.649  29.539  1.00  0.00    -0.205 F 
ATOM     75  C   UNL A   1      39.401  26.717  28.535  1.00  0.00     0.022 A 
BRANCH  73  76
ATOM     76  S   UNL A   1      40.946  28.200  26.838  1.00  0.00     0.127 S 
ATOM     77  O   UNL A   1      42.325  28.546  27.181  1.00  0.00    -0.237 OA
ATOM     78  O   UNL A   1      40.794  26.924  26.139  1.00  0.00    -0.237 OA
ATOM     79  O   UNL A   1      40.147  29.290  26.296  1.00  0.00    -0.744 OA
ENDBRANCH  73  76
ENDBRANCH  55  69
BRANCH  56  80
ATOM     80  C   UNL A   1      40.584  34.040  38.948  1.00  0.00     0.023 A 
ATOM     81  C   UNL A   1      41.512  35.098  39.004  1.00  0.00     0.012 A 
ATOM     82  C   UNL A   1      39.755  33.794  40.059  1.00  0.00     0.148 A 
ATOM     83  C   UNL A   1      41.641  35.872  40.158  1.00  0.00     0.002 A 
ATOM     84  C   UNL A   1      39.848  34.605  41.185  1.00  0.00     0.091 A 
ATOM     85  F   UNL A   1      38.884  32.778  39.989  1.00  0.00    -0.205 F 
ATOM     86  C   UNL A   1      40.803  35.632  41.244  1.00  0.00     0.022 A 
BRANCH  84  87
ATOM     87  S   UNL A   1      38.726  34.453  42.578  1.00  0.00     0.127 S 
ATOM     88  O   UNL A   1      38.872  33.043  42.927  1.00  0.00    -0.237 OA
ATOM     89  O   UNL A   1      39.310  35.391  43.537  1.00  0.00    -0.237 OA
ATOM     90  O   UNL A   1      37.417  34.847  42.074  1.00  0.00    -0.744 OA
ENDBRANCH  84  87
ENDBRANCH  56  80
BRANCH  68  91
ATOM     91  C   UNL A   1      44.617  29.069  36.164  1.00  0.00     0.023 A 
ATOM     92  C   UNL A   1      45.831  29.702  35.832  1.00  0.00     0.012 A 
ATOM     93  C   UNL A   1      44.639  27.901  36.951  1.00  0.00     0.148 A 
ATOM     94  C   UNL A   1      47.048  29.159  36.242  1.00  0.00     0.002 A 
ATOM     95  C   UNL A   1      45.853  27.397  37.404  1.00  0.00     0.091 A 
ATOM     96  F   UNL A   1      43.474  27.305  37.244  1.00  0.00    -0.205 F 
ATOM     97  C   UNL A   1      47.059  28.015  37.036  1.00  0.00     0.022 A 
BRANCH  95  98
ATOM     98  S   UNL A   1      45.958  25.988  38.513  1.00  0.00     0.127 S 
ATOM     99  O   UNL A   1      45.386  24.920  37.694  1.00  0.00    -0.237 OA
ATOM    100  O   UNL A   1      47.399  25.880  38.739  1.00  0.00    -0.237 OA
ATOM    101  O   UNL A   1      45.187  26.348  39.695  1.00  0.00    -0.744 OA
ENDBRANCH  95  98
ENDBRANCH  68  91
ENDBRANCH  42  43
ENDBRANCH  34  37
ENDBRANCH  32  33
ENDBRANCH  31  32
ENDBRANCH   1  31
TORSDOF 18
ENDMDL
MODEL 3
REMARK VINA RESULT:     -12.4      3.551      9.048
REMARK SMILES C=CCN1C(=O)/C(=C/c2ccccn2)S/C1=[NH+]\c1ccc(C(=O)NCCCCNC(=O)c2ccc(-c3c4nc(c(-c5cccc(S(=O)(=O)[O-])c5F)c5ccc([nH]5)c(-c5cccc(S(=O)(=O)[O-])c5F)c5nc(c(-c6cccc(S(=O)(=O)[O-])c6F)c6ccc3[nH]6)C=C5)C=C4)cc2)cc1
REMARK SMILES IDX 26 1 25 2 24 3 22 4 23 5 21 7 18 8 19 9 96 10 20 11 95 12
REMARK SMILES IDX 17 13 4 14 5 15 16 16 6 17 7 18 15 19 8 20 3 22 2 23 1 24
REMARK SMILES IDX 9 25 10 26 14 27 11 28 13 29 12 30 27 31 28 32 29 33 30 34
REMARK SMILES IDX 31 36 32 37 33 38 94 39 34 40 93 41 35 42 36 43 37 44 87 45
REMARK SMILES IDX 38 46 92 47 86 48 88 49 39 50 91 51 85 52 84 53 40 55 72 56
REMARK SMILES IDX 52 57 71 58 53 59 56 60 70 61 89 62 54 63 55 64 69 66 90 67
REMARK SMILES IDX 57 68 41 69 42 70 50 71 43 72 45 73 51 74 44 75 46 76 47 77
REMARK SMILES IDX 48 78 49 79 73 80 74 81 82 82 75 83 77 84 83 85 76 86 78 87
REMARK SMILES IDX 79 88 80 89 81 90 58 91 59 92 67 93 60 94 62 95 68 96 61 97
REMARK SMILES IDX 63 98 64 99 65 100 66 101
REMARK H PARENT 24 6 17 21 29 35 88 54 56 65
REMARK Flexibility Score: inf
ROOT
ATOM      1  C   UNL A   1      34.685  33.758  28.982  1.00  0.00     0.023 C 
ENDROOT
BRANCH   1   2
ATOM      2  C   UNL A   1      34.780  32.852  27.752  1.00  0.00     0.116 C 
BRANCH   2   3
ATOM      3  N   UNL A   1      35.791  31.832  27.947  1.00  0.00    -0.352 N 
ATOM      4  C   UNL A   1      35.774  30.475  27.742  1.00  0.00     0.251 C 
ATOM      5  O   UNL A   1      36.809  29.843  27.950  1.00  0.00    -0.269 OA
ATOM      6  H   UNL A   1      36.648  32.175  28.290  1.00  0.00     0.163 HD
BRANCH   4   7
ATOM      7  C   UNL A   1      34.581  29.748  27.223  1.00  0.00     0.040 A 
ATOM      8  C   UNL A   1      32.434  28.327  26.074  1.00  0.00     0.125 A 
ATOM      9  C   UNL A   1      33.748  27.953  25.798  1.00  0.00     0.052 A 
ATOM     10  C   UNL A   1      32.202  29.353  26.994  1.00  0.00     0.052 A 
ATOM     11  C   UNL A   1      34.815  28.662  26.364  1.00  0.00     0.018 A 
ATOM     12  C   UNL A   1      33.265  30.048  27.574  1.00  0.00     0.018 A 
BRANCH   8  13
ATOM     13  N   UNL A   1      31.359  27.637  25.503  1.00  0.00    -0.234 N 
ATOM     14  N   UNL A   1      30.545  25.799  24.318  1.00  0.00    -0.182 N 
ATOM     15  C   UNL A   1      30.885  24.602  23.724  1.00  0.00     0.349 C 
ATOM     16  C   UNL A   1      31.539  26.463  24.991  1.00  0.00     0.324 C 
ATOM     17  O   UNL A   1      30.141  23.872  23.079  1.00  0.00    -0.240 OA
ATOM     18  C   UNL A   1      32.312  24.284  24.000  1.00  0.00     0.111 C 
ATOM     19  S   UNL A   1      32.999  25.499  25.005  1.00  0.00     0.007 SA
ATOM     20  C   UNL A   1      32.919  23.204  23.490  1.00  0.00     0.052 C 
ATOM     21  H   UNL A   1      30.463  28.045  25.492  1.00  0.00     0.313 HD
BRANCH  14  22
ATOM     22  C   UNL A   1      29.204  26.332  24.205  1.00  0.00     0.275 C 
BRANCH  22  23
ATOM     23  C   UNL A   1      29.175  27.385  23.133  1.00  0.00     0.011 C 
ATOM     24  C   UNL A   1      28.373  28.458  23.152  1.00  0.00     0.008 C 
ENDBRANCH  22  23
ENDBRANCH  14  22
BRANCH  20  25
ATOM     25  C   UNL A   1      34.302  22.810  23.751  1.00  0.00     0.064 A 
ATOM     26  C   UNL A   1      34.626  21.932  24.781  1.00  0.00     0.028 A 
ATOM     27  N   UNL A   1      35.223  23.325  22.906  1.00  0.00    -0.257 NA
ATOM     28  C   UNL A   1      35.961  21.602  24.986  1.00  0.00     0.004 A 
ATOM     29  C   UNL A   1      36.514  22.993  23.136  1.00  0.00     0.111 A 
ATOM     30  C   UNL A   1      36.929  22.149  24.153  1.00  0.00     0.020 A 
ENDBRANCH  20  25
ENDBRANCH   8  13
ENDBRANCH   4   7
ENDBRANCH   2   3
ENDBRANCH   1   2
BRANCH   1  31
ATOM     31  C   UNL A   1      33.362  34.520  29.095  1.00  0.00     0.023 C 
BRANCH  31  32
ATOM     32  C   UNL A   1      33.470  35.901  29.730  1.00  0.00     0.116 C 
BRANCH  32  33
ATOM     33  N   UNL A   1      32.513  36.111  30.807  1.00  0.00    -0.352 N 
ATOM     34  C   UNL A   1      32.589  35.684  32.111  1.00  0.00     0.251 C 
ATOM     35  H   UNL A   1      31.708  36.627  30.571  1.00  0.00     0.163 HD
ATOM     36  O   UNL A   1      31.636  35.840  32.868  1.00  0.00    -0.269 OA
BRANCH  34  37
ATOM     37  C   UNL A   1      33.815  35.005  32.576  1.00  0.00     0.039 A 
ATOM     38  C   UNL A   1      33.739  33.668  32.969  1.00  0.00     0.014 A 
ATOM     39  C   UNL A   1      35.040  35.677  32.584  1.00  0.00     0.014 A 
ATOM     40  C   UNL A   1      34.907  32.986  33.314  1.00  0.00     0.010 A 
ATOM     41  C   UNL A   1      36.210  34.974  32.849  1.00  0.00     0.010 A 
ATOM     42  C   UNL A   1      36.155  33.623  33.224  1.00  0.00    -0.014 A 
BRANCH  42  43
ATOM     43  C   UNL A   1      37.414  32.888  33.509  1.00  0.00     0.031 A 
ATOM     44  C   UNL A   1      38.153  33.120  34.798  1.00  0.00     0.074 A 
ATOM     45  C   UNL A   1      37.928  32.065  32.573  1.00  0.00     0.049 A 
ATOM     46  N   UNL A   1      39.277  32.592  35.208  1.00  0.00    -0.248 NA
ATOM     47  C   UNL A   1      37.569  34.089  35.740  1.00  0.00     0.031 C 
ATOM     48  C   UNL A   1      37.347  31.818  31.251  1.00  0.00     0.029 A 
ATOM     49  N   UNL A   1      39.066  31.298  32.582  1.00  0.00    -0.354 N 
ATOM     50  C   UNL A   1      39.551  33.184  36.435  1.00  0.00     0.074 A 
ATOM     51  C   UNL A   1      38.496  34.142  36.685  1.00  0.00     0.031 C 
ATOM     52  C   UNL A   1      38.124  30.951  30.582  1.00  0.00     0.029 A 
ATOM     53  C   UNL A   1      39.273  30.605  31.412  1.00  0.00     0.049 A 
ATOM     54  H   UNL A   1      39.677  31.249  33.353  1.00  0.00     0.167 HD
ATOM     55  C   UNL A   1      40.567  32.933  37.293  1.00  0.00     0.034 A 
ATOM     56  C   UNL A   1      40.280  29.787  31.046  1.00  0.00     0.034 A 
ATOM     57  C   UNL A   1      41.597  31.957  37.055  1.00  0.00     0.049 A 
ATOM     58  C   UNL A   1      41.385  29.505  32.028  1.00  0.00     0.074 A 
ATOM     59  C   UNL A   1      42.626  31.570  37.895  1.00  0.00     0.029 A 
ATOM     60  N   UNL A   1      41.736  31.222  35.887  1.00  0.00    -0.354 N 
ATOM     61  N   UNL A   1      41.541  29.960  33.247  1.00  0.00    -0.248 NA
ATOM     62  C   UNL A   1      42.433  28.569  31.596  1.00  0.00     0.031 C 
ATOM     63  C   UNL A   1      43.407  30.626  37.221  1.00  0.00     0.029 A 
ATOM     64  C   UNL A   1      42.840  30.392  35.979  1.00  0.00     0.049 A 
ATOM     65  H   UNL A   1      41.137  31.280  35.108  1.00  0.00     0.167 HD
ATOM     66  C   UNL A   1      42.681  29.335  33.744  1.00  0.00     0.074 A 
ATOM     67  C   UNL A   1      43.161  28.455  32.699  1.00  0.00     0.031 C 
ATOM     68  C   UNL A   1      43.280  29.486  34.950  1.00  0.00     0.034 A 
BRANCH  55  69
ATOM     69  C   UNL A   1      40.592  33.695  38.593  1.00  0.00     0.023 A 
ATOM     70  C   UNL A   1      39.985  33.141  39.739  1.00  0.00     0.012 A 
ATOM     71  C   UNL A   1      41.260  34.931  38.696  1.00  0.00     0.148 A 
ATOM     72  C   UNL A   1      40.008  33.821  40.956  1.00  0.00     0.002 A 
ATOM     73  C   UNL A   1      41.321  35.579  39.924  1.00  0.00     0.091 A 
ATOM     74  F   UNL A   1      41.815  35.452  37.593  1.00  0.00    -0.205 F 
ATOM     75  C   UNL A   1      40.684  35.033  41.051  1.00  0.00     0.022 A 
BRANCH  73  76
ATOM     76  S   UNL A   1      42.237  37.104  40.173  1.00  0.00     0.127 S 
ATOM     77  O   UNL A   1      42.208  37.230  41.630  1.00  0.00    -0.237 OA
ATOM     78  O   UNL A   1      43.547  36.770  39.615  1.00  0.00    -0.237 OA
ATOM     79  O   UNL A   1      41.509  38.135  39.445  1.00  0.00    -0.744 OA
ENDBRANCH  73  76
ENDBRANCH  55  69
BRANCH  56  80
ATOM     80  C   UNL A   1      40.259  29.127  29.710  1.00  0.00     0.023 A 
ATOM     81  C   UNL A   1      40.567  29.880  28.559  1.00  0.00     0.012 A 
ATOM     82  C   UNL A   1      39.954  27.759  29.574  1.00  0.00     0.148 A 
ATOM     83  C   UNL A   1      40.534  29.292  27.294  1.00  0.00     0.002 A 
ATOM     84  C   UNL A   1      39.978  27.167  28.316  1.00  0.00     0.091 A 
ATOM     85  F   UNL A   1      39.656  27.062  30.679  1.00  0.00    -0.205 F 
ATOM     86  C   UNL A   1      40.248  27.935  27.173  1.00  0.00     0.022 A 
BRANCH  84  87
ATOM     87  S   UNL A   1      39.751  25.401  28.077  1.00  0.00     0.127 S 
ATOM     88  O   UNL A   1      38.597  25.130  28.931  1.00  0.00    -0.237 OA
ATOM     89  O   UNL A   1      39.487  25.325  26.641  1.00  0.00    -0.237 OA
ATOM     90  O   UNL A   1      41.003  24.784  28.492  1.00  0.00    -0.744 OA
ENDBRANCH  84  87
ENDBRANCH  56  80
BRANCH  68  91
ATOM     91  C   UNL A   1      44.500  28.646  35.233  1.00  0.00     0.023 A 
ATOM     92  C   UNL A   1      45.787  29.160  34.975  1.00  0.00     0.012 A 
ATOM     93  C   UNL A   1      44.370  27.370  35.816  1.00  0.00     0.148 A 
ATOM     94  C   UNL A   1      46.922  28.401  35.257  1.00  0.00     0.002 A 
ATOM     95  C   UNL A   1      45.507  26.643  36.145  1.00  0.00     0.091 A 
ATOM     96  F   UNL A   1      43.137  26.892  36.039  1.00  0.00    -0.205 F 
ATOM     97  C   UNL A   1      46.784  27.149  35.852  1.00  0.00     0.022 A 
BRANCH  95  98
ATOM     98  S   UNL A   1      45.427  25.067  37.004  1.00  0.00     0.127 S 
ATOM     99  O   UNL A   1      44.659  25.417  38.198  1.00  0.00    -0.237 OA
ATOM    100  O   UNL A   1      44.713  24.227  36.043  1.00  0.00    -0.237 OA
ATOM    101  O   UNL A   1      46.808  24.670  37.245  1.00  0.00    -0.744 OA
ENDBRANCH  95  98
ENDBRANCH  68  91
ENDBRANCH  42  43
ENDBRANCH  34  37
ENDBRANCH  32  33
ENDBRANCH  31  32
ENDBRANCH   1  31
TORSDOF 18
ENDMDL
