MODEL 1
REMARK VINA RESULT:     -12.2      0.000      0.000
REMARK SMILES C[N@H+]1CCO[C@H](CNC(=O)N2CC[C@@](C)(C(=O)NCCCCNC(=O)c3ccc(-c4c5nc(c(-c6cccc(S(=O)(=O)[O-])c6F)c6ccc([nH]6)c(-c6cccc(S(=O)(=O)[O-])c6F)c6nc(c(-c7cccc(S(=O)(=O)[O-])c7F)c7ccc4[nH]7)C=C6)C=C5)cc3)C2)C1
REMARK SMILES IDX 20 1 19 2 18 3 16 4 17 5 14 7 11 8 12 9 89 10 13 11 15 12
REMARK SMILES IDX 9 13 8 14 10 16 7 17 6 18 1 19 2 20 3 21 90 22 4 24 5 25
REMARK SMILES IDX 21 26 22 27 23 28 24 29 25 31 26 32 27 33 88 34 28 35 87 36
REMARK SMILES IDX 29 37 30 38 31 39 81 40 32 41 86 42 80 43 82 44 33 45 85 46
REMARK SMILES IDX 79 47 78 48 34 50 66 51 46 52 65 53 47 54 50 55 64 56 83 57
REMARK SMILES IDX 48 58 49 59 63 61 84 62 51 63 35 64 36 65 44 66 37 67 39 68
REMARK SMILES IDX 45 69 38 70 40 71 41 72 42 73 43 74 67 75 68 76 76 77 69 78
REMARK SMILES IDX 71 79 77 80 70 81 72 82 73 83 74 84 75 85 52 86 53 87 61 88
REMARK SMILES IDX 54 89 56 90 62 91 55 92 57 93 58 94 59 95 60 96
REMARK H PARENT 18 6 8 15 2 23 23 30 82 49 50 60
REMARK Flexibility Score: inf
ROOT
ATOM      1  C   UNL A   1      31.856  28.232  27.158  1.00  0.00     0.023 C 
ENDROOT
BRANCH   1   2
ATOM      2  C   UNL A   1      31.184  27.204  26.246  1.00  0.00     0.116 C 
BRANCH   2   3
ATOM      3  N   UNL A   1      31.088  25.913  26.900  1.00  0.00    -0.356 N 
ATOM      4  C   UNL A   1      31.551  24.682  26.544  1.00  0.00     0.227 C 
ATOM      5  O   UNL A   1      31.243  23.744  27.285  1.00  0.00    -0.274 OA
ATOM      6  H   UNL A   1      30.599  25.929  27.755  1.00  0.00     0.163 HD
BRANCH   4   7
ATOM      7  C   UNL A   1      32.457  24.478  25.316  1.00  0.00     0.066 C 
ATOM      8  N   UNL A   1      32.034  22.445  24.092  1.00  0.00    -0.324 N 
ATOM      9  C   UNL A   1      31.070  23.422  23.629  1.00  0.00     0.122 C 
ATOM     10  C   UNL A   1      32.815  22.981  25.201  1.00  0.00     0.138 C 
ATOM     11  C   UNL A   1      31.674  24.758  24.009  1.00  0.00     0.040 C 
ATOM     12  C   UNL A   1      33.674  25.410  25.336  1.00  0.00     0.024 C 
BRANCH   8  13
ATOM     13  C   UNL A   1      32.327  21.351  23.331  1.00  0.00     0.317 C 
ATOM     14  N   UNL A   1      33.105  20.362  23.830  1.00  0.00    -0.335 N 
ATOM     15  H   UNL A   1      33.633  19.868  23.161  1.00  0.00     0.165 HD
ATOM     16  O   UNL A   1      31.911  21.220  22.179  1.00  0.00    -0.249 OA
BRANCH  14  17
ATOM     17  C   UNL A   1      33.277  19.920  25.203  1.00  0.00     0.155 C 
BRANCH  17  18
ATOM     18  C   UNL A   1      33.425  18.387  25.392  1.00  0.00     0.192 C 
ATOM     19  C   UNL A   1      35.441  16.005  25.405  1.00  0.00     0.332 C 
ATOM     20  N   UNL A   1      34.469  16.324  24.358  1.00  0.00    -0.333 N 
ATOM     21  C   UNL A   1      33.170  15.660  24.604  1.00  0.00     0.290 C 
ATOM     22  C   UNL A   1      34.242  17.778  24.232  1.00  0.00     0.296 C 
ATOM     23  H   UNL A   1      34.872  15.977  23.488  1.00  0.00     0.348 HD
ATOM     24  C   UNL A   1      32.317  16.322  25.705  1.00  0.00     0.222 C 
ATOM     25  O   UNL A   1      32.150  17.729  25.482  1.00  0.00    -0.365 OA
ENDBRANCH  17  18
ENDBRANCH  14  17
ENDBRANCH   8  13
ENDBRANCH   4   7
ENDBRANCH   2   3
ENDBRANCH   1   2
BRANCH   1  26
ATOM     26  C   UNL A   1      31.778  29.673  26.644  1.00  0.00     0.023 C 
BRANCH  26  27
ATOM     27  C   UNL A   1      33.117  30.394  26.524  1.00  0.00     0.116 C 
BRANCH  27  28
ATOM     28  N   UNL A   1      33.041  31.797  26.899  1.00  0.00    -0.352 N 
ATOM     29  C   UNL A   1      33.856  32.510  27.743  1.00  0.00     0.251 C 
ATOM     30  H   UNL A   1      32.302  32.306  26.492  1.00  0.00     0.163 HD
ATOM     31  O   UNL A   1      33.553  33.665  28.044  1.00  0.00    -0.269 OA
BRANCH  29  32
ATOM     32  C   UNL A   1      35.073  31.889  28.306  1.00  0.00     0.039 A 
ATOM     33  C   UNL A   1      36.261  32.626  28.309  1.00  0.00     0.014 A 
ATOM     34  C   UNL A   1      35.056  30.590  28.822  1.00  0.00     0.014 A 
ATOM     35  C   UNL A   1      37.415  32.076  28.867  1.00  0.00     0.010 A 
ATOM     36  C   UNL A   1      36.187  30.076  29.452  1.00  0.00     0.010 A 
ATOM     37  C   UNL A   1      37.384  30.806  29.468  1.00  0.00    -0.014 A 
BRANCH  37  38
ATOM     38  C   UNL A   1      38.599  30.241  30.112  1.00  0.00     0.031 A 
ATOM     39  C   UNL A   1      39.026  30.701  31.481  1.00  0.00     0.074 A 
ATOM     40  C   UNL A   1      39.348  29.345  29.441  1.00  0.00     0.049 A 
ATOM     41  N   UNL A   1      40.043  30.304  32.202  1.00  0.00    -0.248 NA
ATOM     42  C   UNL A   1      38.227  31.764  32.113  1.00  0.00     0.031 C 
ATOM     43  C   UNL A   1      39.096  28.891  28.072  1.00  0.00     0.029 A 
ATOM     44  N   UNL A   1      40.483  28.668  29.811  1.00  0.00    -0.354 N 
ATOM     45  C   UNL A   1      40.019  31.078  33.356  1.00  0.00     0.074 A 
ATOM     46  C   UNL A   1      38.916  32.004  33.217  1.00  0.00     0.031 C 
ATOM     47  C   UNL A   1      40.040  28.002  27.723  1.00  0.00     0.029 A 
ATOM     48  C   UNL A   1      40.979  27.843  28.829  1.00  0.00     0.049 A 
ATOM     49  H   UNL A   1      40.905  28.766  30.696  1.00  0.00     0.167 HD
ATOM     50  C   UNL A   1      40.815  31.003  34.449  1.00  0.00     0.034 A 
ATOM     51  C   UNL A   1      42.066  27.048  28.818  1.00  0.00     0.034 A 
ATOM     52  C   UNL A   1      41.894  30.063  34.594  1.00  0.00     0.049 A 
ATOM     53  C   UNL A   1      42.911  26.947  30.058  1.00  0.00     0.074 A 
ATOM     54  C   UNL A   1      42.712  29.854  35.691  1.00  0.00     0.029 A 
ATOM     55  N   UNL A   1      42.314  29.181  33.609  1.00  0.00    -0.354 N 
ATOM     56  N   UNL A   1      42.775  27.573  31.202  1.00  0.00    -0.248 NA
ATOM     57  C   UNL A   1      44.033  25.999  30.023  1.00  0.00     0.031 C 
ATOM     58  C   UNL A   1      43.647  28.868  35.356  1.00  0.00     0.029 A 
ATOM     59  C   UNL A   1      43.385  28.433  34.068  1.00  0.00     0.049 A 
ATOM     60  H   UNL A   1      41.911  29.101  32.715  1.00  0.00     0.167 HD
ATOM     61  C   UNL A   1      43.768  27.070  32.033  1.00  0.00     0.074 A 
ATOM     62  C   UNL A   1      44.487  26.072  31.267  1.00  0.00     0.031 C 
ATOM     63  C   UNL A   1      44.064  27.411  33.311  1.00  0.00     0.034 A 
BRANCH  50  64
ATOM     64  C   UNL A   1      40.514  31.932  35.598  1.00  0.00     0.023 A 
ATOM     65  C   UNL A   1      41.364  33.031  35.845  1.00  0.00     0.012 A 
ATOM     66  C   UNL A   1      39.373  31.751  36.403  1.00  0.00     0.148 A 
ATOM     67  C   UNL A   1      41.109  33.908  36.898  1.00  0.00     0.002 A 
ATOM     68  C   UNL A   1      39.098  32.657  37.421  1.00  0.00     0.091 A 
ATOM     69  F   UNL A   1      38.585  30.692  36.168  1.00  0.00    -0.205 F 
ATOM     70  C   UNL A   1      39.972  33.726  37.680  1.00  0.00     0.022 A 
BRANCH  68  71
ATOM     71  S   UNL A   1      37.617  32.560  38.433  1.00  0.00     0.127 S 
ATOM     72  O   UNL A   1      36.573  32.869  37.456  1.00  0.00    -0.237 OA
ATOM     73  O   UNL A   1      37.641  31.167  38.879  1.00  0.00    -0.237 OA
ATOM     74  O   UNL A   1      37.789  33.542  39.494  1.00  0.00    -0.744 OA
ENDBRANCH  68  71
ENDBRANCH  50  64
BRANCH  51  75
ATOM     75  C   UNL A   1      42.377  26.240  27.604  1.00  0.00     0.023 A 
ATOM     76  C   UNL A   1      43.131  26.808  26.559  1.00  0.00     0.012 A 
ATOM     77  C   UNL A   1      41.964  24.898  27.503  1.00  0.00     0.148 A 
ATOM     78  C   UNL A   1      43.439  26.063  25.420  1.00  0.00     0.002 A 
ATOM     79  C   UNL A   1      42.325  24.144  26.394  1.00  0.00     0.091 A 
ATOM     80  F   UNL A   1      41.241  24.381  28.507  1.00  0.00    -0.205 F 
ATOM     81  C   UNL A   1      43.046  24.729  25.342  1.00  0.00     0.022 A 
BRANCH  79  82
ATOM     82  S   UNL A   1      41.983  22.385  26.273  1.00  0.00     0.127 S 
ATOM     83  O   UNL A   1      42.687  22.028  25.043  1.00  0.00    -0.237 OA
ATOM     84  O   UNL A   1      42.591  21.877  27.503  1.00  0.00    -0.237 OA
ATOM     85  O   UNL A   1      40.532  22.268  26.227  1.00  0.00    -0.744 OA
ENDBRANCH  79  82
ENDBRANCH  51  75
BRANCH  63  86
ATOM     86  C   UNL A   1      45.187  26.671  33.991  1.00  0.00     0.023 A 
ATOM     87  C   UNL A   1      46.511  27.143  33.886  1.00  0.00     0.012 A 
ATOM     88  C   UNL A   1      44.916  25.546  34.794  1.00  0.00     0.148 A 
ATOM     89  C   UNL A   1      47.551  26.485  34.541  1.00  0.00     0.002 A 
ATOM     90  C   UNL A   1      45.950  24.927  35.486  1.00  0.00     0.091 A 
ATOM     91  F   UNL A   1      43.653  25.102  34.867  1.00  0.00    -0.205 F 
ATOM     92  C   UNL A   1      47.270  25.387  35.350  1.00  0.00     0.022 A 
BRANCH  90  93
ATOM     93  S   UNL A   1      45.667  23.571  36.629  1.00  0.00     0.127 S 
ATOM     94  O   UNL A   1      47.030  23.246  37.048  1.00  0.00    -0.237 OA
ATOM     95  O   UNL A   1      44.845  24.203  37.662  1.00  0.00    -0.237 OA
ATOM     96  O   UNL A   1      44.986  22.535  35.864  1.00  0.00    -0.744 OA
ENDBRANCH  90  93
ENDBRANCH  63  86
ENDBRANCH  37  38
ENDBRANCH  29  32
ENDBRANCH  27  28
ENDBRANCH  26  27
ENDBRANCH   1  26
TORSDOF 17
ENDMDL
MODEL 2
REMARK VINA RESULT:     -12.2      2.689      8.302
REMARK SMILES C[N@H+]1CCO[C@H](CNC(=O)N2CC[C@@](C)(C(=O)NCCCCNC(=O)c3ccc(-c4c5nc(c(-c6cccc(S(=O)(=O)[O-])c6F)c6ccc([nH]6)c(-c6cccc(S(=O)(=O)[O-])c6F)c6nc(c(-c7cccc(S(=O)(=O)[O-])c7F)c7ccc4[nH]7)C=C6)C=C5)cc3)C2)C1
REMARK SMILES IDX 20 1 19 2 18 3 16 4 17 5 14 7 11 8 12 9 89 10 13 11 15 12
REMARK SMILES IDX 9 13 8 14 10 16 7 17 6 18 1 19 2 20 3 21 90 22 4 24 5 25
REMARK SMILES IDX 21 26 22 27 23 28 24 29 25 31 26 32 27 33 88 34 28 35 87 36
REMARK SMILES IDX 29 37 30 38 31 39 81 40 32 41 86 42 80 43 82 44 33 45 85 46
REMARK SMILES IDX 79 47 78 48 34 50 66 51 46 52 65 53 47 54 50 55 64 56 83 57
REMARK SMILES IDX 48 58 49 59 63 61 84 62 51 63 35 64 36 65 44 66 37 67 39 68
REMARK SMILES IDX 45 69 38 70 40 71 41 72 42 73 43 74 67 75 68 76 76 77 69 78
REMARK SMILES IDX 71 79 77 80 70 81 72 82 73 83 74 84 75 85 52 86 53 87 61 88
REMARK SMILES IDX 54 89 56 90 62 91 55 92 57 93 58 94 59 95 60 96
REMARK H PARENT 18 6 8 15 2 23 23 30 82 49 50 60
REMARK Flexibility Score: inf
ROOT
ATOM      1  C   UNL A   1      31.437  30.967  25.784  1.00  0.00     0.023 C 
ENDROOT
BRANCH   1   2
ATOM      2  C   UNL A   1      32.560  29.930  25.836  1.00  0.00     0.116 C 
BRANCH   2   3
ATOM      3  N   UNL A   1      33.058  29.635  24.505  1.00  0.00    -0.356 N 
ATOM      4  C   UNL A   1      32.708  28.679  23.599  1.00  0.00     0.227 C 
ATOM      5  O   UNL A   1      33.375  28.635  22.562  1.00  0.00    -0.274 OA
ATOM      6  H   UNL A   1      33.779  30.233  24.203  1.00  0.00     0.163 HD
BRANCH   4   7
ATOM      7  C   UNL A   1      31.509  27.741  23.829  1.00  0.00     0.066 C 
ATOM      8  N   UNL A   1      32.071  25.397  23.872  1.00  0.00    -0.324 N 
ATOM      9  C   UNL A   1      32.338  25.918  25.197  1.00  0.00     0.122 C 
ATOM     10  C   UNL A   1      31.691  26.476  22.965  1.00  0.00     0.138 C 
ATOM     11  C   UNL A   1      31.519  27.189  25.277  1.00  0.00     0.040 C 
ATOM     12  C   UNL A   1      30.169  28.455  23.614  1.00  0.00     0.024 C 
BRANCH   8  13
ATOM     13  C   UNL A   1      31.895  24.059  23.679  1.00  0.00     0.317 C 
ATOM     14  N   UNL A   1      32.805  23.345  22.975  1.00  0.00    -0.335 N 
ATOM     15  H   UNL A   1      32.445  22.562  22.499  1.00  0.00     0.165 HD
ATOM     16  O   UNL A   1      30.918  23.452  24.123  1.00  0.00    -0.249 OA
BRANCH  14  17
ATOM     17  C   UNL A   1      34.233  23.562  22.817  1.00  0.00     0.155 C 
BRANCH  17  18
ATOM     18  C   UNL A   1      35.114  23.041  23.983  1.00  0.00     0.192 C 
ATOM     19  C   UNL A   1      37.694  23.569  25.658  1.00  0.00     0.332 C 
ATOM     20  N   UNL A   1      37.513  22.545  24.628  1.00  0.00    -0.333 N 
ATOM     21  C   UNL A   1      36.997  21.283  25.201  1.00  0.00     0.290 C 
ATOM     22  C   UNL A   1      36.597  22.988  23.557  1.00  0.00     0.296 C 
ATOM     23  H   UNL A   1      38.437  22.387  24.226  1.00  0.00     0.348 HD
ATOM     24  C   UNL A   1      35.495  21.310  25.548  1.00  0.00     0.222 C 
ATOM     25  O   UNL A   1      34.695  21.744  24.439  1.00  0.00    -0.365 OA
ENDBRANCH  17  18
ENDBRANCH  14  17
ENDBRANCH   8  13
ENDBRANCH   4   7
ENDBRANCH   2   3
ENDBRANCH   1   2
BRANCH   1  26
ATOM     26  C   UNL A   1      31.409  31.921  26.983  1.00  0.00     0.023 C 
BRANCH  26  27
ATOM     27  C   UNL A   1      32.724  32.637  27.275  1.00  0.00     0.116 C 
BRANCH  27  28
ATOM     28  N   UNL A   1      32.542  34.039  27.617  1.00  0.00    -0.352 N 
ATOM     29  C   UNL A   1      33.185  34.783  28.574  1.00  0.00     0.251 C 
ATOM     30  H   UNL A   1      31.863  34.521  27.091  1.00  0.00     0.163 HD
ATOM     31  O   UNL A   1      32.799  35.929  28.810  1.00  0.00    -0.269 OA
BRANCH  29  32
ATOM     32  C   UNL A   1      34.315  34.207  29.334  1.00  0.00     0.039 A 
ATOM     33  C   UNL A   1      34.037  33.339  30.393  1.00  0.00     0.014 A 
ATOM     34  C   UNL A   1      35.640  34.520  29.017  1.00  0.00     0.014 A 
ATOM     35  C   UNL A   1      35.086  32.755  31.103  1.00  0.00     0.010 A 
ATOM     36  C   UNL A   1      36.684  33.873  29.673  1.00  0.00     0.010 A 
ATOM     37  C   UNL A   1      36.420  32.995  30.734  1.00  0.00    -0.014 A 
BRANCH  37  38
ATOM     38  C   UNL A   1      37.538  32.329  31.453  1.00  0.00     0.031 A 
ATOM     39  C   UNL A   1      38.286  31.186  30.820  1.00  0.00     0.074 A 
ATOM     40  C   UNL A   1      37.850  32.725  32.703  1.00  0.00     0.049 A 
ATOM     41  N   UNL A   1      39.298  30.504  31.292  1.00  0.00    -0.248 NA
ATOM     42  C   UNL A   1      37.823  30.730  29.500  1.00  0.00     0.031 C 
ATOM     43  C   UNL A   1      37.139  33.755  33.464  1.00  0.00     0.029 A 
ATOM     44  N   UNL A   1      38.832  32.299  33.560  1.00  0.00    -0.354 N 
ATOM     45  C   UNL A   1      39.578  29.530  30.341  1.00  0.00     0.074 A 
ATOM     46  C   UNL A   1      38.596  29.676  29.289  1.00  0.00     0.031 C 
ATOM     47  C   UNL A   1      37.716  33.888  34.668  1.00  0.00     0.029 A 
ATOM     48  C   UNL A   1      38.819  32.938  34.777  1.00  0.00     0.049 A 
ATOM     49  H   UNL A   1      39.485  31.599  33.327  1.00  0.00     0.167 HD
ATOM     50  C   UNL A   1      40.581  28.619  30.324  1.00  0.00     0.034 A 
ATOM     51  C   UNL A   1      39.603  32.778  35.861  1.00  0.00     0.034 A 
ATOM     52  C   UNL A   1      41.570  28.495  31.360  1.00  0.00     0.049 A 
ATOM     53  C   UNL A   1      40.738  31.793  35.804  1.00  0.00     0.074 A 
ATOM     54  C   UNL A   1      42.671  27.657  31.403  1.00  0.00     0.029 A 
ATOM     55  N   UNL A   1      41.575  29.219  32.543  1.00  0.00    -0.354 N 
ATOM     56  N   UNL A   1      41.084  30.990  34.827  1.00  0.00    -0.248 NA
ATOM     57  C   UNL A   1      41.617  31.722  36.979  1.00  0.00     0.031 C 
ATOM     58  C   UNL A   1      43.323  27.854  32.625  1.00  0.00     0.029 A 
ATOM     59  C   UNL A   1      42.653  28.843  33.326  1.00  0.00     0.049 A 
ATOM     60  H   UNL A   1      40.908  29.900  32.789  1.00  0.00     0.167 HD
ATOM     61  C   UNL A   1      42.238  30.346  35.253  1.00  0.00     0.074 A 
ATOM     62  C   UNL A   1      42.545  30.867  36.569  1.00  0.00     0.031 C 
ATOM     63  C   UNL A   1      42.973  29.401  34.615  1.00  0.00     0.034 A 
BRANCH  50  64
ATOM     64  C   UNL A   1      40.687  27.720  29.118  1.00  0.00     0.023 A 
ATOM     65  C   UNL A   1      39.848  26.588  29.019  1.00  0.00     0.012 A 
ATOM     66  C   UNL A   1      41.575  28.011  28.066  1.00  0.00     0.148 A 
ATOM     67  C   UNL A   1      39.923  25.740  27.915  1.00  0.00     0.002 A 
ATOM     68  C   UNL A   1      41.610  27.188  26.946  1.00  0.00     0.091 A 
ATOM     69  F   UNL A   1      42.378  29.078  28.183  1.00  0.00    -0.205 F 
ATOM     70  C   UNL A   1      40.796  26.045  26.876  1.00  0.00     0.022 A 
BRANCH  68  71
ATOM     71  S   UNL A   1      42.640  27.537  25.517  1.00  0.00     0.127 S 
ATOM     72  O   UNL A   1      42.386  26.366  24.677  1.00  0.00    -0.237 OA
ATOM     73  O   UNL A   1      42.059  28.783  25.016  1.00  0.00    -0.237 OA
ATOM     74  O   UNL A   1      44.000  27.660  26.021  1.00  0.00    -0.744 OA
ENDBRANCH  68  71
ENDBRANCH  50  64
BRANCH  51  75
ATOM     75  C   UNL A   1      39.372  33.619  37.070  1.00  0.00     0.023 A 
ATOM     76  C   UNL A   1      39.808  34.958  37.086  1.00  0.00     0.012 A 
ATOM     77  C   UNL A   1      38.685  33.106  38.187  1.00  0.00     0.148 A 
ATOM     78  C   UNL A   1      39.591  35.762  38.206  1.00  0.00     0.002 A 
ATOM     79  C   UNL A   1      38.420  33.929  39.274  1.00  0.00     0.091 A 
ATOM     80  F   UNL A   1      38.286  31.827  38.153  1.00  0.00    -0.205 F 
ATOM     81  C   UNL A   1      38.888  35.251  39.295  1.00  0.00     0.022 A 
BRANCH  79  82
ATOM     82  S   UNL A   1      37.403  33.399  40.657  1.00  0.00     0.127 S 
ATOM     83  O   UNL A   1      38.244  32.373  41.269  1.00  0.00    -0.237 OA
ATOM     84  O   UNL A   1      37.278  34.636  41.427  1.00  0.00    -0.237 OA
ATOM     85  O   UNL A   1      36.157  32.926  40.071  1.00  0.00    -0.744 OA
ENDBRANCH  79  82
ENDBRANCH  51  75
BRANCH  63  86
ATOM     86  C   UNL A   1      44.212  28.893  35.307  1.00  0.00     0.023 A 
ATOM     87  C   UNL A   1      45.464  29.484  35.041  1.00  0.00     0.012 A 
ATOM     88  C   UNL A   1      44.120  27.875  36.276  1.00  0.00     0.148 A 
ATOM     89  C   UNL A   1      46.609  29.043  35.703  1.00  0.00     0.002 A 
ATOM     90  C   UNL A   1      45.256  27.478  36.970  1.00  0.00     0.091 A 
ATOM     91  F   UNL A   1      42.923  27.314  36.503  1.00  0.00    -0.205 F 
ATOM     92  C   UNL A   1      46.504  28.051  36.675  1.00  0.00     0.022 A 
BRANCH  90  93
ATOM     93  S   UNL A   1      45.199  26.280  38.307  1.00  0.00     0.127 S 
ATOM     94  O   UNL A   1      44.745  25.078  37.609  1.00  0.00    -0.237 OA
ATOM     95  O   UNL A   1      46.595  26.240  38.746  1.00  0.00    -0.237 OA
ATOM     96  O   UNL A   1      44.270  26.818  39.292  1.00  0.00    -0.744 OA
ENDBRANCH  90  93
ENDBRANCH  63  86
ENDBRANCH  37  38
ENDBRANCH  29  32
ENDBRANCH  27  28
ENDBRANCH  26  27
ENDBRANCH   1  26
TORSDOF 17
ENDMDL
MODEL 3
REMARK VINA RESULT:     -11.8      5.227     10.785
REMARK SMILES C[N@H+]1CCO[C@H](CNC(=O)N2CC[C@@](C)(C(=O)NCCCCNC(=O)c3ccc(-c4c5nc(c(-c6cccc(S(=O)(=O)[O-])c6F)c6ccc([nH]6)c(-c6cccc(S(=O)(=O)[O-])c6F)c6nc(c(-c7cccc(S(=O)(=O)[O-])c7F)c7ccc4[nH]7)C=C6)C=C5)cc3)C2)C1
REMARK SMILES IDX 20 1 19 2 18 3 16 4 17 5 14 7 11 8 12 9 89 10 13 11 15 12
REMARK SMILES IDX 9 13 8 14 10 16 7 17 6 18 1 19 2 20 3 21 90 22 4 24 5 25
REMARK SMILES IDX 21 26 22 27 23 28 24 29 25 31 26 32 27 33 88 34 28 35 87 36
REMARK SMILES IDX 29 37 30 38 31 39 81 40 32 41 86 42 80 43 82 44 33 45 85 46
REMARK SMILES IDX 79 47 78 48 34 50 66 51 46 52 65 53 47 54 50 55 64 56 83 57
REMARK SMILES IDX 48 58 49 59 63 61 84 62 51 63 35 64 36 65 44 66 37 67 39 68
REMARK SMILES IDX 45 69 38 70 40 71 41 72 42 73 43 74 67 75 68 76 76 77 69 78
REMARK SMILES IDX 71 79 77 80 70 81 72 82 73 83 74 84 75 85 52 86 53 87 61 88
REMARK SMILES IDX 54 89 56 90 62 91 55 92 57 93 58 94 59 95 60 96
REMARK H PARENT 18 6 8 15 2 23 23 30 82 49 50 60
REMARK Flexibility Score: inf
ROOT
ATOM      1  C   UNL A   1      34.536  21.674  24.568  1.00  0.00     0.023 C 
ENDROOT
BRANCH   1   2
ATOM      2  C   UNL A   1      33.221  22.156  23.956  1.00  0.00     0.116 C 
BRANCH   2   3
ATOM      3  N   UNL A   1      32.156  22.156  24.941  1.00  0.00    -0.356 N 
ATOM      4  C   UNL A   1      31.307  23.137  25.357  1.00  0.00     0.227 C 
ATOM      5  O   UNL A   1      30.542  22.846  26.280  1.00  0.00    -0.274 OA
ATOM      6  H   UNL A   1      32.023  21.290  25.391  1.00  0.00     0.163 HD
BRANCH   4   7
ATOM      7  C   UNL A   1      31.264  24.517  24.676  1.00  0.00     0.066 C 
ATOM      8  N   UNL A   1      31.630  26.377  26.165  1.00  0.00    -0.324 N 
ATOM      9  C   UNL A   1      32.936  25.870  25.796  1.00  0.00     0.122 C 
ATOM     10  C   UNL A   1      30.578  25.522  25.624  1.00  0.00     0.138 C 
ATOM     11  C   UNL A   1      32.694  25.092  24.519  1.00  0.00     0.040 C 
ATOM     12  C   UNL A   1      30.636  24.450  23.278  1.00  0.00     0.024 C 
BRANCH   8  13
ATOM     13  C   UNL A   1      31.494  27.644  26.651  1.00  0.00     0.317 C 
ATOM     14  N   UNL A   1      31.634  28.709  25.827  1.00  0.00    -0.335 N 
ATOM     15  H   UNL A   1      31.967  29.530  26.258  1.00  0.00     0.165 HD
ATOM     16  O   UNL A   1      31.247  27.872  27.837  1.00  0.00    -0.249 OA
BRANCH  14  17
ATOM     17  C   UNL A   1      31.367  28.823  24.403  1.00  0.00     0.155 C 
BRANCH  17  18
ATOM     18  C   UNL A   1      29.963  29.371  24.036  1.00  0.00     0.192 C 
ATOM     19  C   UNL A   1      27.062  28.586  23.195  1.00  0.00     0.332 C 
ATOM     20  N   UNL A   1      28.100  29.153  22.334  1.00  0.00    -0.333 N 
ATOM     21  C   UNL A   1      28.057  30.632  22.334  1.00  0.00     0.290 C 
ATOM     22  C   UNL A   1      29.455  28.719  22.732  1.00  0.00     0.296 C 
ATOM     23  H   UNL A   1      27.905  28.804  21.395  1.00  0.00     0.348 HD
ATOM     24  C   UNL A   1      28.644  31.285  23.601  1.00  0.00     0.222 C 
ATOM     25  O   UNL A   1      29.963  30.801  23.892  1.00  0.00    -0.365 OA
ENDBRANCH  17  18
ENDBRANCH  14  17
ENDBRANCH   8  13
ENDBRANCH   4   7
ENDBRANCH   2   3
ENDBRANCH   1   2
BRANCH   1  26
ATOM     26  C   UNL A   1      35.567  22.785  24.797  1.00  0.00     0.023 C 
BRANCH  26  27
ATOM     27  C   UNL A   1      36.407  22.642  26.062  1.00  0.00     0.116 C 
BRANCH  27  28
ATOM     28  N   UNL A   1      37.344  21.531  25.998  1.00  0.00    -0.352 N 
ATOM     29  C   UNL A   1      38.709  21.546  26.136  1.00  0.00     0.251 C 
ATOM     30  H   UNL A   1      36.944  20.647  25.830  1.00  0.00     0.163 HD
ATOM     31  O   UNL A   1      39.351  20.519  25.915  1.00  0.00    -0.269 OA
BRANCH  29  32
ATOM     32  C   UNL A   1      39.407  22.791  26.522  1.00  0.00     0.039 A 
ATOM     33  C   UNL A   1      39.134  23.961  25.809  1.00  0.00     0.014 A 
ATOM     34  C   UNL A   1      40.330  22.813  27.572  1.00  0.00     0.014 A 
ATOM     35  C   UNL A   1      39.753  25.157  26.177  1.00  0.00     0.010 A 
ATOM     36  C   UNL A   1      40.883  24.021  27.989  1.00  0.00     0.010 A 
ATOM     37  C   UNL A   1      40.613  25.205  27.286  1.00  0.00    -0.014 A 
BRANCH  37  38
ATOM     38  C   UNL A   1      41.230  26.488  27.714  1.00  0.00     0.031 A 
ATOM     39  C   UNL A   1      42.667  26.796  27.386  1.00  0.00     0.074 A 
ATOM     40  C   UNL A   1      40.506  27.360  28.443  1.00  0.00     0.049 A 
ATOM     41  N   UNL A   1      43.361  27.870  27.660  1.00  0.00    -0.248 NA
ATOM     42  C   UNL A   1      43.434  25.753  26.685  1.00  0.00     0.031 C 
ATOM     43  C   UNL A   1      39.135  27.137  28.908  1.00  0.00     0.029 A 
ATOM     44  N   UNL A   1      40.826  28.600  28.935  1.00  0.00    -0.354 N 
ATOM     45  C   UNL A   1      44.644  27.627  27.187  1.00  0.00     0.074 A 
ATOM     46  C   UNL A   1      44.647  26.282  26.654  1.00  0.00     0.031 C 
ATOM     47  C   UNL A   1      38.729  28.209  29.606  1.00  0.00     0.029 A 
ATOM     48  C   UNL A   1      39.815  29.182  29.663  1.00  0.00     0.049 A 
ATOM     49  H   UNL A   1      41.698  29.032  28.783  1.00  0.00     0.167 HD
ATOM     50  C   UNL A   1      45.715  28.457  27.162  1.00  0.00     0.034 A 
ATOM     51  C   UNL A   1      39.766  30.366  30.305  1.00  0.00     0.034 A 
ATOM     52  C   UNL A   1      45.701  29.802  27.670  1.00  0.00     0.049 A 
ATOM     53  C   UNL A   1      40.950  31.289  30.227  1.00  0.00     0.074 A 
ATOM     54  C   UNL A   1      46.708  30.750  27.625  1.00  0.00     0.029 A 
ATOM     55  N   UNL A   1      44.629  30.389  28.326  1.00  0.00    -0.354 N 
ATOM     56  N   UNL A   1      42.104  31.102  29.633  1.00  0.00    -0.248 NA
ATOM     57  C   UNL A   1      40.812  32.604  30.869  1.00  0.00     0.031 C 
ATOM     58  C   UNL A   1      46.256  31.899  28.281  1.00  0.00     0.029 A 
ATOM     59  C   UNL A   1      44.953  31.683  28.699  1.00  0.00     0.049 A 
ATOM     60  H   UNL A   1      43.767  29.950  28.502  1.00  0.00     0.167 HD
ATOM     61  C   UNL A   1      42.815  32.285  29.798  1.00  0.00     0.074 A 
ATOM     62  C   UNL A   1      41.953  33.190  30.531  1.00  0.00     0.031 C 
ATOM     63  C   UNL A   1      44.070  32.590  29.388  1.00  0.00     0.034 A 
BRANCH  50  64
ATOM     64  C   UNL A   1      46.979  27.946  26.517  1.00  0.00     0.023 A 
ATOM     65  C   UNL A   1      47.972  27.341  27.317  1.00  0.00     0.012 A 
ATOM     66  C   UNL A   1      47.169  28.020  25.124  1.00  0.00     0.148 A 
ATOM     67  C   UNL A   1      49.150  26.858  26.748  1.00  0.00     0.002 A 
ATOM     68  C   UNL A   1      48.325  27.493  24.558  1.00  0.00     0.091 A 
ATOM     69  F   UNL A   1      46.226  28.615  24.380  1.00  0.00    -0.205 F 
ATOM     70  C   UNL A   1      49.322  26.926  25.370  1.00  0.00     0.022 A 
BRANCH  68  71
ATOM     71  S   UNL A   1      48.607  27.458  22.785  1.00  0.00     0.127 S 
ATOM     72  O   UNL A   1      47.483  28.254  22.292  1.00  0.00    -0.237 OA
ATOM     73  O   UNL A   1      49.912  28.107  22.668  1.00  0.00    -0.237 OA
ATOM     74  O   UNL A   1      48.591  26.053  22.403  1.00  0.00    -0.744 OA
ENDBRANCH  68  71
ENDBRANCH  50  64
BRANCH  51  75
ATOM     75  C   UNL A   1      38.524  30.763  31.026  1.00  0.00     0.023 A 
ATOM     76  C   UNL A   1      38.399  30.501  32.404  1.00  0.00     0.012 A 
ATOM     77  C   UNL A   1      37.484  31.438  30.358  1.00  0.00     0.148 A 
ATOM     78  C   UNL A   1      37.247  30.874  33.097  1.00  0.00     0.002 A 
ATOM     79  C   UNL A   1      36.366  31.860  31.066  1.00  0.00     0.091 A 
ATOM     80  F   UNL A   1      37.621  31.671  29.045  1.00  0.00    -0.205 F 
ATOM     81  C   UNL A   1      36.236  31.564  32.431  1.00  0.00     0.022 A 
BRANCH  79  82
ATOM     82  S   UNL A   1      35.083  32.873  30.323  1.00  0.00     0.127 S 
ATOM     83  O   UNL A   1      34.172  33.073  31.447  1.00  0.00    -0.237 OA
ATOM     84  O   UNL A   1      35.835  34.061  29.918  1.00  0.00    -0.237 OA
ATOM     85  O   UNL A   1      34.554  32.090  29.214  1.00  0.00    -0.744 OA
ENDBRANCH  79  82
ENDBRANCH  51  75
BRANCH  63  86
ATOM     86  C   UNL A   1      44.584  33.977  29.679  1.00  0.00     0.023 A 
ATOM     87  C   UNL A   1      45.320  34.228  30.854  1.00  0.00     0.012 A 
ATOM     88  C   UNL A   1      44.396  35.016  28.746  1.00  0.00     0.148 A 
ATOM     89  C   UNL A   1      45.829  35.499  31.113  1.00  0.00     0.002 A 
ATOM     90  C   UNL A   1      44.952  36.266  28.985  1.00  0.00     0.091 A 
ATOM     91  F   UNL A   1      43.679  34.762  27.641  1.00  0.00    -0.205 F 
ATOM     92  C   UNL A   1      45.657  36.515  30.174  1.00  0.00     0.022 A 
BRANCH  90  93
ATOM     93  S   UNL A   1      44.867  37.603  27.788  1.00  0.00     0.127 S 
ATOM     94  O   UNL A   1      43.573  37.352  27.155  1.00  0.00    -0.237 OA
ATOM     95  O   UNL A   1      44.906  38.789  28.646  1.00  0.00    -0.237 OA
ATOM     96  O   UNL A   1      46.027  37.444  26.922  1.00  0.00    -0.744 OA
ENDBRANCH  90  93
ENDBRANCH  63  86
ENDBRANCH  37  38
ENDBRANCH  29  32
ENDBRANCH  27  28
ENDBRANCH  26  27
ENDBRANCH   1  26
TORSDOF 17
ENDMDL
