MODEL 1
REMARK VINA RESULT:     -13.1      0.000      0.000
REMARK SMILES Cc1cc(F)c(-c2ccc(F)c(C(=O)NCCCCNC(=O)c3ccc(-c4c5nc(c(-c6cccc(S(=O)(=O)[O-])c6F)c6ccc([nH]6)c(-c6cccc(S(=O)(=O)[O-])c6F)c6nc(c(-c7cccc(S(=O)(=O)[O-])c7F)c7ccc4[nH]7)C=C6)C=C5)cc3)c2)cc1F
REMARK SMILES IDX 18 1 17 2 16 3 15 4 13 5 14 6 12 8 7 9 8 10 86 11 9 12 10 13
REMARK SMILES IDX 11 14 6 15 1 16 2 17 3 18 88 19 4 20 87 21 89 22 5 23 19 24
REMARK SMILES IDX 20 25 21 26 22 28 23 29 24 30 85 31 25 32 84 33 26 34 27 35
REMARK SMILES IDX 28 36 78 37 29 38 83 39 77 40 79 41 30 42 82 43 76 44 75 45
REMARK SMILES IDX 31 47 63 48 43 49 62 50 44 51 47 52 61 53 80 54 45 55 46 56
REMARK SMILES IDX 60 58 81 59 48 60 32 61 33 62 41 63 34 64 36 65 42 66 35 67
REMARK SMILES IDX 37 68 38 69 39 70 40 71 64 72 65 73 73 74 66 75 68 76 74 77
REMARK SMILES IDX 67 78 69 79 70 80 71 81 72 82 49 83 50 84 58 85 51 86 53 87
REMARK SMILES IDX 59 88 52 89 54 90 55 91 56 92 57 93
REMARK H PARENT 15 7 20 27 79 46 47 57
REMARK Flexibility Score: inf
ROOT
ATOM      1  C   UNL A   1      31.640  29.105  24.753  1.00  0.00     0.023 C 
ENDROOT
BRANCH   1   2
ATOM      2  C   UNL A   1      32.053  29.152  23.289  1.00  0.00     0.023 C 
BRANCH   2   3
ATOM      3  C   UNL A   1      33.411  28.560  22.937  1.00  0.00     0.116 C 
BRANCH   3   4
ATOM      4  N   UNL A   1      33.411  27.608  21.837  1.00  0.00    -0.352 N 
ATOM      5  C   UNL A   1      33.237  26.239  21.821  1.00  0.00     0.254 C 
ATOM      6  O   UNL A   1      33.179  25.667  20.736  1.00  0.00    -0.269 OA
ATOM      7  H   UNL A   1      33.560  28.010  20.950  1.00  0.00     0.163 HD
BRANCH   5   8
ATOM      8  C   UNL A   1      33.158  25.448  23.074  1.00  0.00     0.076 A 
ATOM      9  C   UNL A   1      34.085  23.754  24.580  1.00  0.00    -0.014 A 
ATOM     10  C   UNL A   1      32.865  23.750  25.277  1.00  0.00     0.012 A 
ATOM     11  C   UNL A   1      34.240  24.693  23.545  1.00  0.00     0.025 A 
ATOM     12  C   UNL A   1      31.819  24.595  24.900  1.00  0.00     0.041 A 
ATOM     13  C   UNL A   1      31.959  25.415  23.783  1.00  0.00     0.135 A 
ATOM     14  F   UNL A   1      30.893  26.128  23.395  1.00  0.00    -0.206 F 
BRANCH   9  15
ATOM     15  C   UNL A   1      35.113  22.717  24.805  1.00  0.00     0.020 A 
ATOM     16  C   UNL A   1      38.127  19.598  25.072  1.00  0.00     0.047 C 
ATOM     17  C   UNL A   1      37.086  20.670  24.983  1.00  0.00    -0.012 A 
ATOM     18  C   UNL A   1      37.441  22.017  25.110  1.00  0.00     0.046 A 
ATOM     19  C   UNL A   1      35.742  20.359  24.783  1.00  0.00     0.126 A 
ATOM     20  C   UNL A   1      36.467  23.016  25.022  1.00  0.00     0.131 A 
ATOM     21  C   UNL A   1      34.772  21.356  24.690  1.00  0.00     0.051 A 
ATOM     22  F   UNL A   1      35.360  19.080  24.655  1.00  0.00    -0.207 F 
ATOM     23  F   UNL A   1      36.870  24.291  25.130  1.00  0.00    -0.206 F 
ENDBRANCH   9  15
ENDBRANCH   5   8
ENDBRANCH   3   4
ENDBRANCH   2   3
ENDBRANCH   1   2
BRANCH   1  24
ATOM     24  C   UNL A   1      32.663  29.615  25.760  1.00  0.00     0.116 C 
BRANCH  24  25
ATOM     25  N   UNL A   1      32.318  30.894  26.366  1.00  0.00    -0.352 N 
ATOM     26  C   UNL A   1      33.038  31.703  27.221  1.00  0.00     0.251 C 
ATOM     27  H   UNL A   1      31.427  31.238  26.125  1.00  0.00     0.163 HD
ATOM     28  O   UNL A   1      32.522  32.721  27.665  1.00  0.00    -0.269 OA
BRANCH  26  29
ATOM     29  C   UNL A   1      34.405  31.312  27.645  1.00  0.00     0.039 A 
ATOM     30  C   UNL A   1      34.708  29.990  27.958  1.00  0.00     0.014 A 
ATOM     31  C   UNL A   1      35.388  32.299  27.771  1.00  0.00     0.014 A 
ATOM     32  C   UNL A   1      35.899  29.695  28.612  1.00  0.00     0.010 A 
ATOM     33  C   UNL A   1      36.632  31.977  28.328  1.00  0.00     0.010 A 
ATOM     34  C   UNL A   1      36.873  30.686  28.820  1.00  0.00    -0.014 A 
BRANCH  34  35
ATOM     35  C   UNL A   1      38.118  30.333  29.559  1.00  0.00     0.031 A 
ATOM     36  C   UNL A   1      38.348  30.800  30.975  1.00  0.00     0.074 A 
ATOM     37  C   UNL A   1      39.019  29.521  28.969  1.00  0.00     0.049 A 
ATOM     38  N   UNL A   1      39.340  30.510  31.779  1.00  0.00    -0.248 NA
ATOM     39  C   UNL A   1      37.351  31.707  31.570  1.00  0.00     0.031 C 
ATOM     40  C   UNL A   1      38.935  29.035  27.590  1.00  0.00     0.029 A 
ATOM     41  N   UNL A   1      40.163  28.942  29.456  1.00  0.00    -0.354 N 
ATOM     42  C   UNL A   1      39.111  31.224  32.950  1.00  0.00     0.074 A 
ATOM     43  C   UNL A   1      37.887  31.969  32.757  1.00  0.00     0.031 C 
ATOM     44  C   UNL A   1      39.951  28.191  27.358  1.00  0.00     0.029 A 
ATOM     45  C   UNL A   1      40.786  28.112  28.552  1.00  0.00     0.049 A 
ATOM     46  H   UNL A   1      40.507  29.104  30.364  1.00  0.00     0.167 HD
ATOM     47  C   UNL A   1      39.840  31.238  34.089  1.00  0.00     0.034 A 
ATOM     48  C   UNL A   1      41.903  27.366  28.662  1.00  0.00     0.034 A 
ATOM     49  C   UNL A   1      41.015  30.444  34.313  1.00  0.00     0.049 A 
ATOM     50  C   UNL A   1      42.656  27.355  29.959  1.00  0.00     0.074 A 
ATOM     51  C   UNL A   1      41.784  30.360  35.461  1.00  0.00     0.029 A 
ATOM     52  N   UNL A   1      41.584  29.589  33.384  1.00  0.00    -0.354 N 
ATOM     53  N   UNL A   1      42.366  27.970  31.079  1.00  0.00    -0.248 NA
ATOM     54  C   UNL A   1      43.878  26.539  30.021  1.00  0.00     0.031 C 
ATOM     55  C   UNL A   1      42.816  29.449  35.230  1.00  0.00     0.029 A 
ATOM     56  C   UNL A   1      42.690  28.968  33.937  1.00  0.00     0.049 A 
ATOM     57  H   UNL A   1      41.252  29.444  32.469  1.00  0.00     0.167 HD
ATOM     58  C   UNL A   1      43.363  27.613  31.978  1.00  0.00     0.074 A 
ATOM     59  C   UNL A   1      44.253  26.706  31.283  1.00  0.00     0.031 C 
ATOM     60  C   UNL A   1      43.535  28.024  33.255  1.00  0.00     0.034 A 
BRANCH  47  61
ATOM     61  C   UNL A   1      39.364  32.082  35.241  1.00  0.00     0.023 A 
ATOM     62  C   UNL A   1      39.444  33.484  35.136  1.00  0.00     0.012 A 
ATOM     63  C   UNL A   1      38.697  31.502  36.338  1.00  0.00     0.148 A 
ATOM     64  C   UNL A   1      38.862  34.300  36.104  1.00  0.00     0.002 A 
ATOM     65  C   UNL A   1      38.098  32.322  37.287  1.00  0.00     0.091 A 
ATOM     66  F   UNL A   1      38.635  30.165  36.411  1.00  0.00    -0.205 F 
ATOM     67  C   UNL A   1      38.181  33.721  37.171  1.00  0.00     0.022 A 
BRANCH  65  68
ATOM     68  S   UNL A   1      37.146  31.684  38.670  1.00  0.00     0.127 S 
ATOM     69  O   UNL A   1      38.120  31.762  39.759  1.00  0.00    -0.237 OA
ATOM     70  O   UNL A   1      36.052  32.651  38.759  1.00  0.00    -0.237 OA
ATOM     71  O   UNL A   1      36.748  30.333  38.300  1.00  0.00    -0.744 OA
ENDBRANCH  65  68
ENDBRANCH  47  61
BRANCH  48  72
ATOM     72  C   UNL A   1      42.334  26.534  27.507  1.00  0.00     0.023 A 
ATOM     73  C   UNL A   1      43.217  27.075  26.553  1.00  0.00     0.012 A 
ATOM     74  C   UNL A   1      41.944  25.186  27.402  1.00  0.00     0.148 A 
ATOM     75  C   UNL A   1      43.700  26.283  25.511  1.00  0.00     0.002 A 
ATOM     76  C   UNL A   1      42.468  24.390  26.391  1.00  0.00     0.091 A 
ATOM     77  F   UNL A   1      41.090  24.700  28.315  1.00  0.00    -0.205 F 
ATOM     78  C   UNL A   1      43.339  24.940  25.438  1.00  0.00     0.022 A 
BRANCH  76  79
ATOM     79  S   UNL A   1      42.161  22.622  26.306  1.00  0.00     0.127 S 
ATOM     80  O   UNL A   1      42.823  22.146  27.517  1.00  0.00    -0.237 OA
ATOM     81  O   UNL A   1      40.699  22.567  26.340  1.00  0.00    -0.237 OA
ATOM     82  O   UNL A   1      42.747  22.184  25.047  1.00  0.00    -0.744 OA
ENDBRANCH  76  79
ENDBRANCH  48  72
BRANCH  60  83
ATOM     83  C   UNL A   1      44.723  27.513  34.017  1.00  0.00     0.023 A 
ATOM     84  C   UNL A   1      45.896  28.291  34.050  1.00  0.00     0.012 A 
ATOM     85  C   UNL A   1      44.621  26.364  34.824  1.00  0.00     0.148 A 
ATOM     86  C   UNL A   1      46.954  27.934  34.884  1.00  0.00     0.002 A 
ATOM     87  C   UNL A   1      45.668  26.031  35.674  1.00  0.00     0.091 A 
ATOM     88  F   UNL A   1      43.490  25.646  34.771  1.00  0.00    -0.205 F 
ATOM     89  C   UNL A   1      46.836  26.813  35.703  1.00  0.00     0.022 A 
BRANCH  87  90
ATOM     90  S   UNL A   1      45.587  24.652  36.822  1.00  0.00     0.127 S 
ATOM     91  O   UNL A   1      44.392  24.981  37.599  1.00  0.00    -0.237 OA
ATOM     92  O   UNL A   1      45.434  23.511  35.919  1.00  0.00    -0.237 OA
ATOM     93  O   UNL A   1      46.834  24.676  37.575  1.00  0.00    -0.744 OA
ENDBRANCH  87  90
ENDBRANCH  60  83
ENDBRANCH  34  35
ENDBRANCH  26  29
ENDBRANCH  24  25
ENDBRANCH   1  24
TORSDOF 15
ENDMDL
MODEL 2
REMARK VINA RESULT:     -13.1      5.239     10.323
REMARK SMILES Cc1cc(F)c(-c2ccc(F)c(C(=O)NCCCCNC(=O)c3ccc(-c4c5nc(c(-c6cccc(S(=O)(=O)[O-])c6F)c6ccc([nH]6)c(-c6cccc(S(=O)(=O)[O-])c6F)c6nc(c(-c7cccc(S(=O)(=O)[O-])c7F)c7ccc4[nH]7)C=C6)C=C5)cc3)c2)cc1F
REMARK SMILES IDX 18 1 17 2 16 3 15 4 13 5 14 6 12 8 7 9 8 10 86 11 9 12 10 13
REMARK SMILES IDX 11 14 6 15 1 16 2 17 3 18 88 19 4 20 87 21 89 22 5 23 19 24
REMARK SMILES IDX 20 25 21 26 22 28 23 29 24 30 85 31 25 32 84 33 26 34 27 35
REMARK SMILES IDX 28 36 78 37 29 38 83 39 77 40 79 41 30 42 82 43 76 44 75 45
REMARK SMILES IDX 31 47 63 48 43 49 62 50 44 51 47 52 61 53 80 54 45 55 46 56
REMARK SMILES IDX 60 58 81 59 48 60 32 61 33 62 41 63 34 64 36 65 42 66 35 67
REMARK SMILES IDX 37 68 38 69 39 70 40 71 64 72 65 73 73 74 66 75 68 76 74 77
REMARK SMILES IDX 67 78 69 79 70 80 71 81 72 82 49 83 50 84 58 85 51 86 53 87
REMARK SMILES IDX 59 88 52 89 54 90 55 91 56 92 57 93
REMARK H PARENT 15 7 20 27 79 46 47 57
REMARK Flexibility Score: inf
ROOT
ATOM      1  C   UNL A   1      36.163  22.224  24.138  1.00  0.00     0.023 C 
ENDROOT
BRANCH   1   2
ATOM      2  C   UNL A   1      35.618  23.645  24.164  1.00  0.00     0.023 C 
BRANCH   2   3
ATOM      3  C   UNL A   1      34.490  23.967  23.193  1.00  0.00     0.116 C 
BRANCH   3   4
ATOM      4  N   UNL A   1      33.639  22.845  22.830  1.00  0.00    -0.352 N 
ATOM      5  C   UNL A   1      32.302  22.605  23.071  1.00  0.00     0.254 C 
ATOM      6  O   UNL A   1      31.783  21.613  22.564  1.00  0.00    -0.269 OA
ATOM      7  H   UNL A   1      34.097  22.134  22.325  1.00  0.00     0.163 HD
BRANCH   5   8
ATOM      8  C   UNL A   1      31.496  23.489  23.948  1.00  0.00     0.076 A 
ATOM      9  C   UNL A   1      30.090  25.470  24.254  1.00  0.00    -0.014 A 
ATOM     10  C   UNL A   1      30.225  25.314  25.644  1.00  0.00     0.012 A 
ATOM     11  C   UNL A   1      30.651  24.478  23.430  1.00  0.00     0.025 A 
ATOM     12  C   UNL A   1      30.957  24.253  26.180  1.00  0.00     0.041 A 
ATOM     13  C   UNL A   1      31.613  23.365  25.332  1.00  0.00     0.135 A 
ATOM     14  F   UNL A   1      32.392  22.427  25.889  1.00  0.00    -0.206 F 
BRANCH   9  15
ATOM     15  C   UNL A   1      29.528  26.701  23.661  1.00  0.00     0.020 A 
ATOM     16  C   UNL A   1      27.834  30.460  22.288  1.00  0.00     0.047 C 
ATOM     17  C   UNL A   1      28.414  29.163  22.759  1.00  0.00    -0.012 A 
ATOM     18  C   UNL A   1      29.782  28.903  22.616  1.00  0.00     0.046 A 
ATOM     19  C   UNL A   1      27.614  28.181  23.339  1.00  0.00     0.126 A 
ATOM     20  C   UNL A   1      30.321  27.692  23.060  1.00  0.00     0.131 A 
ATOM     21  C   UNL A   1      28.153  26.976  23.787  1.00  0.00     0.051 A 
ATOM     22  F   UNL A   1      26.299  28.391  23.496  1.00  0.00    -0.207 F 
ATOM     23  F   UNL A   1      31.641  27.507  22.916  1.00  0.00    -0.206 F 
ENDBRANCH   9  15
ENDBRANCH   5   8
ENDBRANCH   3   4
ENDBRANCH   2   3
ENDBRANCH   1   2
BRANCH   1  24
ATOM     24  C   UNL A   1      36.539  21.619  25.484  1.00  0.00     0.116 C 
BRANCH  24  25
ATOM     25  N   UNL A   1      37.634  20.660  25.424  1.00  0.00    -0.352 N 
ATOM     26  C   UNL A   1      38.944  20.769  25.846  1.00  0.00     0.251 C 
ATOM     27  H   UNL A   1      37.402  19.794  25.018  1.00  0.00     0.163 HD
ATOM     28  O   UNL A   1      39.723  19.848  25.636  1.00  0.00    -0.269 OA
BRANCH  26  29
ATOM     29  C   UNL A   1      39.418  22.015  26.495  1.00  0.00     0.039 A 
ATOM     30  C   UNL A   1      38.902  23.256  26.131  1.00  0.00     0.014 A 
ATOM     31  C   UNL A   1      40.429  21.939  27.459  1.00  0.00     0.014 A 
ATOM     32  C   UNL A   1      39.547  24.417  26.543  1.00  0.00     0.010 A 
ATOM     33  C   UNL A   1      41.005  23.114  27.960  1.00  0.00     0.010 A 
ATOM     34  C   UNL A   1      40.618  24.363  27.452  1.00  0.00    -0.014 A 
BRANCH  34  35
ATOM     35  C   UNL A   1      41.303  25.629  27.837  1.00  0.00     0.031 A 
ATOM     36  C   UNL A   1      42.700  25.939  27.360  1.00  0.00     0.074 A 
ATOM     37  C   UNL A   1      40.629  26.541  28.566  1.00  0.00     0.049 A 
ATOM     38  N   UNL A   1      43.401  27.031  27.540  1.00  0.00    -0.248 NA
ATOM     39  C   UNL A   1      43.409  24.903  26.589  1.00  0.00     0.031 C 
ATOM     40  C   UNL A   1      39.289  26.345  29.124  1.00  0.00     0.029 A 
ATOM     41  N   UNL A   1      40.961  27.818  28.943  1.00  0.00    -0.354 N 
ATOM     42  C   UNL A   1      44.636  26.801  26.946  1.00  0.00     0.074 A 
ATOM     43  C   UNL A   1      44.599  25.463  26.400  1.00  0.00     0.031 C 
ATOM     44  C   UNL A   1      38.892  27.477  29.724  1.00  0.00     0.029 A 
ATOM     45  C   UNL A   1      39.964  28.463  29.637  1.00  0.00     0.049 A 
ATOM     46  H   UNL A   1      41.830  28.233  28.736  1.00  0.00     0.167 HD
ATOM     47  C   UNL A   1      45.695  27.636  26.844  1.00  0.00     0.034 A 
ATOM     48  C   UNL A   1      39.910  29.708  30.151  1.00  0.00     0.034 A 
ATOM     49  C   UNL A   1      45.711  28.991  27.320  1.00  0.00     0.049 A 
ATOM     50  C   UNL A   1      41.077  30.632  29.968  1.00  0.00     0.074 A 
ATOM     51  C   UNL A   1      46.728  29.924  27.208  1.00  0.00     0.029 A 
ATOM     52  N   UNL A   1      44.666  29.613  27.980  1.00  0.00    -0.354 N 
ATOM     53  N   UNL A   1      42.197  30.417  29.324  1.00  0.00    -0.248 NA
ATOM     54  C   UNL A   1      40.972  31.973  30.564  1.00  0.00     0.031 C 
ATOM     55  C   UNL A   1      46.296  31.114  27.796  1.00  0.00     0.029 A 
ATOM     56  C   UNL A   1      45.010  30.919  28.276  1.00  0.00     0.049 A 
ATOM     57  H   UNL A   1      43.806  29.190  28.206  1.00  0.00     0.167 HD
ATOM     58  C   UNL A   1      42.928  31.594  29.431  1.00  0.00     0.074 A 
ATOM     59  C   UNL A   1      42.115  32.529  30.179  1.00  0.00     0.031 C 
ATOM     60  C   UNL A   1      44.172  31.859  28.970  1.00  0.00     0.034 A 
BRANCH  47  61
ATOM     61  C   UNL A   1      46.925  27.158  26.121  1.00  0.00     0.023 A 
ATOM     62  C   UNL A   1      47.101  27.512  24.769  1.00  0.00     0.012 A 
ATOM     63  C   UNL A   1      47.967  26.509  26.813  1.00  0.00     0.148 A 
ATOM     64  C   UNL A   1      48.300  27.232  24.116  1.00  0.00     0.002 A 
ATOM     65  C   UNL A   1      49.169  26.256  26.162  1.00  0.00     0.091 A 
ATOM     66  F   UNL A   1      47.772  26.186  28.100  1.00  0.00    -0.205 F 
ATOM     67  C   UNL A   1      49.335  26.616  24.813  1.00  0.00     0.022 A 
BRANCH  65  68
ATOM     68  S   UNL A   1      50.588  25.521  26.980  1.00  0.00     0.127 S 
ATOM     69  O   UNL A   1      51.490  25.285  25.851  1.00  0.00    -0.237 OA
ATOM     70  O   UNL A   1      51.009  26.591  27.883  1.00  0.00    -0.237 OA
ATOM     71  O   UNL A   1      50.100  24.315  27.635  1.00  0.00    -0.744 OA
ENDBRANCH  65  68
ENDBRANCH  47  61
BRANCH  48  72
ATOM     72  C   UNL A   1      38.671  30.149  30.847  1.00  0.00     0.023 A 
ATOM     73  C   UNL A   1      38.543  29.946  32.233  1.00  0.00     0.012 A 
ATOM     74  C   UNL A   1      37.664  30.848  30.154  1.00  0.00     0.148 A 
ATOM     75  C   UNL A   1      37.428  30.430  32.918  1.00  0.00     0.002 A 
ATOM     76  C   UNL A   1      36.581  31.371  30.850  1.00  0.00     0.091 A 
ATOM     77  F   UNL A   1      37.803  31.015  28.831  1.00  0.00    -0.205 F 
ATOM     78  C   UNL A   1      36.456  31.154  32.231  1.00  0.00     0.022 A 
BRANCH  76  79
ATOM     79  S   UNL A   1      35.358  32.427  30.066  1.00  0.00     0.127 S 
ATOM     80  O   UNL A   1      36.164  33.584  29.685  1.00  0.00    -0.237 OA
ATOM     81  O   UNL A   1      34.909  31.594  28.950  1.00  0.00    -0.237 OA
ATOM     82  O   UNL A   1      34.341  32.668  31.081  1.00  0.00    -0.744 OA
ENDBRANCH  76  79
ENDBRANCH  48  72
BRANCH  60  83
ATOM     83  C   UNL A   1      44.762  33.212  29.245  1.00  0.00     0.023 A 
ATOM     84  C   UNL A   1      45.503  33.404  30.427  1.00  0.00     0.012 A 
ATOM     85  C   UNL A   1      44.726  34.226  28.269  1.00  0.00     0.148 A 
ATOM     86  C   UNL A   1      46.206  34.588  30.632  1.00  0.00     0.002 A 
ATOM     87  C   UNL A   1      45.453  35.392  28.467  1.00  0.00     0.091 A 
ATOM     88  F   UNL A   1      44.013  34.011  27.154  1.00  0.00    -0.205 F 
ATOM     89  C   UNL A   1      46.192  35.576  29.649  1.00  0.00     0.022 A 
BRANCH  87  90
ATOM     90  S   UNL A   1      45.560  36.692  27.233  1.00  0.00     0.127 S 
ATOM     91  O   UNL A   1      44.158  37.082  27.088  1.00  0.00    -0.237 OA
ATOM     92  O   UNL A   1      46.402  37.683  27.904  1.00  0.00    -0.237 OA
ATOM     93  O   UNL A   1      46.153  36.082  26.050  1.00  0.00    -0.744 OA
ENDBRANCH  87  90
ENDBRANCH  60  83
ENDBRANCH  34  35
ENDBRANCH  26  29
ENDBRANCH  24  25
ENDBRANCH   1  24
TORSDOF 15
ENDMDL
MODEL 3
REMARK VINA RESULT:     -12.9      5.320     10.448
REMARK SMILES Cc1cc(F)c(-c2ccc(F)c(C(=O)NCCCCNC(=O)c3ccc(-c4c5nc(c(-c6cccc(S(=O)(=O)[O-])c6F)c6ccc([nH]6)c(-c6cccc(S(=O)(=O)[O-])c6F)c6nc(c(-c7cccc(S(=O)(=O)[O-])c7F)c7ccc4[nH]7)C=C6)C=C5)cc3)c2)cc1F
REMARK SMILES IDX 18 1 17 2 16 3 15 4 13 5 14 6 12 8 7 9 8 10 86 11 9 12 10 13
REMARK SMILES IDX 11 14 6 15 1 16 2 17 3 18 88 19 4 20 87 21 89 22 5 23 19 24
REMARK SMILES IDX 20 25 21 26 22 28 23 29 24 30 85 31 25 32 84 33 26 34 27 35
REMARK SMILES IDX 28 36 78 37 29 38 83 39 77 40 79 41 30 42 82 43 76 44 75 45
REMARK SMILES IDX 31 47 63 48 43 49 62 50 44 51 47 52 61 53 80 54 45 55 46 56
REMARK SMILES IDX 60 58 81 59 48 60 32 61 33 62 41 63 34 64 36 65 42 66 35 67
REMARK SMILES IDX 37 68 38 69 39 70 40 71 64 72 65 73 73 74 66 75 68 76 74 77
REMARK SMILES IDX 67 78 69 79 70 80 71 81 72 82 49 83 50 84 58 85 51 86 53 87
REMARK SMILES IDX 59 88 52 89 54 90 55 91 56 92 57 93
REMARK H PARENT 15 7 20 27 79 46 47 57
REMARK Flexibility Score: inf
ROOT
ATOM      1  C   UNL A   1      35.751  21.477  24.520  1.00  0.00     0.023 C 
ENDROOT
BRANCH   1   2
ATOM      2  C   UNL A   1      34.888  20.543  25.357  1.00  0.00     0.023 C 
BRANCH   2   3
ATOM      3  C   UNL A   1      34.180  21.154  26.559  1.00  0.00     0.116 C 
BRANCH   3   4
ATOM      4  N   UNL A   1      32.729  21.214  26.464  1.00  0.00    -0.352 N 
ATOM      5  C   UNL A   1      31.901  22.049  25.741  1.00  0.00     0.254 C 
ATOM      6  O   UNL A   1      30.693  21.829  25.752  1.00  0.00    -0.269 OA
ATOM      7  H   UNL A   1      32.257  20.545  27.010  1.00  0.00     0.163 HD
BRANCH   5   8
ATOM      8  C   UNL A   1      32.430  23.212  24.989  1.00  0.00     0.076 A 
ATOM      9  C   UNL A   1      32.875  25.615  24.829  1.00  0.00    -0.014 A 
ATOM     10  C   UNL A   1      33.152  25.442  23.462  1.00  0.00     0.012 A 
ATOM     11  C   UNL A   1      32.619  24.462  25.592  1.00  0.00     0.025 A 
ATOM     12  C   UNL A   1      33.096  24.178  22.873  1.00  0.00     0.041 A 
ATOM     13  C   UNL A   1      32.706  23.076  23.629  1.00  0.00     0.135 A 
ATOM     14  F   UNL A   1      32.561  21.903  22.997  1.00  0.00    -0.206 F 
BRANCH   9  15
ATOM     15  C   UNL A   1      32.697  26.956  25.422  1.00  0.00     0.020 A 
ATOM     16  C   UNL A   1      32.391  31.044  26.866  1.00  0.00     0.047 C 
ATOM     17  C   UNL A   1      32.498  29.635  26.373  1.00  0.00    -0.012 A 
ATOM     18  C   UNL A   1      31.404  29.010  25.763  1.00  0.00     0.046 A 
ATOM     19  C   UNL A   1      33.677  28.906  26.515  1.00  0.00     0.126 A 
ATOM     20  C   UNL A   1      31.510  27.695  25.300  1.00  0.00     0.131 A 
ATOM     21  C   UNL A   1      33.783  27.597  26.048  1.00  0.00     0.051 A 
ATOM     22  F   UNL A   1      34.749  29.468  27.093  1.00  0.00    -0.207 F 
ATOM     23  F   UNL A   1      30.435  27.157  24.705  1.00  0.00    -0.206 F 
ENDBRANCH   9  15
ENDBRANCH   5   8
ENDBRANCH   3   4
ENDBRANCH   2   3
ENDBRANCH   1   2
BRANCH   1  24
ATOM     24  C   UNL A   1      37.024  21.992  25.179  1.00  0.00     0.116 C 
BRANCH  24  25
ATOM     25  N   UNL A   1      38.047  20.975  25.381  1.00  0.00    -0.352 N 
ATOM     26  C   UNL A   1      39.268  21.047  26.020  1.00  0.00     0.251 C 
ATOM     27  H   UNL A   1      37.832  20.093  25.000  1.00  0.00     0.163 HD
ATOM     28  O   UNL A   1      40.008  20.072  26.016  1.00  0.00    -0.269 OA
BRANCH  26  29
ATOM     29  C   UNL A   1      39.703  22.314  26.656  1.00  0.00     0.039 A 
ATOM     30  C   UNL A   1      39.162  23.537  26.268  1.00  0.00     0.014 A 
ATOM     31  C   UNL A   1      40.705  22.278  27.632  1.00  0.00     0.014 A 
ATOM     32  C   UNL A   1      39.773  24.719  26.670  1.00  0.00     0.010 A 
ATOM     33  C   UNL A   1      41.246  23.474  28.122  1.00  0.00     0.010 A 
ATOM     34  C   UNL A   1      40.834  24.705  27.592  1.00  0.00    -0.014 A 
BRANCH  34  35
ATOM     35  C   UNL A   1      41.484  25.992  27.965  1.00  0.00     0.031 A 
ATOM     36  C   UNL A   1      42.873  26.336  27.489  1.00  0.00     0.074 A 
ATOM     37  C   UNL A   1      40.783  26.893  28.683  1.00  0.00     0.049 A 
ATOM     38  N   UNL A   1      43.544  27.448  27.660  1.00  0.00    -0.248 NA
ATOM     39  C   UNL A   1      43.613  25.312  26.730  1.00  0.00     0.031 C 
ATOM     40  C   UNL A   1      39.447  26.667  29.239  1.00  0.00     0.029 A 
ATOM     41  N   UNL A   1      41.079  28.182  29.047  1.00  0.00    -0.354 N 
ATOM     42  C   UNL A   1      44.787  27.245  27.072  1.00  0.00     0.074 A 
ATOM     43  C   UNL A   1      44.788  25.902  26.539  1.00  0.00     0.031 C 
ATOM     44  C   UNL A   1      39.017  27.794  29.827  1.00  0.00     0.029 A 
ATOM     45  C   UNL A   1      40.063  28.807  29.732  1.00  0.00     0.049 A 
ATOM     46  H   UNL A   1      41.937  28.619  28.839  1.00  0.00     0.167 HD
ATOM     47  C   UNL A   1      45.823  28.108  26.963  1.00  0.00     0.034 A 
ATOM     48  C   UNL A   1      39.973  30.056  30.234  1.00  0.00     0.034 A 
ATOM     49  C   UNL A   1      45.800  29.468  27.425  1.00  0.00     0.049 A 
ATOM     50  C   UNL A   1      41.115  31.010  30.044  1.00  0.00     0.074 A 
ATOM     51  C   UNL A   1      46.792  30.427  27.307  1.00  0.00     0.029 A 
ATOM     52  N   UNL A   1      44.736  30.068  28.077  1.00  0.00    -0.354 N 
ATOM     53  N   UNL A   1      42.242  30.819  29.405  1.00  0.00    -0.248 NA
ATOM     54  C   UNL A   1      40.973  32.353  30.625  1.00  0.00     0.031 C 
ATOM     55  C   UNL A   1      46.326  31.611  27.881  1.00  0.00     0.029 A 
ATOM     56  C   UNL A   1      45.045  31.386  28.359  1.00  0.00     0.049 A 
ATOM     57  H   UNL A   1      43.888  29.624  28.304  1.00  0.00     0.167 HD
ATOM     58  C   UNL A   1      42.941  32.016  29.502  1.00  0.00     0.074 A 
ATOM     59  C   UNL A   1      42.101  32.936  30.238  1.00  0.00     0.031 C 
ATOM     60  C   UNL A   1      44.179  32.310  29.042  1.00  0.00     0.034 A 
BRANCH  47  61
ATOM     61  C   UNL A   1      47.068  27.656  26.249  1.00  0.00     0.023 A 
ATOM     62  C   UNL A   1      47.990  26.844  26.937  1.00  0.00     0.012 A 
ATOM     63  C   UNL A   1      47.240  27.894  24.871  1.00  0.00     0.148 A 
ATOM     64  C   UNL A   1      49.066  26.269  26.263  1.00  0.00     0.002 A 
ATOM     65  C   UNL A   1      48.301  27.297  24.201  1.00  0.00     0.091 A 
ATOM     66  F   UNL A   1      46.346  28.669  24.242  1.00  0.00    -0.205 F 
ATOM     67  C   UNL A   1      49.215  26.486  24.896  1.00  0.00     0.022 A 
BRANCH  65  68
ATOM     68  S   UNL A   1      48.555  27.460  22.430  1.00  0.00     0.127 S 
ATOM     69  O   UNL A   1      49.815  28.203  22.380  1.00  0.00    -0.237 OA
ATOM     70  O   UNL A   1      48.653  26.064  22.006  1.00  0.00    -0.237 OA
ATOM     71  O   UNL A   1      47.399  28.182  21.919  1.00  0.00    -0.744 OA
ENDBRANCH  65  68
ENDBRANCH  47  61
BRANCH  48  72
ATOM     72  C   UNL A   1      38.721  30.470  30.921  1.00  0.00     0.023 A 
ATOM     73  C   UNL A   1      38.594  30.278  32.309  1.00  0.00     0.012 A 
ATOM     74  C   UNL A   1      37.697  31.134  30.218  1.00  0.00     0.148 A 
ATOM     75  C   UNL A   1      37.465  30.738  32.986  1.00  0.00     0.002 A 
ATOM     76  C   UNL A   1      36.598  31.634  30.906  1.00  0.00     0.091 A 
ATOM     77  F   UNL A   1      37.835  31.291  28.894  1.00  0.00    -0.205 F 
ATOM     78  C   UNL A   1      36.475  31.428  32.289  1.00  0.00     0.022 A 
BRANCH  76  79
ATOM     79  S   UNL A   1      35.349  32.649  30.108  1.00  0.00     0.127 S 
ATOM     80  O   UNL A   1      34.403  32.869  31.198  1.00  0.00    -0.237 OA
ATOM     81  O   UNL A   1      36.123  33.827  29.714  1.00  0.00    -0.237 OA
ATOM     82  O   UNL A   1      34.857  31.855  28.990  1.00  0.00    -0.744 OA
ENDBRANCH  76  79
ENDBRANCH  48  72
BRANCH  60  83
ATOM     83  C   UNL A   1      44.731  33.681  29.304  1.00  0.00     0.023 A 
ATOM     84  C   UNL A   1      45.457  33.906  30.490  1.00  0.00     0.012 A 
ATOM     85  C   UNL A   1      44.676  34.681  28.316  1.00  0.00     0.148 A 
ATOM     86  C   UNL A   1      46.128  35.112  30.686  1.00  0.00     0.002 A 
ATOM     87  C   UNL A   1      45.372  35.869  28.505  1.00  0.00     0.091 A 
ATOM     88  F   UNL A   1      43.978  34.434  27.198  1.00  0.00    -0.205 F 
ATOM     89  C   UNL A   1      46.095  36.087  29.690  1.00  0.00     0.022 A 
BRANCH  87  90
ATOM     90  S   UNL A   1      45.454  37.156  27.256  1.00  0.00     0.127 S 
ATOM     91  O   UNL A   1      44.038  37.427  27.012  1.00  0.00    -0.237 OA
ATOM     92  O   UNL A   1      46.167  38.222  27.960  1.00  0.00    -0.237 OA
ATOM     93  O   UNL A   1      46.172  36.581  26.126  1.00  0.00    -0.744 OA
ENDBRANCH  87  90
ENDBRANCH  60  83
ENDBRANCH  34  35
ENDBRANCH  26  29
ENDBRANCH  24  25
ENDBRANCH   1  24
TORSDOF 15
ENDMDL
