MODEL 1
REMARK VINA RESULT:     -12.4      0.000      0.000
REMARK SMILES O=C(NCCCCNC(=O)c1sccc1S(=O)(=O)Nc1ccc(-c2nc3ccccc3n2C(F)F)cc1)c1ccc(-c2c3nc(c(-c4cccc(S(=O)(=O)[O-])c4F)c4ccc([nH]4)c(-c4cccc(S(=O)(=O)[O-])c4F)c4nc(c(-c5cccc(S(=O)(=O)[O-])c5F)c5ccc2[nH]5)C=C4)C=C3)cc1
REMARK SMILES IDX 6 1 5 2 4 3 3 4 1 5 2 6 38 8 39 9 100 10 40 11 99 12 41 13
REMARK SMILES IDX 42 14 43 15 93 16 44 17 98 18 92 19 94 20 45 21 97 22 91 23
REMARK SMILES IDX 90 24 46 26 78 27 58 28 77 29 59 30 62 31 76 32 95 33 60 34
REMARK SMILES IDX 61 35 75 37 96 38 63 39 47 40 48 41 56 42 49 43 51 44 57 45
REMARK SMILES IDX 50 46 52 47 53 48 54 49 55 50 79 51 80 52 88 53 81 54 83 55
REMARK SMILES IDX 89 56 82 57 84 58 85 59 86 60 87 61 64 62 65 63 73 64 66 65
REMARK SMILES IDX 68 66 74 67 67 68 69 69 70 70 71 71 72 72 7 73 8 74 9 75
REMARK SMILES IDX 10 77 11 78 12 79 15 80 13 81 14 82 16 83 17 84 18 85 19 86
REMARK SMILES IDX 20 88 21 89 37 90 22 91 36 92 23 93 24 94 25 95 32 96 26 97
REMARK SMILES IDX 31 98 27 99 30 100 28 101 29 102 33 103 34 104 35 105
REMARK H PARENT 3 7 94 25 62 36 8 76 19 87
REMARK Flexibility Score: inf
ROOT
ATOM      1  C   UNL A   1      37.333  21.796  25.195  1.00  0.00     0.023 C 
ENDROOT
BRANCH   1   2
ATOM      2  C   UNL A   1      37.223  22.958  26.188  1.00  0.00     0.023 C 
BRANCH   2   3
ATOM      3  C   UNL A   1      38.359  23.977  26.136  1.00  0.00     0.116 C 
BRANCH   3   4
ATOM      4  N   UNL A   1      39.707  23.461  26.093  1.00  0.00    -0.352 N 
ATOM      5  O   UNL A   1      41.823  23.060  26.622  1.00  0.00    -0.269 OA
ATOM      6  C   UNL A   1      40.878  23.847  26.686  1.00  0.00     0.251 C 
ATOM      7  H   UNL A   1      39.802  22.668  25.518  1.00  0.00     0.163 HD
BRANCH   6   8
ATOM      8  C   UNL A   1      41.080  25.181  27.293  1.00  0.00     0.039 A 
ATOM      9  C   UNL A   1      41.767  25.419  28.484  1.00  0.00     0.014 A 
ATOM     10  C   UNL A   1      40.517  26.261  26.594  1.00  0.00     0.014 A 
ATOM     11  C   UNL A   1      41.786  26.695  29.035  1.00  0.00     0.010 A 
ATOM     12  C   UNL A   1      40.568  27.544  27.119  1.00  0.00     0.010 A 
ATOM     13  C   UNL A   1      41.171  27.752  28.359  1.00  0.00    -0.014 A 
BRANCH  13  14
ATOM     14  C   UNL A   1      41.321  29.097  28.908  1.00  0.00     0.031 A 
ATOM     15  C   UNL A   1      42.496  29.862  28.400  1.00  0.00     0.074 A 
ATOM     16  C   UNL A   1      40.382  29.698  29.665  1.00  0.00     0.049 A 
ATOM     17  N   UNL A   1      43.465  30.390  29.079  1.00  0.00    -0.248 NA
ATOM     18  C   UNL A   1      42.651  29.982  26.943  1.00  0.00     0.031 C 
ATOM     19  C   UNL A   1      39.034  29.205  29.960  1.00  0.00     0.029 A 
ATOM     20  N   UNL A   1      40.382  30.957  30.193  1.00  0.00    -0.354 N 
ATOM     21  C   UNL A   1      44.242  31.085  28.149  1.00  0.00     0.074 A 
ATOM     22  C   UNL A   1      43.785  30.676  26.848  1.00  0.00     0.031 C 
ATOM     23  C   UNL A   1      38.272  30.240  30.374  1.00  0.00     0.029 A 
ATOM     24  C   UNL A   1      39.106  31.424  30.491  1.00  0.00     0.049 A 
ATOM     25  H   UNL A   1      41.201  31.481  30.348  1.00  0.00     0.167 HD
ATOM     26  C   UNL A   1      45.065  32.107  28.509  1.00  0.00     0.034 A 
ATOM     27  C   UNL A   1      38.745  32.709  30.720  1.00  0.00     0.034 A 
ATOM     28  C   UNL A   1      45.318  32.127  29.924  1.00  0.00     0.049 A 
ATOM     29  C   UNL A   1      39.965  33.473  31.062  1.00  0.00     0.074 A 
ATOM     30  C   UNL A   1      45.868  31.260  30.844  1.00  0.00     0.029 A 
ATOM     31  N   UNL A   1      44.688  33.104  30.654  1.00  0.00    -0.354 N 
ATOM     32  N   UNL A   1      40.638  33.320  32.166  1.00  0.00    -0.248 NA
ATOM     33  C   UNL A   1      40.653  34.194  30.004  1.00  0.00     0.031 C 
ATOM     34  C   UNL A   1      45.155  31.504  32.054  1.00  0.00     0.029 A 
ATOM     35  C   UNL A   1      44.230  32.519  31.801  1.00  0.00     0.049 A 
ATOM     36  H   UNL A   1      44.585  34.050  30.399  1.00  0.00     0.167 HD
ATOM     37  C   UNL A   1      41.959  33.522  31.797  1.00  0.00     0.074 A 
ATOM     38  C   UNL A   1      41.891  34.191  30.501  1.00  0.00     0.031 C 
ATOM     39  C   UNL A   1      42.976  32.865  32.432  1.00  0.00     0.034 A 
BRANCH  26  40
ATOM     40  C   UNL A   1      45.386  33.312  27.652  1.00  0.00     0.023 A 
ATOM     41  C   UNL A   1      46.604  33.293  26.933  1.00  0.00     0.012 A 
ATOM     42  C   UNL A   1      44.717  34.554  27.741  1.00  0.00     0.148 A 
ATOM     43  C   UNL A   1      47.159  34.457  26.390  1.00  0.00     0.002 A 
ATOM     44  C   UNL A   1      45.232  35.691  27.128  1.00  0.00     0.091 A 
ATOM     45  F   UNL A   1      43.649  34.684  28.535  1.00  0.00    -0.205 F 
ATOM     46  C   UNL A   1      46.469  35.657  26.482  1.00  0.00     0.022 A 
BRANCH  44  47
ATOM     47  S   UNL A   1      44.344  37.253  27.162  1.00  0.00     0.127 S 
ATOM     48  O   UNL A   1      43.105  36.900  26.477  1.00  0.00    -0.237 OA
ATOM     49  O   UNL A   1      44.211  37.494  28.600  1.00  0.00    -0.237 OA
ATOM     50  O   UNL A   1      45.216  38.202  26.480  1.00  0.00    -0.744 OA
ENDBRANCH  44  47
ENDBRANCH  26  40
BRANCH  27  51
ATOM     51  C   UNL A   1      37.455  33.383  30.455  1.00  0.00     0.023 A 
ATOM     52  C   UNL A   1      36.982  33.490  29.132  1.00  0.00     0.012 A 
ATOM     53  C   UNL A   1      36.565  33.691  31.508  1.00  0.00     0.148 A 
ATOM     54  C   UNL A   1      35.662  33.868  28.867  1.00  0.00     0.002 A 
ATOM     55  C   UNL A   1      35.257  34.082  31.239  1.00  0.00     0.091 A 
ATOM     56  F   UNL A   1      36.971  33.512  32.772  1.00  0.00    -0.205 F 
ATOM     57  C   UNL A   1      34.798  34.160  29.919  1.00  0.00     0.022 A 
BRANCH  55  58
ATOM     58  S   UNL A   1      34.088  34.465  32.550  1.00  0.00     0.127 S 
ATOM     59  O   UNL A   1      32.950  34.996  31.799  1.00  0.00    -0.237 OA
ATOM     60  O   UNL A   1      33.866  33.153  33.151  1.00  0.00    -0.237 OA
ATOM     61  O   UNL A   1      34.753  35.448  33.396  1.00  0.00    -0.744 OA
ENDBRANCH  55  58
ENDBRANCH  27  51
BRANCH  39  62
ATOM     62  C   UNL A   1      42.678  32.175  33.737  1.00  0.00     0.023 A 
ATOM     63  C   UNL A   1      42.584  32.884  34.952  1.00  0.00     0.012 A 
ATOM     64  C   UNL A   1      42.307  30.819  33.711  1.00  0.00     0.148 A 
ATOM     65  C   UNL A   1      42.160  32.249  36.121  1.00  0.00     0.002 A 
ATOM     66  C   UNL A   1      41.834  30.205  34.865  1.00  0.00     0.091 A 
ATOM     67  F   UNL A   1      42.394  30.157  32.548  1.00  0.00    -0.205 F 
ATOM     68  C   UNL A   1      41.771  30.913  36.074  1.00  0.00     0.022 A 
BRANCH  66  69
ATOM     69  S   UNL A   1      41.180  28.534  34.835  1.00  0.00     0.127 S 
ATOM     70  O   UNL A   1      40.067  28.656  33.898  1.00  0.00    -0.237 OA
ATOM     71  O   UNL A   1      42.318  27.758  34.336  1.00  0.00    -0.237 OA
ATOM     72  O   UNL A   1      40.817  28.225  36.214  1.00  0.00    -0.744 OA
ENDBRANCH  66  69
ENDBRANCH  39  62
ENDBRANCH  13  14
ENDBRANCH   6   8
ENDBRANCH   3   4
ENDBRANCH   2   3
ENDBRANCH   1   2
BRANCH   1  73
ATOM     73  C   UNL A   1      36.127  20.863  25.155  1.00  0.00     0.116 C 
BRANCH  73  74
ATOM     74  N   UNL A   1      35.184  21.149  26.216  1.00  0.00    -0.351 N 
ATOM     75  C   UNL A   1      33.836  20.905  26.259  1.00  0.00     0.262 C 
ATOM     76  H   UNL A   1      35.562  21.579  27.016  1.00  0.00     0.163 HD
ATOM     77  O   UNL A   1      33.202  21.436  27.172  1.00  0.00    -0.268 OA
BRANCH  75  78
ATOM     78  C   UNL A   1      33.209  20.125  25.215  1.00  0.00     0.112 A 
ATOM     79  S   UNL A   1      33.227  18.415  25.482  1.00  0.00    -0.137 S 
ATOM     80  C   UNL A   1      32.640  20.428  23.990  1.00  0.00     0.111 A 
ATOM     81  C   UNL A   1      32.394  18.095  24.035  1.00  0.00     0.067 A 
ATOM     82  C   UNL A   1      32.131  19.248  23.337  1.00  0.00     0.035 A 
BRANCH  80  83
ATOM     83  S   UNL A   1      32.504  21.956  23.173  1.00  0.00     0.263 S 
ATOM     84  O   UNL A   1      31.974  21.601  21.880  1.00  0.00    -0.201 OA
ATOM     85  O   UNL A   1      31.708  22.740  24.105  1.00  0.00    -0.201 OA
BRANCH  83  86
ATOM     86  N   UNL A   1      33.905  22.818  22.957  1.00  0.00    -0.280 N 
ATOM     87  H   UNL A   1      34.655  22.355  22.519  1.00  0.00     0.180 HD
BRANCH  86  88
ATOM     88  C   UNL A   1      34.115  24.161  23.348  1.00  0.00     0.049 A 
ATOM     89  C   UNL A   1      33.814  25.140  22.397  1.00  0.00     0.027 A 
ATOM     90  C   UNL A   1      34.435  24.548  24.639  1.00  0.00     0.027 A 
ATOM     91  C   UNL A   1      33.619  26.470  22.776  1.00  0.00     0.014 A 
ATOM     92  C   UNL A   1      34.253  25.880  25.011  1.00  0.00     0.014 A 
ATOM     93  C   UNL A   1      33.757  26.845  24.110  1.00  0.00     0.018 A 
BRANCH  93  94
ATOM     94  C   UNL A   1      33.376  28.153  24.669  1.00  0.00     0.145 A 
ATOM     95  N   UNL A   1      34.136  28.762  25.566  1.00  0.00    -0.228 NA
ATOM     96  N   UNL A   1      32.191  28.856  24.513  1.00  0.00    -0.266 N 
ATOM     97  C   UNL A   1      33.398  29.782  26.083  1.00  0.00     0.089 A 
ATOM     98  C   UNL A   1      32.163  29.872  25.454  1.00  0.00     0.074 A 
ATOM     99  C   UNL A   1      33.727  30.664  27.119  1.00  0.00     0.030 A 
ATOM    100  C   UNL A   1      31.211  30.834  25.822  1.00  0.00     0.029 A 
ATOM    101  C   UNL A   1      32.791  31.626  27.505  1.00  0.00     0.002 A 
ATOM    102  C   UNL A   1      31.554  31.707  26.864  1.00  0.00     0.002 A 
BRANCH  96 103
ATOM    103  C   UNL A   1      31.129  28.603  23.563  1.00  0.00     0.451 C 
ATOM    104  F   UNL A   1      31.580  28.730  22.285  1.00  0.00    -0.185 F 
ATOM    105  F   UNL A   1      30.613  27.351  23.679  1.00  0.00    -0.185 F 
ENDBRANCH  96 103
ENDBRANCH  93  94
ENDBRANCH  86  88
ENDBRANCH  83  86
ENDBRANCH  80  83
ENDBRANCH  75  78
ENDBRANCH  73  74
ENDBRANCH   1  73
TORSDOF 19
ENDMDL
MODEL 2
REMARK VINA RESULT:     -12.4      1.617      2.176
REMARK SMILES O=C(NCCCCNC(=O)c1sccc1S(=O)(=O)Nc1ccc(-c2nc3ccccc3n2C(F)F)cc1)c1ccc(-c2c3nc(c(-c4cccc(S(=O)(=O)[O-])c4F)c4ccc([nH]4)c(-c4cccc(S(=O)(=O)[O-])c4F)c4nc(c(-c5cccc(S(=O)(=O)[O-])c5F)c5ccc2[nH]5)C=C4)C=C3)cc1
REMARK SMILES IDX 6 1 5 2 4 3 3 4 1 5 2 6 38 8 39 9 100 10 40 11 99 12 41 13
REMARK SMILES IDX 42 14 43 15 93 16 44 17 98 18 92 19 94 20 45 21 97 22 91 23
REMARK SMILES IDX 90 24 46 26 78 27 58 28 77 29 59 30 62 31 76 32 95 33 60 34
REMARK SMILES IDX 61 35 75 37 96 38 63 39 47 40 48 41 56 42 49 43 51 44 57 45
REMARK SMILES IDX 50 46 52 47 53 48 54 49 55 50 79 51 80 52 88 53 81 54 83 55
REMARK SMILES IDX 89 56 82 57 84 58 85 59 86 60 87 61 64 62 65 63 73 64 66 65
REMARK SMILES IDX 68 66 74 67 67 68 69 69 70 70 71 71 72 72 7 73 8 74 9 75
REMARK SMILES IDX 10 77 11 78 12 79 15 80 13 81 14 82 16 83 17 84 18 85 19 86
REMARK SMILES IDX 20 88 21 89 37 90 22 91 36 92 23 93 24 94 25 95 32 96 26 97
REMARK SMILES IDX 31 98 27 99 30 100 28 101 29 102 33 103 34 104 35 105
REMARK H PARENT 3 7 94 25 62 36 8 76 19 87
REMARK Flexibility Score: inf
ROOT
ATOM      1  C   UNL A   1      37.341  21.778  25.059  1.00  0.00     0.023 C 
ENDROOT
BRANCH   1   2
ATOM      2  C   UNL A   1      36.987  23.111  25.728  1.00  0.00     0.023 C 
BRANCH   2   3
ATOM      3  C   UNL A   1      38.173  24.006  26.079  1.00  0.00     0.116 C 
BRANCH   3   4
ATOM      4  N   UNL A   1      39.440  23.357  26.320  1.00  0.00    -0.352 N 
ATOM      5  O   UNL A   1      41.379  22.808  27.247  1.00  0.00    -0.269 OA
ATOM      6  C   UNL A   1      40.535  23.687  27.071  1.00  0.00     0.251 C 
ATOM      7  H   UNL A   1      39.536  22.500  25.846  1.00  0.00     0.163 HD
BRANCH   6   8
ATOM      8  C   UNL A   1      40.789  25.054  27.580  1.00  0.00     0.039 A 
ATOM      9  C   UNL A   1      41.794  25.393  28.487  1.00  0.00     0.014 A 
ATOM     10  C   UNL A   1      39.928  26.054  27.099  1.00  0.00     0.014 A 
ATOM     11  C   UNL A   1      41.862  26.683  29.001  1.00  0.00     0.010 A 
ATOM     12  C   UNL A   1      40.018  27.352  27.578  1.00  0.00     0.010 A 
ATOM     13  C   UNL A   1      40.963  27.656  28.558  1.00  0.00    -0.014 A 
BRANCH  13  14
ATOM     14  C   UNL A   1      41.147  29.025  29.028  1.00  0.00     0.031 A 
ATOM     15  C   UNL A   1      42.322  29.742  28.451  1.00  0.00     0.074 A 
ATOM     16  C   UNL A   1      40.237  29.683  29.773  1.00  0.00     0.049 A 
ATOM     17  N   UNL A   1      43.315  30.289  29.077  1.00  0.00    -0.248 NA
ATOM     18  C   UNL A   1      42.443  29.779  26.986  1.00  0.00     0.031 C 
ATOM     19  C   UNL A   1      38.889  29.230  30.127  1.00  0.00     0.029 A 
ATOM     20  N   UNL A   1      40.269  30.969  30.231  1.00  0.00    -0.354 N 
ATOM     21  C   UNL A   1      44.080  30.919  28.092  1.00  0.00     0.074 A 
ATOM     22  C   UNL A   1      43.584  30.447  26.827  1.00  0.00     0.031 C 
ATOM     23  C   UNL A   1      38.154  30.299  30.501  1.00  0.00     0.029 A 
ATOM     24  C   UNL A   1      39.009  31.473  30.533  1.00  0.00     0.049 A 
ATOM     25  H   UNL A   1      41.100  31.487  30.337  1.00  0.00     0.167 HD
ATOM     26  C   UNL A   1      44.928  31.944  28.376  1.00  0.00     0.034 A 
ATOM     27  C   UNL A   1      38.675  32.774  30.699  1.00  0.00     0.034 A 
ATOM     28  C   UNL A   1      45.215  32.038  29.781  1.00  0.00     0.049 A 
ATOM     29  C   UNL A   1      39.914  33.535  30.969  1.00  0.00     0.074 A 
ATOM     30  C   UNL A   1      45.774  31.213  30.734  1.00  0.00     0.029 A 
ATOM     31  N   UNL A   1      44.619  33.063  30.471  1.00  0.00    -0.354 N 
ATOM     32  N   UNL A   1      40.612  33.431  32.064  1.00  0.00    -0.248 NA
ATOM     33  C   UNL A   1      40.587  34.186  29.857  1.00  0.00     0.031 C 
ATOM     34  C   UNL A   1      45.095  31.535  31.945  1.00  0.00     0.029 A 
ATOM     35  C   UNL A   1      44.180  32.551  31.659  1.00  0.00     0.049 A 
ATOM     36  H   UNL A   1      44.525  33.996  30.167  1.00  0.00     0.167 HD
ATOM     37  C   UNL A   1      41.926  33.590  31.653  1.00  0.00     0.074 A 
ATOM     38  C   UNL A   1      41.837  34.188  30.324  1.00  0.00     0.031 C 
ATOM     39  C   UNL A   1      42.948  32.952  32.299  1.00  0.00     0.034 A 
BRANCH  26  40
ATOM     40  C   UNL A   1      45.246  33.095  27.445  1.00  0.00     0.023 A 
ATOM     41  C   UNL A   1      44.280  33.424  26.465  1.00  0.00     0.012 A 
ATOM     42  C   UNL A   1      46.530  33.665  27.293  1.00  0.00     0.148 A 
ATOM     43  C   UNL A   1      44.594  34.222  25.359  1.00  0.00     0.002 A 
ATOM     44  C   UNL A   1      46.812  34.524  26.236  1.00  0.00     0.091 A 
ATOM     45  F   UNL A   1      47.535  33.275  28.085  1.00  0.00    -0.205 F 
ATOM     46  C   UNL A   1      45.860  34.778  25.247  1.00  0.00     0.022 A 
BRANCH  44  47
ATOM     47  S   UNL A   1      48.415  35.320  26.084  1.00  0.00     0.127 S 
ATOM     48  O   UNL A   1      49.061  34.491  25.072  1.00  0.00    -0.237 OA
ATOM     49  O   UNL A   1      48.045  36.665  25.640  1.00  0.00    -0.237 OA
ATOM     50  O   UNL A   1      48.991  35.276  27.423  1.00  0.00    -0.744 OA
ENDBRANCH  44  47
ENDBRANCH  26  40
BRANCH  27  51
ATOM     51  C   UNL A   1      37.389  33.455  30.428  1.00  0.00     0.023 A 
ATOM     52  C   UNL A   1      36.932  33.581  29.101  1.00  0.00     0.012 A 
ATOM     53  C   UNL A   1      36.487  33.751  31.475  1.00  0.00     0.148 A 
ATOM     54  C   UNL A   1      35.616  33.966  28.826  1.00  0.00     0.002 A 
ATOM     55  C   UNL A   1      35.183  34.148  31.196  1.00  0.00     0.091 A 
ATOM     56  F   UNL A   1      36.877  33.554  32.741  1.00  0.00    -0.205 F 
ATOM     57  C   UNL A   1      34.740  34.245  29.871  1.00  0.00     0.022 A 
BRANCH  55  58
ATOM     58  S   UNL A   1      33.999  34.516  32.497  1.00  0.00     0.127 S 
ATOM     59  O   UNL A   1      33.809  33.204  33.118  1.00  0.00    -0.237 OA
ATOM     60  O   UNL A   1      34.736  35.478  33.313  1.00  0.00    -0.237 OA
ATOM     61  O   UNL A   1      32.816  35.031  31.820  1.00  0.00    -0.744 OA
ENDBRANCH  55  58
ENDBRANCH  27  51
BRANCH  39  62
ATOM     62  C   UNL A   1      42.672  32.339  33.647  1.00  0.00     0.023 A 
ATOM     63  C   UNL A   1      42.652  33.110  34.827  1.00  0.00     0.012 A 
ATOM     64  C   UNL A   1      42.244  31.001  33.702  1.00  0.00     0.148 A 
ATOM     65  C   UNL A   1      42.247  32.551  36.041  1.00  0.00     0.002 A 
ATOM     66  C   UNL A   1      41.791  30.464  34.901  1.00  0.00     0.091 A 
ATOM     67  F   UNL A   1      42.260  30.280  32.571  1.00  0.00    -0.205 F 
ATOM     68  C   UNL A   1      41.802  31.232  36.075  1.00  0.00     0.022 A 
BRANCH  66  69
ATOM     69  S   UNL A   1      41.067  28.823  34.979  1.00  0.00     0.127 S 
ATOM     70  O   UNL A   1      39.946  28.938  34.051  1.00  0.00    -0.237 OA
ATOM     71  O   UNL A   1      42.164  27.973  34.511  1.00  0.00    -0.237 OA
ATOM     72  O   UNL A   1      40.714  28.611  36.378  1.00  0.00    -0.744 OA
ENDBRANCH  66  69
ENDBRANCH  39  62
ENDBRANCH  13  14
ENDBRANCH   6   8
ENDBRANCH   3   4
ENDBRANCH   2   3
ENDBRANCH   1   2
BRANCH   1  73
ATOM     73  C   UNL A   1      36.265  20.701  25.154  1.00  0.00     0.116 C 
BRANCH  73  74
ATOM     74  N   UNL A   1      35.277  21.008  26.166  1.00  0.00    -0.351 N 
ATOM     75  C   UNL A   1      33.911  20.942  26.083  1.00  0.00     0.262 C 
ATOM     76  H   UNL A   1      35.635  21.306  27.032  1.00  0.00     0.163 HD
ATOM     77  O   UNL A   1      33.271  21.464  26.997  1.00  0.00    -0.268 OA
BRANCH  75  78
ATOM     78  C   UNL A   1      33.285  20.354  24.920  1.00  0.00     0.112 A 
ATOM     79  S   UNL A   1      33.291  18.624  24.894  1.00  0.00    -0.137 S 
ATOM     80  C   UNL A   1      32.724  20.864  23.761  1.00  0.00     0.111 A 
ATOM     81  C   UNL A   1      32.463  18.559  23.409  1.00  0.00     0.067 A 
ATOM     82  C   UNL A   1      32.211  19.815  22.916  1.00  0.00     0.035 A 
BRANCH  80  83
ATOM     83  S   UNL A   1      32.602  22.509  23.213  1.00  0.00     0.263 S 
ATOM     84  O   UNL A   1      33.227  22.480  21.915  1.00  0.00    -0.201 OA
ATOM     85  O   UNL A   1      31.177  22.775  23.337  1.00  0.00    -0.201 OA
BRANCH  83  86
ATOM     86  N   UNL A   1      33.348  23.665  24.140  1.00  0.00    -0.280 N 
ATOM     87  H   UNL A   1      34.164  23.398  24.621  1.00  0.00     0.180 HD
BRANCH  86  88
ATOM     88  C   UNL A   1      32.914  25.003  24.297  1.00  0.00     0.049 A 
ATOM     89  C   UNL A   1      33.152  25.864  23.222  1.00  0.00     0.027 A 
ATOM     90  C   UNL A   1      32.143  25.443  25.360  1.00  0.00     0.027 A 
ATOM     91  C   UNL A   1      32.454  27.068  23.102  1.00  0.00     0.014 A 
ATOM     92  C   UNL A   1      31.459  26.654  25.242  1.00  0.00     0.014 A 
ATOM     93  C   UNL A   1      31.532  27.443  24.076  1.00  0.00     0.018 A 
BRANCH  93  94
ATOM     94  C   UNL A   1      30.588  28.566  23.965  1.00  0.00     0.145 A 
ATOM     95  N   UNL A   1      29.542  28.506  23.154  1.00  0.00    -0.228 NA
ATOM     96  N   UNL A   1      30.684  29.843  24.500  1.00  0.00    -0.266 N 
ATOM     97  C   UNL A   1      29.038  29.767  23.064  1.00  0.00     0.089 A 
ATOM     98  C   UNL A   1      29.733  30.641  23.889  1.00  0.00     0.074 A 
ATOM     99  C   UNL A   1      27.985  30.234  22.268  1.00  0.00     0.030 A 
ATOM    100  C   UNL A   1      29.414  32.006  23.959  1.00  0.00     0.029 A 
ATOM    101  C   UNL A   1      27.656  31.590  22.319  1.00  0.00     0.002 A 
ATOM    102  C   UNL A   1      28.361  32.459  23.152  1.00  0.00     0.002 A 
BRANCH  96 103
ATOM    103  C   UNL A   1      31.611  30.314  25.507  1.00  0.00     0.451 C 
ATOM    104  F   UNL A   1      31.409  29.672  26.690  1.00  0.00    -0.185 F 
ATOM    105  F   UNL A   1      32.908  30.105  25.160  1.00  0.00    -0.185 F 
ENDBRANCH  96 103
ENDBRANCH  93  94
ENDBRANCH  86  88
ENDBRANCH  83  86
ENDBRANCH  80  83
ENDBRANCH  75  78
ENDBRANCH  73  74
ENDBRANCH   1  73
TORSDOF 19
ENDMDL
MODEL 3
REMARK VINA RESULT:     -11.8      5.835     13.314
REMARK SMILES O=C(NCCCCNC(=O)c1sccc1S(=O)(=O)Nc1ccc(-c2nc3ccccc3n2C(F)F)cc1)c1ccc(-c2c3nc(c(-c4cccc(S(=O)(=O)[O-])c4F)c4ccc([nH]4)c(-c4cccc(S(=O)(=O)[O-])c4F)c4nc(c(-c5cccc(S(=O)(=O)[O-])c5F)c5ccc2[nH]5)C=C4)C=C3)cc1
REMARK SMILES IDX 6 1 5 2 4 3 3 4 1 5 2 6 38 8 39 9 100 10 40 11 99 12 41 13
REMARK SMILES IDX 42 14 43 15 93 16 44 17 98 18 92 19 94 20 45 21 97 22 91 23
REMARK SMILES IDX 90 24 46 26 78 27 58 28 77 29 59 30 62 31 76 32 95 33 60 34
REMARK SMILES IDX 61 35 75 37 96 38 63 39 47 40 48 41 56 42 49 43 51 44 57 45
REMARK SMILES IDX 50 46 52 47 53 48 54 49 55 50 79 51 80 52 88 53 81 54 83 55
REMARK SMILES IDX 89 56 82 57 84 58 85 59 86 60 87 61 64 62 65 63 73 64 66 65
REMARK SMILES IDX 68 66 74 67 67 68 69 69 70 70 71 71 72 72 7 73 8 74 9 75
REMARK SMILES IDX 10 77 11 78 12 79 15 80 13 81 14 82 16 83 17 84 18 85 19 86
REMARK SMILES IDX 20 88 21 89 37 90 22 91 36 92 23 93 24 94 25 95 32 96 26 97
REMARK SMILES IDX 31 98 27 99 30 100 28 101 29 102 33 103 34 104 35 105
REMARK H PARENT 3 7 94 25 62 36 8 76 19 87
REMARK Flexibility Score: inf
ROOT
ATOM      1  C   UNL A   1      34.071  33.862  33.099  1.00  0.00     0.023 C 
ENDROOT
BRANCH   1   2
ATOM      2  C   UNL A   1      34.621  33.976  31.674  1.00  0.00     0.023 C 
BRANCH   2   3
ATOM      3  C   UNL A   1      34.807  32.655  30.932  1.00  0.00     0.116 C 
BRANCH   3   4
ATOM      4  N   UNL A   1      34.670  32.681  29.494  1.00  0.00    -0.352 N 
ATOM      5  O   UNL A   1      34.775  32.084  27.361  1.00  0.00    -0.269 OA
ATOM      6  C   UNL A   1      35.275  31.987  28.482  1.00  0.00     0.251 C 
ATOM      7  H   UNL A   1      34.004  33.332  29.178  1.00  0.00     0.163 HD
BRANCH   6   8
ATOM      8  C   UNL A   1      36.534  31.228  28.656  1.00  0.00     0.039 A 
ATOM      9  C   UNL A   1      36.675  29.857  28.441  1.00  0.00     0.014 A 
ATOM     10  C   UNL A   1      37.644  31.978  29.079  1.00  0.00     0.014 A 
ATOM     11  C   UNL A   1      37.868  29.220  28.760  1.00  0.00     0.010 A 
ATOM     12  C   UNL A   1      38.850  31.353  29.361  1.00  0.00     0.010 A 
ATOM     13  C   UNL A   1      38.948  29.968  29.236  1.00  0.00    -0.014 A 
BRANCH  13  14
ATOM     14  C   UNL A   1      40.221  29.282  29.441  1.00  0.00     0.031 A 
ATOM     15  C   UNL A   1      40.546  28.956  30.860  1.00  0.00     0.074 A 
ATOM     16  C   UNL A   1      40.971  28.795  28.433  1.00  0.00     0.049 A 
ATOM     17  N   UNL A   1      41.588  29.305  31.545  1.00  0.00    -0.248 NA
ATOM     18  C   UNL A   1      39.539  28.217  31.635  1.00  0.00     0.031 C 
ATOM     19  C   UNL A   1      40.614  28.736  27.013  1.00  0.00     0.029 A 
ATOM     20  N   UNL A   1      42.144  28.099  28.494  1.00  0.00    -0.354 N 
ATOM     21  C   UNL A   1      41.466  28.655  32.776  1.00  0.00     0.074 A 
ATOM     22  C   UNL A   1      40.127  28.130  32.828  1.00  0.00     0.031 C 
ATOM     23  C   UNL A   1      41.405  27.827  26.402  1.00  0.00     0.029 A 
ATOM     24  C   UNL A   1      42.392  27.345  27.353  1.00  0.00     0.049 A 
ATOM     25  H   UNL A   1      42.754  28.129  29.267  1.00  0.00     0.167 HD
ATOM     26  C   UNL A   1      42.537  28.410  33.578  1.00  0.00     0.034 A 
ATOM     27  C   UNL A   1      43.278  26.328  27.229  1.00  0.00     0.034 A 
ATOM     28  C   UNL A   1      43.681  29.198  33.210  1.00  0.00     0.049 A 
ATOM     29  C   UNL A   1      44.260  26.439  28.330  1.00  0.00     0.074 A 
ATOM     30  C   UNL A   1      43.967  30.543  33.112  1.00  0.00     0.029 A 
ATOM     31  N   UNL A   1      44.705  28.546  32.570  1.00  0.00    -0.354 N 
ATOM     32  N   UNL A   1      45.149  27.387  28.424  1.00  0.00    -0.248 NA
ATOM     33  C   UNL A   1      44.037  25.668  29.542  1.00  0.00     0.031 C 
ATOM     34  C   UNL A   1      44.892  30.646  32.032  1.00  0.00     0.029 A 
ATOM     35  C   UNL A   1      45.128  29.355  31.554  1.00  0.00     0.049 A 
ATOM     36  H   UNL A   1      45.068  27.659  32.800  1.00  0.00     0.167 HD
ATOM     37  C   UNL A   1      45.265  27.619  29.786  1.00  0.00     0.074 A 
ATOM     38  C   UNL A   1      44.672  26.446  30.421  1.00  0.00     0.031 C 
ATOM     39  C   UNL A   1      45.560  28.864  30.265  1.00  0.00     0.034 A 
BRANCH  26  40
ATOM     40  C   UNL A   1      42.686  27.212  34.492  1.00  0.00     0.023 A 
ATOM     41  C   UNL A   1      42.426  27.409  35.868  1.00  0.00     0.012 A 
ATOM     42  C   UNL A   1      43.336  26.011  34.130  1.00  0.00     0.148 A 
ATOM     43  C   UNL A   1      42.848  26.492  36.837  1.00  0.00     0.002 A 
ATOM     44  C   UNL A   1      43.678  25.064  35.090  1.00  0.00     0.091 A 
ATOM     45  F   UNL A   1      43.757  25.828  32.874  1.00  0.00    -0.205 F 
ATOM     46  C   UNL A   1      43.469  25.315  36.448  1.00  0.00     0.022 A 
BRANCH  44  47
ATOM     47  S   UNL A   1      44.425  23.497  34.629  1.00  0.00     0.127 S 
ATOM     48  O   UNL A   1      45.655  23.937  33.979  1.00  0.00    -0.237 OA
ATOM     49  O   UNL A   1      44.607  22.853  35.931  1.00  0.00    -0.237 OA
ATOM     50  O   UNL A   1      43.439  22.842  33.777  1.00  0.00    -0.744 OA
ENDBRANCH  44  47
ENDBRANCH  26  40
BRANCH  27  51
ATOM     51  C   UNL A   1      43.220  25.133  26.358  1.00  0.00     0.023 A 
ATOM     52  C   UNL A   1      44.130  25.004  25.290  1.00  0.00     0.012 A 
ATOM     53  C   UNL A   1      42.454  24.003  26.722  1.00  0.00     0.148 A 
ATOM     54  C   UNL A   1      44.288  23.785  24.622  1.00  0.00     0.002 A 
ATOM     55  C   UNL A   1      42.604  22.797  26.045  1.00  0.00     0.091 A 
ATOM     56  F   UNL A   1      41.648  24.084  27.789  1.00  0.00    -0.205 F 
ATOM     57  C   UNL A   1      43.529  22.681  25.001  1.00  0.00     0.022 A 
BRANCH  55  58
ATOM     58  S   UNL A   1      41.662  21.332  26.487  1.00  0.00     0.127 S 
ATOM     59  O   UNL A   1      42.130  20.357  25.501  1.00  0.00    -0.237 OA
ATOM     60  O   UNL A   1      42.112  21.084  27.854  1.00  0.00    -0.237 OA
ATOM     61  O   UNL A   1      40.261  21.703  26.337  1.00  0.00    -0.744 OA
ENDBRANCH  55  58
ENDBRANCH  27  51
BRANCH  39  62
ATOM     62  C   UNL A   1      46.072  29.901  29.298  1.00  0.00     0.023 A 
ATOM     63  C   UNL A   1      47.444  30.031  29.002  1.00  0.00     0.012 A 
ATOM     64  C   UNL A   1      45.140  30.632  28.541  1.00  0.00     0.148 A 
ATOM     65  C   UNL A   1      47.880  30.894  27.995  1.00  0.00     0.002 A 
ATOM     66  C   UNL A   1      45.575  31.449  27.504  1.00  0.00     0.091 A 
ATOM     67  F   UNL A   1      43.837  30.494  28.828  1.00  0.00    -0.205 F 
ATOM     68  C   UNL A   1      46.944  31.592  27.235  1.00  0.00     0.022 A 
BRANCH  66  69
ATOM     69  S   UNL A   1      44.414  32.256  26.398  1.00  0.00     0.127 S 
ATOM     70  O   UNL A   1      43.474  31.179  26.100  1.00  0.00    -0.237 OA
ATOM     71  O   UNL A   1      43.871  33.327  27.237  1.00  0.00    -0.237 OA
ATOM     72  O   UNL A   1      45.206  32.735  25.271  1.00  0.00    -0.744 OA
ENDBRANCH  66  69
ENDBRANCH  39  62
ENDBRANCH  13  14
ENDBRANCH   6   8
ENDBRANCH   3   4
ENDBRANCH   2   3
ENDBRANCH   1   2
BRANCH   1  73
ATOM     73  C   UNL A   1      35.127  33.827  34.199  1.00  0.00     0.116 C 
BRANCH  73  74
ATOM     74  N   UNL A   1      36.340  34.514  33.809  1.00  0.00    -0.351 N 
ATOM     75  C   UNL A   1      37.643  34.170  34.058  1.00  0.00     0.262 C 
ATOM     76  H   UNL A   1      36.212  35.344  33.296  1.00  0.00     0.163 HD
ATOM     77  O   UNL A   1      38.500  35.022  33.821  1.00  0.00    -0.268 OA
BRANCH  75  78
ATOM     78  C   UNL A   1      37.950  32.887  34.650  1.00  0.00     0.112 A 
ATOM     79  S   UNL A   1      38.147  31.596  33.515  1.00  0.00    -0.137 S 
ATOM     80  C   UNL A   1      38.065  32.424  35.950  1.00  0.00     0.111 A 
ATOM     81  C   UNL A   1      38.484  30.461  34.735  1.00  0.00     0.067 A 
ATOM     82  C   UNL A   1      38.419  31.027  35.985  1.00  0.00     0.035 A 
BRANCH  80  83
ATOM     83  S   UNL A   1      37.813  33.257  37.455  1.00  0.00     0.263 S 
ATOM     84  O   UNL A   1      38.638  34.432  37.332  1.00  0.00    -0.201 OA
ATOM     85  O   UNL A   1      36.364  33.377  37.507  1.00  0.00    -0.201 OA
BRANCH  83  86
ATOM     86  N   UNL A   1      38.238  32.447  38.839  1.00  0.00    -0.280 N 
ATOM     87  H   UNL A   1      39.120  32.010  38.852  1.00  0.00     0.180 HD
BRANCH  86  88
ATOM     88  C   UNL A   1      37.443  32.332  40.004  1.00  0.00     0.049 A 
ATOM     89  C   UNL A   1      37.341  33.475  40.802  1.00  0.00     0.027 A 
ATOM     90  C   UNL A   1      36.655  31.232  40.294  1.00  0.00     0.027 A 
ATOM     91  C   UNL A   1      36.314  33.602  41.741  1.00  0.00     0.014 A 
ATOM     92  C   UNL A   1      35.639  31.358  41.242  1.00  0.00     0.014 A 
ATOM     93  C   UNL A   1      35.395  32.572  41.916  1.00  0.00     0.018 A 
BRANCH  93  94
ATOM     94  C   UNL A   1      34.157  32.663  42.708  1.00  0.00     0.145 A 
ATOM     95  N   UNL A   1      33.042  33.149  42.183  1.00  0.00    -0.228 NA
ATOM     96  N   UNL A   1      33.971  32.441  44.064  1.00  0.00    -0.266 N 
ATOM     97  C   UNL A   1      32.179  33.361  43.215  1.00  0.00     0.089 A 
ATOM     98  C   UNL A   1      32.727  32.936  44.418  1.00  0.00     0.074 A 
ATOM     99  C   UNL A   1      30.904  33.939  43.185  1.00  0.00     0.030 A 
ATOM    100  C   UNL A   1      32.038  33.065  45.633  1.00  0.00     0.029 A 
ATOM    101  C   UNL A   1      30.204  34.081  44.385  1.00  0.00     0.002 A 
ATOM    102  C   UNL A   1      30.765  33.650  45.588  1.00  0.00     0.002 A 
BRANCH  96 103
ATOM    103  C   UNL A   1      34.890  31.821  44.995  1.00  0.00     0.451 C 
ATOM    104  F   UNL A   1      35.067  30.505  44.699  1.00  0.00    -0.185 F 
ATOM    105  F   UNL A   1      36.119  32.401  44.977  1.00  0.00    -0.185 F 
ENDBRANCH  96 103
ENDBRANCH  93  94
ENDBRANCH  86  88
ENDBRANCH  83  86
ENDBRANCH  80  83
ENDBRANCH  75  78
ENDBRANCH  73  74
ENDBRANCH   1  73
TORSDOF 19
ENDMDL
