MODEL 1
REMARK VINA RESULT:     -12.8      0.000      0.000
REMARK SMILES O=C(NCCCCNC(=O)c1nn(Cc2ccc(F)cc2)c2c1CN(C(=O)[C@H]1CC1(F)F)CC2)c1ccc(-c2c3nc(c(-c4cccc(S(=O)(=O)[O-])c4F)c4ccc([nH]4)c(-c4cccc(S(=O)(=O)[O-])c4F)c4nc(c(-c5cccc(S(=O)(=O)[O-])c5F)c5ccc2[nH]5)C=C4)C=C3)cc1
REMARK SMILES IDX 5 1 4 2 3 3 1 4 2 5 35 7 36 8 97 9 37 10 96 11 38 12 39 13
REMARK SMILES IDX 40 14 90 15 41 16 95 17 89 18 91 19 42 20 94 21 88 22 87 23
REMARK SMILES IDX 43 25 75 26 55 27 74 28 56 29 59 30 73 31 92 32 57 33 58 34
REMARK SMILES IDX 72 36 93 37 60 38 44 39 45 40 53 41 46 42 48 43 54 44 47 45
REMARK SMILES IDX 49 46 50 47 51 48 52 49 76 50 77 51 85 52 78 53 80 54 86 55
REMARK SMILES IDX 79 56 81 57 82 58 83 59 84 60 61 61 62 62 70 63 63 64 65 65
REMARK SMILES IDX 71 66 64 67 66 68 67 69 68 70 69 71 6 72 7 73 8 74 9 75
REMARK SMILES IDX 10 77 11 78 12 79 23 80 13 81 22 82 24 83 34 84 25 85 33 86
REMARK SMILES IDX 14 87 15 88 16 89 21 90 17 91 20 92 18 93 19 94 26 95 27 96
REMARK SMILES IDX 28 97 29 98 30 99 31 100 32 101
REMARK H PARENT 3 6 91 24 59 35 8 76
REMARK Flexibility Score: inf
ROOT
ATOM      1  C   UNL A   1      38.414  20.588  25.096  1.00  0.00     0.023 C 
ENDROOT
BRANCH   1   2
ATOM      2  C   UNL A   1      38.781  19.219  25.668  1.00  0.00     0.116 C 
BRANCH   2   3
ATOM      3  N   UNL A   1      40.157  18.816  25.471  1.00  0.00    -0.352 N 
ATOM      4  O   UNL A   1      42.291  18.400  25.837  1.00  0.00    -0.269 OA
ATOM      5  C   UNL A   1      41.352  19.175  26.037  1.00  0.00     0.251 C 
ATOM      6  H   UNL A   1      40.257  18.128  24.774  1.00  0.00     0.163 HD
BRANCH   5   7
ATOM      7  C   UNL A   1      41.605  20.448  26.764  1.00  0.00     0.039 A 
ATOM      8  C   UNL A   1      41.213  20.733  28.073  1.00  0.00     0.014 A 
ATOM      9  C   UNL A   1      42.248  21.454  26.018  1.00  0.00     0.014 A 
ATOM     10  C   UNL A   1      41.362  22.020  28.586  1.00  0.00     0.010 A 
ATOM     11  C   UNL A   1      42.402  22.739  26.523  1.00  0.00     0.010 A 
ATOM     12  C   UNL A   1      41.923  23.028  27.798  1.00  0.00    -0.014 A 
BRANCH  12  13
ATOM     13  C   UNL A   1      42.206  24.322  28.417  1.00  0.00     0.031 A 
ATOM     14  C   UNL A   1      41.152  25.340  28.136  1.00  0.00     0.074 A 
ATOM     15  C   UNL A   1      43.221  24.523  29.285  1.00  0.00     0.049 A 
ATOM     16  N   UNL A   1      41.276  26.476  27.529  1.00  0.00    -0.248 NA
ATOM     17  C   UNL A   1      39.753  24.973  28.433  1.00  0.00     0.031 C 
ATOM     18  C   UNL A   1      44.120  23.503  29.832  1.00  0.00     0.029 A 
ATOM     19  N   UNL A   1      43.576  25.646  29.982  1.00  0.00    -0.354 N 
ATOM     20  C   UNL A   1      40.017  27.070  27.608  1.00  0.00     0.074 A 
ATOM     21  C   UNL A   1      39.090  26.031  27.970  1.00  0.00     0.031 C 
ATOM     22  C   UNL A   1      44.725  23.988  30.939  1.00  0.00     0.029 A 
ATOM     23  C   UNL A   1      44.350  25.380  31.116  1.00  0.00     0.049 A 
ATOM     24  H   UNL A   1      43.313  26.555  29.710  1.00  0.00     0.167 HD
ATOM     25  C   UNL A   1      39.871  28.420  27.683  1.00  0.00     0.034 A 
ATOM     26  C   UNL A   1      44.578  26.209  32.170  1.00  0.00     0.034 A 
ATOM     27  C   UNL A   1      41.033  29.114  27.205  1.00  0.00     0.049 A 
ATOM     28  C   UNL A   1      44.266  27.583  31.724  1.00  0.00     0.074 A 
ATOM     29  C   UNL A   1      41.747  29.124  26.024  1.00  0.00     0.029 A 
ATOM     30  N   UNL A   1      41.849  29.674  28.152  1.00  0.00    -0.354 N 
ATOM     31  N   UNL A   1      44.959  28.235  30.835  1.00  0.00    -0.248 NA
ATOM     32  C   UNL A   1      42.929  28.087  31.983  1.00  0.00     0.031 C 
ATOM     33  C   UNL A   1      43.107  29.246  26.424  1.00  0.00     0.029 A 
ATOM     34  C   UNL A   1      43.140  29.379  27.813  1.00  0.00     0.049 A 
ATOM     35  H   UNL A   1      41.559  30.194  28.936  1.00  0.00     0.167 HD
ATOM     36  C   UNL A   1      44.000  28.912  30.099  1.00  0.00     0.074 A 
ATOM     37  C   UNL A   1      42.788  28.873  30.914  1.00  0.00     0.031 C 
ATOM     38  C   UNL A   1      44.197  29.178  28.778  1.00  0.00     0.034 A 
BRANCH  25  39
ATOM     39  C   UNL A   1      38.845  29.093  28.563  1.00  0.00     0.023 A 
ATOM     40  C   UNL A   1      38.035  30.098  27.993  1.00  0.00     0.012 A 
ATOM     41  C   UNL A   1      38.820  28.974  29.973  1.00  0.00     0.148 A 
ATOM     42  C   UNL A   1      37.251  30.943  28.789  1.00  0.00     0.002 A 
ATOM     43  C   UNL A   1      37.958  29.739  30.747  1.00  0.00     0.091 A 
ATOM     44  F   UNL A   1      39.736  28.227  30.597  1.00  0.00    -0.205 F 
ATOM     45  C   UNL A   1      37.194  30.748  30.164  1.00  0.00     0.022 A 
BRANCH  43  46
ATOM     46  S   UNL A   1      37.790  29.455  32.512  1.00  0.00     0.127 S 
ATOM     47  O   UNL A   1      37.658  28.002  32.565  1.00  0.00    -0.237 OA
ATOM     48  O   UNL A   1      39.058  29.982  33.018  1.00  0.00    -0.237 OA
ATOM     49  O   UNL A   1      36.623  30.226  32.920  1.00  0.00    -0.744 OA
ENDBRANCH  43  46
ENDBRANCH  25  39
BRANCH  26  50
ATOM     50  C   UNL A   1      44.735  25.910  33.621  1.00  0.00     0.023 A 
ATOM     51  C   UNL A   1      46.030  25.899  34.190  1.00  0.00     0.012 A 
ATOM     52  C   UNL A   1      43.633  25.961  34.500  1.00  0.00     0.148 A 
ATOM     53  C   UNL A   1      46.217  25.991  35.577  1.00  0.00     0.002 A 
ATOM     54  C   UNL A   1      43.823  26.049  35.877  1.00  0.00     0.091 A 
ATOM     55  F   UNL A   1      42.399  26.020  33.985  1.00  0.00    -0.205 F 
ATOM     56  C   UNL A   1      45.115  26.081  36.418  1.00  0.00     0.022 A 
BRANCH  54  57
ATOM     57  S   UNL A   1      42.447  26.211  37.024  1.00  0.00     0.127 S 
ATOM     58  O   UNL A   1      41.766  27.401  36.512  1.00  0.00    -0.237 OA
ATOM     59  O   UNL A   1      41.731  24.956  36.814  1.00  0.00    -0.237 OA
ATOM     60  O   UNL A   1      43.045  26.385  38.341  1.00  0.00    -0.744 OA
ENDBRANCH  54  57
ENDBRANCH  26  50
BRANCH  38  61
ATOM     61  C   UNL A   1      45.581  29.020  28.205  1.00  0.00     0.023 A 
ATOM     62  C   UNL A   1      46.574  30.015  28.312  1.00  0.00     0.012 A 
ATOM     63  C   UNL A   1      45.937  27.741  27.752  1.00  0.00     0.148 A 
ATOM     64  C   UNL A   1      47.901  29.730  27.973  1.00  0.00     0.002 A 
ATOM     65  C   UNL A   1      47.264  27.443  27.480  1.00  0.00     0.091 A 
ATOM     66  F   UNL A   1      44.971  26.816  27.646  1.00  0.00    -0.205 F 
ATOM     67  C   UNL A   1      48.249  28.438  27.579  1.00  0.00     0.022 A 
BRANCH  65  68
ATOM     68  S   UNL A   1      47.787  25.763  27.134  1.00  0.00     0.127 S 
ATOM     69  O   UNL A   1      47.068  25.468  25.896  1.00  0.00    -0.237 OA
ATOM     70  O   UNL A   1      49.235  25.913  26.982  1.00  0.00    -0.237 OA
ATOM     71  O   UNL A   1      47.390  24.971  28.292  1.00  0.00    -0.744 OA
ENDBRANCH  65  68
ENDBRANCH  38  61
ENDBRANCH  12  13
ENDBRANCH   5   7
ENDBRANCH   2   3
ENDBRANCH   1   2
BRANCH   1  72
ATOM     72  C   UNL A   1      38.239  21.712  26.122  1.00  0.00     0.023 C 
BRANCH  72  73
ATOM     73  C   UNL A   1      37.483  22.953  25.642  1.00  0.00     0.116 C 
BRANCH  73  74
ATOM     74  N   UNL A   1      37.475  23.076  24.191  1.00  0.00    -0.351 N 
ATOM     75  C   UNL A   1      36.402  23.102  23.322  1.00  0.00     0.272 C 
ATOM     76  H   UNL A   1      38.362  23.150  23.769  1.00  0.00     0.163 HD
ATOM     77  O   UNL A   1      36.623  23.021  22.113  1.00  0.00    -0.267 OA
BRANCH  75  78
ATOM     78  C   UNL A   1      35.029  23.177  23.849  1.00  0.00     0.155 A 
ATOM     79  N   UNL A   1      34.256  24.277  23.725  1.00  0.00    -0.167 NA
ATOM     80  C   UNL A   1      34.302  22.138  24.495  1.00  0.00     0.026 A 
ATOM     81  N   UNL A   1      33.136  24.004  24.427  1.00  0.00    -0.264 N 
ATOM     82  C   UNL A   1      33.141  22.742  24.936  1.00  0.00     0.046 A 
ATOM     83  C   UNL A   1      34.668  20.716  24.785  1.00  0.00     0.159 C 
ATOM     84  C   UNL A   1      32.128  22.088  25.804  1.00  0.00     0.078 C 
ATOM     85  N   UNL A   1      33.522  20.059  25.461  1.00  0.00    -0.337 N 
ATOM     86  C   UNL A   1      32.804  20.866  26.468  1.00  0.00     0.126 C 
BRANCH  81  87
ATOM     87  C   UNL A   1      32.056  24.981  24.466  1.00  0.00     0.180 C 
BRANCH  87  88
ATOM     88  C   UNL A   1      32.361  26.144  25.380  1.00  0.00    -0.026 A 
ATOM     89  C   UNL A   1      31.357  26.669  26.213  1.00  0.00     0.008 A 
ATOM     90  C   UNL A   1      33.645  26.710  25.422  1.00  0.00     0.008 A 
ATOM     91  C   UNL A   1      31.631  27.728  27.078  1.00  0.00     0.039 A 
ATOM     92  C   UNL A   1      33.918  27.766  26.293  1.00  0.00     0.039 A 
ATOM     93  C   UNL A   1      32.912  28.262  27.114  1.00  0.00     0.123 A 
ATOM     94  F   UNL A   1      33.186  29.266  27.956  1.00  0.00    -0.207 F 
ENDBRANCH  87  88
ENDBRANCH  81  87
BRANCH  85  95
ATOM     95  C   UNL A   1      33.197  18.753  25.109  1.00  0.00     0.232 C 
ATOM     96  O   UNL A   1      32.150  18.211  25.408  1.00  0.00    -0.274 OA
BRANCH  95  97
ATOM     97  C   UNL A   1      34.172  18.024  24.264  1.00  0.00     0.154 C 
ATOM     98  C   UNL A   1      35.023  16.896  24.823  1.00  0.00     0.097 C 
ATOM     99  C   UNL A   1      33.914  16.614  23.881  1.00  0.00     0.260 C 
ATOM    100  F   UNL A   1      32.849  15.874  24.333  1.00  0.00    -0.206 F 
ATOM    101  F   UNL A   1      34.224  16.157  22.619  1.00  0.00    -0.206 F 
ENDBRANCH  95  97
ENDBRANCH  85  95
ENDBRANCH  75  78
ENDBRANCH  73  74
ENDBRANCH  72  73
ENDBRANCH   1  72
TORSDOF 18
ENDMDL
MODEL 2
REMARK VINA RESULT:     -12.4      3.336      7.628
REMARK SMILES O=C(NCCCCNC(=O)c1nn(Cc2ccc(F)cc2)c2c1CN(C(=O)[C@H]1CC1(F)F)CC2)c1ccc(-c2c3nc(c(-c4cccc(S(=O)(=O)[O-])c4F)c4ccc([nH]4)c(-c4cccc(S(=O)(=O)[O-])c4F)c4nc(c(-c5cccc(S(=O)(=O)[O-])c5F)c5ccc2[nH]5)C=C4)C=C3)cc1
REMARK SMILES IDX 5 1 4 2 3 3 1 4 2 5 35 7 36 8 97 9 37 10 96 11 38 12 39 13
REMARK SMILES IDX 40 14 90 15 41 16 95 17 89 18 91 19 42 20 94 21 88 22 87 23
REMARK SMILES IDX 43 25 75 26 55 27 74 28 56 29 59 30 73 31 92 32 57 33 58 34
REMARK SMILES IDX 72 36 93 37 60 38 44 39 45 40 53 41 46 42 48 43 54 44 47 45
REMARK SMILES IDX 49 46 50 47 51 48 52 49 76 50 77 51 85 52 78 53 80 54 86 55
REMARK SMILES IDX 79 56 81 57 82 58 83 59 84 60 61 61 62 62 70 63 63 64 65 65
REMARK SMILES IDX 71 66 64 67 66 68 67 69 68 70 69 71 6 72 7 73 8 74 9 75
REMARK SMILES IDX 10 77 11 78 12 79 23 80 13 81 22 82 24 83 34 84 25 85 33 86
REMARK SMILES IDX 14 87 15 88 16 89 21 90 17 91 20 92 18 93 19 94 26 95 27 96
REMARK SMILES IDX 28 97 29 98 30 99 31 100 32 101
REMARK H PARENT 3 6 91 24 59 35 8 76
REMARK Flexibility Score: inf
ROOT
ATOM      1  C   UNL A   1      33.913  31.008  27.219  1.00  0.00     0.023 C 
ENDROOT
BRANCH   1   2
ATOM      2  C   UNL A   1      34.549  32.167  27.989  1.00  0.00     0.116 C 
BRANCH   2   3
ATOM      3  N   UNL A   1      34.458  32.074  29.430  1.00  0.00    -0.352 N 
ATOM      4  O   UNL A   1      34.991  32.095  31.569  1.00  0.00    -0.269 OA
ATOM      5  C   UNL A   1      35.344  31.775  30.430  1.00  0.00     0.251 C 
ATOM      6  H   UNL A   1      33.554  32.272  29.768  1.00  0.00     0.163 HD
BRANCH   5   7
ATOM      7  C   UNL A   1      36.614  31.022  30.249  1.00  0.00     0.039 A 
ATOM      8  C   UNL A   1      36.729  29.640  30.091  1.00  0.00     0.014 A 
ATOM      9  C   UNL A   1      37.790  31.795  30.305  1.00  0.00     0.014 A 
ATOM     10  C   UNL A   1      37.984  29.035  30.097  1.00  0.00     0.010 A 
ATOM     11  C   UNL A   1      39.044  31.199  30.309  1.00  0.00     0.010 A 
ATOM     12  C   UNL A   1      39.136  29.812  30.242  1.00  0.00    -0.014 A 
BRANCH  12  13
ATOM     13  C   UNL A   1      40.438  29.164  30.089  1.00  0.00     0.031 A 
ATOM     14  C   UNL A   1      41.117  28.915  31.395  1.00  0.00     0.074 A 
ATOM     15  C   UNL A   1      40.897  28.692  28.910  1.00  0.00     0.049 A 
ATOM     16  N   UNL A   1      42.258  29.368  31.804  1.00  0.00    -0.248 NA
ATOM     17  C   UNL A   1      40.354  28.196  32.433  1.00  0.00     0.031 C 
ATOM     18  C   UNL A   1      40.165  28.640  27.642  1.00  0.00     0.029 A 
ATOM     19  N   UNL A   1      42.054  28.021  28.619  1.00  0.00    -0.354 N 
ATOM     20  C   UNL A   1      42.460  28.770  33.047  1.00  0.00     0.074 A 
ATOM     21  C   UNL A   1      41.189  28.247  33.469  1.00  0.00     0.031 C 
ATOM     22  C   UNL A   1      40.771  27.764  26.810  1.00  0.00     0.029 A 
ATOM     23  C   UNL A   1      41.990  27.280  27.435  1.00  0.00     0.049 A 
ATOM     24  H   UNL A   1      42.857  28.057  29.189  1.00  0.00     0.167 HD
ATOM     25  C   UNL A   1      43.709  28.468  33.495  1.00  0.00     0.034 A 
ATOM     26  C   UNL A   1      42.818  26.274  27.047  1.00  0.00     0.034 A 
ATOM     27  C   UNL A   1      44.721  29.227  32.820  1.00  0.00     0.049 A 
ATOM     28  C   UNL A   1      44.057  26.392  27.846  1.00  0.00     0.074 A 
ATOM     29  C   UNL A   1      44.971  30.571  32.632  1.00  0.00     0.029 A 
ATOM     30  N   UNL A   1      45.465  28.563  31.880  1.00  0.00    -0.354 N 
ATOM     31  N   UNL A   1      44.906  27.371  27.731  1.00  0.00    -0.248 NA
ATOM     32  C   UNL A   1      44.146  25.611  29.068  1.00  0.00     0.031 C 
ATOM     33  C   UNL A   1      45.468  30.666  31.301  1.00  0.00     0.029 A 
ATOM     34  C   UNL A   1      45.564  29.373  30.783  1.00  0.00     0.049 A 
ATOM     35  H   UNL A   1      45.857  27.665  31.976  1.00  0.00     0.167 HD
ATOM     36  C   UNL A   1      45.300  27.623  29.036  1.00  0.00     0.074 A 
ATOM     37  C   UNL A   1      44.889  26.446  29.797  1.00  0.00     0.031 C 
ATOM     38  C   UNL A   1      45.650  28.880  29.427  1.00  0.00     0.034 A 
BRANCH  25  39
ATOM     39  C   UNL A   1      44.031  27.200  34.250  1.00  0.00     0.023 A 
ATOM     40  C   UNL A   1      43.912  25.970  33.568  1.00  0.00     0.012 A 
ATOM     41  C   UNL A   1      44.183  27.139  35.655  1.00  0.00     0.148 A 
ATOM     42  C   UNL A   1      43.937  24.749  34.254  1.00  0.00     0.002 A 
ATOM     43  C   UNL A   1      44.318  25.926  36.316  1.00  0.00     0.091 A 
ATOM     44  F   UNL A   1      44.049  28.248  36.390  1.00  0.00    -0.205 F 
ATOM     45  C   UNL A   1      44.164  24.726  35.625  1.00  0.00     0.022 A 
BRANCH  43  46
ATOM     46  S   UNL A   1      44.702  25.857  38.069  1.00  0.00     0.127 S 
ATOM     47  O   UNL A   1      45.891  26.700  38.144  1.00  0.00    -0.237 OA
ATOM     48  O   UNL A   1      43.493  26.435  38.658  1.00  0.00    -0.237 OA
ATOM     49  O   UNL A   1      44.891  24.443  38.369  1.00  0.00    -0.744 OA
ENDBRANCH  43  46
ENDBRANCH  25  39
BRANCH  26  50
ATOM     50  C   UNL A   1      42.536  25.026  26.284  1.00  0.00     0.023 A 
ATOM     51  C   UNL A   1      43.422  24.626  25.258  1.00  0.00     0.012 A 
ATOM     52  C   UNL A   1      41.609  24.074  26.760  1.00  0.00     0.148 A 
ATOM     53  C   UNL A   1      43.422  23.312  24.766  1.00  0.00     0.002 A 
ATOM     54  C   UNL A   1      41.611  22.771  26.266  1.00  0.00     0.091 A 
ATOM     55  F   UNL A   1      40.792  24.413  27.763  1.00  0.00    -0.205 F 
ATOM     56  C   UNL A   1      42.526  22.382  25.280  1.00  0.00     0.022 A 
BRANCH  54  57
ATOM     57  S   UNL A   1      40.511  21.503  26.912  1.00  0.00     0.127 S 
ATOM     58  O   UNL A   1      39.196  22.024  26.535  1.00  0.00    -0.237 OA
ATOM     59  O   UNL A   1      40.940  20.323  26.167  1.00  0.00    -0.237 OA
ATOM     60  O   UNL A   1      40.749  21.465  28.349  1.00  0.00    -0.744 OA
ENDBRANCH  54  57
ENDBRANCH  26  50
BRANCH  38  61
ATOM     61  C   UNL A   1      45.914  29.920  28.371  1.00  0.00     0.023 A 
ATOM     62  C   UNL A   1      44.914  30.780  27.873  1.00  0.00     0.012 A 
ATOM     63  C   UNL A   1      47.257  30.171  28.050  1.00  0.00     0.148 A 
ATOM     64  C   UNL A   1      45.256  31.874  27.071  1.00  0.00     0.002 A 
ATOM     65  C   UNL A   1      47.598  31.293  27.310  1.00  0.00     0.091 A 
ATOM     66  F   UNL A   1      48.188  29.329  28.525  1.00  0.00    -0.205 F 
ATOM     67  C   UNL A   1      46.600  32.143  26.809  1.00  0.00     0.022 A 
BRANCH  65  68
ATOM     68  S   UNL A   1      49.311  31.775  27.089  1.00  0.00     0.127 S 
ATOM     69  O   UNL A   1      49.869  30.610  26.403  1.00  0.00    -0.237 OA
ATOM     70  O   UNL A   1      49.192  32.976  26.260  1.00  0.00    -0.237 OA
ATOM     71  O   UNL A   1      49.836  32.024  28.426  1.00  0.00    -0.744 OA
ENDBRANCH  65  68
ENDBRANCH  38  61
ENDBRANCH  12  13
ENDBRANCH   5   7
ENDBRANCH   2   3
ENDBRANCH   1   2
BRANCH   1  72
ATOM     72  C   UNL A   1      34.831  29.816  26.936  1.00  0.00     0.023 C 
BRANCH  72  73
ATOM     73  C   UNL A   1      34.156  28.444  26.873  1.00  0.00     0.116 C 
BRANCH  73  74
ATOM     74  N   UNL A   1      32.969  28.367  27.714  1.00  0.00    -0.351 N 
ATOM     75  C   UNL A   1      31.716  27.868  27.414  1.00  0.00     0.272 C 
ATOM     76  H   UNL A   1      33.075  28.722  28.626  1.00  0.00     0.163 HD
ATOM     77  O   UNL A   1      30.797  28.071  28.207  1.00  0.00    -0.267 OA
BRANCH  75  78
ATOM     78  C   UNL A   1      31.493  27.152  26.145  1.00  0.00     0.155 A 
ATOM     79  N   UNL A   1      31.189  27.784  24.993  1.00  0.00    -0.167 NA
ATOM     80  C   UNL A   1      31.607  25.752  25.922  1.00  0.00     0.026 A 
ATOM     81  N   UNL A   1      30.946  26.800  24.102  1.00  0.00    -0.264 N 
ATOM     82  C   UNL A   1      31.150  25.563  24.632  1.00  0.00     0.046 A 
ATOM     83  C   UNL A   1      32.008  24.639  26.838  1.00  0.00     0.159 C 
ATOM     84  C   UNL A   1      30.937  24.235  23.999  1.00  0.00     0.078 C 
ATOM     85  N   UNL A   1      31.985  23.365  26.078  1.00  0.00    -0.337 N 
ATOM     86  C   UNL A   1      30.865  23.187  25.132  1.00  0.00     0.126 C 
BRANCH  81  87
ATOM     87  C   UNL A   1      30.625  27.140  22.722  1.00  0.00     0.180 C 
BRANCH  87  88
ATOM     88  C   UNL A   1      29.716  28.342  22.620  1.00  0.00    -0.026 A 
ATOM     89  C   UNL A   1      28.389  28.265  23.078  1.00  0.00     0.008 A 
ATOM     90  C   UNL A   1      30.180  29.552  22.079  1.00  0.00     0.008 A 
ATOM     91  C   UNL A   1      27.547  29.374  23.010  1.00  0.00     0.039 A 
ATOM     92  C   UNL A   1      29.336  30.663  22.018  1.00  0.00     0.039 A 
ATOM     93  C   UNL A   1      28.031  30.565  22.486  1.00  0.00     0.123 A 
ATOM     94  F   UNL A   1      27.233  31.638  22.436  1.00  0.00    -0.207 F 
ENDBRANCH  87  88
ENDBRANCH  81  87
BRANCH  85  95
ATOM     95  C   UNL A   1      33.000  22.438  26.293  1.00  0.00     0.232 C 
ATOM     96  O   UNL A   1      33.501  22.222  27.379  1.00  0.00    -0.274 OA
BRANCH  95  97
ATOM     97  C   UNL A   1      33.430  21.632  25.126  1.00  0.00     0.154 C 
ATOM     98  C   UNL A   1      34.434  22.166  24.117  1.00  0.00     0.097 C 
ATOM     99  C   UNL A   1      34.810  21.091  25.066  1.00  0.00     0.260 C 
ATOM    100  F   UNL A   1      35.784  21.357  25.996  1.00  0.00    -0.206 F 
ATOM    101  F   UNL A   1      35.054  19.830  24.568  1.00  0.00    -0.206 F 
ENDBRANCH  95  97
ENDBRANCH  85  95
ENDBRANCH  75  78
ENDBRANCH  73  74
ENDBRANCH  72  73
ENDBRANCH   1  72
TORSDOF 18
ENDMDL
MODEL 3
REMARK VINA RESULT:     -12.4      1.711      4.568
REMARK SMILES O=C(NCCCCNC(=O)c1nn(Cc2ccc(F)cc2)c2c1CN(C(=O)[C@H]1CC1(F)F)CC2)c1ccc(-c2c3nc(c(-c4cccc(S(=O)(=O)[O-])c4F)c4ccc([nH]4)c(-c4cccc(S(=O)(=O)[O-])c4F)c4nc(c(-c5cccc(S(=O)(=O)[O-])c5F)c5ccc2[nH]5)C=C4)C=C3)cc1
REMARK SMILES IDX 5 1 4 2 3 3 1 4 2 5 35 7 36 8 97 9 37 10 96 11 38 12 39 13
REMARK SMILES IDX 40 14 90 15 41 16 95 17 89 18 91 19 42 20 94 21 88 22 87 23
REMARK SMILES IDX 43 25 75 26 55 27 74 28 56 29 59 30 73 31 92 32 57 33 58 34
REMARK SMILES IDX 72 36 93 37 60 38 44 39 45 40 53 41 46 42 48 43 54 44 47 45
REMARK SMILES IDX 49 46 50 47 51 48 52 49 76 50 77 51 85 52 78 53 80 54 86 55
REMARK SMILES IDX 79 56 81 57 82 58 83 59 84 60 61 61 62 62 70 63 63 64 65 65
REMARK SMILES IDX 71 66 64 67 66 68 67 69 68 70 69 71 6 72 7 73 8 74 9 75
REMARK SMILES IDX 10 77 11 78 12 79 23 80 13 81 22 82 24 83 34 84 25 85 33 86
REMARK SMILES IDX 14 87 15 88 16 89 21 90 17 91 20 92 18 93 19 94 26 95 27 96
REMARK SMILES IDX 28 97 29 98 30 99 31 100 32 101
REMARK H PARENT 3 6 91 24 59 35 8 76
REMARK Flexibility Score: inf
ROOT
ATOM      1  C   UNL A   1      38.316  20.739  25.102  1.00  0.00     0.023 C 
ENDROOT
BRANCH   1   2
ATOM      2  C   UNL A   1      38.634  19.344  25.640  1.00  0.00     0.116 C 
BRANCH   2   3
ATOM      3  N   UNL A   1      40.001  18.908  25.456  1.00  0.00    -0.352 N 
ATOM      4  O   UNL A   1      42.122  18.443  25.841  1.00  0.00    -0.269 OA
ATOM      5  C   UNL A   1      41.199  19.241  26.030  1.00  0.00     0.251 C 
ATOM      6  H   UNL A   1      40.090  18.215  24.762  1.00  0.00     0.163 HD
BRANCH   5   7
ATOM      7  C   UNL A   1      41.477  20.511  26.753  1.00  0.00     0.039 A 
ATOM      8  C   UNL A   1      41.177  20.771  28.092  1.00  0.00     0.014 A 
ATOM      9  C   UNL A   1      42.040  21.541  25.975  1.00  0.00     0.014 A 
ATOM     10  C   UNL A   1      41.334  22.054  28.610  1.00  0.00     0.010 A 
ATOM     11  C   UNL A   1      42.202  22.822  26.486  1.00  0.00     0.010 A 
ATOM     12  C   UNL A   1      41.812  23.085  27.796  1.00  0.00    -0.014 A 
BRANCH  12  13
ATOM     13  C   UNL A   1      42.111  24.378  28.410  1.00  0.00     0.031 A 
ATOM     14  C   UNL A   1      41.056  25.401  28.146  1.00  0.00     0.074 A 
ATOM     15  C   UNL A   1      43.141  24.574  29.261  1.00  0.00     0.049 A 
ATOM     16  N   UNL A   1      41.176  26.536  27.538  1.00  0.00    -0.248 NA
ATOM     17  C   UNL A   1      39.661  25.039  28.467  1.00  0.00     0.031 C 
ATOM     18  C   UNL A   1      44.045  23.551  29.794  1.00  0.00     0.029 A 
ATOM     19  N   UNL A   1      43.513  25.696  29.952  1.00  0.00    -0.354 N 
ATOM     20  C   UNL A   1      39.920  27.135  27.638  1.00  0.00     0.074 A 
ATOM     21  C   UNL A   1      38.995  26.100  28.015  1.00  0.00     0.031 C 
ATOM     22  C   UNL A   1      44.671  24.034  30.890  1.00  0.00     0.029 A 
ATOM     23  C   UNL A   1      44.304  25.427  31.073  1.00  0.00     0.049 A 
ATOM     24  H   UNL A   1      43.249  26.606  29.685  1.00  0.00     0.167 HD
ATOM     25  C   UNL A   1      39.782  28.485  27.715  1.00  0.00     0.034 A 
ATOM     26  C   UNL A   1      44.554  26.255  32.123  1.00  0.00     0.034 A 
ATOM     27  C   UNL A   1      40.938  29.174  27.217  1.00  0.00     0.049 A 
ATOM     28  C   UNL A   1      44.240  27.630  31.682  1.00  0.00     0.074 A 
ATOM     29  C   UNL A   1      41.632  29.182  26.025  1.00  0.00     0.029 A 
ATOM     30  N   UNL A   1      41.772  29.731  28.151  1.00  0.00    -0.354 N 
ATOM     31  N   UNL A   1      44.920  28.279  30.782  1.00  0.00    -0.248 NA
ATOM     32  C   UNL A   1      42.909  28.140  31.963  1.00  0.00     0.031 C 
ATOM     33  C   UNL A   1      43.000  29.298  26.402  1.00  0.00     0.029 A 
ATOM     34  C   UNL A   1      43.056  29.430  27.790  1.00  0.00     0.049 A 
ATOM     35  H   UNL A   1      41.497  30.253  28.939  1.00  0.00     0.167 HD
ATOM     36  C   UNL A   1      43.952  28.960  30.062  1.00  0.00     0.074 A 
ATOM     37  C   UNL A   1      42.754  28.926  30.897  1.00  0.00     0.031 C 
ATOM     38  C   UNL A   1      44.128  29.226  28.737  1.00  0.00     0.034 A 
BRANCH  25  39
ATOM     39  C   UNL A   1      38.773  29.163  28.612  1.00  0.00     0.023 A 
ATOM     40  C   UNL A   1      38.744  28.800  29.975  1.00  0.00     0.012 A 
ATOM     41  C   UNL A   1      37.686  29.932  28.132  1.00  0.00     0.148 A 
ATOM     42  C   UNL A   1      37.685  29.179  30.810  1.00  0.00     0.002 A 
ATOM     43  C   UNL A   1      36.697  30.397  28.987  1.00  0.00     0.091 A 
ATOM     44  F   UNL A   1      37.514  30.097  26.816  1.00  0.00    -0.205 F 
ATOM     45  C   UNL A   1      36.673  29.997  30.321  1.00  0.00     0.022 A 
BRANCH  43  46
ATOM     46  S   UNL A   1      35.426  31.528  28.413  1.00  0.00     0.127 S 
ATOM     47  O   UNL A   1      34.765  31.887  29.664  1.00  0.00    -0.237 OA
ATOM     48  O   UNL A   1      36.228  32.592  27.808  1.00  0.00    -0.237 OA
ATOM     49  O   UNL A   1      34.632  30.767  27.456  1.00  0.00    -0.744 OA
ENDBRANCH  43  46
ENDBRANCH  25  39
BRANCH  26  50
ATOM     50  C   UNL A   1      44.734  25.955  33.571  1.00  0.00     0.023 A 
ATOM     51  C   UNL A   1      46.037  25.946  34.120  1.00  0.00     0.012 A 
ATOM     52  C   UNL A   1      43.645  26.003  34.467  1.00  0.00     0.148 A 
ATOM     53  C   UNL A   1      46.246  26.038  35.504  1.00  0.00     0.002 A 
ATOM     54  C   UNL A   1      43.856  26.091  35.841  1.00  0.00     0.091 A 
ATOM     55  F   UNL A   1      42.403  26.061  33.972  1.00  0.00    -0.205 F 
ATOM     56  C   UNL A   1      45.156  26.125  36.362  1.00  0.00     0.022 A 
BRANCH  54  57
ATOM     57  S   UNL A   1      42.498  26.250  37.009  1.00  0.00     0.127 S 
ATOM     58  O   UNL A   1      41.820  27.451  36.522  1.00  0.00    -0.237 OA
ATOM     59  O   UNL A   1      41.768  25.004  36.793  1.00  0.00    -0.237 OA
ATOM     60  O   UNL A   1      43.116  26.402  38.320  1.00  0.00    -0.744 OA
ENDBRANCH  54  57
ENDBRANCH  26  50
BRANCH  38  61
ATOM     61  C   UNL A   1      45.501  29.062  28.142  1.00  0.00     0.023 A 
ATOM     62  C   UNL A   1      46.497  30.057  28.221  1.00  0.00     0.012 A 
ATOM     63  C   UNL A   1      45.850  27.778  27.695  1.00  0.00     0.148 A 
ATOM     64  C   UNL A   1      47.817  29.769  27.861  1.00  0.00     0.002 A 
ATOM     65  C   UNL A   1      47.171  27.478  27.401  1.00  0.00     0.091 A 
ATOM     66  F   UNL A   1      44.881  26.853  27.615  1.00  0.00    -0.205 F 
ATOM     67  C   UNL A   1      48.158  28.473  27.474  1.00  0.00     0.022 A 
BRANCH  65  68
ATOM     68  S   UNL A   1      47.688  25.794  27.063  1.00  0.00     0.127 S 
ATOM     69  O   UNL A   1      49.144  25.924  27.027  1.00  0.00    -0.237 OA
ATOM     70  O   UNL A   1      47.165  25.069  28.222  1.00  0.00    -0.237 OA
ATOM     71  O   UNL A   1      47.062  25.426  25.799  1.00  0.00    -0.744 OA
ENDBRANCH  65  68
ENDBRANCH  38  61
ENDBRANCH  12  13
ENDBRANCH   5   7
ENDBRANCH   2   3
ENDBRANCH   1   2
BRANCH   1  72
ATOM     72  C   UNL A   1      38.308  21.866  26.140  1.00  0.00     0.023 C 
BRANCH  72  73
ATOM     73  C   UNL A   1      37.458  23.092  25.799  1.00  0.00     0.116 C 
BRANCH  73  74
ATOM     74  N   UNL A   1      37.423  23.367  24.369  1.00  0.00    -0.351 N 
ATOM     75  C   UNL A   1      36.369  23.253  23.483  1.00  0.00     0.272 C 
ATOM     76  H   UNL A   1      38.271  23.679  23.979  1.00  0.00     0.163 HD
ATOM     77  O   UNL A   1      36.602  23.354  22.278  1.00  0.00    -0.267 OA
BRANCH  75  78
ATOM     78  C   UNL A   1      35.013  22.968  23.983  1.00  0.00     0.155 A 
ATOM     79  N   UNL A   1      34.582  21.720  24.260  1.00  0.00    -0.167 NA
ATOM     80  C   UNL A   1      34.000  23.918  24.295  1.00  0.00     0.026 A 
ATOM     81  N   UNL A   1      33.276  21.857  24.572  1.00  0.00    -0.264 N 
ATOM     82  C   UNL A   1      32.879  23.159  24.568  1.00  0.00     0.046 A 
ATOM     83  C   UNL A   1      34.009  25.414  24.258  1.00  0.00     0.159 C 
ATOM     84  C   UNL A   1      31.520  23.715  24.801  1.00  0.00     0.078 C 
ATOM     85  N   UNL A   1      32.685  25.909  24.713  1.00  0.00    -0.337 N 
ATOM     86  C   UNL A   1      31.507  25.156  24.241  1.00  0.00     0.126 C 
BRANCH  81  87
ATOM     87  C   UNL A   1      32.504  20.687  24.969  1.00  0.00     0.180 C 
BRANCH  87  88
ATOM     88  C   UNL A   1      33.020  19.414  24.341  1.00  0.00    -0.026 A 
ATOM     89  C   UNL A   1      34.199  18.817  24.824  1.00  0.00     0.008 A 
ATOM     90  C   UNL A   1      32.332  18.802  23.282  1.00  0.00     0.008 A 
ATOM     91  C   UNL A   1      34.674  17.629  24.268  1.00  0.00     0.039 A 
ATOM     92  C   UNL A   1      32.807  17.610  22.731  1.00  0.00     0.039 A 
ATOM     93  C   UNL A   1      33.969  17.034  23.231  1.00  0.00     0.123 A 
ATOM     94  F   UNL A   1      34.410  15.883  22.707  1.00  0.00    -0.207 F 
ENDBRANCH  87  88
ENDBRANCH  81  87
BRANCH  85  95
ATOM     95  C   UNL A   1      32.638  27.024  25.544  1.00  0.00     0.232 C 
ATOM     96  O   UNL A   1      32.720  26.970  26.755  1.00  0.00    -0.274 OA
BRANCH  95  97
ATOM     97  C   UNL A   1      32.550  28.348  24.884  1.00  0.00     0.154 C 
ATOM     98  C   UNL A   1      32.290  28.478  23.392  1.00  0.00     0.097 C 
ATOM     99  C   UNL A   1      31.245  28.840  24.379  1.00  0.00     0.260 C 
ATOM    100  F   UNL A   1      30.085  28.106  24.395  1.00  0.00    -0.206 F 
ATOM    101  F   UNL A   1      30.892  30.165  24.506  1.00  0.00    -0.206 F 
ENDBRANCH  95  97
ENDBRANCH  85  95
ENDBRANCH  75  78
ENDBRANCH  73  74
ENDBRANCH  72  73
ENDBRANCH   1  72
TORSDOF 18
ENDMDL
