MODEL 1
REMARK VINA RESULT:     -11.9      0.000      0.000
REMARK SMILES O=C(NCCCCNC(=O)c1cc(NC(=O)c2ccccc2Cl)ccc1N1CCC[C@H](C[NH+]2CCCC2)C1)c1ccc(-c2c3nc(c(-c4cccc(S(=O)(=O)[O-])c4F)c4ccc([nH]4)c(-c4cccc(S(=O)(=O)[O-])c4F)c4nc(c(-c5cccc(S(=O)(=O)[O-])c5F)c5ccc2[nH]5)C=C4)C=C3)cc1
REMARK SMILES IDX 5 1 4 2 3 3 1 4 2 5 39 7 40 8 101 9 41 10 100 11 42 12 43 13
REMARK SMILES IDX 44 14 94 15 45 16 99 17 93 18 95 19 46 20 98 21 92 22 91 23
REMARK SMILES IDX 47 25 79 26 59 27 78 28 60 29 63 30 77 31 96 32 61 33 62 34
REMARK SMILES IDX 76 36 97 37 64 38 48 39 49 40 57 41 50 42 52 43 58 44 51 45
REMARK SMILES IDX 53 46 54 47 55 48 56 49 80 50 81 51 89 52 82 53 84 54 90 55
REMARK SMILES IDX 83 56 85 57 86 58 87 59 88 60 65 61 66 62 74 63 67 64 69 65
REMARK SMILES IDX 75 66 68 67 70 68 71 69 72 70 73 71 6 72 7 73 8 74 9 75
REMARK SMILES IDX 10 77 11 78 12 79 26 80 13 81 25 82 24 83 27 84 28 85 38 86
REMARK SMILES IDX 29 87 31 88 30 89 32 90 33 91 34 92 37 93 35 95 36 96 14 97
REMARK SMILES IDX 15 98 16 100 17 101 18 102 22 103 19 104 21 105 23 106
REMARK SMILES IDX 20 107
REMARK H PARENT 3 6 95 24 63 35 8 76 33 94 14 99
REMARK Flexibility Score: inf
ROOT
ATOM      1  C   UNL A   1      33.949  28.651  27.265  1.00  0.00     0.023 C 
ENDROOT
BRANCH   1   2
ATOM      2  C   UNL A   1      34.431  30.006  26.754  1.00  0.00     0.116 C 
BRANCH   2   3
ATOM      3  N   UNL A   1      34.088  31.114  27.631  1.00  0.00    -0.352 N 
ATOM      4  O   UNL A   1      34.235  32.476  29.416  1.00  0.00    -0.269 OA
ATOM      5  C   UNL A   1      34.753  31.603  28.738  1.00  0.00     0.251 C 
ATOM      6  H   UNL A   1      33.257  31.587  27.400  1.00  0.00     0.163 HD
BRANCH   5   7
ATOM      7  C   UNL A   1      36.075  31.043  29.115  1.00  0.00     0.039 A 
ATOM      8  C   UNL A   1      36.170  29.931  29.952  1.00  0.00     0.014 A 
ATOM      9  C   UNL A   1      37.237  31.640  28.615  1.00  0.00     0.014 A 
ATOM     10  C   UNL A   1      37.414  29.520  30.421  1.00  0.00     0.010 A 
ATOM     11  C   UNL A   1      38.492  31.164  29.015  1.00  0.00     0.010 A 
ATOM     12  C   UNL A   1      38.592  30.121  29.948  1.00  0.00    -0.014 A 
BRANCH  12  13
ATOM     13  C   UNL A   1      39.908  29.563  30.359  1.00  0.00     0.031 A 
ATOM     14  C   UNL A   1      40.688  30.135  31.513  1.00  0.00     0.074 A 
ATOM     15  C   UNL A   1      40.405  28.522  29.661  1.00  0.00     0.049 A 
ATOM     16  N   UNL A   1      41.835  29.738  32.001  1.00  0.00    -0.248 NA
ATOM     17  C   UNL A   1      40.118  31.303  32.206  1.00  0.00     0.031 C 
ATOM     18  C   UNL A   1      39.766  27.918  28.487  1.00  0.00     0.029 A 
ATOM     19  N   UNL A   1      41.555  27.794  29.822  1.00  0.00    -0.354 N 
ATOM     20  C   UNL A   1      42.148  30.625  33.025  1.00  0.00     0.074 A 
ATOM     21  C   UNL A   1      41.064  31.582  33.095  1.00  0.00     0.031 C 
ATOM     22  C   UNL A   1      40.525  26.908  28.042  1.00  0.00     0.029 A 
ATOM     23  C   UNL A   1      41.728  26.824  28.862  1.00  0.00     0.049 A 
ATOM     24  H   UNL A   1      42.196  27.949  30.553  1.00  0.00     0.167 HD
ATOM     25  C   UNL A   1      43.233  30.629  33.837  1.00  0.00     0.034 A 
ATOM     26  C   UNL A   1      42.751  25.976  28.642  1.00  0.00     0.034 A 
ATOM     27  C   UNL A   1      44.284  29.645  33.792  1.00  0.00     0.049 A 
ATOM     28  C   UNL A   1      43.925  25.996  29.577  1.00  0.00     0.074 A 
ATOM     29  C   UNL A   1      45.364  29.505  34.648  1.00  0.00     0.029 A 
ATOM     30  N   UNL A   1      44.403  28.650  32.836  1.00  0.00    -0.354 N 
ATOM     31  N   UNL A   1      44.113  26.729  30.646  1.00  0.00    -0.248 NA
ATOM     32  C   UNL A   1      45.019  25.058  29.288  1.00  0.00     0.031 C 
ATOM     33  C   UNL A   1      46.152  28.444  34.190  1.00  0.00     0.029 A 
ATOM     34  C   UNL A   1      45.552  27.911  33.061  1.00  0.00     0.049 A 
ATOM     35  H   UNL A   1      43.764  28.492  32.104  1.00  0.00     0.167 HD
ATOM     36  C   UNL A   1      45.339  26.334  31.165  1.00  0.00     0.074 A 
ATOM     37  C   UNL A   1      45.830  25.268  30.315  1.00  0.00     0.031 C 
ATOM     38  C   UNL A   1      46.012  26.828  32.232  1.00  0.00     0.034 A 
BRANCH  25  39
ATOM     39  C   UNL A   1      43.341  31.703  34.887  1.00  0.00     0.023 A 
ATOM     40  C   UNL A   1      44.034  32.894  34.595  1.00  0.00     0.012 A 
ATOM     41  C   UNL A   1      42.646  31.589  36.108  1.00  0.00     0.148 A 
ATOM     42  C   UNL A   1      44.041  33.953  35.504  1.00  0.00     0.002 A 
ATOM     43  C   UNL A   1      42.628  32.660  36.994  1.00  0.00     0.091 A 
ATOM     44  F   UNL A   1      42.005  30.442  36.372  1.00  0.00    -0.205 F 
ATOM     45  C   UNL A   1      43.329  33.840  36.695  1.00  0.00     0.022 A 
BRANCH  43  46
ATOM     46  S   UNL A   1      41.682  32.647  38.522  1.00  0.00     0.127 S 
ATOM     47  O   UNL A   1      42.383  31.620  39.292  1.00  0.00    -0.237 OA
ATOM     48  O   UNL A   1      41.873  34.013  39.013  1.00  0.00    -0.237 OA
ATOM     49  O   UNL A   1      40.314  32.318  38.146  1.00  0.00    -0.744 OA
ENDBRANCH  43  46
ENDBRANCH  25  39
BRANCH  26  50
ATOM     50  C   UNL A   1      42.694  25.030  27.493  1.00  0.00     0.023 A 
ATOM     51  C   UNL A   1      43.272  25.392  26.262  1.00  0.00     0.012 A 
ATOM     52  C   UNL A   1      42.102  23.759  27.627  1.00  0.00     0.148 A 
ATOM     53  C   UNL A   1      43.236  24.516  25.176  1.00  0.00     0.002 A 
ATOM     54  C   UNL A   1      42.127  22.868  26.561  1.00  0.00     0.091 A 
ATOM     55  F   UNL A   1      41.534  23.438  28.798  1.00  0.00    -0.205 F 
ATOM     56  C   UNL A   1      42.676  23.249  25.329  1.00  0.00     0.022 A 
BRANCH  54  57
ATOM     57  S   UNL A   1      41.565  21.171  26.743  1.00  0.00     0.127 S 
ATOM     58  O   UNL A   1      40.115  21.335  26.773  1.00  0.00    -0.237 OA
ATOM     59  O   UNL A   1      42.090  20.538  25.532  1.00  0.00    -0.237 OA
ATOM     60  O   UNL A   1      42.186  20.698  27.974  1.00  0.00    -0.744 OA
ENDBRANCH  54  57
ENDBRANCH  26  50
BRANCH  38  61
ATOM     61  C   UNL A   1      47.355  26.223  32.542  1.00  0.00     0.023 A 
ATOM     62  C   UNL A   1      48.515  26.790  31.975  1.00  0.00     0.012 A 
ATOM     63  C   UNL A   1      47.476  25.138  33.430  1.00  0.00     0.148 A 
ATOM     64  C   UNL A   1      49.772  26.264  32.264  1.00  0.00     0.002 A 
ATOM     65  C   UNL A   1      48.738  24.648  33.748  1.00  0.00     0.091 A 
ATOM     66  F   UNL A   1      46.358  24.601  33.942  1.00  0.00    -0.205 F 
ATOM     67  C   UNL A   1      49.885  25.202  33.158  1.00  0.00     0.022 A 
BRANCH  65  68
ATOM     68  S   UNL A   1      48.985  23.341  34.954  1.00  0.00     0.127 S 
ATOM     69  O   UNL A   1      48.729  24.043  36.211  1.00  0.00    -0.237 OA
ATOM     70  O   UNL A   1      47.956  22.371  34.577  1.00  0.00    -0.237 OA
ATOM     71  O   UNL A   1      50.352  22.874  34.766  1.00  0.00    -0.744 OA
ENDBRANCH  65  68
ENDBRANCH  38  61
ENDBRANCH  12  13
ENDBRANCH   5   7
ENDBRANCH   2   3
ENDBRANCH   1   2
BRANCH   1  72
ATOM     72  C   UNL A   1      32.440  28.414  27.249  1.00  0.00     0.023 C 
BRANCH  72  73
ATOM     73  C   UNL A   1      31.997  26.974  27.026  1.00  0.00     0.116 C 
BRANCH  73  74
ATOM     74  N   UNL A   1      30.623  26.787  26.622  1.00  0.00    -0.352 N 
ATOM     75  C   UNL A   1      30.124  25.780  25.824  1.00  0.00     0.253 C 
ATOM     76  H   UNL A   1      29.974  27.450  26.951  1.00  0.00     0.163 HD
ATOM     77  O   UNL A   1      28.907  25.648  25.710  1.00  0.00    -0.269 OA
BRANCH  75  78
ATOM     78  C   UNL A   1      31.024  24.949  24.979  1.00  0.00     0.065 A 
ATOM     79  C   UNL A   1      31.070  23.603  25.401  1.00  0.00     0.042 A 
ATOM     80  C   UNL A   1      31.757  25.371  23.854  1.00  0.00     0.050 A 
ATOM     81  C   UNL A   1      31.737  22.626  24.668  1.00  0.00     0.042 A 
ATOM     82  C   UNL A   1      32.506  24.379  23.188  1.00  0.00     0.029 A 
ATOM     83  C   UNL A   1      32.496  23.036  23.578  1.00  0.00     0.028 A 
BRANCH  80  84
ATOM     84  N   UNL A   1      31.853  26.671  23.358  1.00  0.00    -0.370 N 
ATOM     85  C   UNL A   1      33.124  27.375  23.589  1.00  0.00     0.116 C 
ATOM     86  C   UNL A   1      30.942  27.100  22.293  1.00  0.00     0.126 C 
ATOM     87  C   UNL A   1      33.009  28.880  23.413  1.00  0.00     0.022 C 
ATOM     88  C   UNL A   1      30.750  28.628  22.309  1.00  0.00     0.064 C 
ATOM     89  C   UNL A   1      32.143  29.264  22.222  1.00  0.00     0.013 C 
BRANCH  88  90
ATOM     90  C   UNL A   1      29.889  29.038  23.534  1.00  0.00     0.267 C 
BRANCH  90  91
ATOM     91  N   UNL A   1      28.731  29.924  23.372  1.00  0.00    -0.335 N 
ATOM     92  C   UNL A   1      27.970  29.747  22.138  1.00  0.00     0.262 C 
ATOM     93  C   UNL A   1      28.969  31.355  23.544  1.00  0.00     0.262 C 
ATOM     94  H   UNL A   1      28.178  29.598  24.164  1.00  0.00     0.348 HD
ATOM     95  C   UNL A   1      28.385  30.895  21.241  1.00  0.00     0.067 C 
ATOM     96  C   UNL A   1      28.669  32.028  22.209  1.00  0.00     0.067 C 
ENDBRANCH  90  91
ENDBRANCH  88  90
ENDBRANCH  80  84
BRANCH  81  97
ATOM     97  N   UNL A   1      31.692  21.243  24.934  1.00  0.00    -0.322 N 
ATOM     98  C   UNL A   1      32.667  20.339  25.297  1.00  0.00     0.257 C 
ATOM     99  H   UNL A   1      30.795  20.849  24.843  1.00  0.00     0.170 HD
ATOM    100  O   UNL A   1      32.399  19.142  25.387  1.00  0.00    -0.269 OA
BRANCH  98 101
ATOM    101  C   UNL A   1      34.041  20.771  25.592  1.00  0.00     0.058 A 
ATOM    102  C   UNL A   1      35.039  20.356  24.698  1.00  0.00     0.015 A 
ATOM    103  C   UNL A   1      34.353  21.622  26.660  1.00  0.00     0.053 A 
ATOM    104  C   UNL A   1      36.333  20.859  24.826  1.00  0.00     0.001 A 
ATOM    105  C   UNL A   1      35.651  22.127  26.774  1.00  0.00     0.021 A 
ATOM    106  Cl  UNL A   1      33.186  22.110  27.837  1.00  0.00    -0.083 Cl
ATOM    107  C   UNL A   1      36.632  21.758  25.850  1.00  0.00     0.002 A 
ENDBRANCH  98 101
ENDBRANCH  81  97
ENDBRANCH  75  78
ENDBRANCH  73  74
ENDBRANCH  72  73
ENDBRANCH   1  72
TORSDOF 19
ENDMDL
MODEL 2
REMARK VINA RESULT:     -11.7      4.904     10.160
REMARK SMILES O=C(NCCCCNC(=O)c1cc(NC(=O)c2ccccc2Cl)ccc1N1CCC[C@H](C[NH+]2CCCC2)C1)c1ccc(-c2c3nc(c(-c4cccc(S(=O)(=O)[O-])c4F)c4ccc([nH]4)c(-c4cccc(S(=O)(=O)[O-])c4F)c4nc(c(-c5cccc(S(=O)(=O)[O-])c5F)c5ccc2[nH]5)C=C4)C=C3)cc1
REMARK SMILES IDX 5 1 4 2 3 3 1 4 2 5 39 7 40 8 101 9 41 10 100 11 42 12 43 13
REMARK SMILES IDX 44 14 94 15 45 16 99 17 93 18 95 19 46 20 98 21 92 22 91 23
REMARK SMILES IDX 47 25 79 26 59 27 78 28 60 29 63 30 77 31 96 32 61 33 62 34
REMARK SMILES IDX 76 36 97 37 64 38 48 39 49 40 57 41 50 42 52 43 58 44 51 45
REMARK SMILES IDX 53 46 54 47 55 48 56 49 80 50 81 51 89 52 82 53 84 54 90 55
REMARK SMILES IDX 83 56 85 57 86 58 87 59 88 60 65 61 66 62 74 63 67 64 69 65
REMARK SMILES IDX 75 66 68 67 70 68 71 69 72 70 73 71 6 72 7 73 8 74 9 75
REMARK SMILES IDX 10 77 11 78 12 79 26 80 13 81 25 82 24 83 27 84 28 85 38 86
REMARK SMILES IDX 29 87 31 88 30 89 32 90 33 91 34 92 37 93 35 95 36 96 14 97
REMARK SMILES IDX 15 98 16 100 17 101 18 102 22 103 19 104 21 105 23 106
REMARK SMILES IDX 20 107
REMARK H PARENT 3 6 95 24 63 35 8 76 33 94 14 99
REMARK Flexibility Score: inf
ROOT
ATOM      1  C   UNL A   1      37.011  21.950  24.272  1.00  0.00     0.023 C 
ENDROOT
BRANCH   1   2
ATOM      2  C   UNL A   1      37.469  21.995  25.726  1.00  0.00     0.116 C 
BRANCH   2   3
ATOM      3  N   UNL A   1      38.465  20.989  26.055  1.00  0.00    -0.352 N 
ATOM      4  O   UNL A   1      40.476  20.166  26.645  1.00  0.00    -0.269 OA
ATOM      5  C   UNL A   1      39.747  21.142  26.546  1.00  0.00     0.251 C 
ATOM      6  H   UNL A   1      38.184  20.058  25.904  1.00  0.00     0.163 HD
BRANCH   5   7
ATOM      7  C   UNL A   1      40.241  22.490  26.920  1.00  0.00     0.039 A 
ATOM      8  C   UNL A   1      39.867  23.618  26.187  1.00  0.00     0.014 A 
ATOM      9  C   UNL A   1      41.086  22.626  28.026  1.00  0.00     0.014 A 
ATOM     10  C   UNL A   1      40.463  24.847  26.453  1.00  0.00     0.010 A 
ATOM     11  C   UNL A   1      41.612  23.884  28.349  1.00  0.00     0.010 A 
ATOM     12  C   UNL A   1      41.333  25.000  27.547  1.00  0.00    -0.014 A 
BRANCH  12  13
ATOM     13  C   UNL A   1      41.839  26.355  27.888  1.00  0.00     0.031 A 
ATOM     14  C   UNL A   1      43.241  26.788  27.551  1.00  0.00     0.074 A 
ATOM     15  C   UNL A   1      41.008  27.204  28.526  1.00  0.00     0.049 A 
ATOM     16  N   UNL A   1      43.813  27.945  27.764  1.00  0.00    -0.248 NA
ATOM     17  C   UNL A   1      44.118  25.802  26.898  1.00  0.00     0.031 C 
ATOM     18  C   UNL A   1      39.645  26.877  28.957  1.00  0.00     0.029 A 
ATOM     19  N   UNL A   1      41.181  28.501  28.935  1.00  0.00    -0.354 N 
ATOM     20  C   UNL A   1      45.123  27.819  27.315  1.00  0.00     0.074 A 
ATOM     21  C   UNL A   1      45.262  26.470  26.809  1.00  0.00     0.031 C 
ATOM     22  C   UNL A   1      39.103  27.946  29.556  1.00  0.00     0.029 A 
ATOM     23  C   UNL A   1      40.093  29.014  29.603  1.00  0.00     0.049 A 
ATOM     24  H   UNL A   1      42.003  29.016  28.766  1.00  0.00     0.167 HD
ATOM     25  C   UNL A   1      46.110  28.747  27.315  1.00  0.00     0.034 A 
ATOM     26  C   UNL A   1      39.916  30.202  30.211  1.00  0.00     0.034 A 
ATOM     27  C   UNL A   1      45.949  30.102  27.777  1.00  0.00     0.049 A 
ATOM     28  C   UNL A   1      41.024  31.213  30.171  1.00  0.00     0.074 A 
ATOM     29  C   UNL A   1      46.860  31.144  27.712  1.00  0.00     0.029 A 
ATOM     30  N   UNL A   1      44.820  30.600  28.405  1.00  0.00    -0.354 N 
ATOM     31  N   UNL A   1      42.192  31.130  29.583  1.00  0.00    -0.248 NA
ATOM     32  C   UNL A   1      40.784  32.489  30.859  1.00  0.00     0.031 C 
ATOM     33  C   UNL A   1      46.291  32.263  28.329  1.00  0.00     0.029 A 
ATOM     34  C   UNL A   1      45.019  31.924  28.760  1.00  0.00     0.049 A 
ATOM     35  H   UNL A   1      43.996  30.088  28.575  1.00  0.00     0.167 HD
ATOM     36  C   UNL A   1      42.821  32.345  29.819  1.00  0.00     0.074 A 
ATOM     37  C   UNL A   1      41.889  33.162  30.569  1.00  0.00     0.031 C 
ATOM     38  C   UNL A   1      44.070  32.739  29.472  1.00  0.00     0.034 A 
BRANCH  25  39
ATOM     39  C   UNL A   1      47.457  28.365  26.762  1.00  0.00     0.023 A 
ATOM     40  C   UNL A   1      48.531  28.135  27.644  1.00  0.00     0.012 A 
ATOM     41  C   UNL A   1      47.623  28.103  25.387  1.00  0.00     0.148 A 
ATOM     42  C   UNL A   1      49.753  27.660  27.166  1.00  0.00     0.002 A 
ATOM     43  C   UNL A   1      48.831  27.596  24.922  1.00  0.00     0.091 A 
ATOM     44  F   UNL A   1      46.592  28.342  24.564  1.00  0.00    -0.205 F 
ATOM     45  C   UNL A   1      49.898  27.379  25.810  1.00  0.00     0.022 A 
BRANCH  43  46
ATOM     46  S   UNL A   1      49.100  27.132  23.207  1.00  0.00     0.127 S 
ATOM     47  O   UNL A   1      48.604  28.313  22.503  1.00  0.00    -0.237 OA
ATOM     48  O   UNL A   1      50.552  26.959  23.160  1.00  0.00    -0.237 OA
ATOM     49  O   UNL A   1      48.332  25.913  22.995  1.00  0.00    -0.744 OA
ENDBRANCH  43  46
ENDBRANCH  25  39
BRANCH  26  50
ATOM     50  C   UNL A   1      38.627  30.496  30.898  1.00  0.00     0.023 A 
ATOM     51  C   UNL A   1      38.442  30.100  32.235  1.00  0.00     0.012 A 
ATOM     52  C   UNL A   1      37.598  31.199  30.241  1.00  0.00     0.148 A 
ATOM     53  C   UNL A   1      37.244  30.374  32.898  1.00  0.00     0.002 A 
ATOM     54  C   UNL A   1      36.434  31.524  30.926  1.00  0.00     0.091 A 
ATOM     55  F   UNL A   1      37.779  31.548  28.959  1.00  0.00    -0.205 F 
ATOM     56  C   UNL A   1      36.246  31.097  32.249  1.00  0.00     0.022 A 
BRANCH  54  57
ATOM     57  S   UNL A   1      35.182  32.586  30.199  1.00  0.00     0.127 S 
ATOM     58  O   UNL A   1      34.676  31.756  29.111  1.00  0.00    -0.237 OA
ATOM     59  O   UNL A   1      34.251  32.778  31.313  1.00  0.00    -0.237 OA
ATOM     60  O   UNL A   1      35.893  33.797  29.809  1.00  0.00    -0.744 OA
ENDBRANCH  54  57
ENDBRANCH  26  50
BRANCH  38  61
ATOM     61  C   UNL A   1      44.504  34.115  29.900  1.00  0.00     0.023 A 
ATOM     62  C   UNL A   1      45.253  34.266  31.085  1.00  0.00     0.012 A 
ATOM     63  C   UNL A   1      44.222  35.245  29.110  1.00  0.00     0.148 A 
ATOM     64  C   UNL A   1      45.687  35.526  31.492  1.00  0.00     0.002 A 
ATOM     65  C   UNL A   1      44.697  36.493  29.499  1.00  0.00     0.091 A 
ATOM     66  F   UNL A   1      43.491  35.082  27.997  1.00  0.00    -0.205 F 
ATOM     67  C   UNL A   1      45.419  36.636  30.695  1.00  0.00     0.022 A 
BRANCH  65  68
ATOM     68  S   UNL A   1      44.475  37.963  28.492  1.00  0.00     0.127 S 
ATOM     69  O   UNL A   1      45.422  38.892  29.109  1.00  0.00    -0.237 OA
ATOM     70  O   UNL A   1      44.864  37.491  27.163  1.00  0.00    -0.237 OA
ATOM     71  O   UNL A   1      43.070  38.327  28.617  1.00  0.00    -0.744 OA
ENDBRANCH  65  68
ENDBRANCH  38  61
ENDBRANCH  12  13
ENDBRANCH   5   7
ENDBRANCH   2   3
ENDBRANCH   1   2
BRANCH   1  72
ATOM     72  C   UNL A   1      36.822  23.296  23.573  1.00  0.00     0.023 C 
BRANCH  72  73
ATOM     73  C   UNL A   1      35.381  23.761  23.410  1.00  0.00     0.116 C 
BRANCH  73  74
ATOM     74  N   UNL A   1      34.537  22.935  22.580  1.00  0.00    -0.352 N 
ATOM     75  C   UNL A   1      33.187  23.095  22.353  1.00  0.00     0.253 C 
ATOM     76  H   UNL A   1      34.972  22.176  22.129  1.00  0.00     0.163 HD
ATOM     77  O   UNL A   1      32.637  22.420  21.484  1.00  0.00    -0.269 OA
BRANCH  75  78
ATOM     78  C   UNL A   1      32.353  23.952  23.237  1.00  0.00     0.065 A 
ATOM     79  C   UNL A   1      31.871  25.102  22.576  1.00  0.00     0.042 A 
ATOM     80  C   UNL A   1      32.011  23.704  24.580  1.00  0.00     0.050 A 
ATOM     81  C   UNL A   1      30.958  25.965  23.175  1.00  0.00     0.042 A 
ATOM     82  C   UNL A   1      31.165  24.648  25.195  1.00  0.00     0.029 A 
ATOM     83  C   UNL A   1      30.643  25.752  24.513  1.00  0.00     0.028 A 
BRANCH  80  84
ATOM     84  N   UNL A   1      32.456  22.647  25.374  1.00  0.00    -0.370 N 
ATOM     85  C   UNL A   1      33.320  22.993  26.513  1.00  0.00     0.116 C 
ATOM     86  C   UNL A   1      31.729  21.375  25.345  1.00  0.00     0.126 C 
ATOM     87  C   UNL A   1      34.094  21.803  27.055  1.00  0.00     0.022 C 
ATOM     88  C   UNL A   1      32.647  20.202  25.739  1.00  0.00     0.064 C 
ATOM     89  C   UNL A   1      33.252  20.536  27.108  1.00  0.00     0.013 C 
BRANCH  88  90
ATOM     90  C   UNL A   1      33.660  19.919  24.598  1.00  0.00     0.267 C 
BRANCH  90  91
ATOM     91  N   UNL A   1      33.752  18.586  23.992  1.00  0.00    -0.335 N 
ATOM     92  C   UNL A   1      32.531  17.787  24.039  1.00  0.00     0.262 C 
ATOM     93  C   UNL A   1      34.855  17.737  24.435  1.00  0.00     0.262 C 
ATOM     94  H   UNL A   1      33.938  18.869  23.030  1.00  0.00     0.348 HD
ATOM     95  C   UNL A   1      32.750  16.784  25.153  1.00  0.00     0.067 C 
ATOM     96  C   UNL A   1      34.243  16.517  25.113  1.00  0.00     0.067 C 
ENDBRANCH  90  91
ENDBRANCH  88  90
ENDBRANCH  80  84
BRANCH  81  97
ATOM     97  N   UNL A   1      30.310  27.036  22.527  1.00  0.00    -0.322 N 
ATOM     98  C   UNL A   1      30.388  28.401  22.694  1.00  0.00     0.257 C 
ATOM     99  H   UNL A   1      29.683  26.754  21.822  1.00  0.00     0.170 HD
ATOM    100  O   UNL A   1      29.644  29.147  22.059  1.00  0.00    -0.269 OA
BRANCH  98 101
ATOM    101  C   UNL A   1      31.357  29.006  23.620  1.00  0.00     0.058 A 
ATOM    102  C   UNL A   1      30.834  29.630  24.762  1.00  0.00     0.015 A 
ATOM    103  C   UNL A   1      32.742  28.908  23.435  1.00  0.00     0.053 A 
ATOM    104  C   UNL A   1      31.699  30.081  25.759  1.00  0.00     0.001 A 
ATOM    105  C   UNL A   1      33.599  29.356  24.444  1.00  0.00     0.021 A 
ATOM    106  Cl  UNL A   1      33.448  28.218  22.018  1.00  0.00    -0.083 Cl
ATOM    107  C   UNL A   1      33.077  29.926  25.608  1.00  0.00     0.002 A 
ENDBRANCH  98 101
ENDBRANCH  81  97
ENDBRANCH  75  78
ENDBRANCH  73  74
ENDBRANCH  72  73
ENDBRANCH   1  72
TORSDOF 19
ENDMDL
MODEL 3
REMARK VINA RESULT:     -11.6      4.964      8.913
REMARK SMILES O=C(NCCCCNC(=O)c1cc(NC(=O)c2ccccc2Cl)ccc1N1CCC[C@H](C[NH+]2CCCC2)C1)c1ccc(-c2c3nc(c(-c4cccc(S(=O)(=O)[O-])c4F)c4ccc([nH]4)c(-c4cccc(S(=O)(=O)[O-])c4F)c4nc(c(-c5cccc(S(=O)(=O)[O-])c5F)c5ccc2[nH]5)C=C4)C=C3)cc1
REMARK SMILES IDX 5 1 4 2 3 3 1 4 2 5 39 7 40 8 101 9 41 10 100 11 42 12 43 13
REMARK SMILES IDX 44 14 94 15 45 16 99 17 93 18 95 19 46 20 98 21 92 22 91 23
REMARK SMILES IDX 47 25 79 26 59 27 78 28 60 29 63 30 77 31 96 32 61 33 62 34
REMARK SMILES IDX 76 36 97 37 64 38 48 39 49 40 57 41 50 42 52 43 58 44 51 45
REMARK SMILES IDX 53 46 54 47 55 48 56 49 80 50 81 51 89 52 82 53 84 54 90 55
REMARK SMILES IDX 83 56 85 57 86 58 87 59 88 60 65 61 66 62 74 63 67 64 69 65
REMARK SMILES IDX 75 66 68 67 70 68 71 69 72 70 73 71 6 72 7 73 8 74 9 75
REMARK SMILES IDX 10 77 11 78 12 79 26 80 13 81 25 82 24 83 27 84 28 85 38 86
REMARK SMILES IDX 29 87 31 88 30 89 32 90 33 91 34 92 37 93 35 95 36 96 14 97
REMARK SMILES IDX 15 98 16 100 17 101 18 102 22 103 19 104 21 105 23 106
REMARK SMILES IDX 20 107
REMARK H PARENT 3 6 95 24 63 35 8 76 33 94 14 99
REMARK Flexibility Score: inf
ROOT
ATOM      1  C   UNL A   1      36.934  21.816  24.339  1.00  0.00     0.023 C 
ENDROOT
BRANCH   1   2
ATOM      2  C   UNL A   1      37.388  21.714  25.792  1.00  0.00     0.116 C 
BRANCH   2   3
ATOM      3  N   UNL A   1      38.438  20.732  26.006  1.00  0.00    -0.352 N 
ATOM      4  O   UNL A   1      40.510  19.959  26.429  1.00  0.00    -0.269 OA
ATOM      5  C   UNL A   1      39.742  20.909  26.426  1.00  0.00     0.251 C 
ATOM      6  H   UNL A   1      38.181  19.799  25.824  1.00  0.00     0.163 HD
BRANCH   5   7
ATOM      7  C   UNL A   1      40.211  22.256  26.838  1.00  0.00     0.039 A 
ATOM      8  C   UNL A   1      39.805  23.398  26.147  1.00  0.00     0.014 A 
ATOM      9  C   UNL A   1      41.065  22.374  27.939  1.00  0.00     0.014 A 
ATOM     10  C   UNL A   1      40.377  24.630  26.446  1.00  0.00     0.010 A 
ATOM     11  C   UNL A   1      41.568  23.632  28.298  1.00  0.00     0.010 A 
ATOM     12  C   UNL A   1      41.255  24.767  27.535  1.00  0.00    -0.014 A 
BRANCH  12  13
ATOM     13  C   UNL A   1      41.736  26.121  27.915  1.00  0.00     0.031 A 
ATOM     14  C   UNL A   1      40.848  27.110  28.622  1.00  0.00     0.074 A 
ATOM     15  C   UNL A   1      43.003  26.459  27.599  1.00  0.00     0.049 A 
ATOM     16  N   UNL A   1      41.137  28.317  29.036  1.00  0.00    -0.248 NA
ATOM     17  C   UNL A   1      39.460  26.704  28.896  1.00  0.00     0.031 C 
ATOM     18  C   UNL A   1      43.939  25.604  26.863  1.00  0.00     0.029 A 
ATOM     19  N   UNL A   1      43.719  27.602  27.842  1.00  0.00    -0.354 N 
ATOM     20  C   UNL A   1      39.965  28.831  29.579  1.00  0.00     0.074 A 
ATOM     21  C   UNL A   1      38.957  27.801  29.448  1.00  0.00     0.031 C 
ATOM     22  C   UNL A   1      45.107  26.246  26.725  1.00  0.00     0.029 A 
ATOM     23  C   UNL A   1      44.989  27.575  27.312  1.00  0.00     0.049 A 
ATOM     24  H   UNL A   1      43.361  28.368  28.347  1.00  0.00     0.167 HD
ATOM     25  C   UNL A   1      39.757  30.045  30.145  1.00  0.00     0.034 A 
ATOM     26  C   UNL A   1      45.946  28.521  27.275  1.00  0.00     0.034 A 
ATOM     27  C   UNL A   1      40.778  31.047  30.314  1.00  0.00     0.049 A 
ATOM     28  C   UNL A   1      45.686  29.845  27.932  1.00  0.00     0.074 A 
ATOM     29  C   UNL A   1      40.685  32.261  30.976  1.00  0.00     0.029 A 
ATOM     30  N   UNL A   1      42.063  30.968  29.806  1.00  0.00    -0.354 N 
ATOM     31  N   UNL A   1      44.628  30.241  28.594  1.00  0.00    -0.248 NA
ATOM     32  C   UNL A   1      46.759  30.846  27.854  1.00  0.00     0.031 C 
ATOM     33  C   UNL A   1      41.908  32.928  30.840  1.00  0.00     0.029 A 
ATOM     34  C   UNL A   1      42.766  32.121  30.112  1.00  0.00     0.049 A 
ATOM     35  H   UNL A   1      42.424  30.203  29.302  1.00  0.00     0.167 HD
ATOM     36  C   UNL A   1      44.910  31.531  29.024  1.00  0.00     0.074 A 
ATOM     37  C   UNL A   1      46.255  31.835  28.581  1.00  0.00     0.031 C 
ATOM     38  C   UNL A   1      44.117  32.397  29.699  1.00  0.00     0.034 A 
BRANCH  25  39
ATOM     39  C   UNL A   1      38.383  30.367  30.672  1.00  0.00     0.023 A 
ATOM     40  C   UNL A   1      38.053  30.035  32.001  1.00  0.00     0.012 A 
ATOM     41  C   UNL A   1      37.473  31.116  29.899  1.00  0.00     0.148 A 
ATOM     42  C   UNL A   1      36.834  30.435  32.550  1.00  0.00     0.002 A 
ATOM     43  C   UNL A   1      36.275  31.541  30.463  1.00  0.00     0.091 A 
ATOM     44  F   UNL A   1      37.802  31.409  28.633  1.00  0.00    -0.205 F 
ATOM     45  C   UNL A   1      35.953  31.197  31.786  1.00  0.00     0.022 A 
BRANCH  43  46
ATOM     46  S   UNL A   1      35.103  32.588  29.592  1.00  0.00     0.127 S 
ATOM     47  O   UNL A   1      35.990  33.583  28.990  1.00  0.00    -0.237 OA
ATOM     48  O   UNL A   1      34.503  31.652  28.641  1.00  0.00    -0.237 OA
ATOM     49  O   UNL A   1      34.190  33.100  30.604  1.00  0.00    -0.744 OA
ENDBRANCH  43  46
ENDBRANCH  25  39
BRANCH  26  50
ATOM     50  C   UNL A   1      47.243  28.235  26.600  1.00  0.00     0.023 A 
ATOM     51  C   UNL A   1      48.398  28.013  27.373  1.00  0.00     0.012 A 
ATOM     52  C   UNL A   1      47.328  28.148  25.197  1.00  0.00     0.148 A 
ATOM     53  C   UNL A   1      49.621  27.736  26.759  1.00  0.00     0.002 A 
ATOM     54  C   UNL A   1      48.533  27.808  24.596  1.00  0.00     0.091 A 
ATOM     55  F   UNL A   1      46.225  28.386  24.474  1.00  0.00    -0.205 F 
ATOM     56  C   UNL A   1      49.685  27.620  25.372  1.00  0.00     0.022 A 
BRANCH  54  57
ATOM     57  S   UNL A   1      48.646  27.489  22.832  1.00  0.00     0.127 S 
ATOM     58  O   UNL A   1      50.015  27.898  22.538  1.00  0.00    -0.237 OA
ATOM     59  O   UNL A   1      48.402  26.047  22.760  1.00  0.00    -0.237 OA
ATOM     60  O   UNL A   1      47.590  28.296  22.234  1.00  0.00    -0.744 OA
ENDBRANCH  54  57
ENDBRANCH  26  50
BRANCH  38  61
ATOM     61  C   UNL A   1      44.682  33.759  30.000  1.00  0.00     0.023 A 
ATOM     62  C   UNL A   1      45.483  33.937  31.146  1.00  0.00     0.012 A 
ATOM     63  C   UNL A   1      44.471  34.843  29.127  1.00  0.00     0.148 A 
ATOM     64  C   UNL A   1      46.038  35.182  31.436  1.00  0.00     0.002 A 
ATOM     65  C   UNL A   1      45.065  36.071  29.398  1.00  0.00     0.091 A 
ATOM     66  F   UNL A   1      43.690  34.657  28.052  1.00  0.00    -0.205 F 
ATOM     67  C   UNL A   1      45.839  36.244  30.557  1.00  0.00     0.022 A 
BRANCH  65  68
ATOM     68  S   UNL A   1      44.935  37.470  28.280  1.00  0.00     0.127 S 
ATOM     69  O   UNL A   1      43.486  37.636  28.178  1.00  0.00    -0.237 OA
ATOM     70  O   UNL A   1      45.619  38.528  29.025  1.00  0.00    -0.237 OA
ATOM     71  O   UNL A   1      45.607  37.066  27.052  1.00  0.00    -0.744 OA
ENDBRANCH  65  68
ENDBRANCH  38  61
ENDBRANCH  12  13
ENDBRANCH   5   7
ENDBRANCH   2   3
ENDBRANCH   1   2
BRANCH   1  72
ATOM     72  C   UNL A   1      36.862  23.222  23.744  1.00  0.00     0.023 C 
BRANCH  72  73
ATOM     73  C   UNL A   1      35.463  23.749  23.455  1.00  0.00     0.116 C 
BRANCH  73  74
ATOM     74  N   UNL A   1      34.651  22.944  22.573  1.00  0.00    -0.352 N 
ATOM     75  C   UNL A   1      33.313  23.118  22.290  1.00  0.00     0.253 C 
ATOM     76  H   UNL A   1      35.101  22.191  22.127  1.00  0.00     0.163 HD
ATOM     77  O   UNL A   1      32.798  22.463  21.384  1.00  0.00    -0.269 OA
BRANCH  75  78
ATOM     78  C   UNL A   1      32.447  23.964  23.153  1.00  0.00     0.065 A 
ATOM     79  C   UNL A   1      31.995  25.126  22.491  1.00  0.00     0.042 A 
ATOM     80  C   UNL A   1      32.050  23.696  24.476  1.00  0.00     0.050 A 
ATOM     81  C   UNL A   1      31.061  25.983  23.065  1.00  0.00     0.042 A 
ATOM     82  C   UNL A   1      31.181  24.634  25.071  1.00  0.00     0.029 A 
ATOM     83  C   UNL A   1      30.690  25.750  24.385  1.00  0.00     0.028 A 
BRANCH  80  84
ATOM     84  N   UNL A   1      32.459  22.626  25.271  1.00  0.00    -0.370 N 
ATOM     85  C   UNL A   1      33.291  22.950  26.440  1.00  0.00     0.116 C 
ATOM     86  C   UNL A   1      31.721  21.361  25.205  1.00  0.00     0.126 C 
ATOM     87  C   UNL A   1      34.035  21.745  26.991  1.00  0.00     0.022 C 
ATOM     88  C   UNL A   1      32.614  20.175  25.613  1.00  0.00     0.064 C 
ATOM     89  C   UNL A   1      33.180  20.486  27.004  1.00  0.00     0.013 C 
BRANCH  88  90
ATOM     90  C   UNL A   1      33.660  19.895  24.500  1.00  0.00     0.267 C 
BRANCH  90  91
ATOM     91  N   UNL A   1      33.807  18.550  23.933  1.00  0.00    -0.335 N 
ATOM     92  C   UNL A   1      32.588  17.746  23.894  1.00  0.00     0.262 C 
ATOM     93  C   UNL A   1      34.870  17.716  24.486  1.00  0.00     0.262 C 
ATOM     94  H   UNL A   1      34.073  18.813  22.985  1.00  0.00     0.348 HD
ATOM     95  C   UNL A   1      32.715  16.768  25.043  1.00  0.00     0.067 C 
ATOM     96  C   UNL A   1      34.206  16.507  25.136  1.00  0.00     0.067 C 
ENDBRANCH  90  91
ENDBRANCH  88  90
ENDBRANCH  80  84
BRANCH  81  97
ATOM     97  N   UNL A   1      30.443  27.065  22.408  1.00  0.00    -0.322 N 
ATOM     98  C   UNL A   1      30.516  28.428  22.601  1.00  0.00     0.257 C 
ATOM     99  H   UNL A   1      29.845  26.796  21.673  1.00  0.00     0.170 HD
ATOM    100  O   UNL A   1      29.801  29.185  21.947  1.00  0.00    -0.269 OA
BRANCH  98 101
ATOM    101  C   UNL A   1      31.446  29.014  23.577  1.00  0.00     0.058 A 
ATOM    102  C   UNL A   1      30.877  29.630  24.700  1.00  0.00     0.015 A 
ATOM    103  C   UNL A   1      32.838  28.908  23.453  1.00  0.00     0.053 A 
ATOM    104  C   UNL A   1      31.699  30.064  25.740  1.00  0.00     0.001 A 
ATOM    105  C   UNL A   1      33.652  29.338  24.505  1.00  0.00     0.021 A 
ATOM    106  Cl  UNL A   1      33.602  28.228  22.062  1.00  0.00    -0.083 Cl
ATOM    107  C   UNL A   1      33.081  29.900  25.650  1.00  0.00     0.002 A 
ENDBRANCH  98 101
ENDBRANCH  81  97
ENDBRANCH  75  78
ENDBRANCH  73  74
ENDBRANCH  72  73
ENDBRANCH   1  72
TORSDOF 19
ENDMDL
