MODEL 1
REMARK VINA RESULT:      -9.1      0.000      0.000
REMARK SMILES O=C(CCCN1C(=O)C(=O)/C(=C(/[O-])c2ccc(Cl)cc2)[C@@H]1c1ccccc1[N+](=O)[O-])NCCCCNC(=O)c1ccc(-c2c3nc(c(-c4cccc(S(=O)(=O)[O-])c4F)c4ccc([nH]4)c(-c4cccc(S(=O)(=O)[O-])c4F)c4nc(c(-c5cccc(S(=O)(=O)[O-])c5F)c5ccc2[nH]5)C=C4)C=C3)cc1
REMARK SMILES IDX 32 1 31 2 1 3 2 4 3 6 4 7 5 8 6 9 7 10 21 11 8 12 9 13 11 14
REMARK SMILES IDX 10 15 12 16 13 17 22 18 23 19 27 20 24 21 26 22 25 23 28 24
REMARK SMILES IDX 29 25 30 26 14 27 15 28 20 29 16 30 19 31 17 32 18 33 33 34
REMARK SMILES IDX 34 35 35 36 36 37 37 38 38 40 39 41 40 42 101 43 41 44
REMARK SMILES IDX 100 45 42 46 43 47 44 48 94 49 45 50 99 51 93 52 95 53 46 54
REMARK SMILES IDX 98 55 92 56 91 57 47 59 79 60 59 61 78 62 60 63 63 64 77 65
REMARK SMILES IDX 96 66 61 67 62 68 76 70 97 71 64 72 48 73 49 74 57 75 50 76
REMARK SMILES IDX 52 77 58 78 51 79 53 80 54 81 55 82 56 83 80 84 81 85 89 86
REMARK SMILES IDX 82 87 84 88 90 89 83 90 85 91 86 92 87 93 88 94 65 95 66 96
REMARK SMILES IDX 74 97 67 98 69 99 75 100 68 101 70 102 71 103 72 104 73 105
REMARK H PARENT 31 5 36 39 95 58 63 69
REMARK Flexibility Score: inf
ROOT
ATOM      1  C   UNL A   1      38.779  34.566  38.384  1.00  0.00     0.116 C 
ENDROOT
BRANCH   1   2
ATOM      2  N   UNL A   1      38.627  34.159  37.006  1.00  0.00    -0.356 N 
ATOM      3  O   UNL A   1      36.621  33.087  37.293  1.00  0.00    -0.275 OA
ATOM      4  C   UNL A   1      37.522  33.476  36.562  1.00  0.00     0.220 C 
ATOM      5  H   UNL A   1      39.341  34.379  36.364  1.00  0.00     0.163 HD
BRANCH   4   6
ATOM      6  C   UNL A   1      37.541  33.207  35.073  1.00  0.00     0.102 C 
BRANCH   6   7
ATOM      7  C   UNL A   1      38.412  34.177  34.277  1.00  0.00     0.031 C 
BRANCH   7   8
ATOM      8  C   UNL A   1      38.007  34.490  32.830  1.00  0.00     0.121 C 
BRANCH   8   9
ATOM      9  N   UNL A   1      38.231  33.447  31.824  1.00  0.00    -0.324 N 
ATOM     10  C   UNL A   1      39.531  32.997  31.571  1.00  0.00     0.295 C 
ATOM     11  C   UNL A   1      37.227  32.480  31.385  1.00  0.00     0.157 C 
ATOM     12  O   UNL A   1      40.571  33.488  31.947  1.00  0.00    -0.265 OA
ATOM     13  C   UNL A   1      39.419  31.663  30.822  1.00  0.00     0.248 C 
ATOM     14  C   UNL A   1      37.990  31.270  30.905  1.00  0.00     0.025 C 
ATOM     15  O   UNL A   1      40.337  31.070  30.312  1.00  0.00    -0.283 OA
ATOM     16  C   UNL A   1      37.504  30.041  30.670  1.00  0.00    -0.092 C 
ATOM     17  O   UNL A   1      36.186  29.732  30.957  1.00  0.00    -0.872 OA
BRANCH  11  18
ATOM     18  C   UNL A   1      36.226  32.988  30.348  1.00  0.00     0.057 A 
ATOM     19  C   UNL A   1      36.626  32.918  28.992  1.00  0.00     0.013 A 
ATOM     20  C   UNL A   1      34.941  33.525  30.584  1.00  0.00     0.275 A 
ATOM     21  C   UNL A   1      35.789  33.320  27.945  1.00  0.00     0.001 A 
ATOM     22  C   UNL A   1      34.083  33.899  29.531  1.00  0.00     0.086 A 
ATOM     23  C   UNL A   1      34.511  33.793  28.213  1.00  0.00     0.007 A 
BRANCH  20  24
ATOM     24  N   UNL A   1      34.402  33.721  31.920  1.00  0.00     0.063 N 
ATOM     25  O   UNL A   1      34.616  34.817  32.456  1.00  0.00    -0.258 OA
ATOM     26  O   UNL A   1      33.837  32.758  32.445  1.00  0.00    -0.258 OA
ENDBRANCH  20  24
ENDBRANCH  11  18
BRANCH  16  27
ATOM     27  C   UNL A   1      38.246  28.957  30.016  1.00  0.00    -0.033 A 
ATOM     28  C   UNL A   1      38.464  28.915  28.635  1.00  0.00     0.009 A 
ATOM     29  C   UNL A   1      38.753  27.931  30.828  1.00  0.00     0.009 A 
ATOM     30  C   UNL A   1      39.145  27.831  28.069  1.00  0.00     0.021 A 
ATOM     31  C   UNL A   1      39.432  26.852  30.263  1.00  0.00     0.021 A 
ATOM     32  C   UNL A   1      39.613  26.800  28.882  1.00  0.00     0.041 A 
ATOM     33  Cl  UNL A   1      40.411  25.441  28.191  1.00  0.00    -0.084 Cl
ENDBRANCH  16  27
ENDBRANCH   8   9
ENDBRANCH   7   8
ENDBRANCH   6   7
ENDBRANCH   4   6
ENDBRANCH   1   2
BRANCH   1  34
ATOM     34  C   UNL A   1      40.072  34.032  38.990  1.00  0.00     0.023 C 
BRANCH  34  35
ATOM     35  C   UNL A   1      40.562  34.763  40.247  1.00  0.00     0.023 C 
BRANCH  35  36
ATOM     36  C   UNL A   1      42.061  35.039  40.308  1.00  0.00     0.116 C 
BRANCH  36  37
ATOM     37  N   UNL A   1      42.381  36.430  40.039  1.00  0.00    -0.352 N 
ATOM     38  C   UNL A   1      42.838  37.023  38.888  1.00  0.00     0.251 C 
ATOM     39  H   UNL A   1      42.250  37.042  40.799  1.00  0.00     0.163 HD
ATOM     40  O   UNL A   1      43.209  38.194  38.920  1.00  0.00    -0.269 OA
BRANCH  38  41
ATOM     41  C   UNL A   1      42.909  36.259  37.623  1.00  0.00     0.039 A 
ATOM     42  C   UNL A   1      44.110  35.630  37.288  1.00  0.00     0.014 A 
ATOM     43  C   UNL A   1      41.812  36.176  36.760  1.00  0.00     0.014 A 
ATOM     44  C   UNL A   1      44.193  34.867  36.119  1.00  0.00     0.010 A 
ATOM     45  C   UNL A   1      41.874  35.358  35.633  1.00  0.00     0.010 A 
ATOM     46  C   UNL A   1      43.067  34.698  35.298  1.00  0.00    -0.014 A 
BRANCH  46  47
ATOM     47  C   UNL A   1      43.114  33.818  34.101  1.00  0.00     0.031 A 
ATOM     48  C   UNL A   1      43.029  32.323  34.247  1.00  0.00     0.074 A 
ATOM     49  C   UNL A   1      43.315  34.363  32.884  1.00  0.00     0.049 A 
ATOM     50  N   UNL A   1      43.104  31.398  33.323  1.00  0.00    -0.248 NA
ATOM     51  C   UNL A   1      42.863  31.793  35.610  1.00  0.00     0.031 C 
ATOM     52  C   UNL A   1      43.488  35.793  32.617  1.00  0.00     0.029 A 
ATOM     53  N   UNL A   1      43.437  33.778  31.648  1.00  0.00    -0.354 N 
ATOM     54  C   UNL A   1      43.031  30.183  33.993  1.00  0.00     0.074 A 
ATOM     55  C   UNL A   1      42.936  30.486  35.405  1.00  0.00     0.031 C 
ATOM     56  C   UNL A   1      43.695  35.973  31.303  1.00  0.00     0.029 A 
ATOM     57  C   UNL A   1      43.701  34.674  30.638  1.00  0.00     0.049 A 
ATOM     58  H   UNL A   1      43.345  32.810  31.499  1.00  0.00     0.167 HD
ATOM     59  C   UNL A   1      43.012  28.929  33.480  1.00  0.00     0.034 A 
ATOM     60  C   UNL A   1      43.934  34.473  29.325  1.00  0.00     0.034 A 
ATOM     61  C   UNL A   1      43.069  28.632  32.074  1.00  0.00     0.049 A 
ATOM     62  C   UNL A   1      43.874  33.075  28.776  1.00  0.00     0.074 A 
ATOM     63  C   UNL A   1      42.970  27.400  31.451  1.00  0.00     0.029 A 
ATOM     64  N   UNL A   1      43.250  29.573  31.072  1.00  0.00    -0.354 N 
ATOM     65  N   UNL A   1      43.637  31.951  29.407  1.00  0.00    -0.248 NA
ATOM     66  C   UNL A   1      44.075  32.918  27.328  1.00  0.00     0.031 C 
ATOM     67  C   UNL A   1      43.116  27.593  30.073  1.00  0.00     0.029 A 
ATOM     68  C   UNL A   1      43.275  28.949  29.835  1.00  0.00     0.049 A 
ATOM     69  H   UNL A   1      43.346  30.541  31.217  1.00  0.00     0.167 HD
ATOM     70  C   UNL A   1      43.625  30.959  28.431  1.00  0.00     0.074 A 
ATOM     71  C   UNL A   1      43.856  31.620  27.163  1.00  0.00     0.031 C 
ATOM     72  C   UNL A   1      43.452  29.622  28.575  1.00  0.00     0.034 A 
BRANCH  59  73
ATOM     73  C   UNL A   1      42.875  27.779  34.445  1.00  0.00     0.023 A 
ATOM     74  C   UNL A   1      41.600  27.229  34.691  1.00  0.00     0.012 A 
ATOM     75  C   UNL A   1      44.005  27.203  35.059  1.00  0.00     0.148 A 
ATOM     76  C   UNL A   1      41.445  26.150  35.560  1.00  0.00     0.002 A 
ATOM     77  C   UNL A   1      43.849  26.098  35.888  1.00  0.00     0.091 A 
ATOM     78  F   UNL A   1      45.207  27.749  34.827  1.00  0.00    -0.205 F 
ATOM     79  C   UNL A   1      42.569  25.579  36.150  1.00  0.00     0.022 A 
BRANCH  77  80
ATOM     80  S   UNL A   1      45.240  25.237  36.630  1.00  0.00     0.127 S 
ATOM     81  O   UNL A   1      46.048  26.352  37.122  1.00  0.00    -0.237 OA
ATOM     82  O   UNL A   1      44.589  24.447  37.677  1.00  0.00    -0.237 OA
ATOM     83  O   UNL A   1      45.840  24.451  35.562  1.00  0.00    -0.744 OA
ENDBRANCH  77  80
ENDBRANCH  59  73
BRANCH  60  84
ATOM     84  C   UNL A   1      44.184  35.639  28.430  1.00  0.00     0.023 A 
ATOM     85  C   UNL A   1      43.094  36.377  27.931  1.00  0.00     0.012 A 
ATOM     86  C   UNL A   1      45.494  36.040  28.100  1.00  0.00     0.148 A 
ATOM     87  C   UNL A   1      43.300  37.472  27.092  1.00  0.00     0.002 A 
ATOM     88  C   UNL A   1      45.695  37.169  27.313  1.00  0.00     0.091 A 
ATOM     89  F   UNL A   1      46.519  35.321  28.577  1.00  0.00    -0.205 F 
ATOM     90  C   UNL A   1      44.599  37.875  26.791  1.00  0.00     0.022 A 
BRANCH  88  91
ATOM     91  S   UNL A   1      47.331  37.842  27.000  1.00  0.00     0.127 S 
ATOM     92  O   UNL A   1      47.906  36.832  26.116  1.00  0.00    -0.237 OA
ATOM     93  O   UNL A   1      47.015  39.118  26.355  1.00  0.00    -0.237 OA
ATOM     94  O   UNL A   1      47.964  37.976  28.306  1.00  0.00    -0.744 OA
ENDBRANCH  88  91
ENDBRANCH  60  84
BRANCH  72  95
ATOM     95  C   UNL A   1      43.465  28.777  27.327  1.00  0.00     0.023 A 
ATOM     96  C   UNL A   1      42.300  28.664  26.542  1.00  0.00     0.012 A 
ATOM     97  C   UNL A   1      44.653  28.155  26.894  1.00  0.00     0.148 A 
ATOM     98  C   UNL A   1      42.310  27.919  25.363  1.00  0.00     0.002 A 
ATOM     99  C   UNL A   1      44.668  27.455  25.693  1.00  0.00     0.091 A 
ATOM    100  F   UNL A   1      45.745  28.256  27.664  1.00  0.00    -0.205 F 
ATOM    101  C   UNL A   1      43.494  27.326  24.932  1.00  0.00     0.022 A 
BRANCH  99 102
ATOM    102  S   UNL A   1      46.169  26.741  25.013  1.00  0.00     0.127 S 
ATOM    103  O   UNL A   1      46.472  27.667  23.923  1.00  0.00    -0.237 OA
ATOM    104  O   UNL A   1      47.089  26.813  26.147  1.00  0.00    -0.237 OA
ATOM    105  O   UNL A   1      45.820  25.388  24.603  1.00  0.00    -0.744 OA
ENDBRANCH  99 102
ENDBRANCH  72  95
ENDBRANCH  46  47
ENDBRANCH  38  41
ENDBRANCH  36  37
ENDBRANCH  35  36
ENDBRANCH  34  35
ENDBRANCH   1  34
TORSDOF 20
ENDMDL
MODEL 2
REMARK VINA RESULT:      -8.7      4.040     11.052
REMARK SMILES O=C(CCCN1C(=O)C(=O)/C(=C(/[O-])c2ccc(Cl)cc2)[C@@H]1c1ccccc1[N+](=O)[O-])NCCCCNC(=O)c1ccc(-c2c3nc(c(-c4cccc(S(=O)(=O)[O-])c4F)c4ccc([nH]4)c(-c4cccc(S(=O)(=O)[O-])c4F)c4nc(c(-c5cccc(S(=O)(=O)[O-])c5F)c5ccc2[nH]5)C=C4)C=C3)cc1
REMARK SMILES IDX 32 1 31 2 1 3 2 4 3 6 4 7 5 8 6 9 7 10 21 11 8 12 9 13 11 14
REMARK SMILES IDX 10 15 12 16 13 17 22 18 23 19 27 20 24 21 26 22 25 23 28 24
REMARK SMILES IDX 29 25 30 26 14 27 15 28 20 29 16 30 19 31 17 32 18 33 33 34
REMARK SMILES IDX 34 35 35 36 36 37 37 38 38 40 39 41 40 42 101 43 41 44
REMARK SMILES IDX 100 45 42 46 43 47 44 48 94 49 45 50 99 51 93 52 95 53 46 54
REMARK SMILES IDX 98 55 92 56 91 57 47 59 79 60 59 61 78 62 60 63 63 64 77 65
REMARK SMILES IDX 96 66 61 67 62 68 76 70 97 71 64 72 48 73 49 74 57 75 50 76
REMARK SMILES IDX 52 77 58 78 51 79 53 80 54 81 55 82 56 83 80 84 81 85 89 86
REMARK SMILES IDX 82 87 84 88 90 89 83 90 85 91 86 92 87 93 88 94 65 95 66 96
REMARK SMILES IDX 74 97 67 98 69 99 75 100 68 101 70 102 71 103 72 104 73 105
REMARK H PARENT 31 5 36 39 95 58 63 69
REMARK Flexibility Score: inf
ROOT
ATOM      1  C   UNL A   1      48.550  32.959  27.992  1.00  0.00     0.116 C 
ENDROOT
BRANCH   1   2
ATOM      2  N   UNL A   1      47.559  31.967  28.340  1.00  0.00    -0.356 N 
ATOM      3  O   UNL A   1      47.154  31.270  26.193  1.00  0.00    -0.275 OA
ATOM      4  C   UNL A   1      46.964  31.165  27.398  1.00  0.00     0.220 C 
ATOM      5  H   UNL A   1      47.301  31.864  29.285  1.00  0.00     0.163 HD
BRANCH   4   6
ATOM      6  C   UNL A   1      46.005  30.155  27.988  1.00  0.00     0.102 C 
BRANCH   6   7
ATOM      7  C   UNL A   1      46.688  28.934  28.602  1.00  0.00     0.031 C 
BRANCH   7   8
ATOM      8  C   UNL A   1      45.951  27.589  28.542  1.00  0.00     0.121 C 
BRANCH   8   9
ATOM      9  N   UNL A   1      44.587  27.539  29.078  1.00  0.00    -0.324 N 
ATOM     10  C   UNL A   1      44.368  27.784  30.437  1.00  0.00     0.295 C 
ATOM     11  C   UNL A   1      43.372  27.733  28.289  1.00  0.00     0.157 C 
ATOM     12  O   UNL A   1      45.193  27.858  31.319  1.00  0.00    -0.265 OA
ATOM     13  C   UNL A   1      42.873  28.081  30.617  1.00  0.00     0.248 C 
ATOM     14  C   UNL A   1      42.325  28.245  29.247  1.00  0.00     0.025 C 
ATOM     15  O   UNL A   1      42.305  28.185  31.676  1.00  0.00    -0.283 OA
ATOM     16  C   UNL A   1      41.151  28.818  28.940  1.00  0.00    -0.092 C 
ATOM     17  O   UNL A   1      40.817  29.093  27.626  1.00  0.00    -0.872 OA
BRANCH  11  18
ATOM     18  C   UNL A   1      42.894  26.515  27.498  1.00  0.00     0.057 A 
ATOM     19  C   UNL A   1      42.457  25.400  28.253  1.00  0.00     0.013 A 
ATOM     20  C   UNL A   1      42.838  26.369  26.095  1.00  0.00     0.275 A 
ATOM     21  C   UNL A   1      41.965  24.237  27.650  1.00  0.00     0.001 A 
ATOM     22  C   UNL A   1      42.312  25.213  25.485  1.00  0.00     0.086 A 
ATOM     23  C   UNL A   1      41.874  24.150  26.267  1.00  0.00     0.007 A 
BRANCH  20  24
ATOM     24  N   UNL A   1      43.304  27.394  25.176  1.00  0.00     0.063 N 
ATOM     25  O   UNL A   1      44.527  27.579  25.114  1.00  0.00    -0.258 OA
ATOM     26  O   UNL A   1      42.444  28.051  24.584  1.00  0.00    -0.258 OA
ENDBRANCH  20  24
ENDBRANCH  11  18
BRANCH  16  27
ATOM     27  C   UNL A   1      40.086  29.116  29.905  1.00  0.00    -0.033 A 
ATOM     28  C   UNL A   1      39.169  28.154  30.340  1.00  0.00     0.009 A 
ATOM     29  C   UNL A   1      40.004  30.426  30.403  1.00  0.00     0.009 A 
ATOM     30  C   UNL A   1      38.151  28.513  31.231  1.00  0.00     0.021 A 
ATOM     31  C   UNL A   1      38.990  30.783  31.291  1.00  0.00     0.021 A 
ATOM     32  C   UNL A   1      38.058  29.827  31.692  1.00  0.00     0.041 A 
ATOM     33  Cl  UNL A   1      36.783  30.288  32.751  1.00  0.00    -0.084 Cl
ENDBRANCH  16  27
ENDBRANCH   8   9
ENDBRANCH   7   8
ENDBRANCH   6   7
ENDBRANCH   4   6
ENDBRANCH   1   2
BRANCH   1  34
ATOM     34  C   UNL A   1      47.955  34.363  27.962  1.00  0.00     0.023 C 
BRANCH  34  35
ATOM     35  C   UNL A   1      47.970  35.056  26.593  1.00  0.00     0.023 C 
BRANCH  35  36
ATOM     36  C   UNL A   1      46.787  35.974  26.304  1.00  0.00     0.116 C 
BRANCH  36  37
ATOM     37  N   UNL A   1      45.927  35.458  25.253  1.00  0.00    -0.352 N 
ATOM     38  C   UNL A   1      44.724  34.802  25.341  1.00  0.00     0.251 C 
ATOM     39  H   UNL A   1      46.258  35.601  24.337  1.00  0.00     0.163 HD
ATOM     40  O   UNL A   1      44.238  34.297  24.332  1.00  0.00    -0.269 OA
BRANCH  38  41
ATOM     41  C   UNL A   1      44.025  34.678  26.640  1.00  0.00     0.039 A 
ATOM     42  C   UNL A   1      44.155  33.488  27.359  1.00  0.00     0.014 A 
ATOM     43  C   UNL A   1      43.231  35.714  27.140  1.00  0.00     0.014 A 
ATOM     44  C   UNL A   1      43.540  33.359  28.607  1.00  0.00     0.010 A 
ATOM     45  C   UNL A   1      42.678  35.611  28.416  1.00  0.00     0.010 A 
ATOM     46  C   UNL A   1      42.823  34.430  29.161  1.00  0.00    -0.014 A 
BRANCH  46  47
ATOM     47  C   UNL A   1      42.238  34.341  30.525  1.00  0.00     0.031 A 
ATOM     48  C   UNL A   1      40.747  34.257  30.714  1.00  0.00     0.074 A 
ATOM     49  C   UNL A   1      43.047  34.419  31.600  1.00  0.00     0.049 A 
ATOM     50  N   UNL A   1      40.058  34.225  31.826  1.00  0.00    -0.248 NA
ATOM     51  C   UNL A   1      39.920  34.230  29.497  1.00  0.00     0.031 C 
ATOM     52  C   UNL A   1      44.502  34.579  31.553  1.00  0.00     0.029 A 
ATOM     53  N   UNL A   1      42.760  34.405  32.943  1.00  0.00    -0.354 N 
ATOM     54  C   UNL A   1      38.722  34.209  31.446  1.00  0.00     0.074 A 
ATOM     55  C   UNL A   1      38.694  34.267  30.000  1.00  0.00     0.031 C 
ATOM     56  C   UNL A   1      44.979  34.648  32.806  1.00  0.00     0.029 A 
ATOM     57  C   UNL A   1      43.865  34.570  33.745  1.00  0.00     0.049 A 
ATOM     58  H   UNL A   1      41.850  34.287  33.298  1.00  0.00     0.167 HD
ATOM     59  C   UNL A   1      37.616  34.124  32.225  1.00  0.00     0.034 A 
ATOM     60  C   UNL A   1      43.970  34.662  35.087  1.00  0.00     0.034 A 
ATOM     61  C   UNL A   1      37.647  34.030  33.660  1.00  0.00     0.049 A 
ATOM     62  C   UNL A   1      42.732  34.530  35.930  1.00  0.00     0.074 A 
ATOM     63  C   UNL A   1      36.587  33.853  34.533  1.00  0.00     0.029 A 
ATOM     64  N   UNL A   1      38.792  34.114  34.436  1.00  0.00    -0.354 N 
ATOM     65  N   UNL A   1      41.491  34.349  35.549  1.00  0.00    -0.248 NA
ATOM     66  C   UNL A   1      42.911  34.575  37.388  1.00  0.00     0.031 C 
ATOM     67  C   UNL A   1      37.089  33.854  35.838  1.00  0.00     0.029 A 
ATOM     68  C   UNL A   1      38.466  34.002  35.777  1.00  0.00     0.049 A 
ATOM     69  H   UNL A   1      39.704  34.235  34.085  1.00  0.00     0.167 HD
ATOM     70  C   UNL A   1      40.747  34.223  36.718  1.00  0.00     0.074 A 
ATOM     71  C   UNL A   1      41.681  34.327  37.819  1.00  0.00     0.031 C 
ATOM     72  C   UNL A   1      39.410  34.053  36.864  1.00  0.00     0.034 A 
BRANCH  59  73
ATOM     73  C   UNL A   1      36.276  34.077  31.538  1.00  0.00     0.023 A 
ATOM     74  C   UNL A   1      35.978  33.004  30.672  1.00  0.00     0.012 A 
ATOM     75  C   UNL A   1      35.291  35.052  31.792  1.00  0.00     0.148 A 
ATOM     76  C   UNL A   1      34.738  32.921  30.040  1.00  0.00     0.002 A 
ATOM     77  C   UNL A   1      34.040  34.938  31.196  1.00  0.00     0.091 A 
ATOM     78  F   UNL A   1      35.596  36.073  32.604  1.00  0.00    -0.205 F 
ATOM     79  C   UNL A   1      33.767  33.881  30.310  1.00  0.00     0.022 A 
BRANCH  77  80
ATOM     80  S   UNL A   1      32.693  36.075  31.541  1.00  0.00     0.127 S 
ATOM     81  O   UNL A   1      32.091  36.228  30.217  1.00  0.00    -0.237 OA
ATOM     82  O   UNL A   1      31.883  35.312  32.493  1.00  0.00    -0.237 OA
ATOM     83  O   UNL A   1      33.310  37.272  32.092  1.00  0.00    -0.744 OA
ENDBRANCH  77  80
ENDBRANCH  59  73
BRANCH  60  84
ATOM     84  C   UNL A   1      45.312  34.829  35.715  1.00  0.00     0.023 A 
ATOM     85  C   UNL A   1      46.135  33.702  35.903  1.00  0.00     0.012 A 
ATOM     86  C   UNL A   1      45.790  36.099  36.094  1.00  0.00     0.148 A 
ATOM     87  C   UNL A   1      47.395  33.831  36.488  1.00  0.00     0.002 A 
ATOM     88  C   UNL A   1      47.070  36.229  36.620  1.00  0.00     0.091 A 
ATOM     89  F   UNL A   1      44.989  37.159  35.915  1.00  0.00    -0.205 F 
ATOM     90  C   UNL A   1      47.867  35.093  36.837  1.00  0.00     0.022 A 
BRANCH  88  91
ATOM     91  S   UNL A   1      47.811  37.830  36.959  1.00  0.00     0.127 S 
ATOM     92  O   UNL A   1      47.740  38.477  35.653  1.00  0.00    -0.237 OA
ATOM     93  O   UNL A   1      46.902  38.376  37.969  1.00  0.00    -0.237 OA
ATOM     94  O   UNL A   1      49.152  37.551  37.456  1.00  0.00    -0.744 OA
ENDBRANCH  88  91
ENDBRANCH  60  84
BRANCH  72  95
ATOM     95  C   UNL A   1      38.869  33.925  38.265  1.00  0.00     0.023 A 
ATOM     96  C   UNL A   1      38.917  35.029  39.140  1.00  0.00     0.012 A 
ATOM     97  C   UNL A   1      38.247  32.734  38.688  1.00  0.00     0.148 A 
ATOM     98  C   UNL A   1      38.383  34.938  40.425  1.00  0.00     0.002 A 
ATOM     99  C   UNL A   1      37.673  32.667  39.952  1.00  0.00     0.091 A 
ATOM    100  F   UNL A   1      38.229  31.689  37.850  1.00  0.00    -0.205 F 
ATOM    101  C   UNL A   1      37.751  33.763  40.826  1.00  0.00     0.022 A 
BRANCH  99 102
ATOM    102  S   UNL A   1      36.755  31.231  40.519  1.00  0.00     0.127 S 
ATOM    103  O   UNL A   1      36.049  31.767  41.680  1.00  0.00    -0.237 OA
ATOM    104  O   UNL A   1      35.901  30.934  39.369  1.00  0.00    -0.237 OA
ATOM    105  O   UNL A   1      37.750  30.208  40.811  1.00  0.00    -0.744 OA
ENDBRANCH  99 102
ENDBRANCH  72  95
ENDBRANCH  46  47
ENDBRANCH  38  41
ENDBRANCH  36  37
ENDBRANCH  35  36
ENDBRANCH  34  35
ENDBRANCH   1  34
TORSDOF 20
ENDMDL
MODEL 3
REMARK VINA RESULT:      -8.6      3.749     10.975
REMARK SMILES O=C(CCCN1C(=O)C(=O)/C(=C(/[O-])c2ccc(Cl)cc2)[C@@H]1c1ccccc1[N+](=O)[O-])NCCCCNC(=O)c1ccc(-c2c3nc(c(-c4cccc(S(=O)(=O)[O-])c4F)c4ccc([nH]4)c(-c4cccc(S(=O)(=O)[O-])c4F)c4nc(c(-c5cccc(S(=O)(=O)[O-])c5F)c5ccc2[nH]5)C=C4)C=C3)cc1
REMARK SMILES IDX 32 1 31 2 1 3 2 4 3 6 4 7 5 8 6 9 7 10 21 11 8 12 9 13 11 14
REMARK SMILES IDX 10 15 12 16 13 17 22 18 23 19 27 20 24 21 26 22 25 23 28 24
REMARK SMILES IDX 29 25 30 26 14 27 15 28 20 29 16 30 19 31 17 32 18 33 33 34
REMARK SMILES IDX 34 35 35 36 36 37 37 38 38 40 39 41 40 42 101 43 41 44
REMARK SMILES IDX 100 45 42 46 43 47 44 48 94 49 45 50 99 51 93 52 95 53 46 54
REMARK SMILES IDX 98 55 92 56 91 57 47 59 79 60 59 61 78 62 60 63 63 64 77 65
REMARK SMILES IDX 96 66 61 67 62 68 76 70 97 71 64 72 48 73 49 74 57 75 50 76
REMARK SMILES IDX 52 77 58 78 51 79 53 80 54 81 55 82 56 83 80 84 81 85 89 86
REMARK SMILES IDX 82 87 84 88 90 89 83 90 85 91 86 92 87 93 88 94 65 95 66 96
REMARK SMILES IDX 74 97 67 98 69 99 75 100 68 101 70 102 71 103 72 104 73 105
REMARK H PARENT 31 5 36 39 95 58 63 69
REMARK Flexibility Score: inf
ROOT
ATOM      1  C   UNL A   1      44.839  23.455  27.207  1.00  0.00     0.116 C 
ENDROOT
BRANCH   1   2
ATOM      2  N   UNL A   1      44.403  23.644  28.571  1.00  0.00    -0.356 N 
ATOM      3  O   UNL A   1      46.239  24.842  29.245  1.00  0.00    -0.275 OA
ATOM      4  C   UNL A   1      45.134  24.369  29.479  1.00  0.00     0.220 C 
ATOM      5  H   UNL A   1      43.552  23.240  28.858  1.00  0.00     0.163 HD
BRANCH   4   6
ATOM      6  C   UNL A   1      44.462  24.493  30.828  1.00  0.00     0.102 C 
BRANCH   6   7
ATOM      7  C   UNL A   1      45.011  25.624  31.696  1.00  0.00     0.031 C 
BRANCH   7   8
ATOM      8  C   UNL A   1      44.261  25.974  32.988  1.00  0.00     0.121 C 
BRANCH   8   9
ATOM      9  N   UNL A   1      43.673  27.314  33.088  1.00  0.00    -0.324 N 
ATOM     10  C   UNL A   1      42.599  27.661  32.262  1.00  0.00     0.295 C 
ATOM     11  C   UNL A   1      43.753  28.176  34.266  1.00  0.00     0.157 C 
ATOM     12  O   UNL A   1      42.176  27.056  31.304  1.00  0.00    -0.265 OA
ATOM     13  C   UNL A   1      41.942  28.911  32.864  1.00  0.00     0.248 C 
ATOM     14  C   UNL A   1      42.547  29.081  34.208  1.00  0.00     0.025 C 
ATOM     15  O   UNL A   1      41.085  29.573  32.331  1.00  0.00    -0.283 OA
ATOM     16  C   UNL A   1      42.052  29.841  35.197  1.00  0.00    -0.092 C 
ATOM     17  O   UNL A   1      42.586  29.785  36.472  1.00  0.00    -0.872 OA
BRANCH  11  18
ATOM     18  C   UNL A   1      45.059  28.952  34.431  1.00  0.00     0.057 A 
ATOM     19  C   UNL A   1      45.364  29.902  33.427  1.00  0.00     0.013 A 
ATOM     20  C   UNL A   1      46.006  28.832  35.472  1.00  0.00     0.275 A 
ATOM     21  C   UNL A   1      46.512  30.701  33.478  1.00  0.00     0.001 A 
ATOM     22  C   UNL A   1      47.144  29.658  35.545  1.00  0.00     0.086 A 
ATOM     23  C   UNL A   1      47.393  30.593  34.546  1.00  0.00     0.007 A 
BRANCH  20  24
ATOM     24  N   UNL A   1      45.875  27.863  36.548  1.00  0.00     0.063 N 
ATOM     25  O   UNL A   1      45.548  26.712  36.230  1.00  0.00    -0.258 OA
ATOM     26  O   UNL A   1      46.029  28.279  37.700  1.00  0.00    -0.258 OA
ENDBRANCH  20  24
ENDBRANCH  11  18
BRANCH  16  27
ATOM     27  C   UNL A   1      41.000  30.851  35.030  1.00  0.00    -0.033 A 
ATOM     28  C   UNL A   1      39.651  30.587  35.288  1.00  0.00     0.009 A 
ATOM     29  C   UNL A   1      41.386  32.129  34.598  1.00  0.00     0.009 A 
ATOM     30  C   UNL A   1      38.692  31.583  35.070  1.00  0.00     0.021 A 
ATOM     31  C   UNL A   1      40.429  33.121  34.382  1.00  0.00     0.021 A 
ATOM     32  C   UNL A   1      39.083  32.839  34.606  1.00  0.00     0.041 A 
ATOM     33  Cl  UNL A   1      37.906  34.054  34.292  1.00  0.00    -0.084 Cl
ENDBRANCH  16  27
ENDBRANCH   8   9
ENDBRANCH   7   8
ENDBRANCH   6   7
ENDBRANCH   4   6
ENDBRANCH   1   2
BRANCH   1  34
ATOM     34  C   UNL A   1      43.787  23.928  26.209  1.00  0.00     0.023 C 
BRANCH  34  35
ATOM     35  C   UNL A   1      42.976  22.817  25.530  1.00  0.00     0.023 C 
BRANCH  35  36
ATOM     36  C   UNL A   1      42.148  21.938  26.462  1.00  0.00     0.116 C 
BRANCH  36  37
ATOM     37  N   UNL A   1      40.757  21.850  26.053  1.00  0.00    -0.352 N 
ATOM     38  C   UNL A   1      39.733  22.750  26.211  1.00  0.00     0.251 C 
ATOM     39  H   UNL A   1      40.512  21.016  25.591  1.00  0.00     0.163 HD
ATOM     40  O   UNL A   1      38.584  22.409  25.940  1.00  0.00    -0.269 OA
BRANCH  38  41
ATOM     41  C   UNL A   1      39.998  24.112  26.726  1.00  0.00     0.039 A 
ATOM     42  C   UNL A   1      39.963  24.324  28.106  1.00  0.00     0.014 A 
ATOM     43  C   UNL A   1      40.258  25.179  25.862  1.00  0.00     0.014 A 
ATOM     44  C   UNL A   1      40.250  25.590  28.623  1.00  0.00     0.010 A 
ATOM     45  C   UNL A   1      40.614  26.423  26.381  1.00  0.00     0.010 A 
ATOM     46  C   UNL A   1      40.610  26.643  27.767  1.00  0.00    -0.014 A 
BRANCH  46  47
ATOM     47  C   UNL A   1      41.005  27.971  28.306  1.00  0.00     0.031 A 
ATOM     48  C   UNL A   1      42.455  28.307  28.524  1.00  0.00     0.074 A 
ATOM     49  C   UNL A   1      40.050  28.848  28.676  1.00  0.00     0.049 A 
ATOM     50  N   UNL A   1      42.983  29.392  29.031  1.00  0.00    -0.248 NA
ATOM     51  C   UNL A   1      43.443  27.283  28.147  1.00  0.00     0.031 C 
ATOM     52  C   UNL A   1      38.607  28.613  28.586  1.00  0.00     0.029 A 
ATOM     53  N   UNL A   1      40.148  30.101  29.229  1.00  0.00    -0.354 N 
ATOM     54  C   UNL A   1      44.354  29.169  29.067  1.00  0.00     0.074 A 
ATOM     55  C   UNL A   1      44.576  27.832  28.559  1.00  0.00     0.031 C 
ATOM     56  C   UNL A   1      37.956  29.685  29.067  1.00  0.00     0.029 A 
ATOM     57  C   UNL A   1      38.931  30.668  29.528  1.00  0.00     0.049 A 
ATOM     58  H   UNL A   1      41.007  30.551  29.396  1.00  0.00     0.167 HD
ATOM     59  C   UNL A   1      45.343  30.009  29.458  1.00  0.00     0.034 A 
ATOM     60  C   UNL A   1      38.631  31.842  30.119  1.00  0.00     0.034 A 
ATOM     61  C   UNL A   1      45.122  31.350  29.928  1.00  0.00     0.049 A 
ATOM     62  C   UNL A   1      39.747  32.771  30.513  1.00  0.00     0.074 A 
ATOM     63  C   UNL A   1      46.063  32.308  30.265  1.00  0.00     0.029 A 
ATOM     64  N   UNL A   1      43.878  31.923  30.137  1.00  0.00    -0.354 N 
ATOM     65  N   UNL A   1      41.041  32.606  30.384  1.00  0.00    -0.248 NA
ATOM     66  C   UNL A   1      39.363  34.064  31.097  1.00  0.00     0.031 C 
ATOM     67  C   UNL A   1      45.386  33.452  30.701  1.00  0.00     0.029 A 
ATOM     68  C   UNL A   1      44.024  33.217  30.608  1.00  0.00     0.049 A 
ATOM     69  H   UNL A   1      43.016  31.475  29.975  1.00  0.00     0.167 HD
ATOM     70  C   UNL A   1      41.624  33.785  30.837  1.00  0.00     0.074 A 
ATOM     71  C   UNL A   1      40.539  34.664  31.222  1.00  0.00     0.031 C 
ATOM     72  C   UNL A   1      42.938  34.103  30.937  1.00  0.00     0.034 A 
BRANCH  59  73
ATOM     73  C   UNL A   1      46.764  29.519  29.346  1.00  0.00     0.023 A 
ATOM     74  C   UNL A   1      47.375  28.902  30.458  1.00  0.00     0.012 A 
ATOM     75  C   UNL A   1      47.472  29.609  28.131  1.00  0.00     0.148 A 
ATOM     76  C   UNL A   1      48.680  28.419  30.375  1.00  0.00     0.002 A 
ATOM     77  C   UNL A   1      48.756  29.083  28.043  1.00  0.00     0.091 A 
ATOM     78  F   UNL A   1      46.883  30.213  27.090  1.00  0.00    -0.205 F 
ATOM     79  C   UNL A   1      49.366  28.500  29.167  1.00  0.00     0.022 A 
BRANCH  77  80
ATOM     80  S   UNL A   1      49.693  29.061  26.510  1.00  0.00     0.127 S 
ATOM     81  O   UNL A   1      48.731  28.462  25.585  1.00  0.00    -0.237 OA
ATOM     82  O   UNL A   1      49.949  30.485  26.286  1.00  0.00    -0.237 OA
ATOM     83  O   UNL A   1      50.882  28.265  26.780  1.00  0.00    -0.744 OA
ENDBRANCH  77  80
ENDBRANCH  59  73
BRANCH  60  84
ATOM     84  C   UNL A   1      37.205  32.230  30.317  1.00  0.00     0.023 A 
ATOM     85  C   UNL A   1      36.576  31.956  31.547  1.00  0.00     0.012 A 
ATOM     86  C   UNL A   1      36.482  32.899  29.310  1.00  0.00     0.148 A 
ATOM     87  C   UNL A   1      35.242  32.308  31.758  1.00  0.00     0.002 A 
ATOM     88  C   UNL A   1      35.173  33.303  29.548  1.00  0.00     0.091 A 
ATOM     89  F   UNL A   1      37.094  33.145  28.143  1.00  0.00    -0.205 F 
ATOM     90  C   UNL A   1      34.545  32.990  30.764  1.00  0.00     0.022 A 
BRANCH  88  91
ATOM     91  S   UNL A   1      34.251  34.311  28.382  1.00  0.00     0.127 S 
ATOM     92  O   UNL A   1      33.081  33.479  28.124  1.00  0.00    -0.237 OA
ATOM     93  O   UNL A   1      33.989  35.519  29.167  1.00  0.00    -0.237 OA
ATOM     94  O   UNL A   1      35.142  34.522  27.247  1.00  0.00    -0.744 OA
ENDBRANCH  88  91
ENDBRANCH  60  84
BRANCH  72  95
ATOM     95  C   UNL A   1      43.288  35.477  31.449  1.00  0.00     0.023 A 
ATOM     96  C   UNL A   1      43.419  35.699  32.834  1.00  0.00     0.012 A 
ATOM     97  C   UNL A   1      43.560  36.529  30.551  1.00  0.00     0.148 A 
ATOM     98  C   UNL A   1      43.784  36.955  33.318  1.00  0.00     0.002 A 
ATOM     99  C   UNL A   1      43.971  37.764  31.039  1.00  0.00     0.091 A 
ATOM    100  F   UNL A   1      43.411  36.304  29.238  1.00  0.00    -0.205 F 
ATOM    101  C   UNL A   1      44.071  37.982  32.423  1.00  0.00     0.022 A 
BRANCH  99 102
ATOM    102  S   UNL A   1      44.455  39.114  29.959  1.00  0.00     0.127 S 
ATOM    103  O   UNL A   1      44.850  40.140  30.922  1.00  0.00    -0.237 OA
ATOM    104  O   UNL A   1      45.562  38.527  29.204  1.00  0.00    -0.237 OA
ATOM    105  O   UNL A   1      43.280  39.429  29.158  1.00  0.00    -0.744 OA
ENDBRANCH  99 102
ENDBRANCH  72  95
ENDBRANCH  46  47
ENDBRANCH  38  41
ENDBRANCH  36  37
ENDBRANCH  35  36
ENDBRANCH  34  35
ENDBRANCH   1  34
TORSDOF 20
ENDMDL
