MODEL 1
REMARK VINA RESULT:     -13.7      0.000      0.000
REMARK SMILES CC(=O)O[C@@H]1CC[C@@]23C(=O)O[C@]4(CC[C@]2(O)C1)[C@H]3CC[C@]1(C)[C@H](C(=O)NCCCCNC(=O)c2ccc(-c3c5nc(c(-c6cccc(S(=O)(=O)[O-])c6F)c6ccc([nH]6)c(-c6cccc(S(=O)(=O)[O-])c6F)c6nc(c(-c7cccc(S(=O)(=O)[O-])c7F)c7ccc3[nH]7)C=C6)C=C5)cc2)CC[C@@H]14
REMARK SMILES IDX 29 1 28 2 27 3 26 4 24 5 25 6 23 8 5 9 6 10 17 11 7 12 15 13
REMARK SMILES IDX 8 14 14 15 9 16 18 17 13 18 10 19 11 20 12 21 19 22 99 23
REMARK SMILES IDX 20 24 21 25 98 26 22 27 97 28 4 29 2 30 1 31 3 32 16 33
REMARK SMILES IDX 30 35 31 36 32 37 33 39 34 40 35 41 96 42 36 43 95 44 37 45
REMARK SMILES IDX 38 46 39 47 89 48 40 49 94 50 88 51 90 52 41 53 93 54 87 55
REMARK SMILES IDX 86 56 42 58 74 59 54 60 73 61 55 62 58 63 72 64 91 65 56 66
REMARK SMILES IDX 57 67 71 69 92 70 59 71 43 72 44 73 52 74 45 75 47 76 53 77
REMARK SMILES IDX 46 78 48 79 49 80 50 81 51 82 75 83 76 84 84 85 77 86 79 87
REMARK SMILES IDX 85 88 78 89 80 90 81 91 82 92 83 93 60 94 61 95 69 96 62 97
REMARK SMILES IDX 64 98 70 99 63 100 65 101 66 102 67 103 68 104
REMARK H PARENT 26 7 16 34 31 38 90 57 58 68
REMARK Flexibility Score: inf
ROOT
ATOM      1  C   UNL A   1      31.430  31.950  26.850  1.00  0.00     0.023 C 
ENDROOT
BRANCH   1   2
ATOM      2  C   UNL A   1      31.926  30.519  26.818  1.00  0.00     0.023 C 
BRANCH   2   3
ATOM      3  C   UNL A   1      32.327  29.968  25.437  1.00  0.00     0.116 C 
BRANCH   3   4
ATOM      4  N   UNL A   1      31.144  29.667  24.647  1.00  0.00    -0.356 N 
ATOM      5  C   UNL A   1      30.892  28.911  23.553  1.00  0.00     0.223 C 
ATOM      6  O   UNL A   1      29.750  29.041  23.084  1.00  0.00    -0.275 OA
ATOM      7  H   UNL A   1      30.338  30.118  24.988  1.00  0.00     0.163 HD
BRANCH   5   8
ATOM      8  C   UNL A   1      31.824  27.886  22.881  1.00  0.00     0.085 C 
ATOM      9  C   UNL A   1      33.268  20.316  25.674  1.00  0.00     0.179 C 
ATOM     10  C   UNL A   1      31.990  21.099  25.444  1.00  0.00     0.047 C 
ATOM     11  C   UNL A   1      34.245  21.230  26.415  1.00  0.00     0.081 C 
ATOM     12  C   UNL A   1      32.327  22.375  24.679  1.00  0.00     0.026 C 
ATOM     13  C   UNL A   1      34.493  22.636  25.814  1.00  0.00     0.085 C 
ATOM     14  C   UNL A   1      33.278  23.467  25.580  1.00  0.00     0.103 C 
ATOM     15  C   UNL A   1      35.143  22.646  24.338  1.00  0.00     0.041 C 
ATOM     16  C   UNL A   1      32.140  24.370  25.624  1.00  0.00     0.316 C 
ATOM     17  C   UNL A   1      34.139  24.912  25.061  1.00  0.00     0.054 C 
ATOM     18  C   UNL A   1      34.396  23.627  23.196  1.00  0.00     0.052 C 
ATOM     19  O   UNL A   1      31.265  24.530  26.445  1.00  0.00    -0.251 OA
ATOM     20  O   UNL A   1      32.140  24.787  24.273  1.00  0.00    -0.458 OA
ATOM     21  C   UNL A   1      33.516  24.860  23.748  1.00  0.00     0.120 C 
ATOM     22  C   UNL A   1      34.063  26.288  25.748  1.00  0.00     0.009 C 
ATOM     23  C   UNL A   1      33.501  26.052  22.795  1.00  0.00     0.040 C 
ATOM     24  C   UNL A   1      33.225  27.336  25.011  1.00  0.00     0.008 C 
ATOM     25  C   UNL A   1      33.209  27.425  23.480  1.00  0.00    -0.014 C 
ATOM     26  C   UNL A   1      32.343  25.855  21.781  1.00  0.00     0.009 C 
ATOM     27  C   UNL A   1      34.275  28.449  23.031  1.00  0.00     0.012 C 
ATOM     28  C   UNL A   1      31.152  26.631  22.349  1.00  0.00     0.014 C 
BRANCH   9  29
ATOM     29  O   UNL A   1      33.739  19.918  24.367  1.00  0.00    -0.462 OA
BRANCH  29  30
ATOM     30  C   UNL A   1      33.434  18.678  23.910  1.00  0.00     0.302 C 
ATOM     31  C   UNL A   1      34.511  17.708  24.308  1.00  0.00     0.139 C 
ATOM     32  O   UNL A   1      32.406  18.368  23.328  1.00  0.00    -0.253 OA
ENDBRANCH  29  30
ENDBRANCH   9  29
BRANCH  13  33
ATOM     33  O   UNL A   1      35.373  23.290  26.738  1.00  0.00    -0.389 OA
ATOM     34  H   UNL A   1      34.853  23.680  27.458  1.00  0.00     0.211 HD
ENDBRANCH  13  33
ENDBRANCH   5   8
ENDBRANCH   3   4
ENDBRANCH   2   3
ENDBRANCH   1   2
BRANCH   1  35
ATOM     35  C   UNL A   1      32.526  32.986  26.732  1.00  0.00     0.116 C 
BRANCH  35  36
ATOM     36  N   UNL A   1      32.308  34.177  27.549  1.00  0.00    -0.352 N 
ATOM     37  C   UNL A   1      33.065  34.619  28.612  1.00  0.00     0.251 C 
ATOM     38  H   UNL A   1      31.528  34.728  27.313  1.00  0.00     0.163 HD
ATOM     39  O   UNL A   1      32.728  35.588  29.280  1.00  0.00    -0.269 OA
BRANCH  37  40
ATOM     40  C   UNL A   1      34.286  33.859  28.951  1.00  0.00     0.039 A 
ATOM     41  C   UNL A   1      35.531  34.477  28.832  1.00  0.00     0.014 A 
ATOM     42  C   UNL A   1      34.168  32.591  29.524  1.00  0.00     0.014 A 
ATOM     43  C   UNL A   1      36.655  33.852  29.375  1.00  0.00     0.010 A 
ATOM     44  C   UNL A   1      35.263  32.031  30.163  1.00  0.00     0.010 A 
ATOM     45  C   UNL A   1      36.520  32.649  30.088  1.00  0.00    -0.014 A 
BRANCH  45  46
ATOM     46  C   UNL A   1      37.675  32.005  30.765  1.00  0.00     0.031 A 
ATOM     47  C   UNL A   1      38.449  30.932  30.049  1.00  0.00     0.074 A 
ATOM     48  C   UNL A   1      37.948  32.296  32.053  1.00  0.00     0.049 A 
ATOM     49  N   UNL A   1      39.422  30.180  30.494  1.00  0.00    -0.248 NA
ATOM     50  C   UNL A   1      38.048  30.629  28.663  1.00  0.00     0.031 C 
ATOM     51  C   UNL A   1      37.202  33.240  32.890  1.00  0.00     0.029 A 
ATOM     52  N   UNL A   1      38.912  31.802  32.896  1.00  0.00    -0.354 N 
ATOM     53  C   UNL A   1      39.707  29.287  29.470  1.00  0.00     0.074 A 
ATOM     54  C   UNL A   1      38.781  29.559  28.395  1.00  0.00     0.031 C 
ATOM     55  C   UNL A   1      37.740  33.259  34.121  1.00  0.00     0.029 A 
ATOM     56  C   UNL A   1      38.848  32.312  34.172  1.00  0.00     0.049 A 
ATOM     57  H   UNL A   1      39.587  31.143  32.613  1.00  0.00     0.167 HD
ATOM     58  C   UNL A   1      40.680  28.349  29.410  1.00  0.00     0.034 A 
ATOM     59  C   UNL A   1      39.598  32.045  35.260  1.00  0.00     0.034 A 
ATOM     60  C   UNL A   1      41.650  28.139  30.448  1.00  0.00     0.049 A 
ATOM     61  C   UNL A   1      40.731  31.061  35.138  1.00  0.00     0.074 A 
ATOM     62  C   UNL A   1      42.755  27.308  30.435  1.00  0.00     0.029 A 
ATOM     63  N   UNL A   1      41.631  28.767  31.683  1.00  0.00    -0.354 N 
ATOM     64  N   UNL A   1      41.106  30.361  34.095  1.00  0.00    -0.248 NA
ATOM     65  C   UNL A   1      41.569  30.857  36.329  1.00  0.00     0.031 C 
ATOM     66  C   UNL A   1      43.397  27.421  31.672  1.00  0.00     0.029 A 
ATOM     67  C   UNL A   1      42.701  28.337  32.446  1.00  0.00     0.049 A 
ATOM     68  H   UNL A   1      40.957  29.422  31.974  1.00  0.00     0.167 HD
ATOM     69  C   UNL A   1      42.240  29.660  34.491  1.00  0.00     0.074 A 
ATOM     70  C   UNL A   1      42.504  30.040  35.864  1.00  0.00     0.031 C 
ATOM     71  C   UNL A   1      42.983  28.770  33.790  1.00  0.00     0.034 A 
BRANCH  58  72
ATOM     72  C   UNL A   1      40.786  27.527  28.153  1.00  0.00     0.023 A 
ATOM     73  C   UNL A   1      41.487  28.043  27.044  1.00  0.00     0.012 A 
ATOM     74  C   UNL A   1      40.244  26.230  28.087  1.00  0.00     0.148 A 
ATOM     75  C   UNL A   1      41.616  27.294  25.874  1.00  0.00     0.002 A 
ATOM     76  C   UNL A   1      40.417  25.472  26.935  1.00  0.00     0.091 A 
ATOM     77  F   UNL A   1      39.560  25.767  29.144  1.00  0.00    -0.205 F 
ATOM     78  C   UNL A   1      41.091  26.006  25.825  1.00  0.00     0.022 A 
BRANCH  76  79
ATOM     79  S   UNL A   1      39.849  23.773  26.800  1.00  0.00     0.127 S 
ATOM     80  O   UNL A   1      40.739  23.245  25.766  1.00  0.00    -0.237 OA
ATOM     81  O   UNL A   1      40.105  23.256  28.145  1.00  0.00    -0.237 OA
ATOM     82  O   UNL A   1      38.442  23.846  26.436  1.00  0.00    -0.744 OA
ENDBRANCH  76  79
ENDBRANCH  58  72
BRANCH  59  83
ATOM     83  C   UNL A   1      39.350  32.774  36.537  1.00  0.00     0.023 A 
ATOM     84  C   UNL A   1      39.988  34.010  36.760  1.00  0.00     0.012 A 
ATOM     85  C   UNL A   1      38.474  32.268  37.516  1.00  0.00     0.148 A 
ATOM     86  C   UNL A   1      39.784  34.713  37.948  1.00  0.00     0.002 A 
ATOM     87  C   UNL A   1      38.233  33.000  38.674  1.00  0.00     0.091 A 
ATOM     88  F   UNL A   1      37.886  31.084  37.293  1.00  0.00    -0.205 F 
ATOM     89  C   UNL A   1      38.900  34.214  38.900  1.00  0.00     0.022 A 
BRANCH  87  90
ATOM     90  S   UNL A   1      37.012  32.496  39.892  1.00  0.00     0.127 S 
ATOM     91  O   UNL A   1      37.098  33.580  40.868  1.00  0.00    -0.237 OA
ATOM     92  O   UNL A   1      35.782  32.476  39.099  1.00  0.00    -0.237 OA
ATOM     93  O   UNL A   1      37.445  31.185  40.357  1.00  0.00    -0.744 OA
ENDBRANCH  87  90
ENDBRANCH  59  83
BRANCH  71  94
ATOM     94  C   UNL A   1      44.177  28.160  34.475  1.00  0.00     0.023 A 
ATOM     95  C   UNL A   1      45.411  28.839  34.461  1.00  0.00     0.012 A 
ATOM     96  C   UNL A   1      44.050  26.964  35.207  1.00  0.00     0.148 A 
ATOM     97  C   UNL A   1      46.510  28.323  35.147  1.00  0.00     0.002 A 
ATOM     98  C   UNL A   1      45.136  26.481  35.928  1.00  0.00     0.091 A 
ATOM     99  F   UNL A   1      42.871  26.325  35.192  1.00  0.00    -0.205 F 
ATOM    100  C   UNL A   1      46.369  27.153  35.889  1.00  0.00     0.022 A 
BRANCH  98 101
ATOM    101  S   UNL A   1      45.018  25.038  36.991  1.00  0.00     0.127 S 
ATOM    102  O   UNL A   1      43.874  25.382  37.835  1.00  0.00    -0.237 OA
ATOM    103  O   UNL A   1      44.766  23.963  36.031  1.00  0.00    -0.237 OA
ATOM    104  O   UNL A   1      46.297  24.942  37.681  1.00  0.00    -0.744 OA
ENDBRANCH  98 101
ENDBRANCH  71  94
ENDBRANCH  45  46
ENDBRANCH  37  40
ENDBRANCH  35  36
ENDBRANCH   1  35
TORSDOF 17
ENDMDL
MODEL 2
REMARK VINA RESULT:     -13.4      1.247      7.235
REMARK SMILES CC(=O)O[C@@H]1CC[C@@]23C(=O)O[C@]4(CC[C@]2(O)C1)[C@H]3CC[C@]1(C)[C@H](C(=O)NCCCCNC(=O)c2ccc(-c3c5nc(c(-c6cccc(S(=O)(=O)[O-])c6F)c6ccc([nH]6)c(-c6cccc(S(=O)(=O)[O-])c6F)c6nc(c(-c7cccc(S(=O)(=O)[O-])c7F)c7ccc3[nH]7)C=C6)C=C5)cc2)CC[C@@H]14
REMARK SMILES IDX 29 1 28 2 27 3 26 4 24 5 25 6 23 8 5 9 6 10 17 11 7 12 15 13
REMARK SMILES IDX 8 14 14 15 9 16 18 17 13 18 10 19 11 20 12 21 19 22 99 23
REMARK SMILES IDX 20 24 21 25 98 26 22 27 97 28 4 29 2 30 1 31 3 32 16 33
REMARK SMILES IDX 30 35 31 36 32 37 33 39 34 40 35 41 96 42 36 43 95 44 37 45
REMARK SMILES IDX 38 46 39 47 89 48 40 49 94 50 88 51 90 52 41 53 93 54 87 55
REMARK SMILES IDX 86 56 42 58 74 59 54 60 73 61 55 62 58 63 72 64 91 65 56 66
REMARK SMILES IDX 57 67 71 69 92 70 59 71 43 72 44 73 52 74 45 75 47 76 53 77
REMARK SMILES IDX 46 78 48 79 49 80 50 81 51 82 75 83 76 84 84 85 77 86 79 87
REMARK SMILES IDX 85 88 78 89 80 90 81 91 82 92 83 93 60 94 61 95 69 96 62 97
REMARK SMILES IDX 64 98 70 99 63 100 65 101 66 102 67 103 68 104
REMARK H PARENT 26 7 16 34 31 38 90 57 58 68
REMARK Flexibility Score: inf
ROOT
ATOM      1  C   UNL A   1      31.581  30.510  26.543  1.00  0.00     0.023 C 
ENDROOT
BRANCH   1   2
ATOM      2  C   UNL A   1      31.607  29.029  26.860  1.00  0.00     0.023 C 
BRANCH   2   3
ATOM      3  C   UNL A   1      31.086  28.088  25.758  1.00  0.00     0.116 C 
BRANCH   3   4
ATOM      4  N   UNL A   1      30.771  28.840  24.555  1.00  0.00    -0.356 N 
ATOM      5  C   UNL A   1      31.177  28.793  23.265  1.00  0.00     0.223 C 
ATOM      6  O   UNL A   1      30.773  29.731  22.559  1.00  0.00    -0.275 OA
ATOM      7  H   UNL A   1      30.108  29.549  24.717  1.00  0.00     0.163 HD
BRANCH   5   8
ATOM      8  C   UNL A   1      32.010  27.696  22.578  1.00  0.00     0.085 C 
ATOM      9  C   UNL A   1      33.498  20.272  25.721  1.00  0.00     0.179 C 
ATOM     10  C   UNL A   1      32.226  21.083  25.560  1.00  0.00     0.047 C 
ATOM     11  C   UNL A   1      34.566  21.197  26.305  1.00  0.00     0.081 C 
ATOM     12  C   UNL A   1      32.525  22.295  24.684  1.00  0.00     0.026 C 
ATOM     13  C   UNL A   1      34.796  22.553  25.592  1.00  0.00     0.085 C 
ATOM     14  C   UNL A   1      33.588  23.408  25.418  1.00  0.00     0.103 C 
ATOM     15  C   UNL A   1      35.302  22.446  24.065  1.00  0.00     0.041 C 
ATOM     16  C   UNL A   1      32.486  24.352  25.508  1.00  0.00     0.316 C 
ATOM     17  C   UNL A   1      34.437  24.787  24.726  1.00  0.00     0.054 C 
ATOM     18  C   UNL A   1      34.478  23.378  22.934  1.00  0.00     0.052 C 
ATOM     19  O   UNL A   1      31.698  24.594  26.394  1.00  0.00    -0.251 OA
ATOM     20  O   UNL A   1      32.369  24.682  24.138  1.00  0.00    -0.458 OA
ATOM     21  C   UNL A   1      33.690  24.673  23.483  1.00  0.00     0.120 C 
ATOM     22  C   UNL A   1      34.466  26.206  25.325  1.00  0.00     0.009 C 
ATOM     23  C   UNL A   1      33.618  25.802  22.459  1.00  0.00     0.040 C 
ATOM     24  C   UNL A   1      33.592  27.233  24.601  1.00  0.00     0.008 C 
ATOM     25  C   UNL A   1      33.433  27.226  23.075  1.00  0.00    -0.014 C 
ATOM     26  C   UNL A   1      32.364  25.581  21.572  1.00  0.00     0.009 C 
ATOM     27  C   UNL A   1      34.479  28.181  22.462  1.00  0.00     0.012 C 
ATOM     28  C   UNL A   1      31.256  26.433  22.196  1.00  0.00     0.014 C 
BRANCH   9  29
ATOM     29  O   UNL A   1      33.830  19.776  24.405  1.00  0.00    -0.462 OA
BRANCH  29  30
ATOM     30  C   UNL A   1      33.429  18.529  24.054  1.00  0.00     0.302 C 
ATOM     31  C   UNL A   1      34.496  17.531  24.407  1.00  0.00     0.139 C 
ATOM     32  O   UNL A   1      32.337  18.237  23.591  1.00  0.00    -0.253 OA
ENDBRANCH  29  30
ENDBRANCH   9  29
BRANCH  13  33
ATOM     33  O   UNL A   1      35.779  23.233  26.384  1.00  0.00    -0.389 OA
ATOM     34  H   UNL A   1      35.651  24.191  26.303  1.00  0.00     0.211 HD
ENDBRANCH  13  33
ENDBRANCH   5   8
ENDBRANCH   3   4
ENDBRANCH   2   3
ENDBRANCH   1   2
BRANCH   1  35
ATOM     35  C   UNL A   1      32.933  31.184  26.632  1.00  0.00     0.116 C 
BRANCH  35  36
ATOM     36  N   UNL A   1      32.888  32.536  27.182  1.00  0.00    -0.352 N 
ATOM     37  C   UNL A   1      33.816  33.143  27.999  1.00  0.00     0.251 C 
ATOM     38  H   UNL A   1      32.101  33.076  26.942  1.00  0.00     0.163 HD
ATOM     39  O   UNL A   1      33.622  34.256  28.473  1.00  0.00    -0.269 OA
BRANCH  37  40
ATOM     40  C   UNL A   1      35.046  32.391  28.323  1.00  0.00     0.039 A 
ATOM     41  C   UNL A   1      36.273  33.056  28.325  1.00  0.00     0.014 A 
ATOM     42  C   UNL A   1      34.946  31.071  28.766  1.00  0.00     0.014 A 
ATOM     43  C   UNL A   1      37.392  32.415  28.859  1.00  0.00     0.010 A 
ATOM     44  C   UNL A   1      36.029  30.485  29.402  1.00  0.00     0.010 A 
ATOM     45  C   UNL A   1      37.266  31.145  29.447  1.00  0.00    -0.014 A 
BRANCH  45  46
ATOM     46  C   UNL A   1      38.411  30.474  30.115  1.00  0.00     0.031 A 
ATOM     47  C   UNL A   1      38.801  30.887  31.508  1.00  0.00     0.074 A 
ATOM     48  C   UNL A   1      39.165  29.589  29.432  1.00  0.00     0.049 A 
ATOM     49  N   UNL A   1      39.821  30.499  32.228  1.00  0.00    -0.248 NA
ATOM     50  C   UNL A   1      37.960  31.905  32.164  1.00  0.00     0.031 C 
ATOM     51  C   UNL A   1      38.954  29.187  28.038  1.00  0.00     0.029 A 
ATOM     52  N   UNL A   1      40.284  28.889  29.809  1.00  0.00    -0.354 N 
ATOM     53  C   UNL A   1      39.775  31.261  33.388  1.00  0.00     0.074 A 
ATOM     54  C   UNL A   1      38.654  32.163  33.263  1.00  0.00     0.031 C 
ATOM     55  C   UNL A   1      39.908  28.310  27.683  1.00  0.00     0.029 A 
ATOM     56  C   UNL A   1      40.813  28.107  28.809  1.00  0.00     0.049 A 
ATOM     57  H   UNL A   1      40.673  28.943  30.712  1.00  0.00     0.167 HD
ATOM     58  C   UNL A   1      40.570  31.191  34.480  1.00  0.00     0.034 A 
ATOM     59  C   UNL A   1      41.906  27.318  28.800  1.00  0.00     0.034 A 
ATOM     60  C   UNL A   1      41.632  30.236  34.634  1.00  0.00     0.049 A 
ATOM     61  C   UNL A   1      42.721  27.191  30.060  1.00  0.00     0.074 A 
ATOM     62  C   UNL A   1      42.412  29.992  35.749  1.00  0.00     0.029 A 
ATOM     63  N   UNL A   1      42.060  29.368  33.642  1.00  0.00    -0.354 N 
ATOM     64  N   UNL A   1      42.547  27.782  31.217  1.00  0.00    -0.248 NA
ATOM     65  C   UNL A   1      43.859  26.260  30.027  1.00  0.00     0.031 C 
ATOM     66  C   UNL A   1      43.326  28.984  35.425  1.00  0.00     0.029 A 
ATOM     67  C   UNL A   1      43.101  28.590  34.115  1.00  0.00     0.049 A 
ATOM     68  H   UNL A   1      41.679  29.313  32.736  1.00  0.00     0.167 HD
ATOM     69  C   UNL A   1      43.529  27.273  32.058  1.00  0.00     0.074 A 
ATOM     70  C   UNL A   1      44.281  26.307  31.284  1.00  0.00     0.031 C 
ATOM     71  C   UNL A   1      43.798  27.590  33.349  1.00  0.00     0.034 A 
BRANCH  58  72
ATOM     72  C   UNL A   1      40.277  32.126  35.623  1.00  0.00     0.023 A 
ATOM     73  C   UNL A   1      41.038  33.303  35.770  1.00  0.00     0.012 A 
ATOM     74  C   UNL A   1      39.219  31.870  36.516  1.00  0.00     0.148 A 
ATOM     75  C   UNL A   1      40.774  34.195  36.809  1.00  0.00     0.002 A 
ATOM     76  C   UNL A   1      38.932  32.786  37.521  1.00  0.00     0.091 A 
ATOM     77  F   UNL A   1      38.523  30.733  36.375  1.00  0.00    -0.205 F 
ATOM     78  C   UNL A   1      39.716  33.942  37.676  1.00  0.00     0.022 A 
BRANCH  76  79
ATOM     79  S   UNL A   1      37.540  32.593  38.639  1.00  0.00     0.127 S 
ATOM     80  O   UNL A   1      37.670  31.191  39.033  1.00  0.00    -0.237 OA
ATOM     81  O   UNL A   1      37.858  33.555  39.695  1.00  0.00    -0.237 OA
ATOM     82  O   UNL A   1      36.352  32.916  37.862  1.00  0.00    -0.744 OA
ENDBRANCH  76  79
ENDBRANCH  58  72
BRANCH  59  83
ATOM     83  C   UNL A   1      42.248  26.527  27.583  1.00  0.00     0.023 A 
ATOM     84  C   UNL A   1      42.914  27.159  26.514  1.00  0.00     0.012 A 
ATOM     85  C   UNL A   1      41.944  25.156  27.486  1.00  0.00     0.148 A 
ATOM     86  C   UNL A   1      43.240  26.449  25.358  1.00  0.00     0.002 A 
ATOM     87  C   UNL A   1      42.321  24.441  26.354  1.00  0.00     0.091 A 
ATOM     88  F   UNL A   1      41.299  24.574  28.507  1.00  0.00    -0.205 F 
ATOM     89  C   UNL A   1      42.954  25.089  25.281  1.00  0.00     0.022 A 
BRANCH  87  90
ATOM     90  S   UNL A   1      42.108  22.661  26.226  1.00  0.00     0.127 S 
ATOM     91  O   UNL A   1      42.759  22.194  27.447  1.00  0.00    -0.237 OA
ATOM     92  O   UNL A   1      40.650  22.530  26.215  1.00  0.00    -0.237 OA
ATOM     93  O   UNL A   1      42.752  22.282  24.975  1.00  0.00    -0.744 OA
ENDBRANCH  87  90
ENDBRANCH  59  83
BRANCH  71  94
ATOM     94  C   UNL A   1      44.932  26.868  34.027  1.00  0.00     0.023 A 
ATOM     95  C   UNL A   1      46.239  27.384  33.937  1.00  0.00     0.012 A 
ATOM     96  C   UNL A   1      44.685  25.735  34.826  1.00  0.00     0.148 A 
ATOM     97  C   UNL A   1      47.290  26.768  34.615  1.00  0.00     0.002 A 
ATOM     98  C   UNL A   1      45.729  25.155  35.537  1.00  0.00     0.091 A 
ATOM     99  F   UNL A   1      43.436  25.250  34.883  1.00  0.00    -0.205 F 
ATOM    100  C   UNL A   1      47.034  25.663  35.423  1.00  0.00     0.022 A 
BRANCH  98 101
ATOM    101  S   UNL A   1      45.473  23.792  36.679  1.00  0.00     0.127 S 
ATOM    102  O   UNL A   1      44.606  24.405  37.684  1.00  0.00    -0.237 OA
ATOM    103  O   UNL A   1      44.816  22.795  35.833  1.00  0.00    -0.237 OA
ATOM    104  O   UNL A   1      46.797  23.407  37.146  1.00  0.00    -0.744 OA
ENDBRANCH  98 101
ENDBRANCH  71  94
ENDBRANCH  45  46
ENDBRANCH  37  40
ENDBRANCH  35  36
ENDBRANCH   1  35
TORSDOF 17
ENDMDL
MODEL 3
REMARK VINA RESULT:     -13.3      5.653     11.016
REMARK SMILES CC(=O)O[C@@H]1CC[C@@]23C(=O)O[C@]4(CC[C@]2(O)C1)[C@H]3CC[C@]1(C)[C@H](C(=O)NCCCCNC(=O)c2ccc(-c3c5nc(c(-c6cccc(S(=O)(=O)[O-])c6F)c6ccc([nH]6)c(-c6cccc(S(=O)(=O)[O-])c6F)c6nc(c(-c7cccc(S(=O)(=O)[O-])c7F)c7ccc3[nH]7)C=C6)C=C5)cc2)CC[C@@H]14
REMARK SMILES IDX 29 1 28 2 27 3 26 4 24 5 25 6 23 8 5 9 6 10 17 11 7 12 15 13
REMARK SMILES IDX 8 14 14 15 9 16 18 17 13 18 10 19 11 20 12 21 19 22 99 23
REMARK SMILES IDX 20 24 21 25 98 26 22 27 97 28 4 29 2 30 1 31 3 32 16 33
REMARK SMILES IDX 30 35 31 36 32 37 33 39 34 40 35 41 96 42 36 43 95 44 37 45
REMARK SMILES IDX 38 46 39 47 89 48 40 49 94 50 88 51 90 52 41 53 93 54 87 55
REMARK SMILES IDX 86 56 42 58 74 59 54 60 73 61 55 62 58 63 72 64 91 65 56 66
REMARK SMILES IDX 57 67 71 69 92 70 59 71 43 72 44 73 52 74 45 75 47 76 53 77
REMARK SMILES IDX 46 78 48 79 49 80 50 81 51 82 75 83 76 84 84 85 77 86 79 87
REMARK SMILES IDX 85 88 78 89 80 90 81 91 82 92 83 93 60 94 61 95 69 96 62 97
REMARK SMILES IDX 64 98 70 99 63 100 65 101 66 102 67 103 68 104
REMARK H PARENT 26 7 16 34 31 38 90 57 58 68
REMARK Flexibility Score: inf
ROOT
ATOM      1  C   UNL A   1      37.163  21.129  25.397  1.00  0.00     0.023 C 
ENDROOT
BRANCH   1   2
ATOM      2  C   UNL A   1      36.689  21.870  24.164  1.00  0.00     0.023 C 
BRANCH   2   3
ATOM      3  C   UNL A   1      35.174  21.836  23.891  1.00  0.00     0.116 C 
BRANCH   3   4
ATOM      4  N   UNL A   1      34.567  20.681  24.530  1.00  0.00    -0.356 N 
ATOM      5  C   UNL A   1      33.574  20.499  25.432  1.00  0.00     0.223 C 
ATOM      6  O   UNL A   1      33.458  19.335  25.848  1.00  0.00    -0.275 OA
ATOM      7  H   UNL A   1      34.974  19.833  24.241  1.00  0.00     0.163 HD
BRANCH   5   8
ATOM      8  C   UNL A   1      32.557  21.538  25.936  1.00  0.00     0.085 C 
ATOM      9  C   UNL A   1      31.393  28.951  22.636  1.00  0.00     0.179 C 
ATOM     10  C   UNL A   1      31.482  27.563  22.034  1.00  0.00     0.047 C 
ATOM     11  C   UNL A   1      32.554  29.107  23.619  1.00  0.00     0.081 C 
ATOM     12  C   UNL A   1      31.465  26.537  23.163  1.00  0.00     0.026 C 
ATOM     13  C   UNL A   1      32.737  27.995  24.681  1.00  0.00     0.085 C 
ATOM     14  C   UNL A   1      32.851  26.605  24.154  1.00  0.00     0.103 C 
ATOM     15  C   UNL A   1      31.506  27.819  25.708  1.00  0.00     0.041 C 
ATOM     16  C   UNL A   1      33.248  25.308  23.633  1.00  0.00     0.316 C 
ATOM     17  C   UNL A   1      33.168  25.844  25.709  1.00  0.00     0.054 C 
ATOM     18  C   UNL A   1      30.937  26.254  25.936  1.00  0.00     0.052 C 
ATOM     19  O   UNL A   1      33.976  24.991  22.720  1.00  0.00    -0.251 OA
ATOM     20  O   UNL A   1      32.276  24.507  24.277  1.00  0.00    -0.458 OA
ATOM     21  C   UNL A   1      31.955  25.046  25.611  1.00  0.00     0.120 C 
ATOM     22  C   UNL A   1      34.432  25.040  26.065  1.00  0.00     0.009 C 
ATOM     23  C   UNL A   1      31.708  23.813  26.475  1.00  0.00     0.040 C 
ATOM     24  C   UNL A   1      34.242  23.521  26.117  1.00  0.00     0.008 C 
ATOM     25  C   UNL A   1      32.953  22.887  26.654  1.00  0.00    -0.014 C 
ATOM     26  C   UNL A   1      30.646  22.927  25.772  1.00  0.00     0.009 C 
ATOM     27  C   UNL A   1      33.140  22.578  28.155  1.00  0.00     0.012 C 
ATOM     28  C   UNL A   1      31.432  21.884  24.974  1.00  0.00     0.014 C 
BRANCH   9  29
ATOM     29  O   UNL A   1      30.096  29.035  23.269  1.00  0.00    -0.462 OA
BRANCH  29  30
ATOM     30  C   UNL A   1      29.003  29.255  22.497  1.00  0.00     0.302 C 
ATOM     31  C   UNL A   1      27.797  28.618  23.126  1.00  0.00     0.139 C 
ATOM     32  O   UNL A   1      28.975  29.934  21.481  1.00  0.00    -0.253 OA
ENDBRANCH  29  30
ENDBRANCH   9  29
BRANCH  13  33
ATOM     33  O   UNL A   1      33.924  28.354  25.402  1.00  0.00    -0.389 OA
ATOM     34  H   UNL A   1      33.781  29.197  25.858  1.00  0.00     0.211 HD
ENDBRANCH  13  33
ENDBRANCH   5   8
ENDBRANCH   3   4
ENDBRANCH   2   3
ENDBRANCH   1   2
BRANCH   1  35
ATOM     35  C   UNL A   1      38.631  21.323  25.707  1.00  0.00     0.116 C 
BRANCH  35  36
ATOM     36  N   UNL A   1      39.385  20.077  25.817  1.00  0.00    -0.352 N 
ATOM     37  C   UNL A   1      40.718  19.924  26.127  1.00  0.00     0.251 C 
ATOM     38  H   UNL A   1      38.880  19.248  25.650  1.00  0.00     0.163 HD
ATOM     39  O   UNL A   1      41.261  18.826  26.099  1.00  0.00    -0.269 OA
BRANCH  37  40
ATOM     40  C   UNL A   1      41.493  21.139  26.456  1.00  0.00     0.039 A 
ATOM     41  C   UNL A   1      42.103  21.859  25.429  1.00  0.00     0.014 A 
ATOM     42  C   UNL A   1      41.478  21.628  27.763  1.00  0.00     0.014 A 
ATOM     43  C   UNL A   1      42.626  23.124  25.704  1.00  0.00     0.010 A 
ATOM     44  C   UNL A   1      41.891  22.929  28.005  1.00  0.00     0.010 A 
ATOM     45  C   UNL A   1      42.478  23.688  26.982  1.00  0.00    -0.014 A 
BRANCH  45  46
ATOM     46  C   UNL A   1      42.931  25.070  27.287  1.00  0.00     0.031 A 
ATOM     47  C   UNL A   1      41.976  26.037  27.933  1.00  0.00     0.074 A 
ATOM     48  C   UNL A   1      44.147  25.486  26.877  1.00  0.00     0.049 A 
ATOM     49  N   UNL A   1      42.138  27.307  28.192  1.00  0.00    -0.248 NA
ATOM     50  C   UNL A   1      40.644  25.519  28.295  1.00  0.00     0.031 C 
ATOM     51  C   UNL A   1      45.122  24.675  26.144  1.00  0.00     0.029 A 
ATOM     52  N   UNL A   1      44.757  26.709  26.992  1.00  0.00    -0.354 N 
ATOM     53  C   UNL A   1      40.920  27.749  28.691  1.00  0.00     0.074 A 
ATOM     54  C   UNL A   1      40.014  26.625  28.662  1.00  0.00     0.031 C 
ATOM     55  C   UNL A   1      46.208  25.421  25.881  1.00  0.00     0.029 A 
ATOM     56  C   UNL A   1      45.998  26.768  26.401  1.00  0.00     0.049 A 
ATOM     57  H   UNL A   1      44.346  27.475  27.455  1.00  0.00     0.167 HD
ATOM     58  C   UNL A   1      40.593  28.971  29.170  1.00  0.00     0.034 A 
ATOM     59  C   UNL A   1      46.866  27.793  26.287  1.00  0.00     0.034 A 
ATOM     60  C   UNL A   1      41.522  30.062  29.273  1.00  0.00     0.049 A 
ATOM     61  C   UNL A   1      46.512  29.118  26.909  1.00  0.00     0.074 A 
ATOM     62  C   UNL A   1      41.332  31.298  29.861  1.00  0.00     0.029 A 
ATOM     63  N   UNL A   1      42.815  30.045  28.776  1.00  0.00    -0.354 N 
ATOM     64  N   UNL A   1      45.421  29.462  27.549  1.00  0.00    -0.248 NA
ATOM     65  C   UNL A   1      47.521  30.184  26.827  1.00  0.00     0.031 C 
ATOM     66  C   UNL A   1      42.509  32.038  29.706  1.00  0.00     0.029 A 
ATOM     67  C   UNL A   1      43.436  31.253  29.037  1.00  0.00     0.049 A 
ATOM     68  H   UNL A   1      43.231  29.285  28.307  1.00  0.00     0.167 HD
ATOM     69  C   UNL A   1      45.624  30.770  27.975  1.00  0.00     0.074 A 
ATOM     70  C   UNL A   1      46.953  31.148  27.540  1.00  0.00     0.031 C 
ATOM     71  C   UNL A   1      44.781  31.590  28.648  1.00  0.00     0.034 A 
BRANCH  58  72
ATOM     72  C   UNL A   1      39.192  29.173  29.684  1.00  0.00     0.023 A 
ATOM     73  C   UNL A   1      38.881  28.814  31.010  1.00  0.00     0.012 A 
ATOM     74  C   UNL A   1      38.202  29.764  28.876  1.00  0.00     0.148 A 
ATOM     75  C   UNL A   1      37.596  29.008  31.517  1.00  0.00     0.002 A 
ATOM     76  C   UNL A   1      36.937  29.997  29.402  1.00  0.00     0.091 A 
ATOM     77  F   UNL A   1      38.511  30.075  27.609  1.00  0.00    -0.205 F 
ATOM     78  C   UNL A   1      36.629  29.608  30.716  1.00  0.00     0.022 A 
BRANCH  76  79
ATOM     79  S   UNL A   1      35.645  30.838  28.480  1.00  0.00     0.127 S 
ATOM     80  O   UNL A   1      35.070  29.738  27.706  1.00  0.00    -0.237 OA
ATOM     81  O   UNL A   1      34.785  31.344  29.550  1.00  0.00    -0.237 OA
ATOM     82  O   UNL A   1      36.314  31.869  27.699  1.00  0.00    -0.744 OA
ENDBRANCH  76  79
ENDBRANCH  58  72
BRANCH  59  83
ATOM     83  C   UNL A   1      48.186  27.586  25.624  1.00  0.00     0.023 A 
ATOM     84  C   UNL A   1      49.314  27.283  26.412  1.00  0.00     0.012 A 
ATOM     85  C   UNL A   1      48.328  27.662  24.225  1.00  0.00     0.148 A 
ATOM     86  C   UNL A   1      50.565  27.093  25.824  1.00  0.00     0.002 A 
ATOM     87  C   UNL A   1      49.566  27.417  23.640  1.00  0.00     0.091 A 
ATOM     88  F   UNL A   1      47.247  27.964  23.493  1.00  0.00    -0.205 F 
ATOM     89  C   UNL A   1      50.689  27.149  24.439  1.00  0.00     0.022 A 
BRANCH  87  90
ATOM     90  S   UNL A   1      49.788  27.340  21.859  1.00  0.00     0.127 S 
ATOM     91  O   UNL A   1      48.798  26.338  21.477  1.00  0.00    -0.237 OA
ATOM     92  O   UNL A   1      49.468  28.710  21.454  1.00  0.00    -0.237 OA
ATOM     93  O   UNL A   1      51.182  26.968  21.658  1.00  0.00    -0.744 OA
ENDBRANCH  87  90
ENDBRANCH  59  83
BRANCH  71  94
ATOM     94  C   UNL A   1      45.270  32.972  28.990  1.00  0.00     0.023 A 
ATOM     95  C   UNL A   1      46.034  33.172  30.156  1.00  0.00     0.012 A 
ATOM     96  C   UNL A   1      45.052  34.049  28.109  1.00  0.00     0.148 A 
ATOM     97  C   UNL A   1      46.554  34.432  30.453  1.00  0.00     0.002 A 
ATOM     98  C   UNL A   1      45.613  35.289  28.387  1.00  0.00     0.091 A 
ATOM     99  F   UNL A   1      44.306  33.840  27.014  1.00  0.00    -0.205 F 
ATOM    100  C   UNL A   1      46.354  35.485  29.564  1.00  0.00     0.022 A 
BRANCH  98 101
ATOM    101  S   UNL A   1      45.492  36.675  27.250  1.00  0.00     0.127 S 
ATOM    102  O   UNL A   1      46.348  36.235  26.150  1.00  0.00    -0.237 OA
ATOM    103  O   UNL A   1      44.062  36.699  26.939  1.00  0.00    -0.237 OA
ATOM    104  O   UNL A   1      45.967  37.839  27.985  1.00  0.00    -0.744 OA
ENDBRANCH  98 101
ENDBRANCH  71  94
ENDBRANCH  45  46
ENDBRANCH  37  40
ENDBRANCH  35  36
ENDBRANCH   1  35
TORSDOF 17
ENDMDL
