MODEL 1
REMARK VINA RESULT:     -12.7      0.000      0.000
REMARK SMILES NC(=O)N[C@@H](Cc1ccc2c(c1)CCCC2)C(=O)NCCCCNC(=O)c1ccc(-c2c3nc(c(-c4cccc(S(=O)(=O)[O-])c4F)c4ccc([nH]4)c(-c4cccc(S(=O)(=O)[O-])c4F)c4nc(c(-c5cccc(S(=O)(=O)[O-])c5F)c5ccc2[nH]5)C=C4)C=C3)cc1
REMARK SMILES IDX 22 1 21 2 20 3 19 4 17 5 18 6 5 8 4 9 1 10 2 11 3 14 6 16
REMARK SMILES IDX 7 17 8 18 12 19 9 20 11 21 10 22 13 23 16 24 14 25 15 26
REMARK SMILES IDX 23 27 24 28 25 29 26 31 27 32 28 33 89 34 29 35 88 36 30 37
REMARK SMILES IDX 31 38 32 39 82 40 33 41 87 42 81 43 83 44 34 45 86 46 80 47
REMARK SMILES IDX 79 48 35 50 67 51 47 52 66 53 48 54 51 55 65 56 84 57 49 58
REMARK SMILES IDX 50 59 64 61 85 62 52 63 36 64 37 65 45 66 38 67 40 68 46 69
REMARK SMILES IDX 39 70 41 71 42 72 43 73 44 74 68 75 69 76 77 77 70 78 72 79
REMARK SMILES IDX 78 80 71 81 73 82 74 83 75 84 76 85 53 86 54 87 62 88 55 89
REMARK SMILES IDX 57 90 63 91 56 92 58 93 59 94 60 95 61 96
REMARK H PARENT 19 7 1 12 1 13 4 15 24 30 83 49 51 60
REMARK Flexibility Score: inf
ROOT
ATOM      1  C   UNL A   1      31.936  29.233  27.069  1.00  0.00     0.023 C 
ENDROOT
BRANCH   1   2
ATOM      2  C   UNL A   1      31.457  28.044  26.232  1.00  0.00     0.023 C 
BRANCH   2   3
ATOM      3  C   UNL A   1      32.186  26.731  26.486  1.00  0.00     0.116 C 
BRANCH   3   4
ATOM      4  N   UNL A   1      31.335  25.647  26.945  1.00  0.00    -0.354 N 
ATOM      5  C   UNL A   1      31.142  24.397  26.429  1.00  0.00     0.242 C 
ATOM      6  O   UNL A   1      30.719  23.529  27.204  1.00  0.00    -0.273 OA
ATOM      7  H   UNL A   1      30.815  25.845  27.758  1.00  0.00     0.163 HD
BRANCH   5   8
ATOM      8  C   UNL A   1      31.528  23.990  24.983  1.00  0.00     0.177 C 
BRANCH   8   9
ATOM      9  N   UNL A   1      32.045  22.623  24.878  1.00  0.00    -0.326 N 
ATOM     10  N   UNL A   1      33.746  22.972  23.348  1.00  0.00    -0.352 N 
ATOM     11  C   UNL A   1      33.112  22.157  24.204  1.00  0.00     0.312 C 
ATOM     12  H   UNL A   1      34.529  22.648  22.847  1.00  0.00     0.161 HD
ATOM     13  H   UNL A   1      33.428  23.895  23.222  1.00  0.00     0.161 HD
ATOM     14  O   UNL A   1      33.482  20.992  24.348  1.00  0.00    -0.249 OA
ATOM     15  H   UNL A   1      31.534  21.943  25.375  1.00  0.00     0.166 HD
ENDBRANCH   8   9
BRANCH   8  16
ATOM     16  C   UNL A   1      30.491  24.338  23.894  1.00  0.00     0.070 C 
BRANCH  16  17
ATOM     17  C   UNL A   1      30.377  25.785  23.491  1.00  0.00    -0.045 A 
ATOM     18  C   UNL A   1      31.430  26.449  22.855  1.00  0.00     0.004 A 
ATOM     19  C   UNL A   1      29.172  26.469  23.706  1.00  0.00     0.007 A 
ATOM     20  C   UNL A   1      31.260  27.759  22.400  1.00  0.00     0.004 A 
ATOM     21  C   UNL A   1      28.980  27.771  23.224  1.00  0.00    -0.045 A 
ATOM     22  C   UNL A   1      30.031  28.417  22.552  1.00  0.00    -0.045 A 
ATOM     23  C   UNL A   1      27.599  28.373  23.307  1.00  0.00     0.036 C 
ATOM     24  C   UNL A   1      29.874  29.819  22.016  1.00  0.00     0.036 C 
ATOM     25  C   UNL A   1      27.562  29.871  23.017  1.00  0.00     0.005 C 
ATOM     26  C   UNL A   1      28.416  30.207  21.802  1.00  0.00     0.005 C 
ENDBRANCH  16  17
ENDBRANCH   8  16
ENDBRANCH   5   8
ENDBRANCH   3   4
ENDBRANCH   2   3
ENDBRANCH   1   2
BRANCH   1  27
ATOM     27  C   UNL A   1      32.904  30.204  26.392  1.00  0.00     0.116 C 
BRANCH  27  28
ATOM     28  N   UNL A   1      32.854  31.563  26.907  1.00  0.00    -0.352 N 
ATOM     29  C   UNL A   1      33.757  32.233  27.703  1.00  0.00     0.251 C 
ATOM     30  H   UNL A   1      32.058  32.081  26.648  1.00  0.00     0.163 HD
ATOM     31  O   UNL A   1      33.506  33.387  28.048  1.00  0.00    -0.269 OA
BRANCH  29  32
ATOM     32  C   UNL A   1      35.013  31.586  28.172  1.00  0.00     0.039 A 
ATOM     33  C   UNL A   1      36.177  32.362  28.223  1.00  0.00     0.014 A 
ATOM     34  C   UNL A   1      35.075  30.240  28.546  1.00  0.00     0.014 A 
ATOM     35  C   UNL A   1      37.364  31.818  28.724  1.00  0.00     0.010 A 
ATOM     36  C   UNL A   1      36.243  29.708  29.088  1.00  0.00     0.010 A 
ATOM     37  C   UNL A   1      37.393  30.498  29.199  1.00  0.00    -0.014 A 
BRANCH  37  38
ATOM     38  C   UNL A   1      38.577  29.967  29.915  1.00  0.00     0.031 A 
ATOM     39  C   UNL A   1      38.960  30.475  31.275  1.00  0.00     0.074 A 
ATOM     40  C   UNL A   1      39.371  29.091  29.269  1.00  0.00     0.049 A 
ATOM     41  N   UNL A   1      39.950  30.099  32.042  1.00  0.00    -0.248 NA
ATOM     42  C   UNL A   1      38.144  31.564  31.837  1.00  0.00     0.031 C 
ATOM     43  C   UNL A   1      39.161  28.619  27.897  1.00  0.00     0.029 A 
ATOM     44  N   UNL A   1      40.526  28.465  29.661  1.00  0.00    -0.354 N 
ATOM     45  C   UNL A   1      39.887  30.906  33.171  1.00  0.00     0.074 A 
ATOM     46  C   UNL A   1      38.783  31.820  32.972  1.00  0.00     0.031 C 
ATOM     47  C   UNL A   1      40.152  27.778  27.564  1.00  0.00     0.029 A 
ATOM     48  C   UNL A   1      41.073  27.660  28.689  1.00  0.00     0.049 A 
ATOM     49  H   UNL A   1      40.926  28.580  30.553  1.00  0.00     0.167 HD
ATOM     50  C   UNL A   1      40.664  30.868  34.281  1.00  0.00     0.034 A 
ATOM     51  C   UNL A   1      42.190  26.909  28.703  1.00  0.00     0.034 A 
ATOM     52  C   UNL A   1      41.755  29.948  34.465  1.00  0.00     0.049 A 
ATOM     53  C   UNL A   1      43.004  26.847  29.965  1.00  0.00     0.074 A 
ATOM     54  C   UNL A   1      42.546  29.761  35.586  1.00  0.00     0.029 A 
ATOM     55  N   UNL A   1      42.226  29.074  33.496  1.00  0.00    -0.354 N 
ATOM     56  N   UNL A   1      42.811  27.472  31.102  1.00  0.00    -0.248 NA
ATOM     57  C   UNL A   1      44.159  25.939  29.967  1.00  0.00     0.031 C 
ATOM     58  C   UNL A   1      43.515  28.800  35.282  1.00  0.00     0.029 A 
ATOM     59  C   UNL A   1      43.303  28.356  33.987  1.00  0.00     0.049 A 
ATOM     60  H   UNL A   1      41.850  28.979  32.591  1.00  0.00     0.167 HD
ATOM     61  C   UNL A   1      43.792  27.004  31.966  1.00  0.00     0.074 A 
ATOM     62  C   UNL A   1      44.567  26.028  31.225  1.00  0.00     0.031 C 
ATOM     63  C   UNL A   1      44.036  27.354  33.253  1.00  0.00     0.034 A 
BRANCH  50  64
ATOM     64  C   UNL A   1      40.329  31.813  35.409  1.00  0.00     0.023 A 
ATOM     65  C   UNL A   1      41.075  32.999  35.564  1.00  0.00     0.012 A 
ATOM     66  C   UNL A   1      39.236  31.570  36.266  1.00  0.00     0.148 A 
ATOM     67  C   UNL A   1      40.764  33.910  36.573  1.00  0.00     0.002 A 
ATOM     68  C   UNL A   1      38.904  32.504  37.240  1.00  0.00     0.091 A 
ATOM     69  F   UNL A   1      38.547  30.430  36.116  1.00  0.00    -0.205 F 
ATOM     70  C   UNL A   1      39.673  33.668  37.403  1.00  0.00     0.022 A 
BRANCH  68  71
ATOM     71  S   UNL A   1      37.471  32.326  38.309  1.00  0.00     0.127 S 
ATOM     72  O   UNL A   1      37.926  32.999  39.526  1.00  0.00    -0.237 OA
ATOM     73  O   UNL A   1      36.440  33.048  37.563  1.00  0.00    -0.237 OA
ATOM     74  O   UNL A   1      37.239  30.895  38.438  1.00  0.00    -0.744 OA
ENDBRANCH  68  71
ENDBRANCH  50  64
BRANCH  51  75
ATOM     75  C   UNL A   1      42.550  26.091  27.512  1.00  0.00     0.023 A 
ATOM     76  C   UNL A   1      43.336  26.660  26.492  1.00  0.00     0.012 A 
ATOM     77  C   UNL A   1      42.149  24.745  27.400  1.00  0.00     0.148 A 
ATOM     78  C   UNL A   1      43.686  25.917  25.364  1.00  0.00     0.002 A 
ATOM     79  C   UNL A   1      42.546  23.995  26.300  1.00  0.00     0.091 A 
ATOM     80  F   UNL A   1      41.399  24.224  28.380  1.00  0.00    -0.205 F 
ATOM     81  C   UNL A   1      43.299  24.584  25.272  1.00  0.00     0.022 A 
BRANCH  79  82
ATOM     82  S   UNL A   1      42.207  22.236  26.162  1.00  0.00     0.127 S 
ATOM     83  O   UNL A   1      40.753  22.223  26.025  1.00  0.00    -0.237 OA
ATOM     84  O   UNL A   1      42.944  21.881  24.949  1.00  0.00    -0.237 OA
ATOM     85  O   UNL A   1      42.734  21.637  27.380  1.00  0.00    -0.744 OA
ENDBRANCH  79  82
ENDBRANCH  51  75
BRANCH  63  86
ATOM     86  C   UNL A   1      45.160  26.649  33.966  1.00  0.00     0.023 A 
ATOM     87  C   UNL A   1      46.466  27.175  33.921  1.00  0.00     0.012 A 
ATOM     88  C   UNL A   1      44.904  25.496  34.734  1.00  0.00     0.148 A 
ATOM     89  C   UNL A   1      47.507  26.542  34.600  1.00  0.00     0.002 A 
ATOM     90  C   UNL A   1      45.935  24.903  35.452  1.00  0.00     0.091 A 
ATOM     91  F   UNL A   1      43.658  24.999  34.748  1.00  0.00    -0.205 F 
ATOM     92  C   UNL A   1      47.240  25.415  35.373  1.00  0.00     0.022 A 
BRANCH  90  93
ATOM     93  S   UNL A   1      45.664  23.511  36.553  1.00  0.00     0.127 S 
ATOM     94  O   UNL A   1      44.848  22.627  35.722  1.00  0.00    -0.237 OA
ATOM     95  O   UNL A   1      47.027  23.036  36.792  1.00  0.00    -0.237 OA
ATOM     96  O   UNL A   1      44.998  24.052  37.730  1.00  0.00    -0.744 OA
ENDBRANCH  90  93
ENDBRANCH  63  86
ENDBRANCH  37  38
ENDBRANCH  29  32
ENDBRANCH  27  28
ENDBRANCH   1  27
TORSDOF 17
ENDMDL
MODEL 2
REMARK VINA RESULT:     -12.3      5.114     10.408
REMARK SMILES NC(=O)N[C@@H](Cc1ccc2c(c1)CCCC2)C(=O)NCCCCNC(=O)c1ccc(-c2c3nc(c(-c4cccc(S(=O)(=O)[O-])c4F)c4ccc([nH]4)c(-c4cccc(S(=O)(=O)[O-])c4F)c4nc(c(-c5cccc(S(=O)(=O)[O-])c5F)c5ccc2[nH]5)C=C4)C=C3)cc1
REMARK SMILES IDX 22 1 21 2 20 3 19 4 17 5 18 6 5 8 4 9 1 10 2 11 3 14 6 16
REMARK SMILES IDX 7 17 8 18 12 19 9 20 11 21 10 22 13 23 16 24 14 25 15 26
REMARK SMILES IDX 23 27 24 28 25 29 26 31 27 32 28 33 89 34 29 35 88 36 30 37
REMARK SMILES IDX 31 38 32 39 82 40 33 41 87 42 81 43 83 44 34 45 86 46 80 47
REMARK SMILES IDX 79 48 35 50 67 51 47 52 66 53 48 54 51 55 65 56 84 57 49 58
REMARK SMILES IDX 50 59 64 61 85 62 52 63 36 64 37 65 45 66 38 67 40 68 46 69
REMARK SMILES IDX 39 70 41 71 42 72 43 73 44 74 68 75 69 76 77 77 70 78 72 79
REMARK SMILES IDX 78 80 71 81 73 82 74 83 75 84 76 85 53 86 54 87 62 88 55 89
REMARK SMILES IDX 57 90 63 91 56 92 58 93 59 94 60 95 61 96
REMARK H PARENT 19 7 1 12 1 13 4 15 24 30 83 49 51 60
REMARK Flexibility Score: inf
ROOT
ATOM      1  C   UNL A   1      35.710  21.529  25.930  1.00  0.00     0.023 C 
ENDROOT
BRANCH   1   2
ATOM      2  C   UNL A   1      34.921  22.810  26.213  1.00  0.00     0.023 C 
BRANCH   2   3
ATOM      3  C   UNL A   1      35.525  24.088  25.646  1.00  0.00     0.116 C 
BRANCH   3   4
ATOM      4  N   UNL A   1      35.204  24.340  24.252  1.00  0.00    -0.354 N 
ATOM      5  C   UNL A   1      33.995  24.535  23.646  1.00  0.00     0.242 C 
ATOM      6  O   UNL A   1      34.000  25.140  22.566  1.00  0.00    -0.273 OA
ATOM      7  H   UNL A   1      35.981  24.375  23.648  1.00  0.00     0.163 HD
BRANCH   5   8
ATOM      8  C   UNL A   1      32.636  24.150  24.285  1.00  0.00     0.177 C 
BRANCH   8   9
ATOM      9  N   UNL A   1      31.989  25.255  24.998  1.00  0.00    -0.326 N 
ATOM     10  N   UNL A   1      31.459  24.178  26.976  1.00  0.00    -0.352 N 
ATOM     11  C   UNL A   1      31.526  25.310  26.260  1.00  0.00     0.312 C 
ATOM     12  H   UNL A   1      31.123  24.199  27.902  1.00  0.00     0.161 HD
ATOM     13  H   UNL A   1      31.748  23.326  26.578  1.00  0.00     0.161 HD
ATOM     14  O   UNL A   1      31.140  26.376  26.738  1.00  0.00    -0.249 OA
ATOM     15  H   UNL A   1      31.878  26.082  24.475  1.00  0.00     0.166 HD
ENDBRANCH   8   9
BRANCH   8  16
ATOM     16  C   UNL A   1      31.671  23.361  23.373  1.00  0.00     0.070 C 
BRANCH  16  17
ATOM     17  C   UNL A   1      31.870  21.871  23.288  1.00  0.00    -0.045 A 
ATOM     18  C   UNL A   1      31.870  21.205  22.059  1.00  0.00     0.004 A 
ATOM     19  C   UNL A   1      32.115  21.139  24.458  1.00  0.00     0.007 A 
ATOM     20  C   UNL A   1      32.159  19.840  22.000  1.00  0.00     0.004 A 
ATOM     21  C   UNL A   1      32.439  19.775  24.407  1.00  0.00    -0.045 A 
ATOM     22  C   UNL A   1      32.474  19.123  23.163  1.00  0.00    -0.045 A 
ATOM     23  C   UNL A   1      32.891  19.096  25.676  1.00  0.00     0.036 C 
ATOM     24  C   UNL A   1      32.816  17.657  23.058  1.00  0.00     0.036 C 
ATOM     25  C   UNL A   1      32.948  17.574  25.572  1.00  0.00     0.005 C 
ATOM     26  C   UNL A   1      33.595  17.146  24.263  1.00  0.00     0.005 C 
ENDBRANCH  16  17
ENDBRANCH   8  16
ENDBRANCH   5   8
ENDBRANCH   3   4
ENDBRANCH   2   3
ENDBRANCH   1   2
BRANCH   1  27
ATOM     27  C   UNL A   1      36.981  21.676  25.092  1.00  0.00     0.116 C 
BRANCH  27  28
ATOM     28  N   UNL A   1      38.016  20.698  25.388  1.00  0.00    -0.352 N 
ATOM     29  C   UNL A   1      39.231  20.870  26.015  1.00  0.00     0.251 C 
ATOM     30  H   UNL A   1      37.819  19.778  25.098  1.00  0.00     0.163 HD
ATOM     31  O   UNL A   1      39.976  19.900  26.145  1.00  0.00    -0.269 OA
BRANCH  29  32
ATOM     32  C   UNL A   1      39.668  22.202  26.516  1.00  0.00     0.039 A 
ATOM     33  C   UNL A   1      40.665  22.242  27.498  1.00  0.00     0.014 A 
ATOM     34  C   UNL A   1      39.114  23.400  26.058  1.00  0.00     0.014 A 
ATOM     35  C   UNL A   1      41.159  23.471  27.949  1.00  0.00     0.010 A 
ATOM     36  C   UNL A   1      39.636  24.625  26.470  1.00  0.00     0.010 A 
ATOM     37  C   UNL A   1      40.675  24.671  27.405  1.00  0.00    -0.014 A 
BRANCH  37  38
ATOM     38  C   UNL A   1      41.319  25.968  27.718  1.00  0.00     0.031 A 
ATOM     39  C   UNL A   1      42.743  26.246  27.332  1.00  0.00     0.074 A 
ATOM     40  C   UNL A   1      40.630  26.859  28.457  1.00  0.00     0.049 A 
ATOM     41  N   UNL A   1      43.444  27.336  27.510  1.00  0.00    -0.248 NA
ATOM     42  C   UNL A   1      43.487  25.153  26.685  1.00  0.00     0.031 C 
ATOM     43  C   UNL A   1      39.281  26.645  28.990  1.00  0.00     0.029 A 
ATOM     44  N   UNL A   1      40.973  28.105  28.915  1.00  0.00    -0.354 N 
ATOM     45  C   UNL A   1      44.711  27.062  27.011  1.00  0.00     0.074 A 
ATOM     46  C   UNL A   1      44.695  25.688  26.556  1.00  0.00     0.031 C 
ATOM     47  C   UNL A   1      38.912  27.722  29.700  1.00  0.00     0.029 A 
ATOM     48  C   UNL A   1      39.998  28.696  29.685  1.00  0.00     0.049 A 
ATOM     49  H   UNL A   1      41.835  28.535  28.713  1.00  0.00     0.167 HD
ATOM     50  C   UNL A   1      45.780  27.890  26.919  1.00  0.00     0.034 A 
ATOM     51  C   UNL A   1      39.980  29.890  30.306  1.00  0.00     0.034 A 
ATOM     52  C   UNL A   1      45.777  29.256  27.372  1.00  0.00     0.049 A 
ATOM     53  C   UNL A   1      41.159  30.808  30.144  1.00  0.00     0.074 A 
ATOM     54  C   UNL A   1      46.773  30.210  27.243  1.00  0.00     0.029 A 
ATOM     55  N   UNL A   1      44.737  29.859  28.064  1.00  0.00    -0.354 N 
ATOM     56  N   UNL A   1      42.279  30.605  29.491  1.00  0.00    -0.248 NA
ATOM     57  C   UNL A   1      41.054  32.139  30.758  1.00  0.00     0.031 C 
ATOM     58  C   UNL A   1      46.347  31.377  27.885  1.00  0.00     0.029 A 
ATOM     59  C   UNL A   1      45.070  31.166  28.378  1.00  0.00     0.049 A 
ATOM     60  H   UNL A   1      43.887  29.421  28.296  1.00  0.00     0.167 HD
ATOM     61  C   UNL A   1      42.993  31.792  29.580  1.00  0.00     0.074 A 
ATOM     62  C   UNL A   1      42.170  32.717  30.335  1.00  0.00     0.031 C 
ATOM     63  C   UNL A   1      44.221  32.089  29.090  1.00  0.00     0.034 A 
BRANCH  50  64
ATOM     64  C   UNL A   1      47.027  27.361  26.255  1.00  0.00     0.023 A 
ATOM     65  C   UNL A   1      47.247  27.620  24.886  1.00  0.00     0.012 A 
ATOM     66  C   UNL A   1      48.013  26.676  26.992  1.00  0.00     0.148 A 
ATOM     67  C   UNL A   1      48.409  27.177  24.254  1.00  0.00     0.002 A 
ATOM     68  C   UNL A   1      49.189  26.277  26.366  1.00  0.00     0.091 A 
ATOM     69  F   UNL A   1      47.783  26.423  28.288  1.00  0.00    -0.205 F 
ATOM     70  C   UNL A   1      49.383  26.516  24.996  1.00  0.00     0.022 A 
BRANCH  68  71
ATOM     71  S   UNL A   1      50.542  25.489  27.248  1.00  0.00     0.127 S 
ATOM     72  O   UNL A   1      51.530  25.323  26.183  1.00  0.00    -0.237 OA
ATOM     73  O   UNL A   1      50.888  26.500  28.248  1.00  0.00    -0.237 OA
ATOM     74  O   UNL A   1      50.000  24.253  27.795  1.00  0.00    -0.744 OA
ENDBRANCH  68  71
ENDBRANCH  50  64
BRANCH  51  75
ATOM     75  C   UNL A   1      38.769  30.315  31.063  1.00  0.00     0.023 A 
ATOM     76  C   UNL A   1      38.683  30.044  32.442  1.00  0.00     0.012 A 
ATOM     77  C   UNL A   1      37.722  31.015  30.434  1.00  0.00     0.148 A 
ATOM     78  C   UNL A   1      37.560  30.429  33.174  1.00  0.00     0.002 A 
ATOM     79  C   UNL A   1      36.630  31.443  31.179  1.00  0.00     0.091 A 
ATOM     80  F   UNL A   1      37.822  31.260  29.120  1.00  0.00    -0.205 F 
ATOM     81  C   UNL A   1      36.539  31.135  32.546  1.00  0.00     0.022 A 
BRANCH  79  82
ATOM     82  S   UNL A   1      35.333  32.472  30.484  1.00  0.00     0.127 S 
ATOM     83  O   UNL A   1      34.391  32.557  31.597  1.00  0.00    -0.237 OA
ATOM     84  O   UNL A   1      36.054  33.711  30.191  1.00  0.00    -0.237 OA
ATOM     85  O   UNL A   1      34.857  31.762  29.304  1.00  0.00    -0.744 OA
ENDBRANCH  79  82
ENDBRANCH  51  75
BRANCH  63  86
ATOM     86  C   UNL A   1      44.741  33.486  29.310  1.00  0.00     0.023 A 
ATOM     87  C   UNL A   1      45.461  33.796  30.480  1.00  0.00     0.012 A 
ATOM     88  C   UNL A   1      44.566  34.476  28.322  1.00  0.00     0.148 A 
ATOM     89  C   UNL A   1      45.966  35.080  30.681  1.00  0.00     0.002 A 
ATOM     90  C   UNL A   1      45.120  35.736  28.504  1.00  0.00     0.091 A 
ATOM     91  F   UNL A   1      43.860  34.166  27.224  1.00  0.00    -0.205 F 
ATOM     92  C   UNL A   1      45.807  36.046  29.689  1.00  0.00     0.022 A 
BRANCH  90  93
ATOM     93  S   UNL A   1      45.052  37.009  27.238  1.00  0.00     0.127 S 
ATOM     94  O   UNL A   1      45.542  38.178  27.966  1.00  0.00    -0.237 OA
ATOM     95  O   UNL A   1      45.973  36.489  26.228  1.00  0.00    -0.237 OA
ATOM     96  O   UNL A   1      43.661  37.076  26.810  1.00  0.00    -0.744 OA
ENDBRANCH  90  93
ENDBRANCH  63  86
ENDBRANCH  37  38
ENDBRANCH  29  32
ENDBRANCH  27  28
ENDBRANCH   1  27
TORSDOF 17
ENDMDL
MODEL 3
REMARK VINA RESULT:     -12.2      2.841      8.717
REMARK SMILES NC(=O)N[C@@H](Cc1ccc2c(c1)CCCC2)C(=O)NCCCCNC(=O)c1ccc(-c2c3nc(c(-c4cccc(S(=O)(=O)[O-])c4F)c4ccc([nH]4)c(-c4cccc(S(=O)(=O)[O-])c4F)c4nc(c(-c5cccc(S(=O)(=O)[O-])c5F)c5ccc2[nH]5)C=C4)C=C3)cc1
REMARK SMILES IDX 22 1 21 2 20 3 19 4 17 5 18 6 5 8 4 9 1 10 2 11 3 14 6 16
REMARK SMILES IDX 7 17 8 18 12 19 9 20 11 21 10 22 13 23 16 24 14 25 15 26
REMARK SMILES IDX 23 27 24 28 25 29 26 31 27 32 28 33 89 34 29 35 88 36 30 37
REMARK SMILES IDX 31 38 32 39 82 40 33 41 87 42 81 43 83 44 34 45 86 46 80 47
REMARK SMILES IDX 79 48 35 50 67 51 47 52 66 53 48 54 51 55 65 56 84 57 49 58
REMARK SMILES IDX 50 59 64 61 85 62 52 63 36 64 37 65 45 66 38 67 40 68 46 69
REMARK SMILES IDX 39 70 41 71 42 72 43 73 44 74 68 75 69 76 77 77 70 78 72 79
REMARK SMILES IDX 78 80 71 81 73 82 74 83 75 84 76 85 53 86 54 87 62 88 55 89
REMARK SMILES IDX 57 90 63 91 56 92 58 93 59 94 60 95 61 96
REMARK H PARENT 19 7 1 12 1 13 4 15 24 30 83 49 51 60
REMARK Flexibility Score: inf
ROOT
ATOM      1  C   UNL A   1      31.702  31.576  26.871  1.00  0.00     0.023 C 
ENDROOT
BRANCH   1   2
ATOM      2  C   UNL A   1      31.991  30.091  26.635  1.00  0.00     0.023 C 
BRANCH   2   3
ATOM      3  C   UNL A   1      31.799  29.608  25.203  1.00  0.00     0.116 C 
BRANCH   3   4
ATOM      4  N   UNL A   1      33.004  29.638  24.391  1.00  0.00    -0.354 N 
ATOM      5  C   UNL A   1      33.578  28.659  23.630  1.00  0.00     0.242 C 
ATOM      6  O   UNL A   1      34.329  29.027  22.717  1.00  0.00    -0.273 OA
ATOM      7  H   UNL A   1      33.480  30.499  24.388  1.00  0.00     0.163 HD
BRANCH   5   8
ATOM      8  C   UNL A   1      33.254  27.150  23.773  1.00  0.00     0.177 C 
BRANCH   8   9
ATOM      9  N   UNL A   1      33.590  26.363  22.584  1.00  0.00    -0.326 N 
ATOM     10  N   UNL A   1      31.471  25.655  21.980  1.00  0.00    -0.352 N 
ATOM     11  C   UNL A   1      32.780  25.747  21.703  1.00  0.00     0.312 C 
ATOM     12  H   UNL A   1      30.863  25.208  21.347  1.00  0.00     0.161 HD
ATOM     13  H   UNL A   1      31.117  26.036  22.815  1.00  0.00     0.161 HD
ATOM     14  O   UNL A   1      33.239  25.250  20.675  1.00  0.00    -0.249 OA
ATOM     15  H   UNL A   1      34.553  26.271  22.401  1.00  0.00     0.166 HD
ENDBRANCH   8   9
BRANCH   8  16
ATOM     16  C   UNL A   1      33.712  26.492  25.092  1.00  0.00     0.070 C 
BRANCH  16  17
ATOM     17  C   UNL A   1      33.440  25.021  25.258  1.00  0.00    -0.045 A 
ATOM     18  C   UNL A   1      32.161  24.547  25.565  1.00  0.00     0.004 A 
ATOM     19  C   UNL A   1      34.475  24.098  25.049  1.00  0.00     0.007 A 
ATOM     20  C   UNL A   1      31.914  23.173  25.612  1.00  0.00     0.004 A 
ATOM     21  C   UNL A   1      34.230  22.718  25.060  1.00  0.00    -0.045 A 
ATOM     22  C   UNL A   1      32.933  22.251  25.332  1.00  0.00    -0.045 A 
ATOM     23  C   UNL A   1      35.337  21.788  24.626  1.00  0.00     0.036 C 
ATOM     24  C   UNL A   1      32.622  20.775  25.357  1.00  0.00     0.036 C 
ATOM     25  C   UNL A   1      35.064  20.319  24.939  1.00  0.00     0.005 C 
ATOM     26  C   UNL A   1      33.633  19.946  24.575  1.00  0.00     0.005 C 
ENDBRANCH  16  17
ENDBRANCH   8  16
ENDBRANCH   5   8
ENDBRANCH   3   4
ENDBRANCH   2   3
ENDBRANCH   1   2
BRANCH   1  27
ATOM     27  C   UNL A   1      32.898  32.460  27.227  1.00  0.00     0.116 C 
BRANCH  27  28
ATOM     28  N   UNL A   1      32.552  33.823  27.600  1.00  0.00    -0.352 N 
ATOM     29  C   UNL A   1      33.136  34.651  28.534  1.00  0.00     0.251 C 
ATOM     30  H   UNL A   1      31.789  34.210  27.113  1.00  0.00     0.163 HD
ATOM     31  O   UNL A   1      32.664  35.774  28.710  1.00  0.00    -0.269 OA
BRANCH  29  32
ATOM     32  C   UNL A   1      34.303  34.211  29.345  1.00  0.00     0.039 A 
ATOM     33  C   UNL A   1      34.054  33.528  30.542  1.00  0.00     0.014 A 
ATOM     34  C   UNL A   1      35.624  34.467  28.969  1.00  0.00     0.014 A 
ATOM     35  C   UNL A   1      35.118  33.032  31.303  1.00  0.00     0.010 A 
ATOM     36  C   UNL A   1      36.685  33.935  29.700  1.00  0.00     0.010 A 
ATOM     37  C   UNL A   1      36.440  33.197  30.863  1.00  0.00    -0.014 A 
BRANCH  37  38
ATOM     38  C   UNL A   1      37.565  32.512  31.543  1.00  0.00     0.031 A 
ATOM     39  C   UNL A   1      38.275  31.354  30.903  1.00  0.00     0.074 A 
ATOM     40  C   UNL A   1      37.868  32.882  32.803  1.00  0.00     0.049 A 
ATOM     41  N   UNL A   1      39.290  30.664  31.354  1.00  0.00    -0.248 NA
ATOM     42  C   UNL A   1      37.766  30.893  29.601  1.00  0.00     0.031 C 
ATOM     43  C   UNL A   1      37.163  33.916  33.568  1.00  0.00     0.029 A 
ATOM     44  N   UNL A   1      38.820  32.417  33.673  1.00  0.00    -0.354 N 
ATOM     45  C   UNL A   1      39.538  29.682  30.403  1.00  0.00     0.074 A 
ATOM     46  C   UNL A   1      38.541  29.841  29.366  1.00  0.00     0.031 C 
ATOM     47  C   UNL A   1      37.709  34.007  34.790  1.00  0.00     0.029 A 
ATOM     48  C   UNL A   1      38.789  33.033  34.902  1.00  0.00     0.049 A 
ATOM     49  H   UNL A   1      39.464  31.710  33.440  1.00  0.00     0.167 HD
ATOM     50  C   UNL A   1      40.522  28.751  30.387  1.00  0.00     0.034 A 
ATOM     51  C   UNL A   1      39.548  32.837  35.997  1.00  0.00     0.034 A 
ATOM     52  C   UNL A   1      41.509  28.609  31.426  1.00  0.00     0.049 A 
ATOM     53  C   UNL A   1      40.665  31.834  35.932  1.00  0.00     0.074 A 
ATOM     54  C   UNL A   1      42.604  27.763  31.465  1.00  0.00     0.029 A 
ATOM     55  N   UNL A   1      41.510  29.316  32.619  1.00  0.00    -0.354 N 
ATOM     56  N   UNL A   1      41.011  31.048  34.940  1.00  0.00    -0.248 NA
ATOM     57  C   UNL A   1      41.528  31.724  37.116  1.00  0.00     0.031 C 
ATOM     58  C   UNL A   1      43.246  27.934  32.695  1.00  0.00     0.029 A 
ATOM     59  C   UNL A   1      42.577  28.917  33.407  1.00  0.00     0.049 A 
ATOM     60  H   UNL A   1      40.848  30.000  32.869  1.00  0.00     0.167 HD
ATOM     61  C   UNL A   1      42.155  30.382  35.362  1.00  0.00     0.074 A 
ATOM     62  C   UNL A   1      42.452  30.871  36.694  1.00  0.00     0.031 C 
ATOM     63  C   UNL A   1      42.887  29.446  34.712  1.00  0.00     0.034 A 
BRANCH  50  64
ATOM     64  C   UNL A   1      40.617  27.845  29.184  1.00  0.00     0.023 A 
ATOM     65  C   UNL A   1      39.760  26.729  29.087  1.00  0.00     0.012 A 
ATOM     66  C   UNL A   1      41.494  28.134  28.119  1.00  0.00     0.148 A 
ATOM     67  C   UNL A   1      39.798  25.897  27.968  1.00  0.00     0.002 A 
ATOM     68  C   UNL A   1      41.494  27.326  26.988  1.00  0.00     0.091 A 
ATOM     69  F   UNL A   1      42.314  29.189  28.234  1.00  0.00    -0.205 F 
ATOM     70  C   UNL A   1      40.656  26.201  26.916  1.00  0.00     0.022 A 
BRANCH  68  71
ATOM     71  S   UNL A   1      42.504  27.674  25.544  1.00  0.00     0.127 S 
ATOM     72  O   UNL A   1      42.245  26.499  24.712  1.00  0.00    -0.237 OA
ATOM     73  O   UNL A   1      41.910  28.916  25.046  1.00  0.00    -0.237 OA
ATOM     74  O   UNL A   1      43.871  27.806  26.029  1.00  0.00    -0.744 OA
ENDBRANCH  68  71
ENDBRANCH  50  64
BRANCH  51  75
ATOM     75  C   UNL A   1      39.329  33.671  37.211  1.00  0.00     0.023 A 
ATOM     76  C   UNL A   1      39.805  34.996  37.237  1.00  0.00     0.012 A 
ATOM     77  C   UNL A   1      38.623  33.173  38.323  1.00  0.00     0.148 A 
ATOM     78  C   UNL A   1      39.615  35.799  38.362  1.00  0.00     0.002 A 
ATOM     79  C   UNL A   1      38.390  33.995  39.419  1.00  0.00     0.091 A 
ATOM     80  F   UNL A   1      38.181  31.909  38.280  1.00  0.00    -0.205 F 
ATOM     81  C   UNL A   1      38.901  35.303  39.448  1.00  0.00     0.022 A 
BRANCH  79  82
ATOM     82  S   UNL A   1      37.367  33.485  40.805  1.00  0.00     0.127 S 
ATOM     83  O   UNL A   1      37.374  34.685  41.638  1.00  0.00    -0.237 OA
ATOM     84  O   UNL A   1      36.091  33.197  40.149  1.00  0.00    -0.237 OA
ATOM     85  O   UNL A   1      38.027  32.317  41.371  1.00  0.00    -0.744 OA
ENDBRANCH  79  82
ENDBRANCH  51  75
BRANCH  63  86
ATOM     86  C   UNL A   1      44.113  28.914  35.406  1.00  0.00     0.023 A 
ATOM     87  C   UNL A   1      45.366  29.521  35.195  1.00  0.00     0.012 A 
ATOM     88  C   UNL A   1      44.007  27.846  36.320  1.00  0.00     0.148 A 
ATOM     89  C   UNL A   1      46.502  29.050  35.854  1.00  0.00     0.002 A 
ATOM     90  C   UNL A   1      45.131  27.418  37.014  1.00  0.00     0.091 A 
ATOM     91  F   UNL A   1      42.809  27.268  36.493  1.00  0.00    -0.205 F 
ATOM     92  C   UNL A   1      46.383  28.008  36.771  1.00  0.00     0.022 A 
BRANCH  90  93
ATOM     93  S   UNL A   1      45.054  26.153  38.286  1.00  0.00     0.127 S 
ATOM     94  O   UNL A   1      46.460  26.028  38.668  1.00  0.00    -0.237 OA
ATOM     95  O   UNL A   1      44.202  26.781  39.295  1.00  0.00    -0.237 OA
ATOM     96  O   UNL A   1      44.472  24.978  37.650  1.00  0.00    -0.744 OA
ENDBRANCH  90  93
ENDBRANCH  63  86
ENDBRANCH  37  38
ENDBRANCH  29  32
ENDBRANCH  27  28
ENDBRANCH   1  27
TORSDOF 17
ENDMDL
