MODEL 1
REMARK VINA RESULT:     -11.1      0.000      0.000
REMARK SMILES Cc1csc(CSCC[C@H]([NH3+])C(=O)NCCCCNC(=O)c2ccc(-c3c4nc(c(-c5cccc(S(=O)(=O)[O-])c5F)c5ccc([nH]5)c(-c5cccc(S(=O)(=O)[O-])c5F)c5nc(c(-c6cccc(S(=O)(=O)[O-])c6F)c6ccc3[nH]6)C=C5)C=C4)cc2)n1
REMARK SMILES IDX 15 1 14 2 12 3 13 4 10 6 9 7 8 8 7 9 6 10 5 11 1 12 2 13
REMARK SMILES IDX 3 14 85 15 4 16 11 17 16 21 17 22 18 23 19 24 20 25 21 27
REMARK SMILES IDX 22 28 23 29 84 30 24 31 83 32 25 33 26 34 27 35 77 36 28 37
REMARK SMILES IDX 82 38 76 39 78 40 29 41 81 42 75 43 74 44 30 46 62 47 42 48
REMARK SMILES IDX 61 49 43 50 46 51 60 52 79 53 44 54 45 55 59 57 80 58 47 59
REMARK SMILES IDX 31 60 32 61 40 62 33 63 35 64 41 65 34 66 36 67 37 68 38 69
REMARK SMILES IDX 39 70 63 71 64 72 72 73 65 74 67 75 73 76 66 77 68 78 69 79
REMARK SMILES IDX 70 80 71 81 48 82 49 83 57 84 50 85 52 86 58 87 51 88 53 89
REMARK SMILES IDX 54 90 55 91 56 92
REMARK H PARENT 14 5 11 18 11 19 11 20 19 26 78 45 46 56
REMARK Flexibility Score: inf
ROOT
ATOM      1  C   UNL A   1      32.610  27.226  23.863  1.00  0.00     0.116 C 
ENDROOT
BRANCH   1   2
ATOM      2  N   UNL A   1      33.001  26.797  22.532  1.00  0.00    -0.351 N 
ATOM      3  C   UNL A   1      33.088  25.562  21.964  1.00  0.00     0.278 C 
ATOM      4  O   UNL A   1      33.284  25.509  20.745  1.00  0.00    -0.268 OA
ATOM      5  H   UNL A   1      33.249  27.536  21.929  1.00  0.00     0.163 HD
BRANCH   3   6
ATOM      6  C   UNL A   1      33.012  24.249  22.767  1.00  0.00     0.271 C 
BRANCH   6   7
ATOM      7  C   UNL A   1      34.255  23.347  22.895  1.00  0.00     0.086 C 
BRANCH   7   8
ATOM      8  C   UNL A   1      35.205  23.487  24.085  1.00  0.00     0.076 C 
BRANCH   8   9
ATOM      9  S   UNL A   1      34.646  22.702  25.633  1.00  0.00    -0.154 SA
BRANCH   9  10
ATOM     10  C   UNL A   1      35.365  21.032  25.503  1.00  0.00     0.137 C 
BRANCH  10  11
ATOM     11  C   UNL A   1      34.462  19.948  24.989  1.00  0.00     0.103 A 
ATOM     12  C   UNL A   1      33.939  16.733  23.487  1.00  0.00     0.067 C 
ATOM     13  C   UNL A   1      33.735  18.069  24.078  1.00  0.00     0.049 A 
ATOM     14  C   UNL A   1      32.532  18.740  24.146  1.00  0.00     0.090 A 
ATOM     15  N   UNL A   1      34.817  18.731  24.627  1.00  0.00    -0.246 NA
ATOM     16  S   UNL A   1      32.788  20.314  24.747  1.00  0.00    -0.126 S 
ENDBRANCH  10  11
ENDBRANCH   9  10
ENDBRANCH   8   9
ENDBRANCH   7   8
ENDBRANCH   6   7
BRANCH   6  17
ATOM     17  N   UNL A   1      31.790  23.489  22.409  1.00  0.00    -0.347 N 
ATOM     18  H   UNL A   1      30.988  23.883  22.898  1.00  0.00     0.345 HD
ATOM     19  H   UNL A   1      31.906  22.512  22.679  1.00  0.00     0.345 HD
ATOM     20  H   UNL A   1      31.638  23.546  21.402  1.00  0.00     0.345 HD
ENDBRANCH   6  17
ENDBRANCH   3   6
ENDBRANCH   1   2
BRANCH   1  21
ATOM     21  C   UNL A   1      32.994  28.673  24.174  1.00  0.00     0.023 C 
BRANCH  21  22
ATOM     22  C   UNL A   1      31.963  29.471  24.990  1.00  0.00     0.023 C 
BRANCH  22  23
ATOM     23  C   UNL A   1      32.363  29.843  26.425  1.00  0.00     0.116 C 
BRANCH  23  24
ATOM     24  N   UNL A   1      32.209  31.254  26.744  1.00  0.00    -0.352 N 
ATOM     25  C   UNL A   1      33.103  32.107  27.359  1.00  0.00     0.251 C 
ATOM     26  H   UNL A   1      31.348  31.656  26.487  1.00  0.00     0.163 HD
ATOM     27  O   UNL A   1      32.813  33.289  27.528  1.00  0.00    -0.269 OA
BRANCH  25  28
ATOM     28  C   UNL A   1      34.411  31.601  27.833  1.00  0.00     0.039 A 
ATOM     29  C   UNL A   1      35.442  32.489  28.124  1.00  0.00     0.014 A 
ATOM     30  C   UNL A   1      34.628  30.236  27.979  1.00  0.00     0.014 A 
ATOM     31  C   UNL A   1      36.655  32.002  28.639  1.00  0.00     0.010 A 
ATOM     32  C   UNL A   1      35.792  29.768  28.610  1.00  0.00     0.010 A 
ATOM     33  C   UNL A   1      36.834  30.639  28.959  1.00  0.00    -0.014 A 
BRANCH  33  34
ATOM     34  C   UNL A   1      38.071  30.167  29.681  1.00  0.00     0.031 A 
ATOM     35  C   UNL A   1      38.417  30.605  31.093  1.00  0.00     0.074 A 
ATOM     36  C   UNL A   1      38.959  29.370  29.040  1.00  0.00     0.049 A 
ATOM     37  N   UNL A   1      39.439  30.255  31.840  1.00  0.00    -0.248 NA
ATOM     38  C   UNL A   1      37.536  31.591  31.737  1.00  0.00     0.031 C 
ATOM     39  C   UNL A   1      38.873  28.968  27.634  1.00  0.00     0.029 A 
ATOM     40  N   UNL A   1      40.114  28.761  29.479  1.00  0.00    -0.354 N 
ATOM     41  C   UNL A   1      39.350  31.008  33.008  1.00  0.00     0.074 A 
ATOM     42  C   UNL A   1      38.202  31.876  32.847  1.00  0.00     0.031 C 
ATOM     43  C   UNL A   1      39.893  28.145  27.342  1.00  0.00     0.029 A 
ATOM     44  C   UNL A   1      40.739  27.992  28.521  1.00  0.00     0.049 A 
ATOM     45  H   UNL A   1      40.462  28.864  30.395  1.00  0.00     0.167 HD
ATOM     46  C   UNL A   1      40.111  30.964  34.133  1.00  0.00     0.034 A 
ATOM     47  C   UNL A   1      41.862  27.245  28.563  1.00  0.00     0.034 A 
ATOM     48  C   UNL A   1      41.213  30.060  34.337  1.00  0.00     0.049 A 
ATOM     49  C   UNL A   1      42.637  27.130  29.847  1.00  0.00     0.074 A 
ATOM     50  C   UNL A   1      41.952  29.853  35.491  1.00  0.00     0.029 A 
ATOM     51  N   UNL A   1      41.745  29.222  33.373  1.00  0.00    -0.354 N 
ATOM     52  N   UNL A   1      42.408  27.706  31.000  1.00  0.00    -0.248 NA
ATOM     53  C   UNL A   1      43.804  26.235  29.845  1.00  0.00     0.031 C 
ATOM     54  C   UNL A   1      42.952  28.915  35.213  1.00  0.00     0.029 A 
ATOM     55  C   UNL A   1      42.811  28.507  33.898  1.00  0.00     0.049 A 
ATOM     56  H   UNL A   1      41.416  29.145  32.448  1.00  0.00     0.167 HD
ATOM     57  C   UNL A   1      43.382  27.224  31.868  1.00  0.00     0.074 A 
ATOM     58  C   UNL A   1      44.188  26.287  31.114  1.00  0.00     0.031 C 
ATOM     59  C   UNL A   1      43.592  27.543  33.168  1.00  0.00     0.034 A 
BRANCH  46  60
ATOM     60  C   UNL A   1      39.735  31.883  35.275  1.00  0.00     0.023 A 
ATOM     61  C   UNL A   1      40.195  33.218  35.276  1.00  0.00     0.012 A 
ATOM     62  C   UNL A   1      38.881  31.453  36.311  1.00  0.00     0.148 A 
ATOM     63  C   UNL A   1      39.863  34.087  36.315  1.00  0.00     0.002 A 
ATOM     64  C   UNL A   1      38.510  32.343  37.315  1.00  0.00     0.091 A 
ATOM     65  F   UNL A   1      38.453  30.182  36.304  1.00  0.00    -0.205 F 
ATOM     66  C   UNL A   1      39.015  33.652  37.328  1.00  0.00     0.022 A 
BRANCH  64  67
ATOM     67  S   UNL A   1      37.346  31.910  38.614  1.00  0.00     0.127 S 
ATOM     68  O   UNL A   1      36.256  32.853  38.357  1.00  0.00    -0.237 OA
ATOM     69  O   UNL A   1      37.030  30.517  38.292  1.00  0.00    -0.237 OA
ATOM     70  O   UNL A   1      38.055  32.097  39.868  1.00  0.00    -0.744 OA
ENDBRANCH  64  67
ENDBRANCH  46  60
BRANCH  47  71
ATOM     71  C   UNL A   1      42.292  26.493  27.348  1.00  0.00     0.023 A 
ATOM     72  C   UNL A   1      43.018  27.151  26.336  1.00  0.00     0.012 A 
ATOM     73  C   UNL A   1      42.024  25.117  27.216  1.00  0.00     0.148 A 
ATOM     74  C   UNL A   1      43.444  26.459  25.201  1.00  0.00     0.002 A 
ATOM     75  C   UNL A   1      42.507  24.419  26.115  1.00  0.00     0.091 A 
ATOM     76  F   UNL A   1      41.323  24.512  28.186  1.00  0.00    -0.205 F 
ATOM     77  C   UNL A   1      43.200  25.092  25.098  1.00  0.00     0.022 A 
BRANCH  75  78
ATOM     78  S   UNL A   1      42.374  22.634  25.975  1.00  0.00     0.127 S 
ATOM     79  O   UNL A   1      43.028  22.386  24.693  1.00  0.00    -0.237 OA
ATOM     80  O   UNL A   1      43.124  22.185  27.148  1.00  0.00    -0.237 OA
ATOM     81  O   UNL A   1      40.948  22.339  26.025  1.00  0.00    -0.744 OA
ENDBRANCH  75  78
ENDBRANCH  47  71
BRANCH  59  82
ATOM     82  C   UNL A   1      44.722  26.852  33.891  1.00  0.00     0.023 A 
ATOM     83  C   UNL A   1      45.996  27.451  33.949  1.00  0.00     0.012 A 
ATOM     84  C   UNL A   1      44.500  25.638  34.572  1.00  0.00     0.148 A 
ATOM     85  C   UNL A   1      47.040  26.838  34.644  1.00  0.00     0.002 A 
ATOM     86  C   UNL A   1      45.530  25.058  35.304  1.00  0.00     0.091 A 
ATOM     87  F   UNL A   1      43.288  25.072  34.491  1.00  0.00    -0.205 F 
ATOM     88  C   UNL A   1      46.804  25.649  35.330  1.00  0.00     0.022 A 
BRANCH  86  89
ATOM     89  S   UNL A   1      45.295  23.578  36.296  1.00  0.00     0.127 S 
ATOM     90  O   UNL A   1      44.550  24.102  37.439  1.00  0.00    -0.237 OA
ATOM     91  O   UNL A   1      44.516  22.724  35.398  1.00  0.00    -0.237 OA
ATOM     92  O   UNL A   1      46.630  23.079  36.598  1.00  0.00    -0.744 OA
ENDBRANCH  86  89
ENDBRANCH  59  82
ENDBRANCH  33  34
ENDBRANCH  25  28
ENDBRANCH  23  24
ENDBRANCH  22  23
ENDBRANCH  21  22
ENDBRANCH   1  21
TORSDOF 20
ENDMDL
MODEL 2
REMARK VINA RESULT:     -10.9      2.301      3.476
REMARK SMILES Cc1csc(CSCC[C@H]([NH3+])C(=O)NCCCCNC(=O)c2ccc(-c3c4nc(c(-c5cccc(S(=O)(=O)[O-])c5F)c5ccc([nH]5)c(-c5cccc(S(=O)(=O)[O-])c5F)c5nc(c(-c6cccc(S(=O)(=O)[O-])c6F)c6ccc3[nH]6)C=C5)C=C4)cc2)n1
REMARK SMILES IDX 15 1 14 2 12 3 13 4 10 6 9 7 8 8 7 9 6 10 5 11 1 12 2 13
REMARK SMILES IDX 3 14 85 15 4 16 11 17 16 21 17 22 18 23 19 24 20 25 21 27
REMARK SMILES IDX 22 28 23 29 84 30 24 31 83 32 25 33 26 34 27 35 77 36 28 37
REMARK SMILES IDX 82 38 76 39 78 40 29 41 81 42 75 43 74 44 30 46 62 47 42 48
REMARK SMILES IDX 61 49 43 50 46 51 60 52 79 53 44 54 45 55 59 57 80 58 47 59
REMARK SMILES IDX 31 60 32 61 40 62 33 63 35 64 41 65 34 66 36 67 37 68 38 69
REMARK SMILES IDX 39 70 63 71 64 72 72 73 65 74 67 75 73 76 66 77 68 78 69 79
REMARK SMILES IDX 70 80 71 81 48 82 49 83 57 84 50 85 52 86 58 87 51 88 53 89
REMARK SMILES IDX 54 90 55 91 56 92
REMARK H PARENT 14 5 11 18 11 19 11 20 19 26 78 45 46 56
REMARK Flexibility Score: inf
ROOT
ATOM      1  C   UNL A   1      32.737  26.478  26.079  1.00  0.00     0.116 C 
ENDROOT
BRANCH   1   2
ATOM      2  N   UNL A   1      32.900  25.158  26.662  1.00  0.00    -0.351 N 
ATOM      3  C   UNL A   1      32.203  23.999  26.496  1.00  0.00     0.278 C 
ATOM      4  O   UNL A   1      32.679  22.973  26.993  1.00  0.00    -0.268 OA
ATOM      5  H   UNL A   1      33.654  25.088  27.294  1.00  0.00     0.163 HD
BRANCH   3   6
ATOM      6  C   UNL A   1      30.842  23.920  25.777  1.00  0.00     0.271 C 
BRANCH   6   7
ATOM      7  C   UNL A   1      30.761  24.107  24.250  1.00  0.00     0.086 C 
BRANCH   7   8
ATOM      8  C   UNL A   1      31.613  23.252  23.311  1.00  0.00     0.076 C 
BRANCH   8   9
ATOM      9  S   UNL A   1      33.193  23.997  22.786  1.00  0.00    -0.154 SA
BRANCH   9  10
ATOM     10  C   UNL A   1      32.654  25.204  21.529  1.00  0.00     0.137 C 
BRANCH  10  11
ATOM     11  C   UNL A   1      32.285  26.572  22.024  1.00  0.00     0.103 A 
ATOM     12  C   UNL A   1      29.859  29.121  22.718  1.00  0.00     0.067 C 
ATOM     13  C   UNL A   1      31.120  28.374  22.559  1.00  0.00     0.049 A 
ATOM     14  C   UNL A   1      32.387  28.899  22.708  1.00  0.00     0.090 A 
ATOM     15  N   UNL A   1      31.068  27.030  22.243  1.00  0.00    -0.246 NA
ATOM     16  S   UNL A   1      33.546  27.731  22.265  1.00  0.00    -0.126 S 
ENDBRANCH  10  11
ENDBRANCH   9  10
ENDBRANCH   8   9
ENDBRANCH   7   8
ENDBRANCH   6   7
BRANCH   6  17
ATOM     17  N   UNL A   1      29.823  24.717  26.504  1.00  0.00    -0.347 N 
ATOM     18  H   UNL A   1      30.254  25.561  26.879  1.00  0.00     0.345 HD
ATOM     19  H   UNL A   1      29.440  24.161  27.269  1.00  0.00     0.345 HD
ATOM     20  H   UNL A   1      29.072  24.973  25.862  1.00  0.00     0.345 HD
ENDBRANCH   6  17
ENDBRANCH   3   6
ENDBRANCH   1   2
BRANCH   1  21
ATOM     21  C   UNL A   1      31.947  27.441  26.966  1.00  0.00     0.023 C 
BRANCH  21  22
ATOM     22  C   UNL A   1      31.428  28.709  26.268  1.00  0.00     0.023 C 
BRANCH  22  23
ATOM     23  C   UNL A   1      32.474  29.781  25.928  1.00  0.00     0.116 C 
BRANCH  23  24
ATOM     24  N   UNL A   1      32.160  31.109  26.436  1.00  0.00    -0.352 N 
ATOM     25  C   UNL A   1      32.918  31.930  27.245  1.00  0.00     0.251 C 
ATOM     26  H   UNL A   1      31.285  31.470  26.165  1.00  0.00     0.163 HD
ATOM     27  O   UNL A   1      32.503  33.043  27.559  1.00  0.00    -0.269 OA
BRANCH  25  28
ATOM     28  C   UNL A   1      34.230  31.470  27.753  1.00  0.00     0.039 A 
ATOM     29  C   UNL A   1      35.244  32.389  28.008  1.00  0.00     0.014 A 
ATOM     30  C   UNL A   1      34.469  30.118  27.967  1.00  0.00     0.014 A 
ATOM     31  C   UNL A   1      36.461  31.949  28.555  1.00  0.00     0.010 A 
ATOM     32  C   UNL A   1      35.635  29.701  28.629  1.00  0.00     0.010 A 
ATOM     33  C   UNL A   1      36.660  30.606  28.942  1.00  0.00    -0.014 A 
BRANCH  33  34
ATOM     34  C   UNL A   1      37.899  30.191  29.696  1.00  0.00     0.031 A 
ATOM     35  C   UNL A   1      38.186  30.641  31.117  1.00  0.00     0.074 A 
ATOM     36  C   UNL A   1      38.840  29.439  29.077  1.00  0.00     0.049 A 
ATOM     37  N   UNL A   1      39.204  30.338  31.891  1.00  0.00    -0.248 NA
ATOM     38  C   UNL A   1      37.243  31.582  31.740  1.00  0.00     0.031 C 
ATOM     39  C   UNL A   1      38.810  29.037  27.669  1.00  0.00     0.029 A 
ATOM     40  N   UNL A   1      40.011  28.884  29.546  1.00  0.00    -0.354 N 
ATOM     41  C   UNL A   1      39.048  31.082  33.057  1.00  0.00     0.074 A 
ATOM     42  C   UNL A   1      37.866  31.894  32.868  1.00  0.00     0.031 C 
ATOM     43  C   UNL A   1      39.875  28.265  27.402  1.00  0.00     0.029 A 
ATOM     44  C   UNL A   1      40.696  28.149  28.602  1.00  0.00     0.049 A 
ATOM     45  H   UNL A   1      40.329  29.000  30.470  1.00  0.00     0.167 HD
ATOM     46  C   UNL A   1      39.781  31.071  34.201  1.00  0.00     0.034 A 
ATOM     47  C   UNL A   1      41.852  27.456  28.673  1.00  0.00     0.034 A 
ATOM     48  C   UNL A   1      40.919  30.220  34.433  1.00  0.00     0.049 A 
ATOM     49  C   UNL A   1      42.598  27.374  29.976  1.00  0.00     0.074 A 
ATOM     50  C   UNL A   1      41.637  30.044  35.606  1.00  0.00     0.029 A 
ATOM     51  N   UNL A   1      41.516  29.410  33.481  1.00  0.00    -0.354 N 
ATOM     52  N   UNL A   1      42.312  27.934  31.124  1.00  0.00    -0.248 NA
ATOM     53  C   UNL A   1      43.806  26.535  30.004  1.00  0.00     0.031 C 
ATOM     54  C   UNL A   1      42.687  29.155  35.352  1.00  0.00     0.029 A 
ATOM     55  C   UNL A   1      42.600  28.745  34.034  1.00  0.00     0.049 A 
ATOM     56  H   UNL A   1      41.215  29.320  32.549  1.00  0.00     0.167 HD
ATOM     57  C   UNL A   1      43.284  27.497  32.017  1.00  0.00     0.074 A 
ATOM     58  C   UNL A   1      44.153  26.602  31.283  1.00  0.00     0.031 C 
ATOM     59  C   UNL A   1      43.445  27.821  33.322  1.00  0.00     0.034 A 
BRANCH  46  60
ATOM     60  C   UNL A   1      39.332  31.967  35.335  1.00  0.00     0.023 A 
ATOM     61  C   UNL A   1      38.412  31.478  36.287  1.00  0.00     0.012 A 
ATOM     62  C   UNL A   1      39.862  33.263  35.499  1.00  0.00     0.148 A 
ATOM     63  C   UNL A   1      37.982  32.281  37.344  1.00  0.00     0.002 A 
ATOM     64  C   UNL A   1      39.469  34.038  36.586  1.00  0.00     0.091 A 
ATOM     65  F   UNL A   1      40.731  33.720  34.586  1.00  0.00    -0.205 F 
ATOM     66  C   UNL A   1      38.516  33.556  37.497  1.00  0.00     0.022 A 
BRANCH  64  67
ATOM     67  S   UNL A   1      40.170  35.657  36.928  1.00  0.00     0.127 S 
ATOM     68  O   UNL A   1      41.605  35.377  36.855  1.00  0.00    -0.237 OA
ATOM     69  O   UNL A   1      39.652  36.458  35.817  1.00  0.00    -0.237 OA
ATOM     70  O   UNL A   1      39.672  36.043  38.237  1.00  0.00    -0.744 OA
ENDBRANCH  64  67
ENDBRANCH  46  60
BRANCH  47  71
ATOM     71  C   UNL A   1      42.349  26.729  27.469  1.00  0.00     0.023 A 
ATOM     72  C   UNL A   1      43.123  27.408  26.508  1.00  0.00     0.012 A 
ATOM     73  C   UNL A   1      42.096  25.354  27.297  1.00  0.00     0.148 A 
ATOM     74  C   UNL A   1      43.611  26.740  25.384  1.00  0.00     0.002 A 
ATOM     75  C   UNL A   1      42.639  24.679  26.210  1.00  0.00     0.091 A 
ATOM     76  F   UNL A   1      41.349  24.728  28.218  1.00  0.00    -0.205 F 
ATOM     77  C   UNL A   1      43.381  25.374  25.243  1.00  0.00     0.022 A 
BRANCH  75  78
ATOM     78  S   UNL A   1      42.524  22.897  26.030  1.00  0.00     0.127 S 
ATOM     79  O   UNL A   1      43.065  22.697  24.689  1.00  0.00    -0.237 OA
ATOM     80  O   UNL A   1      43.383  22.430  27.118  1.00  0.00    -0.237 OA
ATOM     81  O   UNL A   1      41.113  22.573  26.198  1.00  0.00    -0.744 OA
ENDBRANCH  75  78
ENDBRANCH  47  71
BRANCH  59  82
ATOM     82  C   UNL A   1      44.587  27.183  34.074  1.00  0.00     0.023 A 
ATOM     83  C   UNL A   1      45.836  27.831  34.147  1.00  0.00     0.012 A 
ATOM     84  C   UNL A   1      44.400  25.969  34.765  1.00  0.00     0.148 A 
ATOM     85  C   UNL A   1      46.890  27.266  34.867  1.00  0.00     0.002 A 
ATOM     86  C   UNL A   1      45.438  25.437  35.522  1.00  0.00     0.091 A 
ATOM     87  F   UNL A   1      43.211  25.356  34.669  1.00  0.00    -0.205 F 
ATOM     88  C   UNL A   1      46.687  26.077  35.564  1.00  0.00     0.022 A 
BRANCH  86  89
ATOM     89  S   UNL A   1      45.242  23.961  36.527  1.00  0.00     0.127 S 
ATOM     90  O   UNL A   1      44.856  22.968  35.526  1.00  0.00    -0.237 OA
ATOM     91  O   UNL A   1      46.585  23.782  37.080  1.00  0.00    -0.237 OA
ATOM     92  O   UNL A   1      44.219  24.279  37.515  1.00  0.00    -0.744 OA
ENDBRANCH  86  89
ENDBRANCH  59  82
ENDBRANCH  33  34
ENDBRANCH  25  28
ENDBRANCH  23  24
ENDBRANCH  22  23
ENDBRANCH  21  22
ENDBRANCH   1  21
TORSDOF 20
ENDMDL
MODEL 3
REMARK VINA RESULT:     -10.8      5.366     10.697
REMARK SMILES Cc1csc(CSCC[C@H]([NH3+])C(=O)NCCCCNC(=O)c2ccc(-c3c4nc(c(-c5cccc(S(=O)(=O)[O-])c5F)c5ccc([nH]5)c(-c5cccc(S(=O)(=O)[O-])c5F)c5nc(c(-c6cccc(S(=O)(=O)[O-])c6F)c6ccc3[nH]6)C=C5)C=C4)cc2)n1
REMARK SMILES IDX 15 1 14 2 12 3 13 4 10 6 9 7 8 8 7 9 6 10 5 11 1 12 2 13
REMARK SMILES IDX 3 14 85 15 4 16 11 17 16 21 17 22 18 23 19 24 20 25 21 27
REMARK SMILES IDX 22 28 23 29 84 30 24 31 83 32 25 33 26 34 27 35 77 36 28 37
REMARK SMILES IDX 82 38 76 39 78 40 29 41 81 42 75 43 74 44 30 46 62 47 42 48
REMARK SMILES IDX 61 49 43 50 46 51 60 52 79 53 44 54 45 55 59 57 80 58 47 59
REMARK SMILES IDX 31 60 32 61 40 62 33 63 35 64 41 65 34 66 36 67 37 68 38 69
REMARK SMILES IDX 39 70 63 71 64 72 72 73 65 74 67 75 73 76 66 77 68 78 69 79
REMARK SMILES IDX 70 80 71 81 48 82 49 83 57 84 50 85 52 86 58 87 51 88 53 89
REMARK SMILES IDX 54 90 55 91 56 92
REMARK H PARENT 14 5 11 18 11 19 11 20 19 26 78 45 46 56
REMARK Flexibility Score: inf
ROOT
ATOM      1  C   UNL A   1      34.393  23.538  25.204  1.00  0.00     0.116 C 
ENDROOT
BRANCH   1   2
ATOM      2  N   UNL A   1      33.766  23.351  26.501  1.00  0.00    -0.351 N 
ATOM      3  C   UNL A   1      32.469  23.141  26.861  1.00  0.00     0.278 C 
ATOM      4  O   UNL A   1      32.248  22.839  28.038  1.00  0.00    -0.268 OA
ATOM      5  H   UNL A   1      34.395  23.383  27.259  1.00  0.00     0.163 HD
BRANCH   3   6
ATOM      6  C   UNL A   1      31.279  23.314  25.896  1.00  0.00     0.271 C 
BRANCH   6   7
ATOM      7  C   UNL A   1      30.741  24.722  25.578  1.00  0.00     0.086 C 
BRANCH   7   8
ATOM      8  C   UNL A   1      30.390  25.121  24.144  1.00  0.00     0.076 C 
BRANCH   8   9
ATOM      9  S   UNL A   1      29.152  26.449  23.978  1.00  0.00    -0.154 SA
BRANCH   9  10
ATOM     10  C   UNL A   1      30.155  27.840  23.360  1.00  0.00     0.137 C 
BRANCH  10  11
ATOM     11  C   UNL A   1      31.546  27.965  23.912  1.00  0.00     0.103 A 
ATOM     12  C   UNL A   1      33.824  28.863  26.533  1.00  0.00     0.067 C 
ATOM     13  C   UNL A   1      33.246  28.414  25.253  1.00  0.00     0.049 A 
ATOM     14  C   UNL A   1      33.960  28.127  24.108  1.00  0.00     0.090 A 
ATOM     15  N   UNL A   1      31.878  28.248  25.156  1.00  0.00    -0.246 NA
ATOM     16  S   UNL A   1      32.883  27.815  22.825  1.00  0.00    -0.126 S 
ENDBRANCH  10  11
ENDBRANCH   9  10
ENDBRANCH   8   9
ENDBRANCH   7   8
ENDBRANCH   6   7
BRANCH   6  17
ATOM     17  N   UNL A   1      30.199  22.351  26.222  1.00  0.00    -0.347 N 
ATOM     18  H   UNL A   1      30.349  21.975  27.158  1.00  0.00     0.345 HD
ATOM     19  H   UNL A   1      30.209  21.588  25.545  1.00  0.00     0.345 HD
ATOM     20  H   UNL A   1      29.298  22.826  26.186  1.00  0.00     0.345 HD
ENDBRANCH   6  17
ENDBRANCH   3   6
ENDBRANCH   1   2
BRANCH   1  21
ATOM     21  C   UNL A   1      34.624  22.231  24.446  1.00  0.00     0.023 C 
BRANCH  21  22
ATOM     22  C   UNL A   1      35.678  21.290  25.055  1.00  0.00     0.023 C 
BRANCH  22  23
ATOM     23  C   UNL A   1      37.064  21.895  25.322  1.00  0.00     0.116 C 
BRANCH  23  24
ATOM     24  N   UNL A   1      38.128  20.914  25.473  1.00  0.00    -0.352 N 
ATOM     25  C   UNL A   1      39.368  21.062  26.063  1.00  0.00     0.251 C 
ATOM     26  H   UNL A   1      37.938  20.022  25.104  1.00  0.00     0.163 HD
ATOM     27  O   UNL A   1      40.140  20.108  26.125  1.00  0.00    -0.269 OA
BRANCH  25  28
ATOM     28  C   UNL A   1      39.781  22.374  26.609  1.00  0.00     0.039 A 
ATOM     29  C   UNL A   1      40.714  22.441  27.639  1.00  0.00     0.014 A 
ATOM     30  C   UNL A   1      39.234  23.550  26.111  1.00  0.00     0.014 A 
ATOM     31  C   UNL A   1      41.151  23.693  28.103  1.00  0.00     0.010 A 
ATOM     32  C   UNL A   1      39.765  24.794  26.488  1.00  0.00     0.010 A 
ATOM     33  C   UNL A   1      40.739  24.898  27.492  1.00  0.00    -0.014 A 
BRANCH  33  34
ATOM     34  C   UNL A   1      41.359  26.216  27.880  1.00  0.00     0.031 A 
ATOM     35  C   UNL A   1      42.782  26.596  27.511  1.00  0.00     0.074 A 
ATOM     36  C   UNL A   1      40.659  27.087  28.646  1.00  0.00     0.049 A 
ATOM     37  N   UNL A   1      43.432  27.710  27.762  1.00  0.00    -0.248 NA
ATOM     38  C   UNL A   1      43.598  25.592  26.812  1.00  0.00     0.031 C 
ATOM     39  C   UNL A   1      39.337  26.833  29.223  1.00  0.00     0.029 A 
ATOM     40  N   UNL A   1      40.962  28.359  29.082  1.00  0.00    -0.354 N 
ATOM     41  C   UNL A   1      44.732  27.521  27.300  1.00  0.00     0.074 A 
ATOM     42  C   UNL A   1      44.794  26.164  26.803  1.00  0.00     0.031 C 
ATOM     43  C   UNL A   1      38.922  27.923  29.887  1.00  0.00     0.029 A 
ATOM     44  C   UNL A   1      39.963  28.944  29.831  1.00  0.00     0.049 A 
ATOM     45  H   UNL A   1      41.812  28.810  28.876  1.00  0.00     0.167 HD
ATOM     46  C   UNL A   1      45.772  28.393  27.246  1.00  0.00     0.034 A 
ATOM     47  C   UNL A   1      39.876  30.157  30.416  1.00  0.00     0.034 A 
ATOM     48  C   UNL A   1      45.708  29.767  27.672  1.00  0.00     0.049 A 
ATOM     49  C   UNL A   1      40.998  31.146  30.260  1.00  0.00     0.074 A 
ATOM     50  C   UNL A   1      46.667  30.757  27.530  1.00  0.00     0.029 A 
ATOM     51  N   UNL A   1      44.637  30.348  28.331  1.00  0.00    -0.354 N 
ATOM     52  N   UNL A   1      42.142  31.001  29.641  1.00  0.00    -0.248 NA
ATOM     53  C   UNL A   1      40.802  32.478  30.853  1.00  0.00     0.031 C 
ATOM     54  C   UNL A   1      46.189  31.926  28.134  1.00  0.00     0.029 A 
ATOM     55  C   UNL A   1      44.916  31.676  28.615  1.00  0.00     0.049 A 
ATOM     56  H   UNL A   1      43.800  29.885  28.564  1.00  0.00     0.167 HD
ATOM     57  C   UNL A   1      42.791  32.227  29.744  1.00  0.00     0.074 A 
ATOM     58  C   UNL A   1      41.900  33.113  30.463  1.00  0.00     0.031 C 
ATOM     59  C   UNL A   1      44.020  32.576  29.294  1.00  0.00     0.034 A 
BRANCH  46  60
ATOM     60  C   UNL A   1      47.068  27.908  26.635  1.00  0.00     0.023 A 
ATOM     61  C   UNL A   1      48.075  27.375  27.469  1.00  0.00     0.012 A 
ATOM     62  C   UNL A   1      47.270  27.917  25.240  1.00  0.00     0.148 A 
ATOM     63  C   UNL A   1      49.279  26.918  26.934  1.00  0.00     0.002 A 
ATOM     64  C   UNL A   1      48.453  27.410  24.709  1.00  0.00     0.091 A 
ATOM     65  F   UNL A   1      46.310  28.429  24.456  1.00  0.00    -0.205 F 
ATOM     66  C   UNL A   1      49.464  26.928  25.555  1.00  0.00     0.022 A 
BRANCH  64  67
ATOM     67  S   UNL A   1      48.749  27.288  22.941  1.00  0.00     0.127 S 
ATOM     68  O   UNL A   1      50.199  27.476  22.872  1.00  0.00    -0.237 OA
ATOM     69  O   UNL A   1      48.300  25.925  22.647  1.00  0.00    -0.237 OA
ATOM     70  O   UNL A   1      47.950  28.335  22.326  1.00  0.00    -0.744 OA
ENDBRANCH  64  67
ENDBRANCH  46  60
BRANCH  47  71
ATOM     71  C   UNL A   1      38.639  30.526  31.164  1.00  0.00     0.023 A 
ATOM     72  C   UNL A   1      38.550  30.268  32.545  1.00  0.00     0.012 A 
ATOM     73  C   UNL A   1      37.569  31.175  30.518  1.00  0.00     0.148 A 
ATOM     74  C   UNL A   1      37.408  30.622  33.265  1.00  0.00     0.002 A 
ATOM     75  C   UNL A   1      36.462  31.584  31.251  1.00  0.00     0.091 A 
ATOM     76  F   UNL A   1      37.669  31.403  29.200  1.00  0.00    -0.205 F 
ATOM     77  C   UNL A   1      36.371  31.291  32.621  1.00  0.00     0.022 A 
BRANCH  75  78
ATOM     78  S   UNL A   1      35.152  32.585  30.539  1.00  0.00     0.127 S 
ATOM     79  O   UNL A   1      34.828  31.834  29.329  1.00  0.00    -0.237 OA
ATOM     80  O   UNL A   1      34.134  32.536  31.587  1.00  0.00    -0.237 OA
ATOM     81  O   UNL A   1      35.734  33.903  30.328  1.00  0.00    -0.744 OA
ENDBRANCH  75  78
ENDBRANCH  47  71
BRANCH  59  82
ATOM     82  C   UNL A   1      44.481  33.994  29.526  1.00  0.00     0.023 A 
ATOM     83  C   UNL A   1      45.081  34.351  30.749  1.00  0.00     0.012 A 
ATOM     84  C   UNL A   1      44.379  34.957  28.502  1.00  0.00     0.148 A 
ATOM     85  C   UNL A   1      45.541  35.651  30.963  1.00  0.00     0.002 A 
ATOM     86  C   UNL A   1      44.886  36.236  28.703  1.00  0.00     0.091 A 
ATOM     87  F   UNL A   1      43.789  34.606  27.350  1.00  0.00    -0.205 F 
ATOM     88  C   UNL A   1      45.455  36.589  29.937  1.00  0.00     0.022 A 
BRANCH  86  89
ATOM     89  S   UNL A   1      44.904  37.482  27.408  1.00  0.00     0.127 S 
ATOM     90  O   UNL A   1      45.733  36.840  26.389  1.00  0.00    -0.237 OA
ATOM     91  O   UNL A   1      43.486  37.590  27.062  1.00  0.00    -0.237 OA
ATOM     92  O   UNL A   1      45.473  38.680  28.010  1.00  0.00    -0.744 OA
ENDBRANCH  86  89
ENDBRANCH  59  82
ENDBRANCH  33  34
ENDBRANCH  25  28
ENDBRANCH  23  24
ENDBRANCH  22  23
ENDBRANCH  21  22
ENDBRANCH   1  21
TORSDOF 20
ENDMDL
