MODEL 1
REMARK VINA RESULT:     -10.8      0.000      0.000
REMARK SMILES CC(C)(C)N(CC(=O)NCCCCNC(=O)c1ccc(-c2c3nc(c(-c4cccc(S(=O)(=O)[O-])c4F)c4ccc([nH]4)c(-c4cccc(S(=O)(=O)[O-])c4F)c4nc(c(-c5cccc(S(=O)(=O)[O-])c5F)c5ccc2[nH]5)C=C4)C=C3)cc1)C(=O)C1C[NH2+]C1
REMARK SMILES IDX 11 1 10 2 9 3 7 4 8 5 6 7 5 8 2 9 1 10 3 11 4 12 80 13 81 14
REMARK SMILES IDX 82 15 83 16 85 17 84 18 12 21 13 22 14 23 15 24 16 26 17 27
REMARK SMILES IDX 18 28 79 29 19 30 78 31 20 32 21 33 22 34 72 35 23 36 77 37
REMARK SMILES IDX 71 38 73 39 24 40 76 41 70 42 69 43 25 45 57 46 37 47 56 48
REMARK SMILES IDX 38 49 41 50 55 51 74 52 39 53 40 54 54 56 75 57 42 58 26 59
REMARK SMILES IDX 27 60 35 61 28 62 30 63 36 64 29 65 31 66 32 67 33 68 34 69
REMARK SMILES IDX 58 70 59 71 67 72 60 73 62 74 68 75 61 76 63 77 64 78 65 79
REMARK SMILES IDX 66 80 43 81 44 82 52 83 45 84 47 85 53 86 46 87 48 88 49 89
REMARK SMILES IDX 50 90 51 91
REMARK H PARENT 9 6 84 19 84 20 14 25 73 44 41 55
REMARK Flexibility Score: inf
ROOT
ATOM      1  C   UNL A   1      34.621  20.999  24.942  1.00  0.00     0.023 C 
ENDROOT
BRANCH   1   2
ATOM      2  C   UNL A   1      33.325  20.630  25.654  1.00  0.00     0.116 C 
BRANCH   2   3
ATOM      3  N   UNL A   1      32.975  21.544  26.712  1.00  0.00    -0.355 N 
ATOM      4  C   UNL A   1      32.236  22.687  26.629  1.00  0.00     0.239 C 
ATOM      5  O   UNL A   1      31.692  23.086  27.663  1.00  0.00    -0.273 OA
ATOM      6  H   UNL A   1      33.311  21.315  27.608  1.00  0.00     0.163 HD
BRANCH   4   7
ATOM      7  C   UNL A   1      31.905  23.347  25.275  1.00  0.00     0.219 C 
BRANCH   7   8
ATOM      8  N   UNL A   1      32.863  24.283  24.658  1.00  0.00    -0.328 N 
BRANCH   8   9
ATOM      9  C   UNL A   1      32.760  24.602  23.167  1.00  0.00     0.035 C 
ATOM     10  C   UNL A   1      33.643  25.790  22.696  1.00  0.00     0.034 C 
ATOM     11  C   UNL A   1      31.317  24.970  22.742  1.00  0.00     0.034 C 
ATOM     12  C   UNL A   1      33.242  23.389  22.330  1.00  0.00     0.034 C 
ENDBRANCH   8   9
BRANCH   8  13
ATOM     13  C   UNL A   1      33.683  25.130  25.460  1.00  0.00     0.238 C 
ATOM     14  O   UNL A   1      34.883  24.823  25.614  1.00  0.00    -0.274 OA
BRANCH  13  15
ATOM     15  C   UNL A   1      33.261  26.428  26.138  1.00  0.00     0.188 C 
ATOM     16  C   UNL A   1      33.711  27.868  25.906  1.00  0.00     0.280 C 
ATOM     17  C   UNL A   1      31.834  26.952  25.937  1.00  0.00     0.280 C 
ATOM     18  N   UNL A   1      32.329  28.325  26.153  1.00  0.00    -0.345 N 
ATOM     19  H   UNL A   1      31.987  29.002  25.470  1.00  0.00     0.346 HD
ATOM     20  H   UNL A   1      32.096  28.828  27.008  1.00  0.00     0.346 HD
ENDBRANCH  13  15
ENDBRANCH   8  13
ENDBRANCH   7   8
ENDBRANCH   4   7
ENDBRANCH   2   3
ENDBRANCH   1   2
BRANCH   1  21
ATOM     21  C   UNL A   1      35.762  21.433  25.859  1.00  0.00     0.023 C 
BRANCH  21  22
ATOM     22  C   UNL A   1      37.104  21.670  25.174  1.00  0.00     0.116 C 
BRANCH  22  23
ATOM     23  N   UNL A   1      38.066  20.588  25.357  1.00  0.00    -0.352 N 
ATOM     24  C   UNL A   1      39.289  20.629  25.987  1.00  0.00     0.251 C 
ATOM     25  H   UNL A   1      37.807  19.716  24.982  1.00  0.00     0.163 HD
ATOM     26  O   UNL A   1      40.010  19.637  26.011  1.00  0.00    -0.269 OA
BRANCH  24  27
ATOM     27  C   UNL A   1      39.740  21.898  26.591  1.00  0.00     0.039 A 
ATOM     28  C   UNL A   1      40.725  21.862  27.581  1.00  0.00     0.014 A 
ATOM     29  C   UNL A   1      39.250  23.119  26.120  1.00  0.00     0.014 A 
ATOM     30  C   UNL A   1      41.285  23.057  28.036  1.00  0.00     0.010 A 
ATOM     31  C   UNL A   1      39.862  24.301  26.520  1.00  0.00     0.010 A 
ATOM     32  C   UNL A   1      40.890  24.282  27.475  1.00  0.00    -0.014 A 
BRANCH  32  33
ATOM     33  C   UNL A   1      41.564  25.554  27.835  1.00  0.00     0.031 A 
ATOM     34  C   UNL A   1      40.811  26.628  28.570  1.00  0.00     0.074 A 
ATOM     35  C   UNL A   1      42.810  25.795  27.381  1.00  0.00     0.049 A 
ATOM     36  N   UNL A   1      41.200  27.833  28.893  1.00  0.00    -0.248 NA
ATOM     37  C   UNL A   1      39.424  26.321  28.958  1.00  0.00     0.031 C 
ATOM     38  C   UNL A   1      43.602  24.880  26.557  1.00  0.00     0.029 A 
ATOM     39  N   UNL A   1      43.613  26.901  27.514  1.00  0.00    -0.354 N 
ATOM     40  C   UNL A   1      40.096  28.445  29.471  1.00  0.00     0.074 A 
ATOM     41  C   UNL A   1      39.012  27.488  29.430  1.00  0.00     0.031 C 
ATOM     42  C   UNL A   1      44.771  25.464  26.250  1.00  0.00     0.029 A 
ATOM     43  C   UNL A   1      44.805  26.799  26.836  1.00  0.00     0.049 A 
ATOM     44  H   UNL A   1      43.360  27.691  28.043  1.00  0.00     0.167 HD
ATOM     45  C   UNL A   1      40.001  29.681  30.017  1.00  0.00     0.034 A 
ATOM     46  C   UNL A   1      45.813  27.684  26.697  1.00  0.00     0.034 A 
ATOM     47  C   UNL A   1      41.101  30.600  30.120  1.00  0.00     0.049 A 
ATOM     48  C   UNL A   1      45.723  29.011  27.400  1.00  0.00     0.074 A 
ATOM     49  C   UNL A   1      41.149  31.812  30.783  1.00  0.00     0.029 A 
ATOM     50  N   UNL A   1      42.345  30.410  29.539  1.00  0.00    -0.354 N 
ATOM     51  N   UNL A   1      44.744  29.492  28.126  1.00  0.00    -0.248 NA
ATOM     52  C   UNL A   1      46.890  29.899  27.301  1.00  0.00     0.031 C 
ATOM     53  C   UNL A   1      42.422  32.363  30.594  1.00  0.00     0.029 A 
ATOM     54  C   UNL A   1      43.168  31.488  29.820  1.00  0.00     0.049 A 
ATOM     55  H   UNL A   1      42.606  29.625  29.007  1.00  0.00     0.167 HD
ATOM     56  C   UNL A   1      45.182  30.727  28.590  1.00  0.00     0.074 A 
ATOM     57  C   UNL A   1      46.527  30.908  28.084  1.00  0.00     0.031 C 
ATOM     58  C   UNL A   1      44.522  31.635  29.350  1.00  0.00     0.034 A 
BRANCH  45  59
ATOM     59  C   UNL A   1      38.674  30.079  30.606  1.00  0.00     0.023 A 
ATOM     60  C   UNL A   1      38.341  29.659  31.910  1.00  0.00     0.012 A 
ATOM     61  C   UNL A   1      37.773  30.891  29.891  1.00  0.00     0.148 A 
ATOM     62  C   UNL A   1      37.117  30.008  32.478  1.00  0.00     0.002 A 
ATOM     63  C   UNL A   1      36.572  31.269  30.480  1.00  0.00     0.091 A 
ATOM     64  F   UNL A   1      38.092  31.258  28.641  1.00  0.00    -0.205 F 
ATOM     65  C   UNL A   1      36.237  30.820  31.767  1.00  0.00     0.022 A 
BRANCH  63  66
ATOM     66  S   UNL A   1      35.412  32.374  29.666  1.00  0.00     0.127 S 
ATOM     67  O   UNL A   1      36.280  33.486  29.285  1.00  0.00    -0.237 OA
ATOM     68  O   UNL A   1      34.937  31.560  28.546  1.00  0.00    -0.237 OA
ATOM     69  O   UNL A   1      34.393  32.676  30.662  1.00  0.00    -0.744 OA
ENDBRANCH  63  66
ENDBRANCH  45  59
BRANCH  46  70
ATOM     70  C   UNL A   1      47.025  27.297  25.924  1.00  0.00     0.023 A 
ATOM     71  C   UNL A   1      47.981  26.451  26.518  1.00  0.00     0.012 A 
ATOM     72  C   UNL A   1      47.204  27.703  24.586  1.00  0.00     0.148 A 
ATOM     73  C   UNL A   1      49.102  26.030  25.801  1.00  0.00     0.002 A 
ATOM     74  C   UNL A   1      48.295  27.238  23.862  1.00  0.00     0.091 A 
ATOM     75  F   UNL A   1      46.287  28.517  24.044  1.00  0.00    -0.205 F 
ATOM     76  C   UNL A   1      49.253  26.413  24.472  1.00  0.00     0.022 A 
BRANCH  74  77
ATOM     77  S   UNL A   1      48.498  27.567  22.107  1.00  0.00     0.127 S 
ATOM     78  O   UNL A   1      49.694  28.404  22.096  1.00  0.00    -0.237 OA
ATOM     79  O   UNL A   1      48.683  26.220  21.566  1.00  0.00    -0.237 OA
ATOM     80  O   UNL A   1      47.265  28.216  21.684  1.00  0.00    -0.744 OA
ENDBRANCH  74  77
ENDBRANCH  46  70
BRANCH  58  81
ATOM     81  C   UNL A   1      45.242  32.911  29.697  1.00  0.00     0.023 A 
ATOM     82  C   UNL A   1      46.014  32.972  30.873  1.00  0.00     0.012 A 
ATOM     83  C   UNL A   1      45.227  34.012  28.820  1.00  0.00     0.148 A 
ATOM     84  C   UNL A   1      46.744  34.120  31.184  1.00  0.00     0.002 A 
ATOM     85  C   UNL A   1      45.991  35.137  29.114  1.00  0.00     0.091 A 
ATOM     86  F   UNL A   1      44.468  33.943  27.716  1.00  0.00    -0.205 F 
ATOM     87  C   UNL A   1      46.742  35.195  30.299  1.00  0.00     0.022 A 
BRANCH  85  88
ATOM     88  S   UNL A   1      46.118  36.528  27.984  1.00  0.00     0.127 S 
ATOM     89  O   UNL A   1      44.827  37.186  28.174  1.00  0.00    -0.237 OA
ATOM     90  O   UNL A   1      47.264  37.265  28.521  1.00  0.00    -0.237 OA
ATOM     91  O   UNL A   1      46.343  35.950  26.666  1.00  0.00    -0.744 OA
ENDBRANCH  85  88
ENDBRANCH  58  81
ENDBRANCH  32  33
ENDBRANCH  24  27
ENDBRANCH  22  23
ENDBRANCH  21  22
ENDBRANCH   1  21
TORSDOF 18
ENDMDL
MODEL 2
REMARK VINA RESULT:     -10.8      1.845      7.913
REMARK SMILES CC(C)(C)N(CC(=O)NCCCCNC(=O)c1ccc(-c2c3nc(c(-c4cccc(S(=O)(=O)[O-])c4F)c4ccc([nH]4)c(-c4cccc(S(=O)(=O)[O-])c4F)c4nc(c(-c5cccc(S(=O)(=O)[O-])c5F)c5ccc2[nH]5)C=C4)C=C3)cc1)C(=O)C1C[NH2+]C1
REMARK SMILES IDX 11 1 10 2 9 3 7 4 8 5 6 7 5 8 2 9 1 10 3 11 4 12 80 13 81 14
REMARK SMILES IDX 82 15 83 16 85 17 84 18 12 21 13 22 14 23 15 24 16 26 17 27
REMARK SMILES IDX 18 28 79 29 19 30 78 31 20 32 21 33 22 34 72 35 23 36 77 37
REMARK SMILES IDX 71 38 73 39 24 40 76 41 70 42 69 43 25 45 57 46 37 47 56 48
REMARK SMILES IDX 38 49 41 50 55 51 74 52 39 53 40 54 54 56 75 57 42 58 26 59
REMARK SMILES IDX 27 60 35 61 28 62 30 63 36 64 29 65 31 66 32 67 33 68 34 69
REMARK SMILES IDX 58 70 59 71 67 72 60 73 62 74 68 75 61 76 63 77 64 78 65 79
REMARK SMILES IDX 66 80 43 81 44 82 52 83 45 84 47 85 53 86 46 87 48 88 49 89
REMARK SMILES IDX 50 90 51 91
REMARK H PARENT 9 6 84 19 84 20 14 25 73 44 41 55
REMARK Flexibility Score: inf
ROOT
ATOM      1  C   UNL A   1      36.219  23.266  23.562  1.00  0.00     0.023 C 
ENDROOT
BRANCH   1   2
ATOM      2  C   UNL A   1      34.780  23.764  23.639  1.00  0.00     0.116 C 
BRANCH   2   3
ATOM      3  N   UNL A   1      34.230  23.716  24.971  1.00  0.00    -0.355 N 
ATOM      4  C   UNL A   1      32.995  24.115  25.388  1.00  0.00     0.239 C 
ATOM      5  O   UNL A   1      32.559  23.613  26.428  1.00  0.00    -0.273 OA
ATOM      6  H   UNL A   1      34.821  23.349  25.667  1.00  0.00     0.163 HD
BRANCH   4   7
ATOM      7  C   UNL A   1      32.079  24.985  24.504  1.00  0.00     0.219 C 
BRANCH   7   8
ATOM      8  N   UNL A   1      31.918  26.421  24.800  1.00  0.00    -0.328 N 
BRANCH   8   9
ATOM      9  C   UNL A   1      31.786  27.423  23.652  1.00  0.00     0.035 C 
ATOM     10  C   UNL A   1      30.754  28.558  23.899  1.00  0.00     0.034 C 
ATOM     11  C   UNL A   1      31.345  26.749  22.330  1.00  0.00     0.034 C 
ATOM     12  C   UNL A   1      33.135  28.151  23.426  1.00  0.00     0.034 C 
ENDBRANCH   8   9
BRANCH   8  13
ATOM     13  C   UNL A   1      31.576  26.868  26.110  1.00  0.00     0.238 C 
ATOM     14  O   UNL A   1      30.499  26.480  26.608  1.00  0.00    -0.274 OA
BRANCH  13  15
ATOM     15  C   UNL A   1      32.417  27.759  27.015  1.00  0.00     0.188 C 
ATOM     16  C   UNL A   1      33.831  28.310  26.842  1.00  0.00     0.280 C 
ATOM     17  C   UNL A   1      31.992  29.215  27.245  1.00  0.00     0.280 C 
ATOM     18  N   UNL A   1      33.404  29.570  27.482  1.00  0.00    -0.345 N 
ATOM     19  H   UNL A   1      33.710  30.410  26.990  1.00  0.00     0.346 HD
ATOM     20  H   UNL A   1      33.725  29.807  28.420  1.00  0.00     0.346 HD
ENDBRANCH  13  15
ENDBRANCH   8  13
ENDBRANCH   7   8
ENDBRANCH   4   7
ENDBRANCH   2   3
ENDBRANCH   1   2
BRANCH   1  21
ATOM     21  C   UNL A   1      36.434  21.835  24.046  1.00  0.00     0.023 C 
BRANCH  21  22
ATOM     22  C   UNL A   1      37.000  21.695  25.456  1.00  0.00     0.116 C 
BRANCH  22  23
ATOM     23  N   UNL A   1      38.074  20.715  25.572  1.00  0.00    -0.352 N 
ATOM     24  C   UNL A   1      39.342  20.891  26.079  1.00  0.00     0.251 C 
ATOM     25  H   UNL A   1      37.866  19.810  25.246  1.00  0.00     0.163 HD
ATOM     26  O   UNL A   1      40.155  19.971  26.057  1.00  0.00    -0.269 OA
BRANCH  24  27
ATOM     27  C   UNL A   1      39.724  22.216  26.604  1.00  0.00     0.039 A 
ATOM     28  C   UNL A   1      40.762  22.299  27.535  1.00  0.00     0.014 A 
ATOM     29  C   UNL A   1      39.115  23.374  26.114  1.00  0.00     0.014 A 
ATOM     30  C   UNL A   1      41.251  23.552  27.909  1.00  0.00     0.010 A 
ATOM     31  C   UNL A   1      39.652  24.616  26.430  1.00  0.00     0.010 A 
ATOM     32  C   UNL A   1      40.729  24.718  27.323  1.00  0.00    -0.014 A 
BRANCH  32  33
ATOM     33  C   UNL A   1      41.320  26.053  27.593  1.00  0.00     0.031 A 
ATOM     34  C   UNL A   1      42.741  26.344  27.201  1.00  0.00     0.074 A 
ATOM     35  C   UNL A   1      40.621  26.954  28.312  1.00  0.00     0.049 A 
ATOM     36  N   UNL A   1      43.455  27.414  27.430  1.00  0.00    -0.248 NA
ATOM     37  C   UNL A   1      43.468  25.278  26.492  1.00  0.00     0.031 C 
ATOM     38  C   UNL A   1      39.276  26.745  28.852  1.00  0.00     0.029 A 
ATOM     39  N   UNL A   1      40.961  28.210  28.748  1.00  0.00    -0.354 N 
ATOM     40  C   UNL A   1      44.726  27.132  26.945  1.00  0.00     0.074 A 
ATOM     41  C   UNL A   1      44.692  25.780  26.433  1.00  0.00     0.031 C 
ATOM     42  C   UNL A   1      38.910  27.828  29.553  1.00  0.00     0.029 A 
ATOM     43  C   UNL A   1      39.997  28.800  29.531  1.00  0.00     0.049 A 
ATOM     44  H   UNL A   1      41.814  28.647  28.522  1.00  0.00     0.167 HD
ATOM     45  C   UNL A   1      45.814  27.938  26.900  1.00  0.00     0.034 A 
ATOM     46  C   UNL A   1      39.991  29.990  30.166  1.00  0.00     0.034 A 
ATOM     47  C   UNL A   1      45.820  29.304  27.343  1.00  0.00     0.049 A 
ATOM     48  C   UNL A   1      41.173  30.906  30.013  1.00  0.00     0.074 A 
ATOM     49  C   UNL A   1      46.822  30.248  27.207  1.00  0.00     0.029 A 
ATOM     50  N   UNL A   1      44.776  29.921  28.014  1.00  0.00    -0.354 N 
ATOM     51  N   UNL A   1      42.295  30.701  29.366  1.00  0.00    -0.248 NA
ATOM     52  C   UNL A   1      41.076  32.232  30.640  1.00  0.00     0.031 C 
ATOM     53  C   UNL A   1      46.387  31.436  27.807  1.00  0.00     0.029 A 
ATOM     54  C   UNL A   1      45.112  31.232  28.309  1.00  0.00     0.049 A 
ATOM     55  H   UNL A   1      43.922  29.492  28.247  1.00  0.00     0.167 HD
ATOM     56  C   UNL A   1      43.027  31.876  29.486  1.00  0.00     0.074 A 
ATOM     57  C   UNL A   1      42.210  32.799  30.247  1.00  0.00     0.031 C 
ATOM     58  C   UNL A   1      44.270  32.157  29.025  1.00  0.00     0.034 A 
BRANCH  45  59
ATOM     59  C   UNL A   1      47.068  27.376  26.285  1.00  0.00     0.023 A 
ATOM     60  C   UNL A   1      47.321  27.582  24.914  1.00  0.00     0.012 A 
ATOM     61  C   UNL A   1      48.010  26.675  27.063  1.00  0.00     0.148 A 
ATOM     62  C   UNL A   1      48.471  27.067  24.317  1.00  0.00     0.002 A 
ATOM     63  C   UNL A   1      49.175  26.201  26.470  1.00  0.00     0.091 A 
ATOM     64  F   UNL A   1      47.741  26.463  28.360  1.00  0.00    -0.205 F 
ATOM     65  C   UNL A   1      49.402  26.385  25.097  1.00  0.00     0.022 A 
BRANCH  63  66
ATOM     66  S   UNL A   1      50.462  25.377  27.414  1.00  0.00     0.127 S 
ATOM     67  O   UNL A   1      51.382  24.958  26.358  1.00  0.00    -0.237 OA
ATOM     68  O   UNL A   1      50.965  26.455  28.267  1.00  0.00    -0.237 OA
ATOM     69  O   UNL A   1      49.794  24.303  28.136  1.00  0.00    -0.744 OA
ENDBRANCH  63  66
ENDBRANCH  45  59
BRANCH  46  70
ATOM     70  C   UNL A   1      38.783  30.404  30.932  1.00  0.00     0.023 A 
ATOM     71  C   UNL A   1      38.746  30.197  32.325  1.00  0.00     0.012 A 
ATOM     72  C   UNL A   1      37.706  31.062  30.306  1.00  0.00     0.148 A 
ATOM     73  C   UNL A   1      37.650  30.620  33.077  1.00  0.00     0.002 A 
ATOM     74  C   UNL A   1      36.641  31.526  31.069  1.00  0.00     0.091 A 
ATOM     75  F   UNL A   1      37.758  31.239  28.978  1.00  0.00    -0.205 F 
ATOM     76  C   UNL A   1      36.605  31.294  32.453  1.00  0.00     0.022 A 
BRANCH  74  77
ATOM     77  S   UNL A   1      35.319  32.524  30.373  1.00  0.00     0.127 S 
ATOM     78  O   UNL A   1      34.826  31.663  29.302  1.00  0.00    -0.237 OA
ATOM     79  O   UNL A   1      34.415  32.668  31.515  1.00  0.00    -0.237 OA
ATOM     80  O   UNL A   1      35.947  33.768  29.949  1.00  0.00    -0.744 OA
ENDBRANCH  74  77
ENDBRANCH  46  70
BRANCH  58  81
ATOM     81  C   UNL A   1      44.832  33.524  29.316  1.00  0.00     0.023 A 
ATOM     82  C   UNL A   1      45.579  33.728  30.492  1.00  0.00     0.012 A 
ATOM     83  C   UNL A   1      44.698  34.574  28.387  1.00  0.00     0.148 A 
ATOM     84  C   UNL A   1      46.166  34.967  30.752  1.00  0.00     0.002 A 
ATOM     85  C   UNL A   1      45.322  35.793  28.633  1.00  0.00     0.091 A 
ATOM     86  F   UNL A   1      43.964  34.366  27.284  1.00  0.00    -0.205 F 
ATOM     87  C   UNL A   1      46.048  35.993  29.818  1.00  0.00     0.022 A 
BRANCH  85  88
ATOM     88  S   UNL A   1      45.298  37.136  27.440  1.00  0.00     0.127 S 
ATOM     89  O   UNL A   1      45.891  38.229  28.209  1.00  0.00    -0.237 OA
ATOM     90  O   UNL A   1      46.146  36.617  26.365  1.00  0.00    -0.237 OA
ATOM     91  O   UNL A   1      43.902  37.313  27.068  1.00  0.00    -0.744 OA
ENDBRANCH  85  88
ENDBRANCH  58  81
ENDBRANCH  32  33
ENDBRANCH  24  27
ENDBRANCH  22  23
ENDBRANCH  21  22
ENDBRANCH   1  21
TORSDOF 18
ENDMDL
MODEL 3
REMARK VINA RESULT:     -10.6      2.873      8.072
REMARK SMILES CC(C)(C)N(CC(=O)NCCCCNC(=O)c1ccc(-c2c3nc(c(-c4cccc(S(=O)(=O)[O-])c4F)c4ccc([nH]4)c(-c4cccc(S(=O)(=O)[O-])c4F)c4nc(c(-c5cccc(S(=O)(=O)[O-])c5F)c5ccc2[nH]5)C=C4)C=C3)cc1)C(=O)C1C[NH2+]C1
REMARK SMILES IDX 11 1 10 2 9 3 7 4 8 5 6 7 5 8 2 9 1 10 3 11 4 12 80 13 81 14
REMARK SMILES IDX 82 15 83 16 85 17 84 18 12 21 13 22 14 23 15 24 16 26 17 27
REMARK SMILES IDX 18 28 79 29 19 30 78 31 20 32 21 33 22 34 72 35 23 36 77 37
REMARK SMILES IDX 71 38 73 39 24 40 76 41 70 42 69 43 25 45 57 46 37 47 56 48
REMARK SMILES IDX 38 49 41 50 55 51 74 52 39 53 40 54 54 56 75 57 42 58 26 59
REMARK SMILES IDX 27 60 35 61 28 62 30 63 36 64 29 65 31 66 32 67 33 68 34 69
REMARK SMILES IDX 58 70 59 71 67 72 60 73 62 74 68 75 61 76 63 77 64 78 65 79
REMARK SMILES IDX 66 80 43 81 44 82 52 83 45 84 47 85 53 86 46 87 48 88 49 89
REMARK SMILES IDX 50 90 51 91
REMARK H PARENT 9 6 84 19 84 20 14 25 73 44 41 55
REMARK Flexibility Score: inf
ROOT
ATOM      1  C   UNL A   1      34.995  21.557  25.248  1.00  0.00     0.023 C 
ENDROOT
BRANCH   1   2
ATOM      2  C   UNL A   1      33.538  21.377  25.658  1.00  0.00     0.116 C 
BRANCH   2   3
ATOM      3  N   UNL A   1      33.127  22.271  26.711  1.00  0.00    -0.355 N 
ATOM      4  C   UNL A   1      32.265  23.325  26.636  1.00  0.00     0.239 C 
ATOM      5  O   UNL A   1      31.717  23.684  27.681  1.00  0.00    -0.273 OA
ATOM      6  H   UNL A   1      33.518  22.099  27.598  1.00  0.00     0.163 HD
BRANCH   4   7
ATOM      7  C   UNL A   1      31.816  23.914  25.283  1.00  0.00     0.219 C 
BRANCH   7   8
ATOM      8  N   UNL A   1      32.284  25.251  24.871  1.00  0.00    -0.328 N 
BRANCH   8   9
ATOM      9  C   UNL A   1      32.980  25.429  23.522  1.00  0.00     0.035 C 
ATOM     10  C   UNL A   1      34.228  24.527  23.313  1.00  0.00     0.034 C 
ATOM     11  C   UNL A   1      33.481  26.878  23.305  1.00  0.00     0.034 C 
ATOM     12  C   UNL A   1      32.014  25.048  22.372  1.00  0.00     0.034 C 
ENDBRANCH   8   9
BRANCH   8  13
ATOM     13  C   UNL A   1      31.839  26.426  25.546  1.00  0.00     0.238 C 
ATOM     14  O   UNL A   1      30.742  26.921  25.215  1.00  0.00    -0.274 OA
BRANCH  13  15
ATOM     15  C   UNL A   1      32.550  27.144  26.686  1.00  0.00     0.188 C 
ATOM     16  C   UNL A   1      33.692  28.156  26.671  1.00  0.00     0.280 C 
ATOM     17  C   UNL A   1      31.783  28.179  27.518  1.00  0.00     0.280 C 
ATOM     18  N   UNL A   1      33.056  28.870  27.796  1.00  0.00    -0.345 N 
ATOM     19  H   UNL A   1      33.015  29.882  27.676  1.00  0.00     0.346 HD
ATOM     20  H   UNL A   1      33.469  28.835  28.728  1.00  0.00     0.346 HD
ENDBRANCH  13  15
ENDBRANCH   8  13
ENDBRANCH   7   8
ENDBRANCH   4   7
ENDBRANCH   2   3
ENDBRANCH   1   2
BRANCH   1  21
ATOM     21  C   UNL A   1      35.797  22.521  26.119  1.00  0.00     0.023 C 
BRANCH  21  22
ATOM     22  C   UNL A   1      37.149  22.947  25.556  1.00  0.00     0.116 C 
BRANCH  22  23
ATOM     23  N   UNL A   1      38.275  22.161  26.048  1.00  0.00    -0.352 N 
ATOM     24  C   UNL A   1      39.397  22.597  26.715  1.00  0.00     0.251 C 
ATOM     25  H   UNL A   1      38.226  21.192  25.881  1.00  0.00     0.163 HD
ATOM     26  O   UNL A   1      40.287  21.809  27.018  1.00  0.00    -0.269 OA
BRANCH  24  27
ATOM     27  C   UNL A   1      39.534  24.035  27.019  1.00  0.00     0.039 A 
ATOM     28  C   UNL A   1      39.228  24.485  28.305  1.00  0.00     0.014 A 
ATOM     29  C   UNL A   1      40.043  24.915  26.060  1.00  0.00     0.014 A 
ATOM     30  C   UNL A   1      39.517  25.805  28.658  1.00  0.00     0.010 A 
ATOM     31  C   UNL A   1      40.399  26.204  26.436  1.00  0.00     0.010 A 
ATOM     32  C   UNL A   1      40.147  26.660  27.739  1.00  0.00    -0.014 A 
BRANCH  32  33
ATOM     33  C   UNL A   1      40.594  28.021  28.127  1.00  0.00     0.031 A 
ATOM     34  C   UNL A   1      42.059  28.356  28.156  1.00  0.00     0.074 A 
ATOM     35  C   UNL A   1      39.690  28.911  28.583  1.00  0.00     0.049 A 
ATOM     36  N   UNL A   1      42.644  29.457  28.550  1.00  0.00    -0.248 NA
ATOM     37  C   UNL A   1      42.992  27.303  27.724  1.00  0.00     0.031 C 
ATOM     38  C   UNL A   1      38.252  28.664  28.714  1.00  0.00     0.029 A 
ATOM     39  N   UNL A   1      39.852  30.187  29.060  1.00  0.00    -0.354 N 
ATOM     40  C   UNL A   1      44.009  29.211  28.465  1.00  0.00     0.074 A 
ATOM     41  C   UNL A   1      44.165  27.848  28.008  1.00  0.00     0.031 C 
ATOM     42  C   UNL A   1      37.666  29.748  29.245  1.00  0.00     0.029 A 
ATOM     43  C   UNL A   1      38.685  30.759  29.510  1.00  0.00     0.049 A 
ATOM     44  H   UNL A   1      40.720  30.651  29.078  1.00  0.00     0.167 HD
ATOM     45  C   UNL A   1      45.039  30.055  28.714  1.00  0.00     0.034 A 
ATOM     46  C   UNL A   1      38.459  31.961  30.078  1.00  0.00     0.034 A 
ATOM     47  C   UNL A   1      44.876  31.430  29.096  1.00  0.00     0.049 A 
ATOM     48  C   UNL A   1      39.607  32.917  30.247  1.00  0.00     0.074 A 
ATOM     49  C   UNL A   1      45.846  32.407  29.228  1.00  0.00     0.029 A 
ATOM     50  N   UNL A   1      43.664  32.023  29.415  1.00  0.00    -0.354 N 
ATOM     51  N   UNL A   1      40.874  32.739  29.961  1.00  0.00    -0.248 NA
ATOM     52  C   UNL A   1      39.293  34.251  30.777  1.00  0.00     0.031 C 
ATOM     53  C   UNL A   1      45.220  33.590  29.639  1.00  0.00     0.029 A 
ATOM     54  C   UNL A   1      43.860  33.351  29.753  1.00  0.00     0.049 A 
ATOM     55  H   UNL A   1      42.792  31.567  29.402  1.00  0.00     0.167 HD
ATOM     56  C   UNL A   1      41.505  33.943  30.253  1.00  0.00     0.074 A 
ATOM     57  C   UNL A   1      40.475  34.851  30.714  1.00  0.00     0.031 C 
ATOM     58  C   UNL A   1      42.820  34.259  30.164  1.00  0.00     0.034 A 
BRANCH  45  59
ATOM     59  C   UNL A   1      46.433  29.526  28.509  1.00  0.00     0.023 A 
ATOM     60  C   UNL A   1      47.068  29.710  27.264  1.00  0.00     0.012 A 
ATOM     61  C   UNL A   1      47.127  28.880  29.549  1.00  0.00     0.148 A 
ATOM     62  C   UNL A   1      48.357  29.226  27.044  1.00  0.00     0.002 A 
ATOM     63  C   UNL A   1      48.428  28.436  29.336  1.00  0.00     0.091 A 
ATOM     64  F   UNL A   1      46.499  28.687  30.718  1.00  0.00    -0.205 F 
ATOM     65  C   UNL A   1      49.039  28.597  28.083  1.00  0.00     0.022 A 
BRANCH  63  66
ATOM     66  S   UNL A   1      49.408  27.683  30.639  1.00  0.00     0.127 S 
ATOM     67  O   UNL A   1      48.677  26.441  30.880  1.00  0.00    -0.237 OA
ATOM     68  O   UNL A   1      50.710  27.508  29.992  1.00  0.00    -0.237 OA
ATOM     69  O   UNL A   1      49.408  28.642  31.736  1.00  0.00    -0.744 OA
ENDBRANCH  63  66
ENDBRANCH  45  59
BRANCH  46  70
ATOM     70  C   UNL A   1      37.068  32.346  30.446  1.00  0.00     0.023 A 
ATOM     71  C   UNL A   1      36.639  32.188  31.778  1.00  0.00     0.012 A 
ATOM     72  C   UNL A   1      36.195  32.931  29.507  1.00  0.00     0.148 A 
ATOM     73  C   UNL A   1      35.359  32.587  32.164  1.00  0.00     0.002 A 
ATOM     74  C   UNL A   1      34.941  33.374  29.911  1.00  0.00     0.091 A 
ATOM     75  F   UNL A   1      36.621  33.063  28.243  1.00  0.00    -0.205 F 
ATOM     76  C   UNL A   1      34.516  33.190  31.236  1.00  0.00     0.022 A 
BRANCH  74  77
ATOM     77  S   UNL A   1      33.842  34.284  28.819  1.00  0.00     0.127 S 
ATOM     78  O   UNL A   1      32.775  34.682  29.732  1.00  0.00    -0.237 OA
ATOM     79  O   UNL A   1      34.704  35.377  28.365  1.00  0.00    -0.237 OA
ATOM     80  O   UNL A   1      33.466  33.346  27.771  1.00  0.00    -0.744 OA
ENDBRANCH  74  77
ENDBRANCH  46  70
BRANCH  58  81
ATOM     81  C   UNL A   1      43.233  35.652  30.563  1.00  0.00     0.023 A 
ATOM     82  C   UNL A   1      43.667  35.893  31.881  1.00  0.00     0.012 A 
ATOM     83  C   UNL A   1      43.275  36.693  29.617  1.00  0.00     0.148 A 
ATOM     84  C   UNL A   1      44.117  37.158  32.258  1.00  0.00     0.002 A 
ATOM     85  C   UNL A   1      43.766  37.940  29.989  1.00  0.00     0.091 A 
ATOM     86  F   UNL A   1      42.836  36.449  28.373  1.00  0.00    -0.205 F 
ATOM     87  C   UNL A   1      44.178  38.177  31.310  1.00  0.00     0.022 A 
BRANCH  85  88
ATOM     88  S   UNL A   1      43.965  39.280  28.807  1.00  0.00     0.127 S 
ATOM     89  O   UNL A   1      44.796  38.652  27.782  1.00  0.00    -0.237 OA
ATOM     90  O   UNL A   1      42.585  39.545  28.397  1.00  0.00    -0.237 OA
ATOM     91  O   UNL A   1      44.590  40.369  29.544  1.00  0.00    -0.744 OA
ENDBRANCH  85  88
ENDBRANCH  58  81
ENDBRANCH  32  33
ENDBRANCH  24  27
ENDBRANCH  22  23
ENDBRANCH  21  22
ENDBRANCH   1  21
TORSDOF 18
ENDMDL
