MODEL 1
REMARK VINA RESULT:     -13.1      0.000      0.000
REMARK SMILES CN1C(=O)C[C@@H](C(=O)NCCCCNC(=O)c2ccc(-c3c4nc(c(-c5cccc(S(=O)(=O)[O-])c5F)c5ccc([nH]5)c(-c5cccc(S(=O)(=O)[O-])c5F)c5nc(c(-c6cccc(S(=O)(=O)[O-])c6F)c6ccc3[nH]6)C=C5)C=C4)cc2)C12CCN(C(=O)c1cccc3ccccc13)CC2
REMARK SMILES IDX 12 1 11 2 10 3 9 4 7 5 8 6 6 8 1 9 2 10 3 11 80 12 4 13 5 14
REMARK SMILES IDX 81 15 97 16 82 17 96 18 83 19 84 20 85 21 86 22 87 23 95 24
REMARK SMILES IDX 88 25 90 26 94 27 89 28 91 29 93 30 92 31 13 32 14 33 15 34
REMARK SMILES IDX 16 36 17 37 18 38 79 39 19 40 78 41 20 42 21 43 22 44 72 45
REMARK SMILES IDX 23 46 77 47 71 48 73 49 24 50 76 51 70 52 69 53 25 55 57 56
REMARK SMILES IDX 37 57 56 58 38 59 41 60 55 61 74 62 39 63 40 64 54 66 75 67
REMARK SMILES IDX 42 68 26 69 27 70 35 71 28 72 30 73 36 74 29 75 31 76 32 77
REMARK SMILES IDX 33 78 34 79 58 80 59 81 67 82 60 83 62 84 68 85 61 86 63 87
REMARK SMILES IDX 64 88 65 89 66 90 43 91 44 92 52 93 45 94 47 95 53 96 46 97
REMARK SMILES IDX 48 98 49 99 50 100 51 101
REMARK H PARENT 9 7 14 35 73 54 41 65
REMARK Flexibility Score: inf
ROOT
ATOM      1  C   UNL A   1      39.159  21.520  25.752  1.00  0.00     0.023 C 
ENDROOT
BRANCH   1   2
ATOM      2  C   UNL A   1      39.102  22.933  26.315  1.00  0.00     0.023 C 
BRANCH   2   3
ATOM      3  C   UNL A   1      37.763  23.650  26.100  1.00  0.00     0.116 C 
BRANCH   3   4
ATOM      4  N   UNL A   1      37.138  23.412  24.808  1.00  0.00    -0.356 N 
ATOM      5  C   UNL A   1      36.018  22.743  24.426  1.00  0.00     0.226 C 
ATOM      6  O   UNL A   1      35.709  22.824  23.232  1.00  0.00    -0.275 OA
ATOM      7  H   UNL A   1      37.626  23.819  24.056  1.00  0.00     0.163 HD
BRANCH   5   8
ATOM      8  C   UNL A   1      35.155  21.869  25.343  1.00  0.00     0.113 C 
ATOM      9  C   UNL A   1      32.361  20.095  23.608  1.00  0.00     0.147 C 
ATOM     10  N   UNL A   1      33.504  20.508  24.402  1.00  0.00    -0.339 N 
ATOM     11  C   UNL A   1      34.573  19.653  24.649  1.00  0.00     0.223 C 
ATOM     12  C   UNL A   1      33.638  21.821  25.057  1.00  0.00     0.058 C 
ATOM     13  O   UNL A   1      34.678  18.495  24.293  1.00  0.00    -0.275 OA
ATOM     14  C   UNL A   1      35.633  20.418  25.393  1.00  0.00     0.116 C 
ATOM     15  C   UNL A   1      33.147  23.017  24.218  1.00  0.00     0.051 C 
ATOM     16  C   UNL A   1      32.785  21.778  26.363  1.00  0.00     0.051 C 
ATOM     17  C   UNL A   1      33.158  24.334  24.990  1.00  0.00     0.122 C 
ATOM     18  C   UNL A   1      32.604  23.142  27.039  1.00  0.00     0.122 C 
ATOM     19  N   UNL A   1      32.229  24.180  26.079  1.00  0.00    -0.338 N 
ATOM     20  C   UNL A   1      30.985  24.796  26.151  1.00  0.00     0.254 C 
ATOM     21  O   UNL A   1      30.110  24.406  26.927  1.00  0.00    -0.269 OA
BRANCH  20  22
ATOM     22  C   UNL A   1      30.700  26.066  25.420  1.00  0.00     0.047 A 
ATOM     23  C   UNL A   1      30.112  25.853  24.161  1.00  0.00     0.014 A 
ATOM     24  C   UNL A   1      31.171  27.362  25.788  1.00  0.00    -0.006 A 
ATOM     25  C   UNL A   1      30.055  26.878  23.226  1.00  0.00     0.001 A 
ATOM     26  C   UNL A   1      31.151  28.378  24.794  1.00  0.00    -0.018 A 
ATOM     27  C   UNL A   1      31.636  27.748  27.068  1.00  0.00     0.009 A 
ATOM     28  C   UNL A   1      30.616  28.115  23.526  1.00  0.00     0.009 A 
ATOM     29  C   UNL A   1      31.656  29.660  25.070  1.00  0.00     0.009 A 
ATOM     30  C   UNL A   1      32.018  29.062  27.363  1.00  0.00     0.001 A 
ATOM     31  C   UNL A   1      32.062  30.009  26.353  1.00  0.00     0.001 A 
ENDBRANCH  20  22
ENDBRANCH   5   8
ENDBRANCH   3   4
ENDBRANCH   2   3
ENDBRANCH   1   2
BRANCH   1  32
ATOM     32  C   UNL A   1      39.648  20.498  26.763  1.00  0.00     0.116 C 
BRANCH  32  33
ATOM     33  N   UNL A   1      40.713  19.657  26.223  1.00  0.00    -0.352 N 
ATOM     34  C   UNL A   1      41.989  20.013  25.870  1.00  0.00     0.251 C 
ATOM     35  H   UNL A   1      40.484  18.709  26.096  1.00  0.00     0.163 HD
ATOM     36  O   UNL A   1      42.701  19.242  25.238  1.00  0.00    -0.269 OA
BRANCH  34  37
ATOM     37  C   UNL A   1      42.470  21.349  26.255  1.00  0.00     0.039 A 
ATOM     38  C   UNL A   1      42.682  22.309  25.269  1.00  0.00     0.014 A 
ATOM     39  C   UNL A   1      42.628  21.658  27.609  1.00  0.00     0.014 A 
ATOM     40  C   UNL A   1      42.995  23.612  25.652  1.00  0.00     0.010 A 
ATOM     41  C   UNL A   1      42.825  22.976  27.987  1.00  0.00     0.010 A 
ATOM     42  C   UNL A   1      43.030  23.962  27.013  1.00  0.00    -0.014 A 
BRANCH  42  43
ATOM     43  C   UNL A   1      43.281  25.357  27.440  1.00  0.00     0.031 A 
ATOM     44  C   UNL A   1      44.679  25.911  27.405  1.00  0.00     0.074 A 
ATOM     45  C   UNL A   1      42.266  26.093  27.930  1.00  0.00     0.049 A 
ATOM     46  N   UNL A   1      45.102  27.095  27.760  1.00  0.00    -0.248 NA
ATOM     47  C   UNL A   1      45.749  25.008  26.943  1.00  0.00     0.031 C 
ATOM     48  C   UNL A   1      40.886  25.629  28.102  1.00  0.00     0.029 A 
ATOM     49  N   UNL A   1      42.240  27.383  28.393  1.00  0.00    -0.354 N 
ATOM     50  C   UNL A   1      46.482  27.068  27.599  1.00  0.00     0.074 A 
ATOM     51  C   UNL A   1      46.833  25.735  27.163  1.00  0.00     0.031 C 
ATOM     52  C   UNL A   1      40.146  26.625  28.611  1.00  0.00     0.029 A 
ATOM     53  C   UNL A   1      41.002  27.786  28.837  1.00  0.00     0.049 A 
ATOM     54  H   UNL A   1      43.033  27.967  28.407  1.00  0.00     0.167 HD
ATOM     55  C   UNL A   1      47.374  28.070  27.765  1.00  0.00     0.034 A 
ATOM     56  C   UNL A   1      40.604  28.957  29.369  1.00  0.00     0.034 A 
ATOM     57  C   UNL A   1      47.012  29.403  28.163  1.00  0.00     0.049 A 
ATOM     58  C   UNL A   1      41.608  30.069  29.505  1.00  0.00     0.074 A 
ATOM     59  C   UNL A   1      47.822  30.518  28.271  1.00  0.00     0.029 A 
ATOM     60  N   UNL A   1      45.735  29.797  28.531  1.00  0.00    -0.354 N 
ATOM     61  N   UNL A   1      42.880  30.076  29.188  1.00  0.00    -0.248 NA
ATOM     62  C   UNL A   1      41.113  31.346  30.036  1.00  0.00     0.031 C 
ATOM     63  C   UNL A   1      47.041  31.579  28.741  1.00  0.00     0.029 A 
ATOM     64  C   UNL A   1      45.736  31.134  28.884  1.00  0.00     0.049 A 
ATOM     65  H   UNL A   1      44.943  29.211  28.540  1.00  0.00     0.167 HD
ATOM     66  C   UNL A   1      43.332  31.364  29.448  1.00  0.00     0.074 A 
ATOM     67  C   UNL A   1      42.188  32.115  29.925  1.00  0.00     0.031 C 
ATOM     68  C   UNL A   1      44.580  31.877  29.318  1.00  0.00     0.034 A 
BRANCH  55  69
ATOM     69  C   UNL A   1      48.822  27.773  27.475  1.00  0.00     0.023 A 
ATOM     70  C   UNL A   1      49.671  27.339  28.515  1.00  0.00     0.012 A 
ATOM     71  C   UNL A   1      49.333  27.881  26.168  1.00  0.00     0.148 A 
ATOM     72  C   UNL A   1      51.013  27.057  28.266  1.00  0.00     0.002 A 
ATOM     73  C   UNL A   1      50.659  27.548  25.918  1.00  0.00     0.091 A 
ATOM     74  F   UNL A   1      48.519  28.318  25.197  1.00  0.00    -0.205 F 
ATOM     75  C   UNL A   1      51.504  27.150  26.968  1.00  0.00     0.022 A 
BRANCH  73  76
ATOM     76  S   UNL A   1      51.365  27.555  24.267  1.00  0.00     0.127 S 
ATOM     77  O   UNL A   1      51.391  28.985  23.963  1.00  0.00    -0.237 OA
ATOM     78  O   UNL A   1      52.681  26.956  24.495  1.00  0.00    -0.237 OA
ATOM     79  O   UNL A   1      50.468  26.758  23.442  1.00  0.00    -0.744 OA
ENDBRANCH  73  76
ENDBRANCH  55  69
BRANCH  56  80
ATOM     80  C   UNL A   1      39.179  29.155  29.755  1.00  0.00     0.023 A 
ATOM     81  C   UNL A   1      38.748  28.776  31.042  1.00  0.00     0.012 A 
ATOM     82  C   UNL A   1      38.256  29.740  28.867  1.00  0.00     0.148 A 
ATOM     83  C   UNL A   1      37.416  28.941  31.423  1.00  0.00     0.002 A 
ATOM     84  C   UNL A   1      36.945  29.956  29.274  1.00  0.00     0.091 A 
ATOM     85  F   UNL A   1      38.685  30.089  27.646  1.00  0.00    -0.205 F 
ATOM     86  C   UNL A   1      36.517  29.539  30.543  1.00  0.00     0.022 A 
BRANCH  84  87
ATOM     87  S   UNL A   1      35.756  30.840  28.260  1.00  0.00     0.127 S 
ATOM     88  O   UNL A   1      35.428  29.843  27.244  1.00  0.00    -0.237 OA
ATOM     89  O   UNL A   1      34.687  31.115  29.222  1.00  0.00    -0.237 OA
ATOM     90  O   UNL A   1      36.451  32.026  27.780  1.00  0.00    -0.744 OA
ENDBRANCH  84  87
ENDBRANCH  56  80
BRANCH  68  91
ATOM     91  C   UNL A   1      44.773  33.331  29.661  1.00  0.00     0.023 A 
ATOM     92  C   UNL A   1      45.157  33.704  30.964  1.00  0.00     0.012 A 
ATOM     93  C   UNL A   1      44.633  34.323  28.670  1.00  0.00     0.148 A 
ATOM     94  C   UNL A   1      45.359  35.046  31.286  1.00  0.00     0.002 A 
ATOM     95  C   UNL A   1      44.889  35.652  28.984  1.00  0.00     0.091 A 
ATOM     96  F   UNL A   1      44.250  33.950  27.440  1.00  0.00    -0.205 F 
ATOM     97  C   UNL A   1      45.237  36.016  30.295  1.00  0.00     0.022 A 
BRANCH  95  98
ATOM     98  S   UNL A   1      44.854  36.956  27.750  1.00  0.00     0.127 S 
ATOM     99  O   UNL A   1      45.162  38.136  28.557  1.00  0.00    -0.237 OA
ATOM    100  O   UNL A   1      45.923  36.544  26.838  1.00  0.00    -0.237 OA
ATOM    101  O   UNL A   1      43.519  36.926  27.170  1.00  0.00    -0.744 OA
ENDBRANCH  95  98
ENDBRANCH  68  91
ENDBRANCH  42  43
ENDBRANCH  34  37
ENDBRANCH  32  33
ENDBRANCH   1  32
TORSDOF 15
ENDMDL
MODEL 2
REMARK VINA RESULT:     -13.0      1.446      7.392
REMARK SMILES CN1C(=O)C[C@@H](C(=O)NCCCCNC(=O)c2ccc(-c3c4nc(c(-c5cccc(S(=O)(=O)[O-])c5F)c5ccc([nH]5)c(-c5cccc(S(=O)(=O)[O-])c5F)c5nc(c(-c6cccc(S(=O)(=O)[O-])c6F)c6ccc3[nH]6)C=C5)C=C4)cc2)C12CCN(C(=O)c1cccc3ccccc13)CC2
REMARK SMILES IDX 12 1 11 2 10 3 9 4 7 5 8 6 6 8 1 9 2 10 3 11 80 12 4 13 5 14
REMARK SMILES IDX 81 15 97 16 82 17 96 18 83 19 84 20 85 21 86 22 87 23 95 24
REMARK SMILES IDX 88 25 90 26 94 27 89 28 91 29 93 30 92 31 13 32 14 33 15 34
REMARK SMILES IDX 16 36 17 37 18 38 79 39 19 40 78 41 20 42 21 43 22 44 72 45
REMARK SMILES IDX 23 46 77 47 71 48 73 49 24 50 76 51 70 52 69 53 25 55 57 56
REMARK SMILES IDX 37 57 56 58 38 59 41 60 55 61 74 62 39 63 40 64 54 66 75 67
REMARK SMILES IDX 42 68 26 69 27 70 35 71 28 72 30 73 36 74 29 75 31 76 32 77
REMARK SMILES IDX 33 78 34 79 58 80 59 81 67 82 60 83 62 84 68 85 61 86 63 87
REMARK SMILES IDX 64 88 65 89 66 90 43 91 44 92 52 93 45 94 47 95 53 96 46 97
REMARK SMILES IDX 48 98 49 99 50 100 51 101
REMARK H PARENT 9 7 14 35 73 54 41 65
REMARK Flexibility Score: inf
ROOT
ATOM      1  C   UNL A   1      38.151  19.590  24.619  1.00  0.00     0.023 C 
ENDROOT
BRANCH   1   2
ATOM      2  C   UNL A   1      36.684  19.290  24.889  1.00  0.00     0.023 C 
BRANCH   2   3
ATOM      3  C   UNL A   1      35.763  20.515  24.831  1.00  0.00     0.116 C 
BRANCH   3   4
ATOM      4  N   UNL A   1      35.580  21.208  26.097  1.00  0.00    -0.356 N 
ATOM      5  C   UNL A   1      34.498  21.419  26.893  1.00  0.00     0.226 C 
ATOM      6  O   UNL A   1      34.713  21.972  27.978  1.00  0.00    -0.275 OA
ATOM      7  H   UNL A   1      36.409  21.605  26.449  1.00  0.00     0.163 HD
BRANCH   5   8
ATOM      8  C   UNL A   1      33.051  21.074  26.527  1.00  0.00     0.113 C 
ATOM      9  C   UNL A   1      32.278  21.317  22.879  1.00  0.00     0.147 C 
ATOM     10  N   UNL A   1      32.440  20.949  24.274  1.00  0.00    -0.339 N 
ATOM     11  C   UNL A   1      32.621  19.628  24.668  1.00  0.00     0.223 C 
ATOM     12  C   UNL A   1      32.387  21.897  25.400  1.00  0.00     0.058 C 
ATOM     13  O   UNL A   1      32.626  18.646  23.949  1.00  0.00    -0.275 OA
ATOM     14  C   UNL A   1      32.875  19.603  26.150  1.00  0.00     0.116 C 
ATOM     15  C   UNL A   1      33.089  23.245  25.148  1.00  0.00     0.051 C 
ATOM     16  C   UNL A   1      30.882  22.195  25.687  1.00  0.00     0.051 C 
ATOM     17  C   UNL A   1      32.877  24.251  26.276  1.00  0.00     0.122 C 
ATOM     18  C   UNL A   1      30.646  23.354  26.660  1.00  0.00     0.122 C 
ATOM     19  N   UNL A   1      31.463  24.521  26.325  1.00  0.00    -0.338 N 
ATOM     20  C   UNL A   1      30.869  25.707  25.912  1.00  0.00     0.254 C 
ATOM     21  O   UNL A   1      29.661  25.784  25.682  1.00  0.00    -0.269 OA
BRANCH  20  22
ATOM     22  C   UNL A   1      31.628  26.992  25.888  1.00  0.00     0.047 A 
ATOM     23  C   UNL A   1      31.352  27.812  26.996  1.00  0.00     0.014 A 
ATOM     24  C   UNL A   1      32.371  27.501  24.780  1.00  0.00    -0.006 A 
ATOM     25  C   UNL A   1      31.725  29.150  26.995  1.00  0.00     0.001 A 
ATOM     26  C   UNL A   1      32.690  28.885  24.779  1.00  0.00    -0.018 A 
ATOM     27  C   UNL A   1      32.849  26.748  23.681  1.00  0.00     0.009 A 
ATOM     28  C   UNL A   1      32.344  29.691  25.873  1.00  0.00     0.009 A 
ATOM     29  C   UNL A   1      33.365  29.465  23.692  1.00  0.00     0.009 A 
ATOM     30  C   UNL A   1      33.629  27.315  22.666  1.00  0.00     0.001 A 
ATOM     31  C   UNL A   1      33.856  28.681  22.654  1.00  0.00     0.001 A 
ENDBRANCH  20  22
ENDBRANCH   5   8
ENDBRANCH   3   4
ENDBRANCH   2   3
ENDBRANCH   1   2
BRANCH   1  32
ATOM     32  C   UNL A   1      38.907  20.023  25.863  1.00  0.00     0.116 C 
BRANCH  32  33
ATOM     33  N   UNL A   1      40.081  19.191  26.110  1.00  0.00    -0.352 N 
ATOM     34  C   UNL A   1      41.361  19.584  26.409  1.00  0.00     0.251 C 
ATOM     35  H   UNL A   1      39.935  18.220  26.054  1.00  0.00     0.163 HD
ATOM     36  O   UNL A   1      42.284  18.779  26.384  1.00  0.00    -0.269 OA
BRANCH  34  37
ATOM     37  C   UNL A   1      41.595  20.998  26.742  1.00  0.00     0.039 A 
ATOM     38  C   UNL A   1      42.080  21.330  28.005  1.00  0.00     0.014 A 
ATOM     39  C   UNL A   1      41.404  21.976  25.762  1.00  0.00     0.014 A 
ATOM     40  C   UNL A   1      42.437  22.652  28.263  1.00  0.00     0.010 A 
ATOM     41  C   UNL A   1      41.867  23.262  25.985  1.00  0.00     0.010 A 
ATOM     42  C   UNL A   1      42.369  23.617  27.243  1.00  0.00    -0.014 A 
BRANCH  42  43
ATOM     43  C   UNL A   1      42.819  25.009  27.474  1.00  0.00     0.031 A 
ATOM     44  C   UNL A   1      41.882  26.005  28.100  1.00  0.00     0.074 A 
ATOM     45  C   UNL A   1      44.039  25.390  27.049  1.00  0.00     0.049 A 
ATOM     46  N   UNL A   1      42.082  27.270  28.359  1.00  0.00    -0.248 NA
ATOM     47  C   UNL A   1      40.531  25.530  28.450  1.00  0.00     0.031 C 
ATOM     48  C   UNL A   1      44.996  24.535  26.342  1.00  0.00     0.029 A 
ATOM     49  N   UNL A   1      44.675  26.602  27.131  1.00  0.00    -0.354 N 
ATOM     50  C   UNL A   1      40.880  27.747  28.867  1.00  0.00     0.074 A 
ATOM     51  C   UNL A   1      39.939  26.650  28.832  1.00  0.00     0.031 C 
ATOM     52  C   UNL A   1      46.105  25.243  26.075  1.00  0.00     0.029 A 
ATOM     53  C   UNL A   1      45.925  26.609  26.558  1.00  0.00     0.049 A 
ATOM     54  H   UNL A   1      44.275  27.393  27.561  1.00  0.00     0.167 HD
ATOM     55  C   UNL A   1      40.593  28.977  29.350  1.00  0.00     0.034 A 
ATOM     56  C   UNL A   1      46.822  27.605  26.432  1.00  0.00     0.034 A 
ATOM     57  C   UNL A   1      41.546  30.051  29.415  1.00  0.00     0.049 A 
ATOM     58  C   UNL A   1      46.493  28.952  27.015  1.00  0.00     0.074 A 
ATOM     59  C   UNL A   1      41.389  31.307  29.971  1.00  0.00     0.029 A 
ATOM     60  N   UNL A   1      42.830  30.000  28.894  1.00  0.00    -0.354 N 
ATOM     61  N   UNL A   1      45.410  29.338  27.644  1.00  0.00    -0.248 NA
ATOM     62  C   UNL A   1      47.527  29.991  26.905  1.00  0.00     0.031 C 
ATOM     63  C   UNL A   1      42.567  32.029  29.752  1.00  0.00     0.029 A 
ATOM     64  C   UNL A   1      43.471  31.208  29.099  1.00  0.00     0.049 A 
ATOM     65  H   UNL A   1      43.226  29.218  28.444  1.00  0.00     0.167 HD
ATOM     66  C   UNL A   1      45.642  30.651  28.035  1.00  0.00     0.074 A 
ATOM     67  C   UNL A   1      46.980  30.985  27.592  1.00  0.00     0.031 C 
ATOM     68  C   UNL A   1      44.819  31.509  28.688  1.00  0.00     0.034 A 
BRANCH  55  69
ATOM     69  C   UNL A   1      39.205  29.211  29.887  1.00  0.00     0.023 A 
ATOM     70  C   UNL A   1      38.885  28.812  31.202  1.00  0.00     0.012 A 
ATOM     71  C   UNL A   1      38.231  29.865  29.108  1.00  0.00     0.148 A 
ATOM     72  C   UNL A   1      37.607  29.022  31.718  1.00  0.00     0.002 A 
ATOM     73  C   UNL A   1      36.976  30.118  29.649  1.00  0.00     0.091 A 
ATOM     74  F   UNL A   1      38.545  30.215  27.853  1.00  0.00    -0.205 F 
ATOM     75  C   UNL A   1      36.658  29.685  30.947  1.00  0.00     0.022 A 
BRANCH  73  76
ATOM     76  S   UNL A   1      35.709  31.036  28.767  1.00  0.00     0.127 S 
ATOM     77  O   UNL A   1      34.908  31.567  29.869  1.00  0.00    -0.237 OA
ATOM     78  O   UNL A   1      36.502  32.037  28.051  1.00  0.00    -0.237 OA
ATOM     79  O   UNL A   1      35.033  30.071  27.912  1.00  0.00    -0.744 OA
ENDBRANCH  73  76
ENDBRANCH  55  69
BRANCH  56  80
ATOM     80  C   UNL A   1      48.136  27.348  25.779  1.00  0.00     0.023 A 
ATOM     81  C   UNL A   1      49.223  26.906  26.558  1.00  0.00     0.012 A 
ATOM     82  C   UNL A   1      48.306  27.510  24.392  1.00  0.00     0.148 A 
ATOM     83  C   UNL A   1      50.467  26.667  25.972  1.00  0.00     0.002 A 
ATOM     84  C   UNL A   1      49.531  27.215  23.805  1.00  0.00     0.091 A 
ATOM     85  F   UNL A   1      47.260  27.936  23.670  1.00  0.00    -0.205 F 
ATOM     86  C   UNL A   1      50.619  26.813  24.595  1.00  0.00     0.022 A 
BRANCH  84  87
ATOM     87  S   UNL A   1      49.779  27.242  22.027  1.00  0.00     0.127 S 
ATOM     88  O   UNL A   1      48.759  26.302  21.568  1.00  0.00    -0.237 OA
ATOM     89  O   UNL A   1      49.513  28.645  21.708  1.00  0.00    -0.237 OA
ATOM     90  O   UNL A   1      51.159  26.829  21.814  1.00  0.00    -0.744 OA
ENDBRANCH  84  87
ENDBRANCH  56  80
BRANCH  68  91
ATOM     91  C   UNL A   1      45.353  32.883  28.999  1.00  0.00     0.023 A 
ATOM     92  C   UNL A   1      46.079  33.106  30.185  1.00  0.00     0.012 A 
ATOM     93  C   UNL A   1      45.187  33.938  28.080  1.00  0.00     0.148 A 
ATOM     94  C   UNL A   1      46.596  34.369  30.472  1.00  0.00     0.002 A 
ATOM     95  C   UNL A   1      45.751  35.179  28.346  1.00  0.00     0.091 A 
ATOM     96  F   UNL A   1      44.479  33.710  26.964  1.00  0.00    -0.205 F 
ATOM     97  C   UNL A   1      46.442  35.400  29.548  1.00  0.00     0.022 A 
BRANCH  95  98
ATOM     98  S   UNL A   1      45.691  36.535  27.171  1.00  0.00     0.127 S 
ATOM     99  O   UNL A   1      44.250  36.721  27.005  1.00  0.00    -0.237 OA
ATOM    100  O   UNL A   1      46.363  37.609  27.905  1.00  0.00    -0.237 OA
ATOM    101  O   UNL A   1      46.403  36.075  25.988  1.00  0.00    -0.744 OA
ENDBRANCH  95  98
ENDBRANCH  68  91
ENDBRANCH  42  43
ENDBRANCH  34  37
ENDBRANCH  32  33
ENDBRANCH   1  32
TORSDOF 15
ENDMDL
MODEL 3
REMARK VINA RESULT:     -12.9      1.718      7.379
REMARK SMILES CN1C(=O)C[C@@H](C(=O)NCCCCNC(=O)c2ccc(-c3c4nc(c(-c5cccc(S(=O)(=O)[O-])c5F)c5ccc([nH]5)c(-c5cccc(S(=O)(=O)[O-])c5F)c5nc(c(-c6cccc(S(=O)(=O)[O-])c6F)c6ccc3[nH]6)C=C5)C=C4)cc2)C12CCN(C(=O)c1cccc3ccccc13)CC2
REMARK SMILES IDX 12 1 11 2 10 3 9 4 7 5 8 6 6 8 1 9 2 10 3 11 80 12 4 13 5 14
REMARK SMILES IDX 81 15 97 16 82 17 96 18 83 19 84 20 85 21 86 22 87 23 95 24
REMARK SMILES IDX 88 25 90 26 94 27 89 28 91 29 93 30 92 31 13 32 14 33 15 34
REMARK SMILES IDX 16 36 17 37 18 38 79 39 19 40 78 41 20 42 21 43 22 44 72 45
REMARK SMILES IDX 23 46 77 47 71 48 73 49 24 50 76 51 70 52 69 53 25 55 57 56
REMARK SMILES IDX 37 57 56 58 38 59 41 60 55 61 74 62 39 63 40 64 54 66 75 67
REMARK SMILES IDX 42 68 26 69 27 70 35 71 28 72 30 73 36 74 29 75 31 76 32 77
REMARK SMILES IDX 33 78 34 79 58 80 59 81 67 82 60 83 62 84 68 85 61 86 63 87
REMARK SMILES IDX 64 88 65 89 66 90 43 91 44 92 52 93 45 94 47 95 53 96 46 97
REMARK SMILES IDX 48 98 49 99 50 100 51 101
REMARK H PARENT 9 7 14 35 73 54 41 65
REMARK Flexibility Score: inf
ROOT
ATOM      1  C   UNL A   1      39.470  21.824  26.759  1.00  0.00     0.023 C 
ENDROOT
BRANCH   1   2
ATOM      2  C   UNL A   1      39.285  23.246  26.249  1.00  0.00     0.023 C 
BRANCH   2   3
ATOM      3  C   UNL A   1      37.822  23.686  26.109  1.00  0.00     0.116 C 
BRANCH   3   4
ATOM      4  N   UNL A   1      37.223  23.430  24.809  1.00  0.00    -0.356 N 
ATOM      5  C   UNL A   1      36.113  22.754  24.414  1.00  0.00     0.226 C 
ATOM      6  O   UNL A   1      35.827  22.818  23.213  1.00  0.00    -0.275 OA
ATOM      7  H   UNL A   1      37.726  23.829  24.062  1.00  0.00     0.163 HD
BRANCH   5   8
ATOM      8  C   UNL A   1      35.233  21.891  25.325  1.00  0.00     0.113 C 
ATOM      9  C   UNL A   1      32.433  20.145  23.570  1.00  0.00     0.147 C 
ATOM     10  N   UNL A   1      33.574  20.546  24.373  1.00  0.00    -0.339 N 
ATOM     11  C   UNL A   1      34.632  19.680  24.629  1.00  0.00     0.223 C 
ATOM     12  C   UNL A   1      33.717  21.858  25.027  1.00  0.00     0.058 C 
ATOM     13  O   UNL A   1      34.727  18.520  24.275  1.00  0.00    -0.275 OA
ATOM     14  C   UNL A   1      35.694  20.435  25.380  1.00  0.00     0.116 C 
ATOM     15  C   UNL A   1      33.246  23.059  24.183  1.00  0.00     0.051 C 
ATOM     16  C   UNL A   1      32.854  21.827  26.326  1.00  0.00     0.051 C 
ATOM     17  C   UNL A   1      33.265  24.376  24.953  1.00  0.00     0.122 C 
ATOM     18  C   UNL A   1      32.683  23.193  26.999  1.00  0.00     0.122 C 
ATOM     19  N   UNL A   1      32.326  24.234  26.035  1.00  0.00    -0.338 N 
ATOM     20  C   UNL A   1      31.089  24.863  26.096  1.00  0.00     0.254 C 
ATOM     21  O   UNL A   1      30.203  24.484  26.865  1.00  0.00    -0.269 OA
BRANCH  20  22
ATOM     22  C   UNL A   1      30.824  26.135  25.361  1.00  0.00     0.047 A 
ATOM     23  C   UNL A   1      30.207  25.929  24.115  1.00  0.00     0.014 A 
ATOM     24  C   UNL A   1      31.333  27.422  25.712  1.00  0.00    -0.006 A 
ATOM     25  C   UNL A   1      30.160  26.950  23.173  1.00  0.00     0.001 A 
ATOM     26  C   UNL A   1      31.322  28.431  24.711  1.00  0.00    -0.018 A 
ATOM     27  C   UNL A   1      31.831  27.804  26.980  1.00  0.00     0.009 A 
ATOM     28  C   UNL A   1      30.757  28.173  23.454  1.00  0.00     0.009 A 
ATOM     29  C   UNL A   1      31.864  29.701  24.969  1.00  0.00     0.009 A 
ATOM     30  C   UNL A   1      32.251  29.110  27.259  1.00  0.00     0.001 A 
ATOM     31  C   UNL A   1      32.302  30.049  26.242  1.00  0.00     0.001 A 
ENDBRANCH  20  22
ENDBRANCH   5   8
ENDBRANCH   3   4
ENDBRANCH   2   3
ENDBRANCH   1   2
BRANCH   1  32
ATOM     32  C   UNL A   1      39.548  20.798  25.643  1.00  0.00     0.116 C 
BRANCH  32  33
ATOM     33  N   UNL A   1      40.375  19.651  26.007  1.00  0.00    -0.352 N 
ATOM     34  C   UNL A   1      41.716  19.620  26.296  1.00  0.00     0.251 C 
ATOM     35  H   UNL A   1      39.909  18.786  26.050  1.00  0.00     0.163 HD
ATOM     36  O   UNL A   1      42.312  18.553  26.380  1.00  0.00    -0.269 OA
BRANCH  34  37
ATOM     37  C   UNL A   1      42.416  20.899  26.484  1.00  0.00     0.039 A 
ATOM     38  C   UNL A   1      42.707  21.689  25.374  1.00  0.00     0.014 A 
ATOM     39  C   UNL A   1      42.706  21.340  27.779  1.00  0.00     0.014 A 
ATOM     40  C   UNL A   1      43.237  22.962  25.572  1.00  0.00     0.010 A 
ATOM     41  C   UNL A   1      43.123  22.646  27.975  1.00  0.00     0.010 A 
ATOM     42  C   UNL A   1      43.412  23.463  26.874  1.00  0.00    -0.014 A 
BRANCH  42  43
ATOM     43  C   UNL A   1      43.898  24.842  27.106  1.00  0.00     0.031 A 
ATOM     44  C   UNL A   1      42.964  25.881  27.663  1.00  0.00     0.074 A 
ATOM     45  C   UNL A   1      45.151  25.173  26.742  1.00  0.00     0.049 A 
ATOM     46  N   UNL A   1      43.195  27.143  27.912  1.00  0.00    -0.248 NA
ATOM     47  C   UNL A   1      41.581  25.460  27.947  1.00  0.00     0.031 C 
ATOM     48  C   UNL A   1      46.115  24.273  26.103  1.00  0.00     0.029 A 
ATOM     49  N   UNL A   1      45.825  26.363  26.839  1.00  0.00    -0.354 N 
ATOM     50  C   UNL A   1      41.985  27.671  28.346  1.00  0.00     0.074 A 
ATOM     51  C   UNL A   1      41.009  26.607  28.278  1.00  0.00     0.031 C 
ATOM     52  C   UNL A   1      47.260  24.937  25.885  1.00  0.00     0.029 A 
ATOM     53  C   UNL A   1      47.103  26.316  26.334  1.00  0.00     0.049 A 
ATOM     54  H   UNL A   1      45.431  27.175  27.233  1.00  0.00     0.167 HD
ATOM     55  C   UNL A   1      41.717  28.918  28.793  1.00  0.00     0.034 A 
ATOM     56  C   UNL A   1      48.040  27.279  26.241  1.00  0.00     0.034 A 
ATOM     57  C   UNL A   1      42.702  29.960  28.892  1.00  0.00     0.049 A 
ATOM     58  C   UNL A   1      47.729  28.647  26.784  1.00  0.00     0.074 A 
ATOM     59  C   UNL A   1      42.560  31.231  29.418  1.00  0.00     0.029 A 
ATOM     60  N   UNL A   1      44.009  29.855  28.442  1.00  0.00    -0.354 N 
ATOM     61  N   UNL A   1      46.628  29.081  27.346  1.00  0.00    -0.248 NA
ATOM     62  C   UNL A   1      48.804  29.647  26.713  1.00  0.00     0.031 C 
ATOM     63  C   UNL A   1      43.773  31.907  29.252  1.00  0.00     0.029 A 
ATOM     64  C   UNL A   1      44.682  31.043  28.662  1.00  0.00     0.049 A 
ATOM     65  H   UNL A   1      44.402  29.052  28.027  1.00  0.00     0.167 HD
ATOM     66  C   UNL A   1      46.885  30.393  27.727  1.00  0.00     0.074 A 
ATOM     67  C   UNL A   1      48.257  30.671  27.353  1.00  0.00     0.031 C 
ATOM     68  C   UNL A   1      46.060  31.290  28.320  1.00  0.00     0.034 A 
BRANCH  55  69
ATOM     69  C   UNL A   1      40.311  29.211  29.249  1.00  0.00     0.023 A 
ATOM     70  C   UNL A   1      39.345  29.638  28.313  1.00  0.00     0.012 A 
ATOM     71  C   UNL A   1      39.934  29.022  30.592  1.00  0.00     0.148 A 
ATOM     72  C   UNL A   1      38.038  29.911  28.715  1.00  0.00     0.002 A 
ATOM     73  C   UNL A   1      38.616  29.246  30.974  1.00  0.00     0.091 A 
ATOM     74  F   UNL A   1      40.870  28.639  31.471  1.00  0.00    -0.205 F 
ATOM     75  C   UNL A   1      37.671  29.704  30.041  1.00  0.00     0.022 A 
BRANCH  73  76
ATOM     76  S   UNL A   1      38.024  28.930  32.640  1.00  0.00     0.127 S 
ATOM     77  O   UNL A   1      38.873  29.820  33.429  1.00  0.00    -0.237 OA
ATOM     78  O   UNL A   1      36.623  29.345  32.549  1.00  0.00    -0.237 OA
ATOM     79  O   UNL A   1      38.223  27.507  32.874  1.00  0.00    -0.744 OA
ENDBRANCH  73  76
ENDBRANCH  55  69
BRANCH  56  80
ATOM     80  C   UNL A   1      49.378  26.964  25.666  1.00  0.00     0.023 A 
ATOM     81  C   UNL A   1      50.351  26.339  26.470  1.00  0.00     0.012 A 
ATOM     82  C   UNL A   1      49.681  27.254  24.322  1.00  0.00     0.148 A 
ATOM     83  C   UNL A   1      51.614  26.043  25.957  1.00  0.00     0.002 A 
ATOM     84  C   UNL A   1      50.921  26.903  23.801  1.00  0.00     0.091 A 
ATOM     85  F   UNL A   1      48.743  27.853  23.575  1.00  0.00    -0.205 F 
ATOM     86  C   UNL A   1      51.896  26.316  24.621  1.00  0.00     0.022 A 
BRANCH  84  87
ATOM     87  S   UNL A   1      51.323  27.092  22.061  1.00  0.00     0.127 S 
ATOM     88  O   UNL A   1      52.435  26.157  21.907  1.00  0.00    -0.237 OA
ATOM     89  O   UNL A   1      50.075  26.678  21.418  1.00  0.00    -0.237 OA
ATOM     90  O   UNL A   1      51.652  28.499  21.882  1.00  0.00    -0.744 OA
ENDBRANCH  84  87
ENDBRANCH  56  80
BRANCH  68  91
ATOM     91  C   UNL A   1      46.624  32.650  28.637  1.00  0.00     0.023 A 
ATOM     92  C   UNL A   1      47.224  32.891  29.888  1.00  0.00     0.012 A 
ATOM     93  C   UNL A   1      46.615  33.671  27.666  1.00  0.00     0.148 A 
ATOM     94  C   UNL A   1      47.769  34.140  30.184  1.00  0.00     0.002 A 
ATOM     95  C   UNL A   1      47.208  34.895  27.947  1.00  0.00     0.091 A 
ATOM     96  F   UNL A   1      46.024  33.427  26.487  1.00  0.00    -0.205 F 
ATOM     97  C   UNL A   1      47.771  35.136  29.210  1.00  0.00     0.022 A 
BRANCH  95  98
ATOM     98  S   UNL A   1      47.347  36.201  26.722  1.00  0.00     0.127 S 
ATOM     99  O   UNL A   1      45.945  36.547  26.496  1.00  0.00    -0.237 OA
ATOM    100  O   UNL A   1      48.119  37.216  27.442  1.00  0.00    -0.237 OA
ATOM    101  O   UNL A   1      48.038  35.612  25.583  1.00  0.00    -0.744 OA
ENDBRANCH  95  98
ENDBRANCH  68  91
ENDBRANCH  42  43
ENDBRANCH  34  37
ENDBRANCH  32  33
ENDBRANCH   1  32
TORSDOF 15
ENDMDL
