MODEL 1
REMARK VINA RESULT:     -12.0      0.000      0.000
REMARK SMILES Cc1cc(C)n(CC(=O)N[C@H]2C=C[C@@H](C(=O)NCCCCNC(=O)c3ccc(-c4c5nc(c(-c6cccc(S(=O)(=O)[O-])c6F)c6ccc([nH]6)c(-c6cccc(S(=O)(=O)[O-])c6F)c6nc(c(-c7cccc(S(=O)(=O)[O-])c7F)c7ccc4[nH]7)C=C6)C=C5)cc3)C2)n1
REMARK SMILES IDX 19 1 18 2 17 3 15 4 16 5 14 7 11 8 12 9 88 10 13 11 10 12
REMARK SMILES IDX 8 13 9 14 7 16 6 17 1 18 2 19 3 20 89 21 4 22 5 23 20 24
REMARK SMILES IDX 21 25 22 26 23 27 24 29 25 30 26 31 87 32 27 33 86 34 28 35
REMARK SMILES IDX 29 36 30 37 80 38 31 39 85 40 79 41 81 42 32 43 84 44 78 45
REMARK SMILES IDX 77 46 33 48 65 49 45 50 64 51 46 52 49 53 63 54 82 55 47 56
REMARK SMILES IDX 48 57 62 59 83 60 50 61 34 62 35 63 43 64 36 65 38 66 44 67
REMARK SMILES IDX 37 68 39 69 40 70 41 71 42 72 66 73 67 74 75 75 68 76 70 77
REMARK SMILES IDX 76 78 69 79 71 80 72 81 73 82 74 83 51 84 52 85 60 86 53 87
REMARK SMILES IDX 55 88 61 89 54 90 56 91 57 92 58 93 59 94
REMARK H PARENT 17 6 10 15 22 28 81 47 49 58
REMARK Flexibility Score: inf
ROOT
ATOM      1  C   UNL A   1      32.898  29.574  27.194  1.00  0.00     0.023 C 
ENDROOT
BRANCH   1   2
ATOM      2  C   UNL A   1      32.271  30.764  26.439  1.00  0.00     0.116 C 
BRANCH   2   3
ATOM      3  N   UNL A   1      31.477  30.401  25.258  1.00  0.00    -0.356 N 
ATOM      4  C   UNL A   1      30.906  29.380  24.593  1.00  0.00     0.227 C 
ATOM      5  O   UNL A   1      30.102  29.802  23.736  1.00  0.00    -0.274 OA
ATOM      6  H   UNL A   1      31.288  31.227  24.758  1.00  0.00     0.163 HD
BRANCH   4   7
ATOM      7  C   UNL A   1      31.070  27.836  24.648  1.00  0.00     0.103 C 
ATOM      8  C   UNL A   1      30.982  25.562  25.488  1.00  0.00     0.106 C 
ATOM      9  C   UNL A   1      30.303  25.662  24.174  1.00  0.00    -0.006 C 
ATOM     10  C   UNL A   1      31.060  27.042  25.956  1.00  0.00     0.047 C 
ATOM     11  C   UNL A   1      30.341  26.926  23.707  1.00  0.00    -0.016 C 
BRANCH   8  12
ATOM     12  N   UNL A   1      30.460  24.628  26.480  1.00  0.00    -0.348 N 
ATOM     13  C   UNL A   1      30.392  23.285  26.687  1.00  0.00     0.242 C 
ATOM     14  O   UNL A   1      29.813  22.940  27.729  1.00  0.00    -0.273 OA
ATOM     15  H   UNL A   1      30.029  25.115  27.220  1.00  0.00     0.164 HD
BRANCH  13  16
ATOM     16  C   UNL A   1      30.965  22.227  25.777  1.00  0.00     0.244 C 
BRANCH  16  17
ATOM     17  N   UNL A   1      32.377  21.999  25.985  1.00  0.00    -0.260 N 
ATOM     18  C   UNL A   1      35.243  24.027  25.593  1.00  0.00     0.069 C 
ATOM     19  C   UNL A   1      34.250  22.926  25.696  1.00  0.00     0.060 A 
ATOM     20  C   UNL A   1      34.258  21.680  25.051  1.00  0.00     0.048 A 
ATOM     21  N   UNL A   1      33.122  23.049  26.400  1.00  0.00    -0.178 NA
ATOM     22  C   UNL A   1      33.141  20.995  25.451  1.00  0.00     0.036 A 
ATOM     23  C   UNL A   1      32.736  19.593  25.194  1.00  0.00     0.066 C 
ENDBRANCH  16  17
ENDBRANCH  13  16
ENDBRANCH   8  12
ENDBRANCH   4   7
ENDBRANCH   2   3
ENDBRANCH   1   2
BRANCH   1  24
ATOM     24  C   UNL A   1      34.248  29.064  26.621  1.00  0.00     0.023 C 
BRANCH  24  25
ATOM     25  C   UNL A   1      35.522  29.672  27.220  1.00  0.00     0.116 C 
BRANCH  25  26
ATOM     26  N   UNL A   1      35.353  31.043  27.715  1.00  0.00    -0.352 N 
ATOM     27  C   UNL A   1      36.020  31.668  28.763  1.00  0.00     0.251 C 
ATOM     28  H   UNL A   1      34.681  31.589  27.246  1.00  0.00     0.163 HD
ATOM     29  O   UNL A   1      35.625  32.729  29.211  1.00  0.00    -0.269 OA
BRANCH  27  30
ATOM     30  C   UNL A   1      37.213  31.008  29.341  1.00  0.00     0.039 A 
ATOM     31  C   UNL A   1      37.200  29.652  29.680  1.00  0.00     0.014 A 
ATOM     32  C   UNL A   1      38.373  31.755  29.488  1.00  0.00     0.014 A 
ATOM     33  C   UNL A   1      38.398  29.031  30.044  1.00  0.00     0.010 A 
ATOM     34  C   UNL A   1      39.571  31.126  29.742  1.00  0.00     0.010 A 
ATOM     35  C   UNL A   1      39.594  29.764  30.037  1.00  0.00    -0.014 A 
BRANCH  35  36
ATOM     36  C   UNL A   1      40.889  29.092  30.192  1.00  0.00     0.031 A 
ATOM     37  C   UNL A   1      41.354  28.864  31.596  1.00  0.00     0.074 A 
ATOM     38  C   UNL A   1      41.487  28.413  29.190  1.00  0.00     0.049 A 
ATOM     39  N   UNL A   1      42.461  29.243  32.151  1.00  0.00    -0.248 NA
ATOM     40  C   UNL A   1      40.443  28.162  32.514  1.00  0.00     0.031 C 
ATOM     41  C   UNL A   1      40.977  28.178  27.834  1.00  0.00     0.029 A 
ATOM     42  N   UNL A   1      42.597  27.621  29.240  1.00  0.00    -0.354 N 
ATOM     43  C   UNL A   1      42.476  28.667  33.426  1.00  0.00     0.074 A 
ATOM     44  C   UNL A   1      41.150  28.152  33.645  1.00  0.00     0.031 C 
ATOM     45  C   UNL A   1      41.598  27.101  27.308  1.00  0.00     0.029 A 
ATOM     46  C   UNL A   1      42.661  26.695  28.205  1.00  0.00     0.049 A 
ATOM     47  H   UNL A   1      43.284  27.698  29.941  1.00  0.00     0.167 HD
ATOM     48  C   UNL A   1      43.633  28.479  34.126  1.00  0.00     0.034 A 
ATOM     49  C   UNL A   1      43.494  25.633  28.117  1.00  0.00     0.034 A 
ATOM     50  C   UNL A   1      44.726  29.222  33.552  1.00  0.00     0.049 A 
ATOM     51  C   UNL A   1      44.623  25.875  29.043  1.00  0.00     0.074 A 
ATOM     52  C   UNL A   1      44.983  30.548  33.266  1.00  0.00     0.029 A 
ATOM     53  N   UNL A   1      45.677  28.506  32.867  1.00  0.00    -0.354 N 
ATOM     54  N   UNL A   1      45.510  26.817  28.882  1.00  0.00    -0.248 NA
ATOM     55  C   UNL A   1      44.576  25.280  30.367  1.00  0.00     0.031 C 
ATOM     56  C   UNL A   1      45.739  30.522  32.056  1.00  0.00     0.029 A 
ATOM     57  C   UNL A   1      45.924  29.182  31.704  1.00  0.00     0.049 A 
ATOM     58  H   UNL A   1      46.102  27.667  33.158  1.00  0.00     0.167 HD
ATOM     59  C   UNL A   1      45.812  27.234  30.170  1.00  0.00     0.074 A 
ATOM     60  C   UNL A   1      45.326  26.161  31.033  1.00  0.00     0.031 C 
ATOM     61  C   UNL A   1      46.156  28.532  30.432  1.00  0.00     0.034 A 
BRANCH  48  62
ATOM     62  C   UNL A   1      43.906  27.379  35.141  1.00  0.00     0.023 A 
ATOM     63  C   UNL A   1      44.379  27.782  36.416  1.00  0.00     0.012 A 
ATOM     64  C   UNL A   1      43.994  26.001  34.846  1.00  0.00     0.148 A 
ATOM     65  C   UNL A   1      44.983  26.885  37.305  1.00  0.00     0.002 A 
ATOM     66  C   UNL A   1      44.516  25.098  35.770  1.00  0.00     0.091 A 
ATOM     67  F   UNL A   1      43.699  25.554  33.623  1.00  0.00    -0.205 F 
ATOM     68  C   UNL A   1      45.047  25.537  36.984  1.00  0.00     0.022 A 
BRANCH  66  69
ATOM     69  S   UNL A   1      44.547  23.333  35.430  1.00  0.00     0.127 S 
ATOM     70  O   UNL A   1      45.093  22.802  36.675  1.00  0.00    -0.237 OA
ATOM     71  O   UNL A   1      43.133  23.039  35.198  1.00  0.00    -0.237 OA
ATOM     72  O   UNL A   1      45.384  23.192  34.242  1.00  0.00    -0.744 OA
ENDBRANCH  66  69
ENDBRANCH  48  62
BRANCH  49  73
ATOM     73  C   UNL A   1      43.316  24.346  27.411  1.00  0.00     0.023 A 
ATOM     74  C   UNL A   1      42.057  23.717  27.429  1.00  0.00     0.012 A 
ATOM     75  C   UNL A   1      44.298  23.856  26.520  1.00  0.00     0.148 A 
ATOM     76  C   UNL A   1      41.771  22.652  26.569  1.00  0.00     0.002 A 
ATOM     77  C   UNL A   1      44.012  22.789  25.672  1.00  0.00     0.091 A 
ATOM     78  F   UNL A   1      45.474  24.493  26.436  1.00  0.00    -0.205 F 
ATOM     79  C   UNL A   1      42.746  22.190  25.688  1.00  0.00     0.022 A 
BRANCH  77  80
ATOM     80  S   UNL A   1      45.214  22.153  24.494  1.00  0.00     0.127 S 
ATOM     81  O   UNL A   1      46.277  21.662  25.372  1.00  0.00    -0.237 OA
ATOM     82  O   UNL A   1      44.450  21.108  23.817  1.00  0.00    -0.237 OA
ATOM     83  O   UNL A   1      45.598  23.289  23.666  1.00  0.00    -0.744 OA
ENDBRANCH  77  80
ENDBRANCH  49  73
BRANCH  61  84
ATOM     84  C   UNL A   1      46.479  29.444  29.273  1.00  0.00     0.023 A 
ATOM     85  C   UNL A   1      47.748  29.439  28.655  1.00  0.00     0.012 A 
ATOM     86  C   UNL A   1      45.440  30.176  28.673  1.00  0.00     0.148 A 
ATOM     87  C   UNL A   1      47.982  30.166  27.486  1.00  0.00     0.002 A 
ATOM     88  C   UNL A   1      45.664  30.859  27.482  1.00  0.00     0.091 A 
ATOM     89  F   UNL A   1      44.233  30.170  29.260  1.00  0.00    -0.205 F 
ATOM     90  C   UNL A   1      46.936  30.865  26.891  1.00  0.00     0.022 A 
BRANCH  88  91
ATOM     91  S   UNL A   1      44.320  31.657  26.598  1.00  0.00     0.127 S 
ATOM     92  O   UNL A   1      43.380  30.555  26.407  1.00  0.00    -0.237 OA
ATOM     93  O   UNL A   1      43.875  32.681  27.546  1.00  0.00    -0.237 OA
ATOM     94  O   UNL A   1      44.917  32.199  25.383  1.00  0.00    -0.744 OA
ENDBRANCH  88  91
ENDBRANCH  61  84
ENDBRANCH  35  36
ENDBRANCH  27  30
ENDBRANCH  25  26
ENDBRANCH  24  25
ENDBRANCH   1  24
TORSDOF 17
ENDMDL
MODEL 2
REMARK VINA RESULT:     -12.0      3.387      9.216
REMARK SMILES Cc1cc(C)n(CC(=O)N[C@H]2C=C[C@@H](C(=O)NCCCCNC(=O)c3ccc(-c4c5nc(c(-c6cccc(S(=O)(=O)[O-])c6F)c6ccc([nH]6)c(-c6cccc(S(=O)(=O)[O-])c6F)c6nc(c(-c7cccc(S(=O)(=O)[O-])c7F)c7ccc4[nH]7)C=C6)C=C5)cc3)C2)n1
REMARK SMILES IDX 19 1 18 2 17 3 15 4 16 5 14 7 11 8 12 9 88 10 13 11 10 12
REMARK SMILES IDX 8 13 9 14 7 16 6 17 1 18 2 19 3 20 89 21 4 22 5 23 20 24
REMARK SMILES IDX 21 25 22 26 23 27 24 29 25 30 26 31 87 32 27 33 86 34 28 35
REMARK SMILES IDX 29 36 30 37 80 38 31 39 85 40 79 41 81 42 32 43 84 44 78 45
REMARK SMILES IDX 77 46 33 48 65 49 45 50 64 51 46 52 49 53 63 54 82 55 47 56
REMARK SMILES IDX 48 57 62 59 83 60 50 61 34 62 35 63 43 64 36 65 38 66 44 67
REMARK SMILES IDX 37 68 39 69 40 70 41 71 42 72 66 73 67 74 75 75 68 76 70 77
REMARK SMILES IDX 76 78 69 79 71 80 72 81 73 82 74 83 51 84 52 85 60 86 53 87
REMARK SMILES IDX 55 88 61 89 54 90 56 91 57 92 58 93 59 94
REMARK H PARENT 17 6 10 15 22 28 81 47 49 58
REMARK Flexibility Score: inf
ROOT
ATOM      1  C   UNL A   1      38.663  23.568  26.552  1.00  0.00     0.023 C 
ENDROOT
BRANCH   1   2
ATOM      2  C   UNL A   1      37.201  23.703  26.077  1.00  0.00     0.116 C 
BRANCH   2   3
ATOM      3  N   UNL A   1      36.472  22.434  25.944  1.00  0.00    -0.356 N 
ATOM      4  C   UNL A   1      35.446  21.820  25.327  1.00  0.00     0.227 C 
ATOM      5  O   UNL A   1      35.520  20.581  25.469  1.00  0.00    -0.274 OA
ATOM      6  H   UNL A   1      36.901  21.778  26.539  1.00  0.00     0.163 HD
BRANCH   4   7
ATOM      7  C   UNL A   1      34.210  22.325  24.534  1.00  0.00     0.103 C 
ATOM      8  C   UNL A   1      32.896  23.458  22.838  1.00  0.00     0.106 C 
ATOM      9  C   UNL A   1      32.538  22.021  22.906  1.00  0.00    -0.006 C 
ATOM     10  C   UNL A   1      34.265  23.513  23.570  1.00  0.00     0.047 C 
ATOM     11  C   UNL A   1      33.271  21.385  23.840  1.00  0.00    -0.016 C 
BRANCH   8  12
ATOM     12  N   UNL A   1      32.860  24.132  21.544  1.00  0.00    -0.348 N 
ATOM     13  C   UNL A   1      32.885  25.397  21.046  1.00  0.00     0.242 C 
ATOM     14  O   UNL A   1      32.822  25.479  19.809  1.00  0.00    -0.273 OA
ATOM     15  H   UNL A   1      32.801  23.473  20.814  1.00  0.00     0.164 HD
BRANCH  13  16
ATOM     16  C   UNL A   1      32.995  26.659  21.865  1.00  0.00     0.244 C 
BRANCH  16  17
ATOM     17  N   UNL A   1      31.813  26.935  22.651  1.00  0.00    -0.260 N 
ATOM     18  C   UNL A   1      29.269  29.377  22.427  1.00  0.00     0.069 C 
ATOM     19  C   UNL A   1      30.265  28.355  22.845  1.00  0.00     0.060 A 
ATOM     20  C   UNL A   1      30.919  28.227  24.080  1.00  0.00     0.048 A 
ATOM     21  N   UNL A   1      30.737  27.434  22.000  1.00  0.00    -0.178 NA
ATOM     22  C   UNL A   1      31.746  27.138  24.004  1.00  0.00     0.036 A 
ATOM     23  C   UNL A   1      32.549  26.472  25.056  1.00  0.00     0.066 C 
ENDBRANCH  16  17
ENDBRANCH  13  16
ENDBRANCH   8  12
ENDBRANCH   4   7
ENDBRANCH   2   3
ENDBRANCH   1   2
BRANCH   1  24
ATOM     24  C   UNL A   1      39.270  22.145  26.430  1.00  0.00     0.023 C 
BRANCH  24  25
ATOM     25  C   UNL A   1      40.639  21.924  27.084  1.00  0.00     0.116 C 
BRANCH  25  26
ATOM     26  N   UNL A   1      41.775  22.232  26.208  1.00  0.00    -0.352 N 
ATOM     27  C   UNL A   1      42.422  23.450  26.032  1.00  0.00     0.251 C 
ATOM     28  H   UNL A   1      42.124  21.480  25.676  1.00  0.00     0.163 HD
ATOM     29  O   UNL A   1      43.200  23.618  25.111  1.00  0.00    -0.269 OA
BRANCH  27  30
ATOM     30  C   UNL A   1      42.129  24.552  26.977  1.00  0.00     0.039 A 
ATOM     31  C   UNL A   1      42.793  24.654  28.202  1.00  0.00     0.014 A 
ATOM     32  C   UNL A   1      41.214  25.523  26.594  1.00  0.00     0.014 A 
ATOM     33  C   UNL A   1      42.622  25.807  28.975  1.00  0.00     0.010 A 
ATOM     34  C   UNL A   1      41.125  26.703  27.298  1.00  0.00     0.010 A 
ATOM     35  C   UNL A   1      41.814  26.851  28.500  1.00  0.00    -0.014 A 
BRANCH  35  36
ATOM     36  C   UNL A   1      41.796  28.153  29.174  1.00  0.00     0.031 A 
ATOM     37  C   UNL A   1      42.725  29.195  28.632  1.00  0.00     0.074 A 
ATOM     38  C   UNL A   1      40.798  28.538  30.000  1.00  0.00     0.049 A 
ATOM     39  N   UNL A   1      43.647  29.856  29.255  1.00  0.00    -0.248 NA
ATOM     40  C   UNL A   1      42.645  29.502  27.195  1.00  0.00     0.031 C 
ATOM     41  C   UNL A   1      39.576  27.799  30.337  1.00  0.00     0.029 A 
ATOM     42  N   UNL A   1      40.578  29.763  30.559  1.00  0.00    -0.354 N 
ATOM     43  C   UNL A   1      44.136  30.798  28.344  1.00  0.00     0.074 A 
ATOM     44  C   UNL A   1      43.597  30.428  27.062  1.00  0.00     0.031 C 
ATOM     45  C   UNL A   1      38.641  28.667  30.778  1.00  0.00     0.029 A 
ATOM     46  C   UNL A   1      39.254  29.972  30.926  1.00  0.00     0.049 A 
ATOM     47  H   UNL A   1      41.288  30.433  30.689  1.00  0.00     0.167 HD
ATOM     48  C   UNL A   1      44.785  31.930  28.745  1.00  0.00     0.034 A 
ATOM     49  C   UNL A   1      38.685  31.148  31.275  1.00  0.00     0.034 A 
ATOM     50  C   UNL A   1      45.175  31.854  30.131  1.00  0.00     0.049 A 
ATOM     51  C   UNL A   1      39.775  32.073  31.656  1.00  0.00     0.074 A 
ATOM     52  C   UNL A   1      45.946  31.004  30.899  1.00  0.00     0.029 A 
ATOM     53  N   UNL A   1      44.462  32.614  31.024  1.00  0.00    -0.354 N 
ATOM     54  N   UNL A   1      40.531  31.918  32.706  1.00  0.00    -0.248 NA
ATOM     55  C   UNL A   1      40.269  33.012  30.663  1.00  0.00     0.031 C 
ATOM     56  C   UNL A   1      45.290  30.962  32.166  1.00  0.00     0.029 A 
ATOM     57  C   UNL A   1      44.184  31.814  32.097  1.00  0.00     0.049 A 
ATOM     58  H   UNL A   1      44.200  33.557  30.914  1.00  0.00     0.167 HD
ATOM     59  C   UNL A   1      41.778  32.380  32.309  1.00  0.00     0.074 A 
ATOM     60  C   UNL A   1      41.517  33.171  31.109  1.00  0.00     0.031 C 
ATOM     61  C   UNL A   1      42.928  31.839  32.814  1.00  0.00     0.034 A 
BRANCH  48  62
ATOM     62  C   UNL A   1      44.805  33.266  28.017  1.00  0.00     0.023 A 
ATOM     63  C   UNL A   1      46.059  33.714  27.528  1.00  0.00     0.012 A 
ATOM     64  C   UNL A   1      43.759  34.214  28.026  1.00  0.00     0.148 A 
ATOM     65  C   UNL A   1      46.280  35.046  27.155  1.00  0.00     0.002 A 
ATOM     66  C   UNL A   1      43.963  35.516  27.570  1.00  0.00     0.091 A 
ATOM     67  F   UNL A   1      42.587  33.920  28.593  1.00  0.00    -0.205 F 
ATOM     68  C   UNL A   1      45.228  35.948  27.171  1.00  0.00     0.022 A 
BRANCH  66  69
ATOM     69  S   UNL A   1      42.610  36.698  27.498  1.00  0.00     0.127 S 
ATOM     70  O   UNL A   1      41.618  35.963  26.720  1.00  0.00    -0.237 OA
ATOM     71  O   UNL A   1      42.280  36.875  28.913  1.00  0.00    -0.237 OA
ATOM     72  O   UNL A   1      43.178  37.885  26.870  1.00  0.00    -0.744 OA
ENDBRANCH  66  69
ENDBRANCH  48  62
BRANCH  49  73
ATOM     73  C   UNL A   1      37.279  31.592  31.157  1.00  0.00     0.023 A 
ATOM     74  C   UNL A   1      36.590  32.013  32.309  1.00  0.00     0.012 A 
ATOM     75  C   UNL A   1      36.691  31.839  29.896  1.00  0.00     0.148 A 
ATOM     76  C   UNL A   1      35.366  32.684  32.212  1.00  0.00     0.002 A 
ATOM     77  C   UNL A   1      35.468  32.498  29.804  1.00  0.00     0.091 A 
ATOM     78  F   UNL A   1      37.372  31.514  28.788  1.00  0.00    -0.205 F 
ATOM     79  C   UNL A   1      34.807  32.931  30.961  1.00  0.00     0.022 A 
BRANCH  77  80
ATOM     80  S   UNL A   1      34.696  32.869  28.222  1.00  0.00     0.127 S 
ATOM     81  O   UNL A   1      34.357  31.536  27.723  1.00  0.00    -0.237 OA
ATOM     82  O   UNL A   1      33.549  33.679  28.627  1.00  0.00    -0.237 OA
ATOM     83  O   UNL A   1      35.711  33.562  27.437  1.00  0.00    -0.744 OA
ENDBRANCH  77  80
ENDBRANCH  49  73
BRANCH  61  84
ATOM     84  C   UNL A   1      42.834  30.930  34.015  1.00  0.00     0.023 A 
ATOM     85  C   UNL A   1      42.865  31.433  35.333  1.00  0.00     0.012 A 
ATOM     86  C   UNL A   1      42.517  29.575  33.819  1.00  0.00     0.148 A 
ATOM     87  C   UNL A   1      42.614  30.603  36.427  1.00  0.00     0.002 A 
ATOM     88  C   UNL A   1      42.220  28.761  34.908  1.00  0.00     0.091 A 
ATOM     89  F   UNL A   1      42.481  29.102  32.563  1.00  0.00    -0.205 F 
ATOM     90  C   UNL A   1      42.278  29.270  36.215  1.00  0.00     0.022 A 
BRANCH  88  91
ATOM     91  S   UNL A   1      41.643  27.076  34.684  1.00  0.00     0.127 S 
ATOM     92  O   UNL A   1      42.830  26.413  34.150  1.00  0.00    -0.237 OA
ATOM     93  O   UNL A   1      41.281  26.676  36.046  1.00  0.00    -0.237 OA
ATOM     94  O   UNL A   1      40.506  27.168  33.776  1.00  0.00    -0.744 OA
ENDBRANCH  88  91
ENDBRANCH  61  84
ENDBRANCH  35  36
ENDBRANCH  27  30
ENDBRANCH  25  26
ENDBRANCH  24  25
ENDBRANCH   1  24
TORSDOF 17
ENDMDL
MODEL 3
REMARK VINA RESULT:     -11.8      2.147      2.638
REMARK SMILES Cc1cc(C)n(CC(=O)N[C@H]2C=C[C@@H](C(=O)NCCCCNC(=O)c3ccc(-c4c5nc(c(-c6cccc(S(=O)(=O)[O-])c6F)c6ccc([nH]6)c(-c6cccc(S(=O)(=O)[O-])c6F)c6nc(c(-c7cccc(S(=O)(=O)[O-])c7F)c7ccc4[nH]7)C=C6)C=C5)cc3)C2)n1
REMARK SMILES IDX 19 1 18 2 17 3 15 4 16 5 14 7 11 8 12 9 88 10 13 11 10 12
REMARK SMILES IDX 8 13 9 14 7 16 6 17 1 18 2 19 3 20 89 21 4 22 5 23 20 24
REMARK SMILES IDX 21 25 22 26 23 27 24 29 25 30 26 31 87 32 27 33 86 34 28 35
REMARK SMILES IDX 29 36 30 37 80 38 31 39 85 40 79 41 81 42 32 43 84 44 78 45
REMARK SMILES IDX 77 46 33 48 65 49 45 50 64 51 46 52 49 53 63 54 82 55 47 56
REMARK SMILES IDX 48 57 62 59 83 60 50 61 34 62 35 63 43 64 36 65 38 66 44 67
REMARK SMILES IDX 37 68 39 69 40 70 41 71 42 72 66 73 67 74 75 75 68 76 70 77
REMARK SMILES IDX 76 78 69 79 71 80 72 81 73 82 74 83 51 84 52 85 60 86 53 87
REMARK SMILES IDX 55 88 61 89 54 90 56 91 57 92 58 93 59 94
REMARK H PARENT 17 6 10 15 22 28 81 47 49 58
REMARK Flexibility Score: inf
ROOT
ATOM      1  C   UNL A   1      32.331  29.740  27.202  1.00  0.00     0.023 C 
ENDROOT
BRANCH   1   2
ATOM      2  C   UNL A   1      31.790  30.521  25.987  1.00  0.00     0.116 C 
BRANCH   2   3
ATOM      3  N   UNL A   1      31.928  29.834  24.695  1.00  0.00    -0.356 N 
ATOM      4  C   UNL A   1      31.676  28.692  24.029  1.00  0.00     0.227 C 
ATOM      5  O   UNL A   1      31.828  28.853  22.800  1.00  0.00    -0.274 OA
ATOM      6  H   UNL A   1      32.382  30.449  24.076  1.00  0.00     0.163 HD
BRANCH   4   7
ATOM      7  C   UNL A   1      31.285  27.255  24.469  1.00  0.00     0.103 C 
ATOM      8  C   UNL A   1      30.892  24.864  24.358  1.00  0.00     0.106 C 
ATOM      9  C   UNL A   1      31.804  25.194  25.479  1.00  0.00    -0.006 C 
ATOM     10  C   UNL A   1      30.945  26.142  23.476  1.00  0.00     0.047 C 
ATOM     11  C   UNL A   1      32.033  26.521  25.540  1.00  0.00    -0.016 C 
BRANCH   8  12
ATOM     12  N   UNL A   1      31.087  23.609  23.639  1.00  0.00    -0.348 N 
ATOM     13  C   UNL A   1      32.104  22.880  23.106  1.00  0.00     0.242 C 
ATOM     14  O   UNL A   1      31.764  21.821  22.556  1.00  0.00    -0.273 OA
ATOM     15  H   UNL A   1      30.225  23.154  23.499  1.00  0.00     0.164 HD
BRANCH  13  16
ATOM     16  C   UNL A   1      33.566  23.252  23.151  1.00  0.00     0.244 C 
BRANCH  16  17
ATOM     17  N   UNL A   1      34.273  22.657  24.262  1.00  0.00    -0.260 N 
ATOM     18  C   UNL A   1      33.595  22.423  27.721  1.00  0.00     0.069 C 
ATOM     19  C   UNL A   1      34.197  22.505  26.365  1.00  0.00     0.060 A 
ATOM     20  C   UNL A   1      35.446  23.026  25.994  1.00  0.00     0.048 A 
ATOM     21  N   UNL A   1      33.530  22.140  25.266  1.00  0.00    -0.178 NA
ATOM     22  C   UNL A   1      35.571  22.887  24.637  1.00  0.00     0.036 A 
ATOM     23  C   UNL A   1      36.734  23.134  23.753  1.00  0.00     0.066 C 
ENDBRANCH  16  17
ENDBRANCH  13  16
ENDBRANCH   8  12
ENDBRANCH   4   7
ENDBRANCH   2   3
ENDBRANCH   1   2
BRANCH   1  24
ATOM     24  C   UNL A   1      33.812  30.030  27.569  1.00  0.00     0.023 C 
BRANCH  24  25
ATOM     25  C   UNL A   1      34.206  31.505  27.719  1.00  0.00     0.116 C 
BRANCH  25  26
ATOM     26  N   UNL A   1      34.187  31.989  29.104  1.00  0.00    -0.352 N 
ATOM     27  C   UNL A   1      35.123  31.765  30.108  1.00  0.00     0.251 C 
ATOM     28  H   UNL A   1      33.413  32.544  29.354  1.00  0.00     0.163 HD
ATOM     29  O   UNL A   1      34.873  32.037  31.267  1.00  0.00    -0.269 OA
BRANCH  27  30
ATOM     30  C   UNL A   1      36.428  31.168  29.741  1.00  0.00     0.039 A 
ATOM     31  C   UNL A   1      37.530  31.967  29.427  1.00  0.00     0.014 A 
ATOM     32  C   UNL A   1      36.552  29.786  29.772  1.00  0.00     0.014 A 
ATOM     33  C   UNL A   1      38.783  31.368  29.271  1.00  0.00     0.010 A 
ATOM     34  C   UNL A   1      37.799  29.204  29.725  1.00  0.00     0.010 A 
ATOM     35  C   UNL A   1      38.922  29.985  29.460  1.00  0.00    -0.014 A 
BRANCH  35  36
ATOM     36  C   UNL A   1      40.250  29.364  29.527  1.00  0.00     0.031 A 
ATOM     37  C   UNL A   1      40.798  29.114  30.898  1.00  0.00     0.074 A 
ATOM     38  C   UNL A   1      40.823  28.741  28.474  1.00  0.00     0.049 A 
ATOM     39  N   UNL A   1      41.915  29.523  31.407  1.00  0.00    -0.248 NA
ATOM     40  C   UNL A   1      39.965  28.347  31.838  1.00  0.00     0.031 C 
ATOM     41  C   UNL A   1      40.252  28.525  27.139  1.00  0.00     0.029 A 
ATOM     42  N   UNL A   1      41.965  27.996  28.442  1.00  0.00    -0.354 N 
ATOM     43  C   UNL A   1      42.021  28.910  32.661  1.00  0.00     0.074 A 
ATOM     44  C   UNL A   1      40.730  28.333  32.930  1.00  0.00     0.031 C 
ATOM     45  C   UNL A   1      40.888  27.492  26.548  1.00  0.00     0.029 A 
ATOM     46  C   UNL A   1      42.012  27.105  27.377  1.00  0.00     0.049 A 
ATOM     47  H   UNL A   1      42.685  28.081  29.109  1.00  0.00     0.167 HD
ATOM     48  C   UNL A   1      43.219  28.751  33.294  1.00  0.00     0.034 A 
ATOM     49  C   UNL A   1      42.883  26.082  27.212  1.00  0.00     0.034 A 
ATOM     50  C   UNL A   1      44.250  29.557  32.688  1.00  0.00     0.049 A 
ATOM     51  C   UNL A   1      44.047  26.345  28.086  1.00  0.00     0.074 A 
ATOM     52  C   UNL A   1      44.436  30.901  32.432  1.00  0.00     0.029 A 
ATOM     53  N   UNL A   1      45.192  28.903  31.934  1.00  0.00    -0.354 N 
ATOM     54  N   UNL A   1      44.885  27.328  27.910  1.00  0.00    -0.248 NA
ATOM     55  C   UNL A   1      44.094  25.709  29.392  1.00  0.00     0.031 C 
ATOM     56  C   UNL A   1      45.129  30.943  31.185  1.00  0.00     0.029 A 
ATOM     57  C   UNL A   1      45.349  29.623  30.782  1.00  0.00     0.049 A 
ATOM     58  H   UNL A   1      45.666  28.075  32.175  1.00  0.00     0.167 HD
ATOM     59  C   UNL A   1      45.238  27.719  29.194  1.00  0.00     0.074 A 
ATOM     60  C   UNL A   1      44.842  26.601  30.046  1.00  0.00     0.031 C 
ATOM     61  C   UNL A   1      45.542  29.022  29.480  1.00  0.00     0.034 A 
BRANCH  48  62
ATOM     62  C   UNL A   1      43.590  27.635  34.258  1.00  0.00     0.023 A 
ATOM     63  C   UNL A   1      44.140  28.018  35.508  1.00  0.00     0.012 A 
ATOM     64  C   UNL A   1      43.691  26.267  33.921  1.00  0.00     0.148 A 
ATOM     65  C   UNL A   1      44.827  27.115  36.329  1.00  0.00     0.002 A 
ATOM     66  C   UNL A   1      44.299  25.356  34.783  1.00  0.00     0.091 A 
ATOM     67  F   UNL A   1      43.323  25.842  32.710  1.00  0.00    -0.205 F 
ATOM     68  C   UNL A   1      44.902  25.778  35.968  1.00  0.00     0.022 A 
BRANCH  66  69
ATOM     69  S   UNL A   1      44.351  23.601  34.394  1.00  0.00     0.127 S 
ATOM     70  O   UNL A   1      45.172  23.591  33.188  1.00  0.00    -0.237 OA
ATOM     71  O   UNL A   1      44.991  23.041  35.585  1.00  0.00    -0.237 OA
ATOM     72  O   UNL A   1      42.955  23.208  34.232  1.00  0.00    -0.744 OA
ENDBRANCH  66  69
ENDBRANCH  48  62
BRANCH  49  73
ATOM     73  C   UNL A   1      42.721  24.810  26.476  1.00  0.00     0.023 A 
ATOM     74  C   UNL A   1      43.714  24.411  25.562  1.00  0.00     0.012 A 
ATOM     75  C   UNL A   1      41.730  23.871  26.841  1.00  0.00     0.148 A 
ATOM     76  C   UNL A   1      43.740  23.111  25.048  1.00  0.00     0.002 A 
ATOM     77  C   UNL A   1      41.753  22.581  26.319  1.00  0.00     0.091 A 
ATOM     78  F   UNL A   1      40.824  24.212  27.769  1.00  0.00    -0.205 F 
ATOM     79  C   UNL A   1      42.763  22.194  25.428  1.00  0.00     0.022 A 
BRANCH  77  80
ATOM     80  S   UNL A   1      40.536  21.338  26.781  1.00  0.00     0.127 S 
ATOM     81  O   UNL A   1      40.734  21.234  28.227  1.00  0.00    -0.237 OA
ATOM     82  O   UNL A   1      39.285  21.977  26.380  1.00  0.00    -0.237 OA
ATOM     83  O   UNL A   1      40.896  20.135  26.039  1.00  0.00    -0.744 OA
ENDBRANCH  77  80
ENDBRANCH  49  73
BRANCH  61  84
ATOM     84  C   UNL A   1      45.766  29.981  28.335  1.00  0.00     0.023 A 
ATOM     85  C   UNL A   1      44.690  30.571  27.639  1.00  0.00     0.012 A 
ATOM     86  C   UNL A   1      47.068  30.443  28.081  1.00  0.00     0.148 A 
ATOM     87  C   UNL A   1      44.909  31.577  26.695  1.00  0.00     0.002 A 
ATOM     88  C   UNL A   1      47.278  31.478  27.175  1.00  0.00     0.091 A 
ATOM     89  F   UNL A   1      48.088  29.883  28.751  1.00  0.00    -0.205 F 
ATOM     90  C   UNL A   1      46.202  32.040  26.473  1.00  0.00     0.022 A 
BRANCH  88  91
ATOM     91  S   UNL A   1      48.903  32.210  26.955  1.00  0.00     0.127 S 
ATOM     92  O   UNL A   1      48.648  33.222  25.933  1.00  0.00    -0.237 OA
ATOM     93  O   UNL A   1      49.197  32.748  28.285  1.00  0.00    -0.237 OA
ATOM     94  O   UNL A   1      49.777  31.113  26.557  1.00  0.00    -0.744 OA
ENDBRANCH  88  91
ENDBRANCH  61  84
ENDBRANCH  35  36
ENDBRANCH  27  30
ENDBRANCH  25  26
ENDBRANCH  24  25
ENDBRANCH   1  24
TORSDOF 17
ENDMDL
