MODEL 1
REMARK VINA RESULT:     -11.9      0.000      0.000
REMARK SMILES O=C(Cc1cccn1-c1ccccc1F)NCCCCNC(=O)c1ccc(-c2c3nc(c(-c4cccc(S(=O)(=O)[O-])c4F)c4ccc([nH]4)c(-c4cccc(S(=O)(=O)[O-])c4F)c4nc(c(-c5cccc(S(=O)(=O)[O-])c5F)c5ccc2[nH]5)C=C4)C=C3)cc1
REMARK SMILES IDX 19 1 18 2 17 3 16 4 1 5 2 6 3 8 4 9 5 10 8 11 6 12 7 13 9 14
REMARK SMILES IDX 10 15 14 16 11 17 13 18 15 19 12 20 20 21 21 22 22 23 23 25
REMARK SMILES IDX 24 26 25 27 86 28 26 29 85 30 27 31 28 32 29 33 79 34 30 35
REMARK SMILES IDX 84 36 78 37 80 38 31 39 83 40 77 41 76 42 32 44 64 45 44 46
REMARK SMILES IDX 63 47 45 48 48 49 62 50 81 51 46 52 47 53 61 55 82 56 49 57
REMARK SMILES IDX 33 58 34 59 42 60 35 61 37 62 43 63 36 64 38 65 39 66 40 67
REMARK SMILES IDX 41 68 65 69 66 70 74 71 67 72 69 73 75 74 68 75 70 76 71 77
REMARK SMILES IDX 72 78 73 79 50 80 51 81 59 82 52 83 54 84 60 85 53 86 55 87
REMARK SMILES IDX 56 88 57 89 58 90
REMARK H PARENT 16 7 21 24 80 43 48 54
REMARK Flexibility Score: inf
ROOT
ATOM      1  C   UNL A   1      36.154  23.233  26.349  1.00  0.00     0.023 C 
ENDROOT
BRANCH   1   2
ATOM      2  C   UNL A   1      35.059  23.323  25.275  1.00  0.00     0.023 C 
BRANCH   2   3
ATOM      3  C   UNL A   1      33.636  23.045  25.752  1.00  0.00     0.116 C 
BRANCH   3   4
ATOM      4  N   UNL A   1      32.687  24.088  25.410  1.00  0.00    -0.356 N 
ATOM      5  O   UNL A   1      31.458  23.877  27.340  1.00  0.00    -0.275 OA
ATOM      6  C   UNL A   1      31.689  24.470  26.286  1.00  0.00     0.225 C 
ATOM      7  H   UNL A   1      32.755  24.534  24.535  1.00  0.00     0.163 HD
BRANCH   6   8
ATOM      8  C   UNL A   1      30.807  25.603  25.804  1.00  0.00     0.154 C 
BRANCH   8   9
ATOM      9  C   UNL A   1      31.173  26.295  24.520  1.00  0.00     0.032 A 
ATOM     10  C   UNL A   1      30.892  25.817  23.243  1.00  0.00     0.024 A 
ATOM     11  N   UNL A   1      31.733  27.560  24.355  1.00  0.00    -0.318 N 
ATOM     12  C   UNL A   1      31.245  26.804  22.304  1.00  0.00     0.020 A 
ATOM     13  C   UNL A   1      31.733  27.873  23.015  1.00  0.00     0.091 A 
BRANCH  11  14
ATOM     14  C   UNL A   1      32.214  28.439  25.334  1.00  0.00     0.081 A 
ATOM     15  C   UNL A   1      31.576  29.662  25.546  1.00  0.00     0.030 A 
ATOM     16  C   UNL A   1      33.385  28.121  26.015  1.00  0.00     0.147 A 
ATOM     17  C   UNL A   1      32.084  30.532  26.514  1.00  0.00     0.002 A 
ATOM     18  C   UNL A   1      33.890  28.988  26.978  1.00  0.00     0.041 A 
ATOM     19  F   UNL A   1      34.026  26.966  25.781  1.00  0.00    -0.205 F 
ATOM     20  C   UNL A   1      33.230  30.190  27.238  1.00  0.00     0.003 A 
ENDBRANCH  11  14
ENDBRANCH   8   9
ENDBRANCH   6   8
ENDBRANCH   3   4
ENDBRANCH   2   3
ENDBRANCH   1   2
BRANCH   1  21
ATOM     21  C   UNL A   1      37.404  24.079  26.085  1.00  0.00     0.116 C 
BRANCH  21  22
ATOM     22  N   UNL A   1      38.604  23.441  26.605  1.00  0.00    -0.352 N 
ATOM     23  C   UNL A   1      39.718  24.005  27.178  1.00  0.00     0.251 C 
ATOM     24  H   UNL A   1      38.620  22.459  26.534  1.00  0.00     0.163 HD
ATOM     25  O   UNL A   1      40.738  23.321  27.266  1.00  0.00    -0.269 OA
BRANCH  23  26
ATOM     26  C   UNL A   1      39.735  25.402  27.683  1.00  0.00     0.039 A 
ATOM     27  C   UNL A   1      39.218  25.643  28.966  1.00  0.00     0.014 A 
ATOM     28  C   UNL A   1      40.152  26.479  26.896  1.00  0.00     0.014 A 
ATOM     29  C   UNL A   1      39.181  26.940  29.479  1.00  0.00     0.010 A 
ATOM     30  C   UNL A   1      40.109  27.779  27.405  1.00  0.00     0.010 A 
ATOM     31  C   UNL A   1      39.653  28.012  28.708  1.00  0.00    -0.014 A 
BRANCH  31  32
ATOM     32  C   UNL A   1      39.900  29.323  29.374  1.00  0.00     0.031 A 
ATOM     33  C   UNL A   1      38.694  30.285  29.157  1.00  0.00     0.074 A 
ATOM     34  C   UNL A   1      41.093  29.507  30.030  1.00  0.00     0.049 A 
ATOM     35  N   UNL A   1      38.662  31.580  29.026  1.00  0.00    -0.248 NA
ATOM     36  C   UNL A   1      37.339  29.706  28.931  1.00  0.00     0.031 C 
ATOM     37  C   UNL A   1      42.131  28.465  30.205  1.00  0.00     0.029 A 
ATOM     38  N   UNL A   1      41.681  30.575  30.691  1.00  0.00    -0.354 N 
ATOM     39  C   UNL A   1      37.293  31.964  28.954  1.00  0.00     0.074 A 
ATOM     40  C   UNL A   1      36.549  30.766  28.736  1.00  0.00     0.031 C 
ATOM     41  C   UNL A   1      43.221  28.959  30.841  1.00  0.00     0.029 A 
ATOM     42  C   UNL A   1      43.004  30.357  31.175  1.00  0.00     0.049 A 
ATOM     43  H   UNL A   1      41.214  31.431  30.819  1.00  0.00     0.167 HD
ATOM     44  C   UNL A   1      36.845  33.223  29.256  1.00  0.00     0.034 A 
ATOM     45  C   UNL A   1      43.870  31.239  31.779  1.00  0.00     0.034 A 
ATOM     46  C   UNL A   1      37.953  34.010  29.679  1.00  0.00     0.049 A 
ATOM     47  C   UNL A   1      43.073  32.438  32.048  1.00  0.00     0.074 A 
ATOM     48  C   UNL A   1      39.021  34.558  29.023  1.00  0.00     0.029 A 
ATOM     49  N   UNL A   1      38.199  33.970  31.030  1.00  0.00    -0.354 N 
ATOM     50  N   UNL A   1      42.181  32.530  32.988  1.00  0.00    -0.248 NA
ATOM     51  C   UNL A   1      43.238  33.606  31.174  1.00  0.00     0.031 C 
ATOM     52  C   UNL A   1      40.069  34.403  29.948  1.00  0.00     0.029 A 
ATOM     53  C   UNL A   1      39.555  33.990  31.186  1.00  0.00     0.049 A 
ATOM     54  H   UNL A   1      37.528  33.935  31.748  1.00  0.00     0.167 HD
ATOM     55  C   UNL A   1      41.442  33.600  32.556  1.00  0.00     0.074 A 
ATOM     56  C   UNL A   1      42.311  34.392  31.713  1.00  0.00     0.031 C 
ATOM     57  C   UNL A   1      40.103  33.445  32.401  1.00  0.00     0.034 A 
BRANCH  44  58
ATOM     58  C   UNL A   1      35.487  33.850  29.509  1.00  0.00     0.023 A 
ATOM     59  C   UNL A   1      34.840  34.383  28.352  1.00  0.00     0.012 A 
ATOM     60  C   UNL A   1      34.962  34.220  30.757  1.00  0.00     0.148 A 
ATOM     61  C   UNL A   1      33.822  35.330  28.423  1.00  0.00     0.002 A 
ATOM     62  C   UNL A   1      33.899  35.131  30.823  1.00  0.00     0.091 A 
ATOM     63  F   UNL A   1      35.536  33.764  31.874  1.00  0.00    -0.205 F 
ATOM     64  C   UNL A   1      33.359  35.715  29.666  1.00  0.00     0.022 A 
BRANCH  62  65
ATOM     65  S   UNL A   1      33.138  35.645  32.369  1.00  0.00     0.127 S 
ATOM     66  O   UNL A   1      34.285  36.111  33.137  1.00  0.00    -0.237 OA
ATOM     67  O   UNL A   1      32.235  36.707  31.919  1.00  0.00    -0.237 OA
ATOM     68  O   UNL A   1      32.450  34.464  32.882  1.00  0.00    -0.744 OA
ENDBRANCH  62  65
ENDBRANCH  44  58
BRANCH  45  69
ATOM     69  C   UNL A   1      45.339  31.346  32.169  1.00  0.00     0.023 A 
ATOM     70  C   UNL A   1      46.405  31.394  31.264  1.00  0.00     0.012 A 
ATOM     71  C   UNL A   1      45.702  31.518  33.549  1.00  0.00     0.148 A 
ATOM     72  C   UNL A   1      47.721  31.689  31.695  1.00  0.00     0.002 A 
ATOM     73  C   UNL A   1      46.962  31.947  33.954  1.00  0.00     0.091 A 
ATOM     74  F   UNL A   1      44.825  31.221  34.513  1.00  0.00    -0.205 F 
ATOM     75  C   UNL A   1      47.990  32.016  33.025  1.00  0.00     0.022 A 
BRANCH  73  76
ATOM     76  S   UNL A   1      47.263  32.573  35.623  1.00  0.00     0.127 S 
ATOM     77  O   UNL A   1      48.596  33.162  35.502  1.00  0.00    -0.237 OA
ATOM     78  O   UNL A   1      46.177  33.542  35.770  1.00  0.00    -0.237 OA
ATOM     79  O   UNL A   1      47.176  31.428  36.519  1.00  0.00    -0.744 OA
ENDBRANCH  73  76
ENDBRANCH  45  69
BRANCH  57  80
ATOM     80  C   UNL A   1      39.448  32.445  33.353  1.00  0.00     0.023 A 
ATOM     81  C   UNL A   1      39.002  31.233  32.788  1.00  0.00     0.012 A 
ATOM     82  C   UNL A   1      39.168  32.657  34.724  1.00  0.00     0.148 A 
ATOM     83  C   UNL A   1      38.312  30.277  33.539  1.00  0.00     0.002 A 
ATOM     84  C   UNL A   1      38.466  31.705  35.477  1.00  0.00     0.091 A 
ATOM     85  F   UNL A   1      39.582  33.787  35.293  1.00  0.00    -0.205 F 
ATOM     86  C   UNL A   1      38.044  30.511  34.883  1.00  0.00     0.022 A 
BRANCH  84  87
ATOM     87  S   UNL A   1      37.993  31.934  37.207  1.00  0.00     0.127 S 
ATOM     88  O   UNL A   1      37.001  33.008  37.129  1.00  0.00    -0.237 OA
ATOM     89  O   UNL A   1      37.432  30.630  37.550  1.00  0.00    -0.237 OA
ATOM     90  O   UNL A   1      39.209  32.304  37.921  1.00  0.00    -0.744 OA
ENDBRANCH  84  87
ENDBRANCH  57  80
ENDBRANCH  31  32
ENDBRANCH  23  26
ENDBRANCH  21  22
ENDBRANCH   1  21
TORSDOF 16
ENDMDL
MODEL 2
REMARK VINA RESULT:     -11.7      1.821      2.265
REMARK SMILES O=C(Cc1cccn1-c1ccccc1F)NCCCCNC(=O)c1ccc(-c2c3nc(c(-c4cccc(S(=O)(=O)[O-])c4F)c4ccc([nH]4)c(-c4cccc(S(=O)(=O)[O-])c4F)c4nc(c(-c5cccc(S(=O)(=O)[O-])c5F)c5ccc2[nH]5)C=C4)C=C3)cc1
REMARK SMILES IDX 19 1 18 2 17 3 16 4 1 5 2 6 3 8 4 9 5 10 8 11 6 12 7 13 9 14
REMARK SMILES IDX 10 15 14 16 11 17 13 18 15 19 12 20 20 21 21 22 22 23 23 25
REMARK SMILES IDX 24 26 25 27 86 28 26 29 85 30 27 31 28 32 29 33 79 34 30 35
REMARK SMILES IDX 84 36 78 37 80 38 31 39 83 40 77 41 76 42 32 44 64 45 44 46
REMARK SMILES IDX 63 47 45 48 48 49 62 50 81 51 46 52 47 53 61 55 82 56 49 57
REMARK SMILES IDX 33 58 34 59 42 60 35 61 37 62 43 63 36 64 38 65 39 66 40 67
REMARK SMILES IDX 41 68 65 69 66 70 74 71 67 72 69 73 75 74 68 75 70 76 71 77
REMARK SMILES IDX 72 78 73 79 50 80 51 81 59 82 52 83 54 84 60 85 53 86 55 87
REMARK SMILES IDX 56 88 57 89 58 90
REMARK H PARENT 16 7 21 24 80 43 48 54
REMARK Flexibility Score: inf
ROOT
ATOM      1  C   UNL A   1      36.899  22.991  25.316  1.00  0.00     0.023 C 
ENDROOT
BRANCH   1   2
ATOM      2  C   UNL A   1      36.620  23.472  23.884  1.00  0.00     0.023 C 
BRANCH   2   3
ATOM      3  C   UNL A   1      35.387  22.873  23.210  1.00  0.00     0.116 C 
BRANCH   3   4
ATOM      4  N   UNL A   1      34.158  23.592  23.488  1.00  0.00    -0.356 N 
ATOM      5  O   UNL A   1      33.413  23.553  21.315  1.00  0.00    -0.275 OA
ATOM      6  C   UNL A   1      33.219  23.822  22.500  1.00  0.00     0.225 C 
ATOM      7  H   UNL A   1      33.989  23.925  24.398  1.00  0.00     0.163 HD
BRANCH   6   8
ATOM      8  C   UNL A   1      31.968  24.545  22.956  1.00  0.00     0.154 C 
BRANCH   8   9
ATOM      9  C   UNL A   1      31.482  24.314  24.359  1.00  0.00     0.032 A 
ATOM     10  C   UNL A   1      30.932  23.125  24.831  1.00  0.00     0.024 A 
ATOM     11  N   UNL A   1      31.593  25.163  25.458  1.00  0.00    -0.318 N 
ATOM     12  C   UNL A   1      30.742  23.237  26.222  1.00  0.00     0.020 A 
ATOM     13  C   UNL A   1      31.182  24.486  26.584  1.00  0.00     0.091 A 
BRANCH  11  14
ATOM     14  C   UNL A   1      32.058  26.484  25.500  1.00  0.00     0.081 A 
ATOM     15  C   UNL A   1      31.174  27.541  25.279  1.00  0.00     0.030 A 
ATOM     16  C   UNL A   1      33.420  26.718  25.666  1.00  0.00     0.147 A 
ATOM     17  C   UNL A   1      31.663  28.849  25.307  1.00  0.00     0.002 A 
ATOM     18  C   UNL A   1      33.904  28.022  25.694  1.00  0.00     0.041 A 
ATOM     19  F   UNL A   1      34.279  25.702  25.835  1.00  0.00    -0.205 F 
ATOM     20  C   UNL A   1      33.022  29.091  25.528  1.00  0.00     0.003 A 
ENDBRANCH  11  14
ENDBRANCH   8   9
ENDBRANCH   6   8
ENDBRANCH   3   4
ENDBRANCH   2   3
ENDBRANCH   1   2
BRANCH   1  21
ATOM     21  C   UNL A   1      37.667  23.978  26.202  1.00  0.00     0.116 C 
BRANCH  21  22
ATOM     22  N   UNL A   1      38.886  23.387  26.732  1.00  0.00    -0.352 N 
ATOM     23  C   UNL A   1      39.984  23.996  27.290  1.00  0.00     0.251 C 
ATOM     24  H   UNL A   1      38.932  22.405  26.681  1.00  0.00     0.163 HD
ATOM     25  O   UNL A   1      41.024  23.345  27.389  1.00  0.00    -0.269 OA
BRANCH  23  26
ATOM     26  C   UNL A   1      39.960  25.403  27.766  1.00  0.00     0.039 A 
ATOM     27  C   UNL A   1      39.397  25.661  29.026  1.00  0.00     0.014 A 
ATOM     28  C   UNL A   1      40.384  26.471  26.970  1.00  0.00     0.014 A 
ATOM     29  C   UNL A   1      39.321  26.968  29.510  1.00  0.00     0.010 A 
ATOM     30  C   UNL A   1      40.301  27.780  27.450  1.00  0.00     0.010 A 
ATOM     31  C   UNL A   1      39.799  28.031  28.732  1.00  0.00    -0.014 A 
BRANCH  31  32
ATOM     32  C   UNL A   1      40.001  29.360  29.378  1.00  0.00     0.031 A 
ATOM     33  C   UNL A   1      38.753  30.268  29.167  1.00  0.00     0.074 A 
ATOM     34  C   UNL A   1      41.194  29.601  30.014  1.00  0.00     0.049 A 
ATOM     35  N   UNL A   1      38.665  31.559  29.020  1.00  0.00    -0.248 NA
ATOM     36  C   UNL A   1      37.420  29.631  28.969  1.00  0.00     0.031 C 
ATOM     37  C   UNL A   1      42.277  28.606  30.187  1.00  0.00     0.029 A 
ATOM     38  N   UNL A   1      41.747  30.701  30.654  1.00  0.00    -0.354 N 
ATOM     39  C   UNL A   1      37.281  31.886  28.964  1.00  0.00     0.074 A 
ATOM     40  C   UNL A   1      36.584  30.655  28.772  1.00  0.00     0.031 C 
ATOM     41  C   UNL A   1      43.354  29.152  30.801  1.00  0.00     0.029 A 
ATOM     42  C   UNL A   1      43.085  30.544  31.121  1.00  0.00     0.049 A 
ATOM     43  H   UNL A   1      41.247  31.539  30.778  1.00  0.00     0.167 HD
ATOM     44  C   UNL A   1      36.786  33.130  29.257  1.00  0.00     0.034 A 
ATOM     45  C   UNL A   1      43.922  31.469  31.700  1.00  0.00     0.034 A 
ATOM     46  C   UNL A   1      37.866  33.967  29.654  1.00  0.00     0.049 A 
ATOM     47  C   UNL A   1      43.080  32.638  31.967  1.00  0.00     0.074 A 
ATOM     48  C   UNL A   1      38.902  34.550  28.975  1.00  0.00     0.029 A 
ATOM     49  N   UNL A   1      38.133  33.955  31.002  1.00  0.00    -0.354 N 
ATOM     50  N   UNL A   1      42.198  32.705  32.918  1.00  0.00    -0.248 NA
ATOM     51  C   UNL A   1      43.184  33.800  31.076  1.00  0.00     0.031 C 
ATOM     52  C   UNL A   1      39.968  34.449  29.887  1.00  0.00     0.029 A 
ATOM     53  C   UNL A   1      39.489  34.032  31.137  1.00  0.00     0.049 A 
ATOM     54  H   UNL A   1      37.474  33.901  31.730  1.00  0.00     0.167 HD
ATOM     55  C   UNL A   1      41.410  33.738  32.484  1.00  0.00     0.074 A 
ATOM     56  C   UNL A   1      42.233  34.554  31.619  1.00  0.00     0.031 C 
ATOM     57  C   UNL A   1      40.077  33.526  32.351  1.00  0.00     0.034 A 
BRANCH  44  58
ATOM     58  C   UNL A   1      35.407  33.703  29.522  1.00  0.00     0.023 A 
ATOM     59  C   UNL A   1      34.669  34.071  28.355  1.00  0.00     0.012 A 
ATOM     60  C   UNL A   1      34.926  34.176  30.753  1.00  0.00     0.148 A 
ATOM     61  C   UNL A   1      33.599  34.963  28.387  1.00  0.00     0.002 A 
ATOM     62  C   UNL A   1      33.814  35.027  30.786  1.00  0.00     0.091 A 
ATOM     63  F   UNL A   1      35.584  33.875  31.876  1.00  0.00    -0.205 F 
ATOM     64  C   UNL A   1      33.179  35.453  29.607  1.00  0.00     0.022 A 
BRANCH  62  65
ATOM     65  S   UNL A   1      33.104  35.662  32.311  1.00  0.00     0.127 S 
ATOM     66  O   UNL A   1      32.456  34.479  32.863  1.00  0.00    -0.237 OA
ATOM     67  O   UNL A   1      34.298  36.097  33.039  1.00  0.00    -0.237 OA
ATOM     68  O   UNL A   1      32.225  36.756  31.912  1.00  0.00    -0.744 OA
ENDBRANCH  62  65
ENDBRANCH  44  58
BRANCH  45  69
ATOM     69  C   UNL A   1      45.391  31.641  32.068  1.00  0.00     0.023 A 
ATOM     70  C   UNL A   1      45.903  31.577  33.368  1.00  0.00     0.012 A 
ATOM     71  C   UNL A   1      46.377  31.778  31.030  1.00  0.00     0.148 A 
ATOM     72  C   UNL A   1      47.297  31.553  33.607  1.00  0.00     0.002 A 
ATOM     73  C   UNL A   1      47.739  31.611  31.252  1.00  0.00     0.091 A 
ATOM     74  F   UNL A   1      46.003  32.121  29.794  1.00  0.00    -0.205 F 
ATOM     75  C   UNL A   1      48.212  31.516  32.553  1.00  0.00     0.022 A 
BRANCH  73  76
ATOM     76  S   UNL A   1      48.901  31.349  29.891  1.00  0.00     0.127 S 
ATOM     77  O   UNL A   1      50.106  30.902  30.588  1.00  0.00    -0.237 OA
ATOM     78  O   UNL A   1      48.217  30.310  29.122  1.00  0.00    -0.237 OA
ATOM     79  O   UNL A   1      49.028  32.627  29.202  1.00  0.00    -0.744 OA
ENDBRANCH  73  76
ENDBRANCH  45  69
BRANCH  57  80
ATOM     80  C   UNL A   1      39.477  32.512  33.324  1.00  0.00     0.023 A 
ATOM     81  C   UNL A   1      39.120  31.257  32.791  1.00  0.00     0.012 A 
ATOM     82  C   UNL A   1      39.164  32.745  34.686  1.00  0.00     0.148 A 
ATOM     83  C   UNL A   1      38.485  30.280  33.562  1.00  0.00     0.002 A 
ATOM     84  C   UNL A   1      38.518  31.770  35.458  1.00  0.00     0.091 A 
ATOM     85  F   UNL A   1      39.495  33.916  35.225  1.00  0.00    -0.205 F 
ATOM     86  C   UNL A   1      38.185  30.533  34.895  1.00  0.00     0.022 A 
BRANCH  84  87
ATOM     87  S   UNL A   1      38.007  32.017  37.175  1.00  0.00     0.127 S 
ATOM     88  O   UNL A   1      37.000  33.074  37.061  1.00  0.00    -0.237 OA
ATOM     89  O   UNL A   1      37.460  30.710  37.526  1.00  0.00    -0.237 OA
ATOM     90  O   UNL A   1      39.203  32.417  37.907  1.00  0.00    -0.744 OA
ENDBRANCH  84  87
ENDBRANCH  57  80
ENDBRANCH  31  32
ENDBRANCH  23  26
ENDBRANCH  21  22
ENDBRANCH   1  21
TORSDOF 16
ENDMDL
MODEL 3
REMARK VINA RESULT:     -11.3      4.627      9.877
REMARK SMILES O=C(Cc1cccn1-c1ccccc1F)NCCCCNC(=O)c1ccc(-c2c3nc(c(-c4cccc(S(=O)(=O)[O-])c4F)c4ccc([nH]4)c(-c4cccc(S(=O)(=O)[O-])c4F)c4nc(c(-c5cccc(S(=O)(=O)[O-])c5F)c5ccc2[nH]5)C=C4)C=C3)cc1
REMARK SMILES IDX 19 1 18 2 17 3 16 4 1 5 2 6 3 8 4 9 5 10 8 11 6 12 7 13 9 14
REMARK SMILES IDX 10 15 14 16 11 17 13 18 15 19 12 20 20 21 21 22 22 23 23 25
REMARK SMILES IDX 24 26 25 27 86 28 26 29 85 30 27 31 28 32 29 33 79 34 30 35
REMARK SMILES IDX 84 36 78 37 80 38 31 39 83 40 77 41 76 42 32 44 64 45 44 46
REMARK SMILES IDX 63 47 45 48 48 49 62 50 81 51 46 52 47 53 61 55 82 56 49 57
REMARK SMILES IDX 33 58 34 59 42 60 35 61 37 62 43 63 36 64 38 65 39 66 40 67
REMARK SMILES IDX 41 68 65 69 66 70 74 71 67 72 69 73 75 74 68 75 70 76 71 77
REMARK SMILES IDX 72 78 73 79 50 80 51 81 59 82 52 83 54 84 60 85 53 86 55 87
REMARK SMILES IDX 56 88 57 89 58 90
REMARK H PARENT 16 7 21 24 80 43 48 54
REMARK Flexibility Score: inf
ROOT
ATOM      1  C   UNL A   1      33.815  27.396  25.588  1.00  0.00     0.023 C 
ENDROOT
BRANCH   1   2
ATOM      2  C   UNL A   1      33.708  28.248  24.315  1.00  0.00     0.023 C 
BRANCH   2   3
ATOM      3  C   UNL A   1      33.263  27.509  23.056  1.00  0.00     0.116 C 
BRANCH   3   4
ATOM      4  N   UNL A   1      33.144  26.073  23.228  1.00  0.00    -0.356 N 
ATOM      5  O   UNL A   1      33.412  25.583  21.000  1.00  0.00    -0.275 OA
ATOM      6  C   UNL A   1      33.297  25.204  22.165  1.00  0.00     0.225 C 
ATOM      7  H   UNL A   1      32.950  25.709  24.122  1.00  0.00     0.163 HD
BRANCH   6   8
ATOM      8  C   UNL A   1      33.190  23.734  22.514  1.00  0.00     0.154 C 
BRANCH   8   9
ATOM      9  C   UNL A   1      32.656  23.359  23.868  1.00  0.00     0.032 A 
ATOM     10  C   UNL A   1      31.307  23.272  24.202  1.00  0.00     0.024 A 
ATOM     11  N   UNL A   1      33.368  22.921  24.981  1.00  0.00    -0.318 N 
ATOM     12  C   UNL A   1      31.197  22.747  25.504  1.00  0.00     0.020 A 
ATOM     13  C   UNL A   1      32.475  22.515  25.948  1.00  0.00     0.091 A 
BRANCH  11  14
ATOM     14  C   UNL A   1      34.756  22.849  25.161  1.00  0.00     0.081 A 
ATOM     15  C   UNL A   1      35.470  23.989  25.535  1.00  0.00     0.030 A 
ATOM     16  C   UNL A   1      35.417  21.661  24.866  1.00  0.00     0.147 A 
ATOM     17  C   UNL A   1      36.855  23.899  25.689  1.00  0.00     0.002 A 
ATOM     18  C   UNL A   1      36.797  21.574  25.020  1.00  0.00     0.041 A 
ATOM     19  F   UNL A   1      34.739  20.576  24.463  1.00  0.00    -0.205 F 
ATOM     20  C   UNL A   1      37.516  22.691  25.447  1.00  0.00     0.003 A 
ENDBRANCH  11  14
ENDBRANCH   8   9
ENDBRANCH   6   8
ENDBRANCH   3   4
ENDBRANCH   2   3
ENDBRANCH   1   2
BRANCH   1  21
ATOM     21  C   UNL A   1      34.958  27.774  26.537  1.00  0.00     0.116 C 
BRANCH  21  22
ATOM     22  N   UNL A   1      34.865  29.163  26.962  1.00  0.00    -0.352 N 
ATOM     23  C   UNL A   1      35.715  29.895  27.755  1.00  0.00     0.251 C 
ATOM     24  H   UNL A   1      34.074  29.649  26.633  1.00  0.00     0.163 HD
ATOM     25  O   UNL A   1      35.299  30.947  28.239  1.00  0.00    -0.269 OA
BRANCH  23  26
ATOM     26  C   UNL A   1      37.104  29.459  28.051  1.00  0.00     0.039 A 
ATOM     27  C   UNL A   1      37.367  28.918  29.319  1.00  0.00     0.014 A 
ATOM     28  C   UNL A   1      38.159  29.659  27.156  1.00  0.00     0.014 A 
ATOM     29  C   UNL A   1      38.660  28.521  29.662  1.00  0.00     0.010 A 
ATOM     30  C   UNL A   1      39.455  29.267  27.500  1.00  0.00     0.010 A 
ATOM     31  C   UNL A   1      39.706  28.669  28.741  1.00  0.00    -0.014 A 
BRANCH  31  32
ATOM     32  C   UNL A   1      40.994  27.962  28.994  1.00  0.00     0.031 A 
ATOM     33  C   UNL A   1      40.919  26.489  28.495  1.00  0.00     0.074 A 
ATOM     34  C   UNL A   1      42.005  28.653  29.616  1.00  0.00     0.049 A 
ATOM     35  N   UNL A   1      41.479  25.411  28.963  1.00  0.00    -0.248 NA
ATOM     36  C   UNL A   1      39.985  26.148  27.384  1.00  0.00     0.031 C 
ATOM     37  C   UNL A   1      41.950  30.087  29.983  1.00  0.00     0.029 A 
ATOM     38  N   UNL A   1      43.279  28.321  30.056  1.00  0.00    -0.354 N 
ATOM     39  C   UNL A   1      41.163  24.347  28.071  1.00  0.00     0.074 A 
ATOM     40  C   UNL A   1      40.118  24.828  27.226  1.00  0.00     0.031 C 
ATOM     41  C   UNL A   1      43.072  30.471  30.636  1.00  0.00     0.029 A 
ATOM     42  C   UNL A   1      43.989  29.349  30.742  1.00  0.00     0.049 A 
ATOM     43  H   UNL A   1      43.667  27.430  29.905  1.00  0.00     0.167 HD
ATOM     44  C   UNL A   1      41.905  23.200  27.972  1.00  0.00     0.034 A 
ATOM     45  C   UNL A   1      45.213  29.296  31.368  1.00  0.00     0.034 A 
ATOM     46  C   UNL A   1      43.019  23.300  28.851  1.00  0.00     0.049 A 
ATOM     47  C   UNL A   1      45.781  27.998  30.996  1.00  0.00     0.074 A 
ATOM     48  C   UNL A   1      43.148  23.253  30.213  1.00  0.00     0.029 A 
ATOM     49  N   UNL A   1      44.142  23.860  28.290  1.00  0.00    -0.354 N 
ATOM     50  N   UNL A   1      46.267  27.718  29.824  1.00  0.00    -0.248 NA
ATOM     51  C   UNL A   1      45.758  26.910  31.981  1.00  0.00     0.031 C 
ATOM     52  C   UNL A   1      44.145  24.212  30.465  1.00  0.00     0.029 A 
ATOM     53  C   UNL A   1      44.729  24.622  29.257  1.00  0.00     0.049 A 
ATOM     54  H   UNL A   1      44.461  23.735  27.368  1.00  0.00     0.167 HD
ATOM     55  C   UNL A   1      46.237  26.349  29.838  1.00  0.00     0.074 A 
ATOM     56  C   UNL A   1      46.279  25.947  31.227  1.00  0.00     0.031 C 
ATOM     57  C   UNL A   1      45.584  25.703  28.839  1.00  0.00     0.034 A 
BRANCH  44  58
ATOM     58  C   UNL A   1      41.973  22.046  26.989  1.00  0.00     0.023 A 
ATOM     59  C   UNL A   1      40.895  21.112  27.075  1.00  0.00     0.012 A 
ATOM     60  C   UNL A   1      43.098  21.650  26.247  1.00  0.00     0.148 A 
ATOM     61  C   UNL A   1      40.975  19.815  26.573  1.00  0.00     0.002 A 
ATOM     62  C   UNL A   1      43.151  20.364  25.695  1.00  0.00     0.091 A 
ATOM     63  F   UNL A   1      44.142  22.478  26.145  1.00  0.00    -0.205 F 
ATOM     64  C   UNL A   1      42.115  19.436  25.892  1.00  0.00     0.022 A 
BRANCH  62  65
ATOM     65  S   UNL A   1      44.531  19.774  24.706  1.00  0.00     0.127 S 
ATOM     66  O   UNL A   1      44.151  18.392  24.441  1.00  0.00    -0.237 OA
ATOM     67  O   UNL A   1      44.463  20.657  23.539  1.00  0.00    -0.237 OA
ATOM     68  O   UNL A   1      45.721  19.973  25.528  1.00  0.00    -0.744 OA
ENDBRANCH  62  65
ENDBRANCH  44  58
BRANCH  45  69
ATOM     69  C   UNL A   1      46.069  30.119  32.323  1.00  0.00     0.023 A 
ATOM     70  C   UNL A   1      47.094  30.988  31.932  1.00  0.00     0.012 A 
ATOM     71  C   UNL A   1      45.774  30.118  33.730  1.00  0.00     0.148 A 
ATOM     72  C   UNL A   1      47.710  31.860  32.860  1.00  0.00     0.002 A 
ATOM     73  C   UNL A   1      46.275  31.070  34.610  1.00  0.00     0.091 A 
ATOM     74  F   UNL A   1      45.019  29.147  34.254  1.00  0.00    -0.205 F 
ATOM     75  C   UNL A   1      47.267  31.940  34.182  1.00  0.00     0.022 A 
BRANCH  73  76
ATOM     76  S   UNL A   1      45.560  31.319  36.253  1.00  0.00     0.127 S 
ATOM     77  O   UNL A   1      44.132  31.419  35.962  1.00  0.00    -0.237 OA
ATOM     78  O   UNL A   1      45.963  30.088  36.933  1.00  0.00    -0.237 OA
ATOM     79  O   UNL A   1      46.165  32.531  36.790  1.00  0.00    -0.744 OA
ENDBRANCH  73  76
ENDBRANCH  45  69
BRANCH  57  80
ATOM     80  C   UNL A   1      45.590  26.417  27.488  1.00  0.00     0.023 A 
ATOM     81  C   UNL A   1      44.369  26.976  27.062  1.00  0.00     0.012 A 
ATOM     82  C   UNL A   1      46.681  26.491  26.588  1.00  0.00     0.148 A 
ATOM     83  C   UNL A   1      44.228  27.578  25.808  1.00  0.00     0.002 A 
ATOM     84  C   UNL A   1      46.539  27.085  25.325  1.00  0.00     0.091 A 
ATOM     85  F   UNL A   1      47.852  25.982  26.960  1.00  0.00    -0.205 F 
ATOM     86  C   UNL A   1      45.312  27.634  24.940  1.00  0.00     0.022 A 
BRANCH  84  87
ATOM     87  S   UNL A   1      47.853  27.146  24.085  1.00  0.00     0.127 S 
ATOM     88  O   UNL A   1      48.093  25.729  23.802  1.00  0.00    -0.237 OA
ATOM     89  O   UNL A   1      47.214  27.871  22.991  1.00  0.00    -0.237 OA
ATOM     90  O   UNL A   1      48.983  27.822  24.714  1.00  0.00    -0.744 OA
ENDBRANCH  84  87
ENDBRANCH  57  80
ENDBRANCH  31  32
ENDBRANCH  23  26
ENDBRANCH  21  22
ENDBRANCH   1  21
TORSDOF 16
ENDMDL
