MODEL 1
REMARK VINA RESULT:     -11.3      0.000      0.000
REMARK SMILES CCC[C@@H](CNc1cc(C)c([N+](=O)[O-])cn1)C(=O)NCCCCNC(=O)c1ccc(-c2c3nc(c(-c4cccc(S(=O)(=O)[O-])c4F)c4ccc([nH]4)c(-c4cccc(S(=O)(=O)[O-])c4F)c4nc(c(-c5cccc(S(=O)(=O)[O-])c5F)c5ccc2[nH]5)C=C4)C=C3)cc1
REMARK SMILES IDX 21 1 20 2 19 3 17 4 18 5 4 7 3 8 2 9 1 10 5 11 6 12 7 14
REMARK SMILES IDX 8 15 16 16 9 17 15 18 10 19 11 20 12 21 13 22 14 23 22 24
REMARK SMILES IDX 23 25 24 26 25 27 26 29 27 30 28 31 89 32 29 33 88 34 30 35
REMARK SMILES IDX 31 36 32 37 82 38 33 39 87 40 81 41 83 42 34 43 86 44 80 45
REMARK SMILES IDX 79 46 35 48 67 49 47 50 66 51 48 52 51 53 65 54 84 55 49 56
REMARK SMILES IDX 50 57 64 59 85 60 52 61 36 62 37 63 45 64 38 65 40 66 46 67
REMARK SMILES IDX 39 68 41 69 42 70 43 71 44 72 68 73 69 74 77 75 70 76 72 77
REMARK SMILES IDX 78 78 71 79 73 80 74 81 75 82 76 83 53 84 54 85 62 86 55 87
REMARK SMILES IDX 57 88 63 89 56 90 58 91 59 92 60 93 61 94
REMARK H PARENT 19 6 6 13 24 28 83 47 51 58
REMARK Flexibility Score: inf
ROOT
ATOM      1  C   UNL A   1      31.378  27.909  26.361  1.00  0.00     0.023 C 
ENDROOT
BRANCH   1   2
ATOM      2  C   UNL A   1      32.253  26.688  26.610  1.00  0.00     0.116 C 
BRANCH   2   3
ATOM      3  N   UNL A   1      31.508  25.507  26.985  1.00  0.00    -0.356 N 
ATOM      4  C   UNL A   1      31.777  24.189  26.797  1.00  0.00     0.224 C 
ATOM      5  O   UNL A   1      31.123  23.381  27.465  1.00  0.00    -0.275 OA
ATOM      6  H   UNL A   1      30.663  25.689  27.458  1.00  0.00     0.163 HD
BRANCH   4   7
ATOM      7  C   UNL A   1      32.826  23.661  25.815  1.00  0.00     0.097 C 
BRANCH   7   8
ATOM      8  C   UNL A   1      34.001  22.912  26.465  1.00  0.00     0.015 C 
BRANCH   8   9
ATOM      9  C   UNL A   1      35.367  23.106  25.797  1.00  0.00    -0.003 C 
ATOM     10  C   UNL A   1      36.193  21.836  25.687  1.00  0.00     0.004 C 
ENDBRANCH   8   9
ENDBRANCH   7   8
BRANCH   7  11
ATOM     11  C   UNL A   1      32.200  23.078  24.536  1.00  0.00     0.127 C 
BRANCH  11  12
ATOM     12  N   UNL A   1      32.337  23.900  23.344  1.00  0.00    -0.369 N 
ATOM     13  H   UNL A   1      32.859  23.571  22.575  1.00  0.00     0.162 HD
BRANCH  12  14
ATOM     14  C   UNL A   1      31.736  25.140  23.289  1.00  0.00     0.126 A 
ATOM     15  C   UNL A   1      30.391  25.340  23.595  1.00  0.00     0.057 A 
ATOM     16  N   UNL A   1      32.526  26.156  22.906  1.00  0.00    -0.232 NA
ATOM     17  C   UNL A   1      29.802  26.611  23.461  1.00  0.00     0.032 A 
ATOM     18  C   UNL A   1      31.951  27.371  22.712  1.00  0.00     0.199 A 
ATOM     19  C   UNL A   1      28.362  26.779  23.857  1.00  0.00     0.052 C 
ATOM     20  C   UNL A   1      30.611  27.640  22.960  1.00  0.00     0.290 A 
BRANCH  20  21
ATOM     21  N   UNL A   1      30.129  28.987  22.667  1.00  0.00     0.064 N 
ATOM     22  O   UNL A   1      30.117  29.799  23.603  1.00  0.00    -0.258 OA
ATOM     23  O   UNL A   1      29.747  29.237  21.516  1.00  0.00    -0.258 OA
ENDBRANCH  20  21
ENDBRANCH  12  14
ENDBRANCH  11  12
ENDBRANCH   7  11
ENDBRANCH   4   7
ENDBRANCH   2   3
ENDBRANCH   1   2
BRANCH   1  24
ATOM     24  C   UNL A   1      31.787  29.157  27.143  1.00  0.00     0.023 C 
BRANCH  24  25
ATOM     25  C   UNL A   1      32.528  30.229  26.346  1.00  0.00     0.116 C 
BRANCH  25  26
ATOM     26  N   UNL A   1      32.213  31.596  26.748  1.00  0.00    -0.352 N 
ATOM     27  C   UNL A   1      33.026  32.481  27.423  1.00  0.00     0.251 C 
ATOM     28  H   UNL A   1      31.317  31.925  26.509  1.00  0.00     0.163 HD
ATOM     29  O   UNL A   1      32.632  33.593  27.747  1.00  0.00    -0.269 OA
BRANCH  27  30
ATOM     30  C   UNL A   1      34.382  32.027  27.780  1.00  0.00     0.039 A 
ATOM     31  C   UNL A   1      35.410  32.969  27.876  1.00  0.00     0.014 A 
ATOM     32  C   UNL A   1      34.582  30.699  28.163  1.00  0.00     0.014 A 
ATOM     33  C   UNL A   1      36.625  32.595  28.451  1.00  0.00     0.010 A 
ATOM     34  C   UNL A   1      35.770  30.348  28.791  1.00  0.00     0.010 A 
ATOM     35  C   UNL A   1      36.793  31.297  28.958  1.00  0.00    -0.014 A 
BRANCH  35  36
ATOM     36  C   UNL A   1      38.008  30.898  29.713  1.00  0.00     0.031 A 
ATOM     37  C   UNL A   1      38.953  29.894  29.117  1.00  0.00     0.074 A 
ATOM     38  C   UNL A   1      38.174  31.320  30.982  1.00  0.00     0.049 A 
ATOM     39  N   UNL A   1      39.963  29.281  29.674  1.00  0.00    -0.248 NA
ATOM     40  C   UNL A   1      38.706  29.503  27.719  1.00  0.00     0.031 C 
ATOM     41  C   UNL A   1      37.281  32.237  31.696  1.00  0.00     0.029 A 
ATOM     42  N   UNL A   1      39.129  30.998  31.914  1.00  0.00    -0.354 N 
ATOM     43  C   UNL A   1      40.437  28.393  28.718  1.00  0.00     0.074 A 
ATOM     44  C   UNL A   1      39.596  28.535  27.550  1.00  0.00     0.031 C 
ATOM     45  C   UNL A   1      37.725  32.395  32.954  1.00  0.00     0.029 A 
ATOM     46  C   UNL A   1      38.911  31.568  33.148  1.00  0.00     0.049 A 
ATOM     47  H   UNL A   1      39.897  30.415  31.719  1.00  0.00     0.167 HD
ATOM     48  C   UNL A   1      41.494  27.552  28.797  1.00  0.00     0.034 A 
ATOM     49  C   UNL A   1      39.584  31.430  34.307  1.00  0.00     0.034 A 
ATOM     50  C   UNL A   1      42.368  27.464  29.934  1.00  0.00     0.049 A 
ATOM     51  C   UNL A   1      40.797  30.538  34.346  1.00  0.00     0.074 A 
ATOM     52  C   UNL A   1      43.523  26.716  30.075  1.00  0.00     0.029 A 
ATOM     53  N   UNL A   1      42.189  28.155  31.122  1.00  0.00    -0.354 N 
ATOM     54  N   UNL A   1      41.322  29.820  33.383  1.00  0.00    -0.248 NA
ATOM     55  C   UNL A   1      41.530  30.460  35.619  1.00  0.00     0.031 C 
ATOM     56  C   UNL A   1      44.043  26.955  31.351  1.00  0.00     0.029 A 
ATOM     57  C   UNL A   1      43.213  27.854  32.002  1.00  0.00     0.049 A 
ATOM     58  H   UNL A   1      41.442  28.768  31.312  1.00  0.00     0.167 HD
ATOM     59  C   UNL A   1      42.462  29.235  33.920  1.00  0.00     0.074 A 
ATOM     60  C   UNL A   1      42.562  29.692  35.290  1.00  0.00     0.031 C 
ATOM     61  C   UNL A   1      43.337  28.381  33.336  1.00  0.00     0.034 A 
BRANCH  48  62
ATOM     62  C   UNL A   1      41.806  26.711  27.590  1.00  0.00     0.023 A 
ATOM     63  C   UNL A   1      42.421  27.313  26.474  1.00  0.00     0.012 A 
ATOM     64  C   UNL A   1      41.540  25.328  27.574  1.00  0.00     0.148 A 
ATOM     65  C   UNL A   1      42.740  26.557  25.347  1.00  0.00     0.002 A 
ATOM     66  C   UNL A   1      41.896  24.574  26.461  1.00  0.00     0.091 A 
ATOM     67  F   UNL A   1      40.929  24.780  28.634  1.00  0.00    -0.205 F 
ATOM     68  C   UNL A   1      42.486  25.188  25.344  1.00  0.00     0.022 A 
BRANCH  66  69
ATOM     69  S   UNL A   1      41.678  22.792  26.398  1.00  0.00     0.127 S 
ATOM     70  O   UNL A   1      42.432  22.443  25.196  1.00  0.00    -0.237 OA
ATOM     71  O   UNL A   1      42.295  22.357  27.652  1.00  0.00    -0.237 OA
ATOM     72  O   UNL A   1      40.239  22.573  26.328  1.00  0.00    -0.744 OA
ENDBRANCH  66  69
ENDBRANCH  48  62
BRANCH  49  73
ATOM     73  C   UNL A   1      39.174  32.216  35.505  1.00  0.00     0.023 A 
ATOM     74  C   UNL A   1      38.313  31.623  36.448  1.00  0.00     0.012 A 
ATOM     75  C   UNL A   1      39.656  33.517  35.740  1.00  0.00     0.148 A 
ATOM     76  C   UNL A   1      37.916  32.320  37.590  1.00  0.00     0.002 A 
ATOM     77  C   UNL A   1      39.297  34.189  36.906  1.00  0.00     0.091 A 
ATOM     78  F   UNL A   1      40.462  34.074  34.826  1.00  0.00    -0.205 F 
ATOM     79  C   UNL A   1      38.416  33.597  37.825  1.00  0.00     0.022 A 
BRANCH  77  80
ATOM     80  S   UNL A   1      40.002  35.783  37.344  1.00  0.00     0.127 S 
ATOM     81  O   UNL A   1      39.633  36.601  36.192  1.00  0.00    -0.237 OA
ATOM     82  O   UNL A   1      39.289  36.106  38.581  1.00  0.00    -0.237 OA
ATOM     83  O   UNL A   1      41.426  35.536  37.526  1.00  0.00    -0.744 OA
ENDBRANCH  77  80
ENDBRANCH  49  73
BRANCH  61  84
ATOM     84  C   UNL A   1      44.509  27.907  34.152  1.00  0.00     0.023 A 
ATOM     85  C   UNL A   1      45.669  28.700  34.226  1.00  0.00     0.012 A 
ATOM     86  C   UNL A   1      44.414  26.738  34.933  1.00  0.00     0.148 A 
ATOM     87  C   UNL A   1      46.725  28.331  35.056  1.00  0.00     0.002 A 
ATOM     88  C   UNL A   1      45.454  26.398  35.789  1.00  0.00     0.091 A 
ATOM     89  F   UNL A   1      43.307  25.988  34.832  1.00  0.00    -0.205 F 
ATOM     90  C   UNL A   1      46.614  27.190  35.847  1.00  0.00     0.022 A 
BRANCH  88  91
ATOM     91  S   UNL A   1      45.359  24.995  36.908  1.00  0.00     0.127 S 
ATOM     92  O   UNL A   1      44.437  25.491  37.929  1.00  0.00    -0.237 OA
ATOM     93  O   UNL A   1      44.810  23.946  36.049  1.00  0.00    -0.237 OA
ATOM     94  O   UNL A   1      46.722  24.752  37.360  1.00  0.00    -0.744 OA
ENDBRANCH  88  91
ENDBRANCH  61  84
ENDBRANCH  35  36
ENDBRANCH  27  30
ENDBRANCH  25  26
ENDBRANCH  24  25
ENDBRANCH   1  24
TORSDOF 20
ENDMDL
MODEL 2
REMARK VINA RESULT:     -10.9      1.252      2.993
REMARK SMILES CCC[C@@H](CNc1cc(C)c([N+](=O)[O-])cn1)C(=O)NCCCCNC(=O)c1ccc(-c2c3nc(c(-c4cccc(S(=O)(=O)[O-])c4F)c4ccc([nH]4)c(-c4cccc(S(=O)(=O)[O-])c4F)c4nc(c(-c5cccc(S(=O)(=O)[O-])c5F)c5ccc2[nH]5)C=C4)C=C3)cc1
REMARK SMILES IDX 21 1 20 2 19 3 17 4 18 5 4 7 3 8 2 9 1 10 5 11 6 12 7 14
REMARK SMILES IDX 8 15 16 16 9 17 15 18 10 19 11 20 12 21 13 22 14 23 22 24
REMARK SMILES IDX 23 25 24 26 25 27 26 29 27 30 28 31 89 32 29 33 88 34 30 35
REMARK SMILES IDX 31 36 32 37 82 38 33 39 87 40 81 41 83 42 34 43 86 44 80 45
REMARK SMILES IDX 79 46 35 48 67 49 47 50 66 51 48 52 51 53 65 54 84 55 49 56
REMARK SMILES IDX 50 57 64 59 85 60 52 61 36 62 37 63 45 64 38 65 40 66 46 67
REMARK SMILES IDX 39 68 41 69 42 70 43 71 44 72 68 73 69 74 77 75 70 76 72 77
REMARK SMILES IDX 78 78 71 79 73 80 74 81 75 82 76 83 53 84 54 85 62 86 55 87
REMARK SMILES IDX 57 88 63 89 56 90 58 91 59 92 60 93 61 94
REMARK H PARENT 19 6 6 13 24 28 83 47 51 58
REMARK Flexibility Score: inf
ROOT
ATOM      1  C   UNL A   1      33.519  28.383  25.099  1.00  0.00     0.023 C 
ENDROOT
BRANCH   1   2
ATOM      2  C   UNL A   1      33.010  26.950  25.017  1.00  0.00     0.116 C 
BRANCH   2   3
ATOM      3  N   UNL A   1      31.937  26.661  25.943  1.00  0.00    -0.356 N 
ATOM      4  C   UNL A   1      30.691  26.164  25.733  1.00  0.00     0.224 C 
ATOM      5  O   UNL A   1      30.079  25.744  26.721  1.00  0.00    -0.275 OA
ATOM      6  H   UNL A   1      32.146  26.859  26.885  1.00  0.00     0.163 HD
BRANCH   4   7
ATOM      7  C   UNL A   1      30.015  26.098  24.361  1.00  0.00     0.097 C 
BRANCH   7   8
ATOM      8  C   UNL A   1      29.749  27.463  23.704  1.00  0.00     0.015 C 
BRANCH   8   9
ATOM      9  C   UNL A   1      30.411  27.687  22.341  1.00  0.00    -0.003 C 
ATOM     10  C   UNL A   1      31.107  29.031  22.199  1.00  0.00     0.004 C 
ENDBRANCH   8   9
ENDBRANCH   7   8
BRANCH   7  11
ATOM     11  C   UNL A   1      30.559  24.956  23.486  1.00  0.00     0.127 C 
BRANCH  11  12
ATOM     12  N   UNL A   1      30.629  23.654  24.132  1.00  0.00    -0.369 N 
ATOM     13  H   UNL A   1      29.801  23.167  24.351  1.00  0.00     0.162 HD
BRANCH  12  14
ATOM     14  C   UNL A   1      31.856  23.102  24.438  1.00  0.00     0.126 A 
ATOM     15  C   UNL A   1      32.221  22.750  25.736  1.00  0.00     0.057 A 
ATOM     16  N   UNL A   1      32.695  22.935  23.403  1.00  0.00    -0.232 NA
ATOM     17  C   UNL A   1      33.508  22.253  26.013  1.00  0.00     0.032 A 
ATOM     18  C   UNL A   1      33.960  22.517  23.672  1.00  0.00     0.199 A 
ATOM     19  C   UNL A   1      33.828  21.838  27.421  1.00  0.00     0.052 C 
ATOM     20  C   UNL A   1      34.409  22.181  24.942  1.00  0.00     0.290 A 
BRANCH  20  21
ATOM     21  N   UNL A   1      35.808  21.785  25.079  1.00  0.00     0.064 N 
ATOM     22  O   UNL A   1      36.652  22.691  25.101  1.00  0.00    -0.258 OA
ATOM     23  O   UNL A   1      36.073  20.577  25.147  1.00  0.00    -0.258 OA
ENDBRANCH  20  21
ENDBRANCH  12  14
ENDBRANCH  11  12
ENDBRANCH   7  11
ENDBRANCH   4   7
ENDBRANCH   2   3
ENDBRANCH   1   2
BRANCH   1  24
ATOM     24  C   UNL A   1      32.456  29.417  25.470  1.00  0.00     0.023 C 
BRANCH  24  25
ATOM     25  C   UNL A   1      32.491  29.920  26.911  1.00  0.00     0.116 C 
BRANCH  25  26
ATOM     26  N   UNL A   1      32.257  31.354  27.049  1.00  0.00    -0.352 N 
ATOM     27  C   UNL A   1      33.150  32.314  27.473  1.00  0.00     0.251 C 
ATOM     28  H   UNL A   1      31.357  31.673  26.811  1.00  0.00     0.163 HD
ATOM     29  O   UNL A   1      32.822  33.486  27.592  1.00  0.00    -0.269 OA
BRANCH  27  30
ATOM     30  C   UNL A   1      34.514  31.873  27.818  1.00  0.00     0.039 A 
ATOM     31  C   UNL A   1      35.543  32.817  27.861  1.00  0.00     0.014 A 
ATOM     32  C   UNL A   1      34.722  30.559  28.244  1.00  0.00     0.014 A 
ATOM     33  C   UNL A   1      36.769  32.464  28.425  1.00  0.00     0.010 A 
ATOM     34  C   UNL A   1      35.923  30.230  28.860  1.00  0.00     0.010 A 
ATOM     35  C   UNL A   1      36.948  31.184  28.973  1.00  0.00    -0.014 A 
BRANCH  35  36
ATOM     36  C   UNL A   1      38.178  30.812  29.717  1.00  0.00     0.031 A 
ATOM     37  C   UNL A   1      39.117  29.796  29.133  1.00  0.00     0.074 A 
ATOM     38  C   UNL A   1      38.365  31.271  30.971  1.00  0.00     0.049 A 
ATOM     39  N   UNL A   1      40.140  29.203  29.690  1.00  0.00    -0.248 NA
ATOM     40  C   UNL A   1      38.848  29.364  27.752  1.00  0.00     0.031 C 
ATOM     41  C   UNL A   1      37.480  32.203  31.674  1.00  0.00     0.029 A 
ATOM     42  N   UNL A   1      39.337  30.979  31.895  1.00  0.00    -0.354 N 
ATOM     43  C   UNL A   1      40.601  28.291  28.751  1.00  0.00     0.074 A 
ATOM     44  C   UNL A   1      39.739  28.396  27.595  1.00  0.00     0.031 C 
ATOM     45  C   UNL A   1      37.945  32.399  32.919  1.00  0.00     0.029 A 
ATOM     46  C   UNL A   1      39.139  31.583  33.115  1.00  0.00     0.049 A 
ATOM     47  H   UNL A   1      40.105  30.394  31.702  1.00  0.00     0.167 HD
ATOM     48  C   UNL A   1      41.664  27.457  28.835  1.00  0.00     0.034 A 
ATOM     49  C   UNL A   1      39.833  31.480  34.266  1.00  0.00     0.034 A 
ATOM     50  C   UNL A   1      42.558  27.405  29.958  1.00  0.00     0.049 A 
ATOM     51  C   UNL A   1      41.050  30.595  34.308  1.00  0.00     0.074 A 
ATOM     52  C   UNL A   1      43.718  26.666  30.099  1.00  0.00     0.029 A 
ATOM     53  N   UNL A   1      42.396  28.128  31.129  1.00  0.00    -0.354 N 
ATOM     54  N   UNL A   1      41.561  29.853  33.357  1.00  0.00    -0.248 NA
ATOM     55  C   UNL A   1      41.806  30.556  35.570  1.00  0.00     0.031 C 
ATOM     56  C   UNL A   1      44.260  26.943  31.358  1.00  0.00     0.029 A 
ATOM     57  C   UNL A   1      43.437  27.857  31.998  1.00  0.00     0.049 A 
ATOM     58  H   UNL A   1      41.650  28.743  31.315  1.00  0.00     0.167 HD
ATOM     59  C   UNL A   1      42.713  29.288  33.890  1.00  0.00     0.074 A 
ATOM     60  C   UNL A   1      42.835  29.784  35.245  1.00  0.00     0.031 C 
ATOM     61  C   UNL A   1      43.583  28.421  33.315  1.00  0.00     0.034 A 
BRANCH  48  62
ATOM     62  C   UNL A   1      41.958  26.583  27.647  1.00  0.00     0.023 A 
ATOM     63  C   UNL A   1      42.650  27.130  26.547  1.00  0.00     0.012 A 
ATOM     64  C   UNL A   1      41.599  25.222  27.634  1.00  0.00     0.148 A 
ATOM     65  C   UNL A   1      42.955  26.342  25.438  1.00  0.00     0.002 A 
ATOM     66  C   UNL A   1      41.941  24.433  26.540  1.00  0.00     0.091 A 
ATOM     67  F   UNL A   1      40.918  24.728  28.676  1.00  0.00    -0.205 F 
ATOM     68  C   UNL A   1      42.609  24.993  25.439  1.00  0.00     0.022 A 
BRANCH  66  69
ATOM     69  S   UNL A   1      41.604  22.669  26.485  1.00  0.00     0.127 S 
ATOM     70  O   UNL A   1      42.256  22.281  25.235  1.00  0.00    -0.237 OA
ATOM     71  O   UNL A   1      42.272  22.186  27.695  1.00  0.00    -0.237 OA
ATOM     72  O   UNL A   1      40.153  22.543  26.507  1.00  0.00    -0.744 OA
ENDBRANCH  66  69
ENDBRANCH  48  62
BRANCH  49  73
ATOM     73  C   UNL A   1      39.440  32.298  35.449  1.00  0.00     0.023 A 
ATOM     74  C   UNL A   1      38.640  31.711  36.448  1.00  0.00     0.012 A 
ATOM     75  C   UNL A   1      39.879  33.625  35.613  1.00  0.00     0.148 A 
ATOM     76  C   UNL A   1      38.262  32.438  37.578  1.00  0.00     0.002 A 
ATOM     77  C   UNL A   1      39.541  34.329  36.765  1.00  0.00     0.091 A 
ATOM     78  F   UNL A   1      40.625  34.175  34.645  1.00  0.00    -0.205 F 
ATOM     79  C   UNL A   1      38.721  33.743  37.742  1.00  0.00     0.022 A 
BRANCH  77  80
ATOM     80  S   UNL A   1      40.198  35.965  37.111  1.00  0.00     0.127 S 
ATOM     81  O   UNL A   1      39.727  36.728  35.960  1.00  0.00    -0.237 OA
ATOM     82  O   UNL A   1      39.547  36.298  38.379  1.00  0.00    -0.237 OA
ATOM     83  O   UNL A   1      41.641  35.785  37.214  1.00  0.00    -0.744 OA
ENDBRANCH  77  80
ENDBRANCH  49  73
BRANCH  61  84
ATOM     84  C   UNL A   1      44.770  27.975  34.123  1.00  0.00     0.023 A 
ATOM     85  C   UNL A   1      45.945  28.751  34.115  1.00  0.00     0.012 A 
ATOM     86  C   UNL A   1      44.680  26.857  34.975  1.00  0.00     0.148 A 
ATOM     87  C   UNL A   1      47.019  28.413  34.935  1.00  0.00     0.002 A 
ATOM     88  C   UNL A   1      45.741  26.549  35.818  1.00  0.00     0.091 A 
ATOM     89  F   UNL A   1      43.559  26.122  34.951  1.00  0.00    -0.205 F 
ATOM     90  C   UNL A   1      46.914  27.323  35.795  1.00  0.00     0.022 A 
BRANCH  88  91
ATOM     91  S   UNL A   1      45.657  25.217  37.022  1.00  0.00     0.127 S 
ATOM     92  O   UNL A   1      46.950  25.339  37.692  1.00  0.00    -0.237 OA
ATOM     93  O   UNL A   1      44.507  25.605  37.838  1.00  0.00    -0.237 OA
ATOM     94  O   UNL A   1      45.463  23.995  36.252  1.00  0.00    -0.744 OA
ENDBRANCH  88  91
ENDBRANCH  61  84
ENDBRANCH  35  36
ENDBRANCH  27  30
ENDBRANCH  25  26
ENDBRANCH  24  25
ENDBRANCH   1  24
TORSDOF 20
ENDMDL
MODEL 3
REMARK VINA RESULT:     -10.7      3.419      9.043
REMARK SMILES CCC[C@@H](CNc1cc(C)c([N+](=O)[O-])cn1)C(=O)NCCCCNC(=O)c1ccc(-c2c3nc(c(-c4cccc(S(=O)(=O)[O-])c4F)c4ccc([nH]4)c(-c4cccc(S(=O)(=O)[O-])c4F)c4nc(c(-c5cccc(S(=O)(=O)[O-])c5F)c5ccc2[nH]5)C=C4)C=C3)cc1
REMARK SMILES IDX 21 1 20 2 19 3 17 4 18 5 4 7 3 8 2 9 1 10 5 11 6 12 7 14
REMARK SMILES IDX 8 15 16 16 9 17 15 18 10 19 11 20 12 21 13 22 14 23 22 24
REMARK SMILES IDX 23 25 24 26 25 27 26 29 27 30 28 31 89 32 29 33 88 34 30 35
REMARK SMILES IDX 31 36 32 37 82 38 33 39 87 40 81 41 83 42 34 43 86 44 80 45
REMARK SMILES IDX 79 46 35 48 67 49 47 50 66 51 48 52 51 53 65 54 84 55 49 56
REMARK SMILES IDX 50 57 64 59 85 60 52 61 36 62 37 63 45 64 38 65 40 66 46 67
REMARK SMILES IDX 39 68 41 69 42 70 43 71 44 72 68 73 69 74 77 75 70 76 72 77
REMARK SMILES IDX 78 78 71 79 73 80 74 81 75 82 76 83 53 84 54 85 62 86 55 87
REMARK SMILES IDX 57 88 63 89 56 90 58 91 59 92 60 93 61 94
REMARK H PARENT 19 6 6 13 24 28 83 47 51 58
REMARK Flexibility Score: inf
ROOT
ATOM      1  C   UNL A   1      31.414  28.720  25.544  1.00  0.00     0.023 C 
ENDROOT
BRANCH   1   2
ATOM      2  C   UNL A   1      31.073  27.367  24.936  1.00  0.00     0.116 C 
BRANCH   2   3
ATOM      3  N   UNL A   1      30.863  26.326  25.917  1.00  0.00    -0.356 N 
ATOM      4  C   UNL A   1      31.563  25.191  26.174  1.00  0.00     0.224 C 
ATOM      5  O   UNL A   1      31.341  24.623  27.249  1.00  0.00    -0.275 OA
ATOM      6  H   UNL A   1      30.079  26.463  26.498  1.00  0.00     0.163 HD
BRANCH   4   7
ATOM      7  C   UNL A   1      32.594  24.586  25.217  1.00  0.00     0.097 C 
BRANCH   7   8
ATOM      8  C   UNL A   1      33.642  25.577  24.684  1.00  0.00     0.015 C 
BRANCH   8   9
ATOM      9  C   UNL A   1      33.926  25.502  23.180  1.00  0.00    -0.003 C 
ATOM     10  C   UNL A   1      33.493  26.734  22.403  1.00  0.00     0.004 C 
ENDBRANCH   8   9
ENDBRANCH   7   8
BRANCH   7  11
ATOM     11  C   UNL A   1      33.062  23.188  25.658  1.00  0.00     0.127 C 
BRANCH  11  12
ATOM     12  N   UNL A   1      32.257  22.078  25.172  1.00  0.00    -0.369 N 
ATOM     13  H   UNL A   1      31.304  22.215  24.963  1.00  0.00     0.162 HD
BRANCH  12  14
ATOM     14  C   UNL A   1      32.830  20.834  25.003  1.00  0.00     0.126 A 
ATOM     15  C   UNL A   1      34.208  20.641  24.942  1.00  0.00     0.057 A 
ATOM     16  N   UNL A   1      31.971  19.808  24.884  1.00  0.00    -0.232 NA
ATOM     17  C   UNL A   1      34.747  19.364  24.701  1.00  0.00     0.032 A 
ATOM     18  C   UNL A   1      32.480  18.585  24.586  1.00  0.00     0.199 A 
ATOM     19  C   UNL A   1      36.241  19.205  24.701  1.00  0.00     0.052 C 
ATOM     20  C   UNL A   1      33.839  18.320  24.474  1.00  0.00     0.290 A 
BRANCH  20  21
ATOM     21  N   UNL A   1      34.233  16.961  24.111  1.00  0.00     0.064 N 
ATOM     22  O   UNL A   1      34.253  16.682  22.904  1.00  0.00    -0.258 OA
ATOM     23  O   UNL A   1      34.505  16.166  25.019  1.00  0.00    -0.258 OA
ENDBRANCH  20  21
ENDBRANCH  12  14
ENDBRANCH  11  12
ENDBRANCH   7  11
ENDBRANCH   4   7
ENDBRANCH   2   3
ENDBRANCH   1   2
BRANCH   1  24
ATOM     24  C   UNL A   1      32.853  29.178  25.312  1.00  0.00     0.023 C 
BRANCH  24  25
ATOM     25  C   UNL A   1      33.721  29.303  26.563  1.00  0.00     0.116 C 
BRANCH  25  26
ATOM     26  N   UNL A   1      33.832  30.663  27.080  1.00  0.00    -0.352 N 
ATOM     27  C   UNL A   1      34.858  31.196  27.829  1.00  0.00     0.251 C 
ATOM     28  H   UNL A   1      33.087  31.271  26.870  1.00  0.00     0.163 HD
ATOM     29  O   UNL A   1      34.817  32.344  28.247  1.00  0.00    -0.269 OA
BRANCH  27  30
ATOM     30  C   UNL A   1      36.000  30.318  28.146  1.00  0.00     0.039 A 
ATOM     31  C   UNL A   1      37.085  30.271  27.268  1.00  0.00     0.014 A 
ATOM     32  C   UNL A   1      36.045  29.672  29.384  1.00  0.00     0.014 A 
ATOM     33  C   UNL A   1      38.265  29.647  27.675  1.00  0.00     0.010 A 
ATOM     34  C   UNL A   1      37.239  29.107  29.808  1.00  0.00     0.010 A 
ATOM     35  C   UNL A   1      38.365  29.107  28.967  1.00  0.00    -0.014 A 
BRANCH  35  36
ATOM     36  C   UNL A   1      39.643  28.571  29.499  1.00  0.00     0.031 A 
ATOM     37  C   UNL A   1      40.351  29.303  30.602  1.00  0.00     0.074 A 
ATOM     38  C   UNL A   1      40.232  27.522  28.890  1.00  0.00     0.049 A 
ATOM     39  N   UNL A   1      41.550  29.110  31.083  1.00  0.00    -0.248 NA
ATOM     40  C   UNL A   1      39.626  30.424  31.222  1.00  0.00     0.031 C 
ATOM     41  C   UNL A   1      39.676  26.775  27.758  1.00  0.00     0.029 A 
ATOM     42  N   UNL A   1      41.451  26.930  29.109  1.00  0.00    -0.354 N 
ATOM     43  C   UNL A   1      41.746  30.116  32.019  1.00  0.00     0.074 A 
ATOM     44  C   UNL A   1      40.549  30.926  32.030  1.00  0.00     0.031 C 
ATOM     45  C   UNL A   1      40.555  25.833  27.377  1.00  0.00     0.029 A 
ATOM     46  C   UNL A   1      41.747  25.928  28.212  1.00  0.00     0.049 A 
ATOM     47  H   UNL A   1      42.056  27.196  29.838  1.00  0.00     0.167 HD
ATOM     48  C   UNL A   1      42.818  30.330  32.818  1.00  0.00     0.034 A 
ATOM     49  C   UNL A   1      42.860  25.181  28.071  1.00  0.00     0.034 A 
ATOM     50  C   UNL A   1      43.975  29.480  32.853  1.00  0.00     0.049 A 
ATOM     51  C   UNL A   1      44.010  25.397  29.018  1.00  0.00     0.074 A 
ATOM     52  C   UNL A   1      45.071  29.555  33.694  1.00  0.00     0.029 A 
ATOM     53  N   UNL A   1      44.184  28.396  32.016  1.00  0.00    -0.354 N 
ATOM     54  N   UNL A   1      44.116  26.257  30.001  1.00  0.00    -0.248 NA
ATOM     55  C   UNL A   1      45.182  24.522  28.859  1.00  0.00     0.031 C 
ATOM     56  C   UNL A   1      45.943  28.513  33.365  1.00  0.00     0.029 A 
ATOM     57  C   UNL A   1      45.389  27.789  32.321  1.00  0.00     0.049 A 
ATOM     58  H   UNL A   1      43.567  28.102  31.307  1.00  0.00     0.167 HD
ATOM     59  C   UNL A   1      45.345  26.005  30.599  1.00  0.00     0.074 A 
ATOM     60  C   UNL A   1      45.943  24.901  29.878  1.00  0.00     0.031 C 
ATOM     61  C   UNL A   1      45.933  26.642  31.641  1.00  0.00     0.034 A 
BRANCH  48  62
ATOM     62  C   UNL A   1      42.754  31.490  33.771  1.00  0.00     0.023 A 
ATOM     63  C   UNL A   1      43.294  32.732  33.380  1.00  0.00     0.012 A 
ATOM     64  C   UNL A   1      42.123  31.373  35.025  1.00  0.00     0.148 A 
ATOM     65  C   UNL A   1      43.234  33.833  34.233  1.00  0.00     0.002 A 
ATOM     66  C   UNL A   1      42.033  32.486  35.854  1.00  0.00     0.091 A 
ATOM     67  F   UNL A   1      41.640  30.178  35.391  1.00  0.00    -0.205 F 
ATOM     68  C   UNL A   1      42.596  33.712  35.464  1.00  0.00     0.022 A 
BRANCH  66  69
ATOM     69  S   UNL A   1      41.163  32.445  37.426  1.00  0.00     0.127 S 
ATOM     70  O   UNL A   1      39.868  31.895  37.034  1.00  0.00    -0.237 OA
ATOM     71  O   UNL A   1      41.995  31.540  38.219  1.00  0.00    -0.237 OA
ATOM     72  O   UNL A   1      41.146  33.821  37.904  1.00  0.00    -0.744 OA
ENDBRANCH  66  69
ENDBRANCH  48  62
BRANCH  49  73
ATOM     73  C   UNL A   1      42.908  24.103  27.043  1.00  0.00     0.023 A 
ATOM     74  C   UNL A   1      43.683  24.301  25.884  1.00  0.00     0.012 A 
ATOM     75  C   UNL A   1      42.234  22.879  27.217  1.00  0.00     0.148 A 
ATOM     76  C   UNL A   1      43.765  23.312  24.903  1.00  0.00     0.002 A 
ATOM     77  C   UNL A   1      42.361  21.877  26.259  1.00  0.00     0.091 A 
ATOM     78  F   UNL A   1      41.487  22.713  28.317  1.00  0.00    -0.205 F 
ATOM     79  C   UNL A   1      43.114  22.096  25.095  1.00  0.00     0.022 A 
BRANCH  77  80
ATOM     80  S   UNL A   1      41.660  20.239  26.495  1.00  0.00     0.127 S 
ATOM     81  O   UNL A   1      40.228  20.514  26.440  1.00  0.00    -0.237 OA
ATOM     82  O   UNL A   1      42.191  19.508  25.343  1.00  0.00    -0.237 OA
ATOM     83  O   UNL A   1      42.177  19.781  27.778  1.00  0.00    -0.744 OA
ENDBRANCH  77  80
ENDBRANCH  49  73
BRANCH  61  84
ATOM     84  C   UNL A   1      47.276  26.147  32.102  1.00  0.00     0.023 A 
ATOM     85  C   UNL A   1      47.352  25.260  33.191  1.00  0.00     0.012 A 
ATOM     86  C   UNL A   1      48.445  26.470  31.383  1.00  0.00     0.148 A 
ATOM     87  C   UNL A   1      48.575  24.709  33.569  1.00  0.00     0.002 A 
ATOM     88  C   UNL A   1      49.654  25.886  31.742  1.00  0.00     0.091 A 
ATOM     89  F   UNL A   1      48.351  27.332  30.361  1.00  0.00    -0.205 F 
ATOM     90  C   UNL A   1      49.722  25.010  32.839  1.00  0.00     0.022 A 
BRANCH  88  91
ATOM     91  S   UNL A   1      51.163  26.147  30.802  1.00  0.00     0.127 S 
ATOM     92  O   UNL A   1      50.782  25.649  29.481  1.00  0.00    -0.237 OA
ATOM     93  O   UNL A   1      51.334  27.598  30.881  1.00  0.00    -0.237 OA
ATOM     94  O   UNL A   1      52.197  25.381  31.486  1.00  0.00    -0.744 OA
ENDBRANCH  88  91
ENDBRANCH  61  84
ENDBRANCH  35  36
ENDBRANCH  27  30
ENDBRANCH  25  26
ENDBRANCH  24  25
ENDBRANCH   1  24
TORSDOF 20
ENDMDL
