MODEL 1
REMARK VINA RESULT:     -12.8      0.000      0.000
REMARK SMILES COc1cc(/C=C2/N=C(c3ccccc3)OC2=O)ccc1OCC(=O)NCCCCNC(=O)c1ccc(-c2c3nc(c(-c4cccc(S(=O)(=O)[O-])c4F)c4ccc([nH]4)c(-c4cccc(S(=O)(=O)[O-])c4F)c4nc(c(-c5cccc(S(=O)(=O)[O-])c5F)c5ccc2[nH]5)C=C4)C=C3)cc1
REMARK SMILES IDX 28 1 27 2 26 3 24 4 25 5 23 7 22 8 21 9 3 10 4 11 5 12 20 13
REMARK SMILES IDX 19 14 2 15 1 16 6 17 7 18 8 19 17 20 9 21 16 22 18 23 10 24
REMARK SMILES IDX 11 25 15 26 12 27 14 28 13 29 29 30 30 31 31 32 32 33 33 35
REMARK SMILES IDX 34 36 35 37 96 38 36 39 95 40 37 41 38 42 39 43 89 44 40 45
REMARK SMILES IDX 94 46 88 47 90 48 41 49 93 50 87 51 86 52 42 54 74 55 54 56
REMARK SMILES IDX 73 57 55 58 58 59 72 60 91 61 56 62 57 63 71 65 92 66 59 67
REMARK SMILES IDX 43 68 44 69 52 70 45 71 47 72 53 73 46 74 48 75 49 76 50 77
REMARK SMILES IDX 51 78 75 79 76 80 84 81 77 82 79 83 85 84 78 85 80 86 81 87
REMARK SMILES IDX 82 88 83 89 60 90 61 91 69 92 62 93 64 94 70 95 63 96 65 97
REMARK SMILES IDX 66 98 67 99 68 100
REMARK H PARENT 26 6 31 34 90 53 58 64
REMARK Flexibility Score: inf
ROOT
ATOM      1  C   UNL A   1      36.918  21.140  24.492  1.00  0.00     0.023 C 
ENDROOT
BRANCH   1   2
ATOM      2  C   UNL A   1      35.442  21.179  24.878  1.00  0.00     0.116 C 
BRANCH   2   3
ATOM      3  N   UNL A   1      34.880  19.868  25.125  1.00  0.00    -0.353 N 
ATOM      4  C   UNL A   1      33.610  19.434  24.878  1.00  0.00     0.257 C 
ATOM      5  O   UNL A   1      33.405  18.218  24.880  1.00  0.00    -0.271 OA
ATOM      6  H   UNL A   1      35.492  19.206  25.521  1.00  0.00     0.163 HD
BRANCH   4   7
ATOM      7  C   UNL A   1      32.507  20.438  24.523  1.00  0.00     0.329 C 
BRANCH   7   8
ATOM      8  O   UNL A   1      31.952  21.211  25.570  1.00  0.00    -0.480 OA
BRANCH   8   9
ATOM      9  C   UNL A   1      32.073  22.571  25.575  1.00  0.00     0.161 A 
ATOM     10  C   UNL A   1      31.611  23.492  26.522  1.00  0.00     0.161 A 
ATOM     11  C   UNL A   1      31.753  24.871  26.290  1.00  0.00     0.058 A 
ATOM     12  C   UNL A   1      32.352  25.336  25.110  1.00  0.00    -0.019 A 
ATOM     13  C   UNL A   1      32.705  23.052  24.420  1.00  0.00     0.051 A 
ATOM     14  C   UNL A   1      32.856  24.419  24.189  1.00  0.00     0.012 A 
BRANCH  10  15
ATOM     15  O   UNL A   1      30.844  23.082  27.581  1.00  0.00    -0.493 OA
ATOM     16  C   UNL A   1      29.481  22.857  27.224  1.00  0.00     0.278 C 
ENDBRANCH  10  15
BRANCH  12  17
ATOM     17  C   UNL A   1      32.337  26.761  24.768  1.00  0.00     0.044 C 
ATOM     18  C   UNL A   1      31.336  27.355  24.100  1.00  0.00     0.153 C 
ATOM     19  N   UNL A   1      31.294  28.700  23.818  1.00  0.00    -0.205 NA
ATOM     20  C   UNL A   1      30.078  26.694  23.623  1.00  0.00     0.363 C 
ATOM     21  C   UNL A   1      30.106  28.845  23.329  1.00  0.00     0.231 C 
ATOM     22  O   UNL A   1      29.334  27.747  23.179  1.00  0.00    -0.402 OA
ATOM     23  O   UNL A   1      29.741  25.531  23.605  1.00  0.00    -0.244 OA
BRANCH  21  24
ATOM     24  C   UNL A   1      29.462  30.077  22.879  1.00  0.00     0.037 A 
ATOM     25  C   UNL A   1      29.082  31.043  23.814  1.00  0.00     0.014 A 
ATOM     26  C   UNL A   1      29.198  30.266  21.517  1.00  0.00     0.014 A 
ATOM     27  C   UNL A   1      28.442  32.205  23.380  1.00  0.00     0.001 A 
ATOM     28  C   UNL A   1      28.542  31.420  21.092  1.00  0.00     0.001 A 
ATOM     29  C   UNL A   1      28.167  32.389  22.023  1.00  0.00     0.000 A 
ENDBRANCH  21  24
ENDBRANCH  12  17
ENDBRANCH   8   9
ENDBRANCH   7   8
ENDBRANCH   4   7
ENDBRANCH   2   3
ENDBRANCH   1   2
BRANCH   1  30
ATOM     30  C   UNL A   1      37.727  19.987  25.086  1.00  0.00     0.023 C 
BRANCH  30  31
ATOM     31  C   UNL A   1      38.982  20.388  25.851  1.00  0.00     0.116 C 
BRANCH  31  32
ATOM     32  N   UNL A   1      39.987  19.336  25.893  1.00  0.00    -0.352 N 
ATOM     33  C   UNL A   1      41.343  19.438  26.088  1.00  0.00     0.251 C 
ATOM     34  H   UNL A   1      39.646  18.421  25.764  1.00  0.00     0.163 HD
ATOM     35  O   UNL A   1      42.056  18.446  25.973  1.00  0.00    -0.269 OA
BRANCH  33  36
ATOM     36  C   UNL A   1      41.940  20.753  26.400  1.00  0.00     0.039 A 
ATOM     37  C   UNL A   1      42.151  21.661  25.359  1.00  0.00     0.014 A 
ATOM     38  C   UNL A   1      42.260  21.102  27.714  1.00  0.00     0.014 A 
ATOM     39  C   UNL A   1      42.616  22.945  25.647  1.00  0.00     0.010 A 
ATOM     40  C   UNL A   1      42.646  22.407  28.007  1.00  0.00     0.010 A 
ATOM     41  C   UNL A   1      42.830  23.343  26.977  1.00  0.00    -0.014 A 
BRANCH  41  42
ATOM     42  C   UNL A   1      43.231  24.736  27.312  1.00  0.00     0.031 A 
ATOM     43  C   UNL A   1      42.239  25.677  27.944  1.00  0.00     0.074 A 
ATOM     44  C   UNL A   1      44.457  25.180  26.967  1.00  0.00     0.049 A 
ATOM     45  N   UNL A   1      42.381  26.942  28.240  1.00  0.00    -0.248 NA
ATOM     46  C   UNL A   1      40.906  25.135  28.262  1.00  0.00     0.031 C 
ATOM     47  C   UNL A   1      45.483  24.389  26.281  1.00  0.00     0.029 A 
ATOM     48  N   UNL A   1      45.039  26.415  27.115  1.00  0.00    -0.354 N 
ATOM     49  C   UNL A   1      41.151  27.358  28.735  1.00  0.00     0.074 A 
ATOM     50  C   UNL A   1      40.265  26.217  28.682  1.00  0.00     0.031 C 
ATOM     51  C   UNL A   1      46.562  25.158  26.065  1.00  0.00     0.029 A 
ATOM     52  C   UNL A   1      46.294  26.505  26.558  1.00  0.00     0.049 A 
ATOM     53  H   UNL A   1      44.599  27.165  27.576  1.00  0.00     0.167 HD
ATOM     54  C   UNL A   1      40.797  28.574  29.210  1.00  0.00     0.034 A 
ATOM     55  C   UNL A   1      47.128  27.558  26.434  1.00  0.00     0.034 A 
ATOM     56  C   UNL A   1      41.691  29.695  29.305  1.00  0.00     0.049 A 
ATOM     57  C   UNL A   1      46.713  28.890  27.004  1.00  0.00     0.074 A 
ATOM     58  C   UNL A   1      41.452  30.937  29.867  1.00  0.00     0.029 A 
ATOM     59  N   UNL A   1      42.984  29.722  28.811  1.00  0.00    -0.354 N 
ATOM     60  N   UNL A   1      45.605  29.214  27.623  1.00  0.00    -0.248 NA
ATOM     61  C   UNL A   1      47.680  29.993  26.890  1.00  0.00     0.031 C 
ATOM     62  C   UNL A   1      42.585  31.730  29.674  1.00  0.00     0.029 A 
ATOM     63  C   UNL A   1      43.548  30.965  29.038  1.00  0.00     0.049 A 
ATOM     64  H   UNL A   1      43.435  28.969  28.364  1.00  0.00     0.167 HD
ATOM     65  C   UNL A   1      45.758  30.541  28.008  1.00  0.00     0.074 A 
ATOM     66  C   UNL A   1      47.075  30.955  27.572  1.00  0.00     0.031 C 
ATOM     67  C   UNL A   1      44.882  31.347  28.653  1.00  0.00     0.034 A 
BRANCH  54  68
ATOM     68  C   UNL A   1      39.386  28.765  29.703  1.00  0.00     0.023 A 
ATOM     69  C   UNL A   1      39.055  28.429  31.031  1.00  0.00     0.012 A 
ATOM     70  C   UNL A   1      38.421  29.382  28.883  1.00  0.00     0.148 A 
ATOM     71  C   UNL A   1      37.780  28.686  31.529  1.00  0.00     0.002 A 
ATOM     72  C   UNL A   1      37.168  29.680  29.402  1.00  0.00     0.091 A 
ATOM     73  F   UNL A   1      38.753  29.677  27.619  1.00  0.00    -0.205 F 
ATOM     74  C   UNL A   1      36.842  29.323  30.721  1.00  0.00     0.022 A 
BRANCH  72  75
ATOM     75  S   UNL A   1      35.920  30.578  28.473  1.00  0.00     0.127 S 
ATOM     76  O   UNL A   1      36.747  31.410  27.599  1.00  0.00    -0.237 OA
ATOM     77  O   UNL A   1      35.211  29.496  27.792  1.00  0.00    -0.237 OA
ATOM     78  O   UNL A   1      35.130  31.308  29.454  1.00  0.00    -0.744 OA
ENDBRANCH  72  75
ENDBRANCH  54  68
BRANCH  55  79
ATOM     79  C   UNL A   1      48.449  27.404  25.761  1.00  0.00     0.023 A 
ATOM     80  C   UNL A   1      49.597  27.124  26.527  1.00  0.00     0.012 A 
ATOM     81  C   UNL A   1      48.578  27.555  24.366  1.00  0.00     0.148 A 
ATOM     82  C   UNL A   1      50.856  27.053  25.926  1.00  0.00     0.002 A 
ATOM     83  C   UNL A   1      49.823  27.421  23.766  1.00  0.00     0.091 A 
ATOM     84  F   UNL A   1      47.476  27.830  23.652  1.00  0.00    -0.205 F 
ATOM     85  C   UNL A   1      50.967  27.194  24.545  1.00  0.00     0.022 A 
BRANCH  83  86
ATOM     86  S   UNL A   1      50.037  27.456  21.984  1.00  0.00     0.127 S 
ATOM     87  O   UNL A   1      49.121  26.405  21.550  1.00  0.00    -0.237 OA
ATOM     88  O   UNL A   1      49.615  28.818  21.655  1.00  0.00    -0.237 OA
ATOM     89  O   UNL A   1      51.453  27.199  21.754  1.00  0.00    -0.744 OA
ENDBRANCH  83  86
ENDBRANCH  55  79
BRANCH  67  90
ATOM     90  C   UNL A   1      45.328  32.745  28.992  1.00  0.00     0.023 A 
ATOM     91  C   UNL A   1      45.991  33.004  30.208  1.00  0.00     0.012 A 
ATOM     92  C   UNL A   1      45.159  33.790  28.061  1.00  0.00     0.148 A 
ATOM     93  C   UNL A   1      46.448  34.288  30.506  1.00  0.00     0.002 A 
ATOM     94  C   UNL A   1      45.665  35.052  28.340  1.00  0.00     0.091 A 
ATOM     95  F   UNL A   1      44.511  33.526  26.917  1.00  0.00    -0.205 F 
ATOM     96  C   UNL A   1      46.296  35.307  29.567  1.00  0.00     0.022 A 
BRANCH  94  97
ATOM     97  S   UNL A   1      45.609  36.398  27.152  1.00  0.00     0.127 S 
ATOM     98  O   UNL A   1      46.540  37.357  27.746  1.00  0.00    -0.237 OA
ATOM     99  O   UNL A   1      46.094  35.753  25.932  1.00  0.00    -0.237 OA
ATOM    100  O   UNL A   1      44.220  36.833  27.098  1.00  0.00    -0.744 OA
ENDBRANCH  94  97
ENDBRANCH  67  90
ENDBRANCH  41  42
ENDBRANCH  33  36
ENDBRANCH  31  32
ENDBRANCH  30  31
ENDBRANCH   1  30
TORSDOF 19
ENDMDL
MODEL 2
REMARK VINA RESULT:     -12.6      6.159     11.979
REMARK SMILES COc1cc(/C=C2/N=C(c3ccccc3)OC2=O)ccc1OCC(=O)NCCCCNC(=O)c1ccc(-c2c3nc(c(-c4cccc(S(=O)(=O)[O-])c4F)c4ccc([nH]4)c(-c4cccc(S(=O)(=O)[O-])c4F)c4nc(c(-c5cccc(S(=O)(=O)[O-])c5F)c5ccc2[nH]5)C=C4)C=C3)cc1
REMARK SMILES IDX 28 1 27 2 26 3 24 4 25 5 23 7 22 8 21 9 3 10 4 11 5 12 20 13
REMARK SMILES IDX 19 14 2 15 1 16 6 17 7 18 8 19 17 20 9 21 16 22 18 23 10 24
REMARK SMILES IDX 11 25 15 26 12 27 14 28 13 29 29 30 30 31 31 32 32 33 33 35
REMARK SMILES IDX 34 36 35 37 96 38 36 39 95 40 37 41 38 42 39 43 89 44 40 45
REMARK SMILES IDX 94 46 88 47 90 48 41 49 93 50 87 51 86 52 42 54 74 55 54 56
REMARK SMILES IDX 73 57 55 58 58 59 72 60 91 61 56 62 57 63 71 65 92 66 59 67
REMARK SMILES IDX 43 68 44 69 52 70 45 71 47 72 53 73 46 74 48 75 49 76 50 77
REMARK SMILES IDX 51 78 75 79 76 80 84 81 77 82 79 83 85 84 78 85 80 86 81 87
REMARK SMILES IDX 82 88 83 89 60 90 61 91 69 92 62 93 64 94 70 95 63 96 65 97
REMARK SMILES IDX 66 98 67 99 68 100
REMARK H PARENT 26 6 31 34 90 53 58 64
REMARK Flexibility Score: inf
ROOT
ATOM      1  C   UNL A   1      31.897  30.164  26.747  1.00  0.00     0.023 C 
ENDROOT
BRANCH   1   2
ATOM      2  C   UNL A   1      31.851  29.530  25.360  1.00  0.00     0.116 C 
BRANCH   2   3
ATOM      3  N   UNL A   1      31.040  30.271  24.418  1.00  0.00    -0.353 N 
ATOM      4  C   UNL A   1      30.071  29.796  23.582  1.00  0.00     0.257 C 
ATOM      5  O   UNL A   1      29.296  30.610  23.076  1.00  0.00    -0.271 OA
ATOM      6  H   UNL A   1      31.207  31.241  24.376  1.00  0.00     0.163 HD
BRANCH   4   7
ATOM      7  C   UNL A   1      29.914  28.286  23.363  1.00  0.00     0.329 C 
BRANCH   7   8
ATOM      8  O   UNL A   1      30.957  27.600  22.698  1.00  0.00    -0.480 OA
BRANCH   8   9
ATOM      9  C   UNL A   1      31.678  26.633  23.337  1.00  0.00     0.161 A 
ATOM     10  C   UNL A   1      32.972  26.174  23.065  1.00  0.00     0.161 A 
ATOM     11  C   UNL A   1      33.500  25.089  23.787  1.00  0.00     0.058 A 
ATOM     12  C   UNL A   1      32.737  24.455  24.779  1.00  0.00    -0.019 A 
ATOM     13  C   UNL A   1      30.945  26.014  24.359  1.00  0.00     0.051 A 
ATOM     14  C   UNL A   1      31.467  24.943  25.083  1.00  0.00     0.012 A 
BRANCH  10  15
ATOM     15  O   UNL A   1      33.661  26.633  21.974  1.00  0.00    -0.493 OA
ATOM     16  C   UNL A   1      34.012  28.013  22.079  1.00  0.00     0.278 C 
ENDBRANCH  10  15
BRANCH  12  17
ATOM     17  C   UNL A   1      33.198  23.213  25.404  1.00  0.00     0.044 C 
ATOM     18  C   UNL A   1      32.891  21.991  24.944  1.00  0.00     0.153 C 
ATOM     19  N   UNL A   1      33.359  20.822  25.497  1.00  0.00    -0.205 NA
ATOM     20  C   UNL A   1      32.069  21.685  23.727  1.00  0.00     0.363 C 
ATOM     21  C   UNL A   1      32.956  19.932  24.651  1.00  0.00     0.231 C 
ATOM     22  O   UNL A   1      32.209  20.335  23.601  1.00  0.00    -0.402 OA
ATOM     23  O   UNL A   1      31.424  22.403  22.996  1.00  0.00    -0.244 OA
BRANCH  21  24
ATOM     24  C   UNL A   1      33.190  18.490  24.682  1.00  0.00     0.037 A 
ATOM     25  C   UNL A   1      32.639  17.719  25.708  1.00  0.00     0.014 A 
ATOM     26  C   UNL A   1      33.993  17.896  23.701  1.00  0.00     0.014 A 
ATOM     27  C   UNL A   1      32.890  16.347  25.747  1.00  0.00     0.001 A 
ATOM     28  C   UNL A   1      34.255  16.527  23.756  1.00  0.00     0.001 A 
ATOM     29  C   UNL A   1      33.702  15.755  24.777  1.00  0.00     0.000 A 
ENDBRANCH  21  24
ENDBRANCH  12  17
ENDBRANCH   8   9
ENDBRANCH   7   8
ENDBRANCH   4   7
ENDBRANCH   2   3
ENDBRANCH   1   2
BRANCH   1  30
ATOM     30  C   UNL A   1      31.715  31.682  26.788  1.00  0.00     0.023 C 
BRANCH  30  31
ATOM     31  C   UNL A   1      32.908  32.476  27.306  1.00  0.00     0.116 C 
BRANCH  31  32
ATOM     32  N   UNL A   1      32.591  33.869  27.583  1.00  0.00    -0.352 N 
ATOM     33  C   UNL A   1      33.144  34.717  28.512  1.00  0.00     0.251 C 
ATOM     34  H   UNL A   1      31.879  34.259  27.026  1.00  0.00     0.163 HD
ATOM     35  O   UNL A   1      32.666  35.833  28.685  1.00  0.00    -0.269 OA
BRANCH  33  36
ATOM     36  C   UNL A   1      34.293  34.264  29.323  1.00  0.00     0.039 A 
ATOM     37  C   UNL A   1      34.056  33.432  30.420  1.00  0.00     0.014 A 
ATOM     38  C   UNL A   1      35.598  34.629  28.985  1.00  0.00     0.014 A 
ATOM     39  C   UNL A   1      35.135  32.909  31.136  1.00  0.00     0.010 A 
ATOM     40  C   UNL A   1      36.673  34.043  29.649  1.00  0.00     0.010 A 
ATOM     41  C   UNL A   1      36.454  33.178  30.733  1.00  0.00    -0.014 A 
BRANCH  41  42
ATOM     42  C   UNL A   1      37.614  32.552  31.420  1.00  0.00     0.031 A 
ATOM     43  C   UNL A   1      38.350  31.408  30.774  1.00  0.00     0.074 A 
ATOM     44  C   UNL A   1      37.950  32.954  32.664  1.00  0.00     0.049 A 
ATOM     45  N   UNL A   1      39.335  30.692  31.248  1.00  0.00    -0.248 NA
ATOM     46  C   UNL A   1      37.908  30.998  29.429  1.00  0.00     0.031 C 
ATOM     47  C   UNL A   1      37.268  34.000  33.430  1.00  0.00     0.029 A 
ATOM     48  N   UNL A   1      38.930  32.508  33.517  1.00  0.00    -0.354 N 
ATOM     49  C   UNL A   1      39.600  29.724  30.287  1.00  0.00     0.074 A 
ATOM     50  C   UNL A   1      38.660  29.930  29.209  1.00  0.00     0.031 C 
ATOM     51  C   UNL A   1      37.845  34.111  34.637  1.00  0.00     0.029 A 
ATOM     52  C   UNL A   1      38.910  33.120  34.750  1.00  0.00     0.049 A 
ATOM     53  H   UNL A   1      39.584  31.815  33.271  1.00  0.00     0.167 HD
ATOM     54  C   UNL A   1      40.553  28.764  30.293  1.00  0.00     0.034 A 
ATOM     55  C   UNL A   1      39.648  32.894  35.855  1.00  0.00     0.034 A 
ATOM     56  C   UNL A   1      41.516  28.589  31.345  1.00  0.00     0.049 A 
ATOM     57  C   UNL A   1      40.723  31.839  35.814  1.00  0.00     0.074 A 
ATOM     58  C   UNL A   1      42.584  27.710  31.391  1.00  0.00     0.029 A 
ATOM     59  N   UNL A   1      41.520  29.287  32.540  1.00  0.00    -0.354 N 
ATOM     60  N   UNL A   1      41.066  31.049  34.827  1.00  0.00    -0.248 NA
ATOM     61  C   UNL A   1      41.535  31.668  37.029  1.00  0.00     0.031 C 
ATOM     62  C   UNL A   1      43.208  27.846  32.634  1.00  0.00     0.029 A 
ATOM     63  C   UNL A   1      42.560  28.846  33.340  1.00  0.00     0.049 A 
ATOM     64  H   UNL A   1      40.879  29.993  32.785  1.00  0.00     0.167 HD
ATOM     65  C   UNL A   1      42.158  30.320  35.286  1.00  0.00     0.074 A 
ATOM     66  C   UNL A   1      42.433  30.778  36.631  1.00  0.00     0.031 C 
ATOM     67  C   UNL A   1      42.862  29.350  34.653  1.00  0.00     0.034 A 
BRANCH  54  68
ATOM     68  C   UNL A   1      40.638  27.834  29.110  1.00  0.00     0.023 A 
ATOM     69  C   UNL A   1      39.702  26.790  28.970  1.00  0.00     0.012 A 
ATOM     70  C   UNL A   1      41.575  28.069  28.085  1.00  0.00     0.148 A 
ATOM     71  C   UNL A   1      39.711  25.980  27.836  1.00  0.00     0.002 A 
ATOM     72  C   UNL A   1      41.545  27.289  26.936  1.00  0.00     0.091 A 
ATOM     73  F   UNL A   1      42.466  29.056  28.248  1.00  0.00    -0.205 F 
ATOM     74  C   UNL A   1      40.621  26.238  26.814  1.00  0.00     0.022 A 
BRANCH  72  75
ATOM     75  S   UNL A   1      42.615  27.596  25.526  1.00  0.00     0.127 S 
ATOM     76  O   UNL A   1      42.069  28.852  25.011  1.00  0.00    -0.237 OA
ATOM     77  O   UNL A   1      43.927  27.716  26.160  1.00  0.00    -0.237 OA
ATOM     78  O   UNL A   1      42.463  26.449  24.644  1.00  0.00    -0.744 OA
ENDBRANCH  72  75
ENDBRANCH  54  68
BRANCH  55  79
ATOM     79  C   UNL A   1      39.419  33.691  37.095  1.00  0.00     0.023 A 
ATOM     80  C   UNL A   1      39.901  35.012  37.177  1.00  0.00     0.012 A 
ATOM     81  C   UNL A   1      38.747  33.137  38.202  1.00  0.00     0.148 A 
ATOM     82  C   UNL A   1      39.766  35.747  38.357  1.00  0.00     0.002 A 
ATOM     83  C   UNL A   1      38.561  33.896  39.351  1.00  0.00     0.091 A 
ATOM     84  F   UNL A   1      38.304  31.875  38.111  1.00  0.00    -0.205 F 
ATOM     85  C   UNL A   1      39.089  35.192  39.440  1.00  0.00     0.022 A 
BRANCH  83  86
ATOM     86  S   UNL A   1      37.588  33.307  40.741  1.00  0.00     0.127 S 
ATOM     87  O   UNL A   1      36.237  33.314  40.187  1.00  0.00    -0.237 OA
ATOM     88  O   UNL A   1      38.156  31.978  40.966  1.00  0.00    -0.237 OA
ATOM     89  O   UNL A   1      37.837  34.252  41.821  1.00  0.00    -0.744 OA
ENDBRANCH  83  86
ENDBRANCH  55  79
BRANCH  67  90
ATOM     90  C   UNL A   1      44.042  28.752  35.373  1.00  0.00     0.023 A 
ATOM     91  C   UNL A   1      45.334  29.278  35.177  1.00  0.00     0.012 A 
ATOM     92  C   UNL A   1      43.852  27.716  36.309  1.00  0.00     0.148 A 
ATOM     93  C   UNL A   1      46.423  28.758  35.877  1.00  0.00     0.002 A 
ATOM     94  C   UNL A   1      44.930  27.241  37.042  1.00  0.00     0.091 A 
ATOM     95  F   UNL A   1      42.616  27.219  36.469  1.00  0.00    -0.205 F 
ATOM     96  C   UNL A   1      46.219  27.750  36.817  1.00  0.00     0.022 A 
BRANCH  94  97
ATOM     97  S   UNL A   1      44.748  26.020  38.346  1.00  0.00     0.127 S 
ATOM     98  O   UNL A   1      44.191  24.883  37.614  1.00  0.00    -0.237 OA
ATOM     99  O   UNL A   1      46.128  25.839  38.796  1.00  0.00    -0.237 OA
ATOM    100  O   UNL A   1      43.861  26.615  39.337  1.00  0.00    -0.744 OA
ENDBRANCH  94  97
ENDBRANCH  67  90
ENDBRANCH  41  42
ENDBRANCH  33  36
ENDBRANCH  31  32
ENDBRANCH  30  31
ENDBRANCH   1  30
TORSDOF 19
ENDMDL
MODEL 3
REMARK VINA RESULT:     -12.3      5.709     11.688
REMARK SMILES COc1cc(/C=C2/N=C(c3ccccc3)OC2=O)ccc1OCC(=O)NCCCCNC(=O)c1ccc(-c2c3nc(c(-c4cccc(S(=O)(=O)[O-])c4F)c4ccc([nH]4)c(-c4cccc(S(=O)(=O)[O-])c4F)c4nc(c(-c5cccc(S(=O)(=O)[O-])c5F)c5ccc2[nH]5)C=C4)C=C3)cc1
REMARK SMILES IDX 28 1 27 2 26 3 24 4 25 5 23 7 22 8 21 9 3 10 4 11 5 12 20 13
REMARK SMILES IDX 19 14 2 15 1 16 6 17 7 18 8 19 17 20 9 21 16 22 18 23 10 24
REMARK SMILES IDX 11 25 15 26 12 27 14 28 13 29 29 30 30 31 31 32 32 33 33 35
REMARK SMILES IDX 34 36 35 37 96 38 36 39 95 40 37 41 38 42 39 43 89 44 40 45
REMARK SMILES IDX 94 46 88 47 90 48 41 49 93 50 87 51 86 52 42 54 74 55 54 56
REMARK SMILES IDX 73 57 55 58 58 59 72 60 91 61 56 62 57 63 71 65 92 66 59 67
REMARK SMILES IDX 43 68 44 69 52 70 45 71 47 72 53 73 46 74 48 75 49 76 50 77
REMARK SMILES IDX 51 78 75 79 76 80 84 81 77 82 79 83 85 84 78 85 80 86 81 87
REMARK SMILES IDX 82 88 83 89 60 90 61 91 69 92 62 93 64 94 70 95 63 96 65 97
REMARK SMILES IDX 66 98 67 99 68 100
REMARK H PARENT 26 6 31 34 90 53 58 64
REMARK Flexibility Score: inf
ROOT
ATOM      1  C   UNL A   1      31.807  30.430  26.860  1.00  0.00     0.023 C 
ENDROOT
BRANCH   1   2
ATOM      2  C   UNL A   1      31.619  29.522  25.648  1.00  0.00     0.116 C 
BRANCH   2   3
ATOM      3  N   UNL A   1      32.849  29.267  24.928  1.00  0.00    -0.353 N 
ATOM      4  C   UNL A   1      33.013  29.040  23.593  1.00  0.00     0.257 C 
ATOM      5  O   UNL A   1      34.151  29.136  23.126  1.00  0.00    -0.271 OA
ATOM      6  H   UNL A   1      33.671  29.257  25.471  1.00  0.00     0.163 HD
BRANCH   4   7
ATOM      7  C   UNL A   1      31.796  28.762  22.702  1.00  0.00     0.329 C 
BRANCH   7   8
ATOM      8  O   UNL A   1      31.711  27.499  22.070  1.00  0.00    -0.480 OA
BRANCH   8   9
ATOM      9  C   UNL A   1      31.900  26.348  22.780  1.00  0.00     0.161 A 
ATOM     10  C   UNL A   1      31.178  25.860  23.875  1.00  0.00     0.161 A 
ATOM     11  C   UNL A   1      31.600  24.691  24.531  1.00  0.00     0.058 A 
ATOM     12  C   UNL A   1      32.746  24.006  24.100  1.00  0.00    -0.019 A 
ATOM     13  C   UNL A   1      33.019  25.630  22.337  1.00  0.00     0.051 A 
ATOM     14  C   UNL A   1      33.437  24.465  22.979  1.00  0.00     0.012 A 
BRANCH  10  15
ATOM     15  O   UNL A   1      30.182  26.608  24.445  1.00  0.00    -0.493 OA
ATOM     16  C   UNL A   1      28.899  26.354  23.872  1.00  0.00     0.278 C 
ENDBRANCH  10  15
BRANCH  12  17
ATOM     17  C   UNL A   1      33.303  22.901  24.884  1.00  0.00     0.044 C 
ATOM     18  C   UNL A   1      33.043  21.609  24.636  1.00  0.00     0.153 C 
ATOM     19  N   UNL A   1      33.600  20.566  25.338  1.00  0.00    -0.205 NA
ATOM     20  C   UNL A   1      32.184  21.077  23.528  1.00  0.00     0.363 C 
ATOM     21  C   UNL A   1      33.208  19.535  24.663  1.00  0.00     0.231 C 
ATOM     22  O   UNL A   1      32.392  19.732  23.605  1.00  0.00    -0.402 OA
ATOM     23  O   UNL A   1      31.466  21.639  22.732  1.00  0.00    -0.244 OA
BRANCH  21  24
ATOM     24  C   UNL A   1      33.522  18.128  24.904  1.00  0.00     0.037 A 
ATOM     25  C   UNL A   1      34.799  17.642  24.612  1.00  0.00     0.014 A 
ATOM     26  C   UNL A   1      32.531  17.270  25.394  1.00  0.00     0.014 A 
ATOM     27  C   UNL A   1      35.083  16.292  24.818  1.00  0.00     0.001 A 
ATOM     28  C   UNL A   1      32.816  15.917  25.581  1.00  0.00     0.001 A 
ATOM     29  C   UNL A   1      34.092  15.431  25.295  1.00  0.00     0.000 A 
ENDBRANCH  21  24
ENDBRANCH  12  17
ENDBRANCH   8   9
ENDBRANCH   7   8
ENDBRANCH   4   7
ENDBRANCH   2   3
ENDBRANCH   1   2
BRANCH   1  30
ATOM     30  C   UNL A   1      31.361  31.881  26.677  1.00  0.00     0.023 C 
BRANCH  30  31
ATOM     31  C   UNL A   1      32.482  32.903  26.541  1.00  0.00     0.116 C 
BRANCH  31  32
ATOM     32  N   UNL A   1      32.262  34.102  27.337  1.00  0.00    -0.352 N 
ATOM     33  C   UNL A   1      32.944  34.546  28.444  1.00  0.00     0.251 C 
ATOM     34  H   UNL A   1      31.521  34.676  27.039  1.00  0.00     0.163 HD
ATOM     35  O   UNL A   1      32.540  35.527  29.060  1.00  0.00    -0.269 OA
BRANCH  33  36
ATOM     36  C   UNL A   1      34.142  33.815  28.908  1.00  0.00     0.039 A 
ATOM     37  C   UNL A   1      35.394  34.418  28.767  1.00  0.00     0.014 A 
ATOM     38  C   UNL A   1      34.028  32.559  29.508  1.00  0.00     0.014 A 
ATOM     39  C   UNL A   1      36.525  33.790  29.293  1.00  0.00     0.010 A 
ATOM     40  C   UNL A   1      35.144  31.975  30.102  1.00  0.00     0.010 A 
ATOM     41  C   UNL A   1      36.405  32.583  29.999  1.00  0.00    -0.014 A 
BRANCH  41  42
ATOM     42  C   UNL A   1      37.582  31.949  30.651  1.00  0.00     0.031 A 
ATOM     43  C   UNL A   1      38.366  30.885  29.928  1.00  0.00     0.074 A 
ATOM     44  C   UNL A   1      37.892  32.266  31.925  1.00  0.00     0.049 A 
ATOM     45  N   UNL A   1      39.372  30.171  30.358  1.00  0.00    -0.248 NA
ATOM     46  C   UNL A   1      37.951  30.564  28.551  1.00  0.00     0.031 C 
ATOM     47  C   UNL A   1      37.164  33.225  32.761  1.00  0.00     0.029 A 
ATOM     48  N   UNL A   1      38.880  31.792  32.754  1.00  0.00    -0.354 N 
ATOM     49  C   UNL A   1      39.682  29.290  29.329  1.00  0.00     0.074 A 
ATOM     50  C   UNL A   1      38.744  29.543  28.258  1.00  0.00     0.031 C 
ATOM     51  C   UNL A   1      37.726  33.264  33.979  1.00  0.00     0.029 A 
ATOM     52  C   UNL A   1      38.826  32.307  34.029  1.00  0.00     0.049 A 
ATOM     53  H   UNL A   1      39.562  31.145  32.462  1.00  0.00     0.167 HD
ATOM     54  C   UNL A   1      40.670  28.367  29.273  1.00  0.00     0.034 A 
ATOM     55  C   UNL A   1      39.562  32.024  35.122  1.00  0.00     0.034 A 
ATOM     56  C   UNL A   1      41.630  28.148  30.320  1.00  0.00     0.049 A 
ATOM     57  C   UNL A   1      40.676  31.015  35.014  1.00  0.00     0.074 A 
ATOM     58  C   UNL A   1      42.729  27.308  30.311  1.00  0.00     0.029 A 
ATOM     59  N   UNL A   1      41.597  28.753  31.565  1.00  0.00    -0.354 N 
ATOM     60  N   UNL A   1      41.057  30.316  33.974  1.00  0.00    -0.248 NA
ATOM     61  C   UNL A   1      41.483  30.782  36.221  1.00  0.00     0.031 C 
ATOM     62  C   UNL A   1      43.337  27.371  31.568  1.00  0.00     0.029 A 
ATOM     63  C   UNL A   1      42.646  28.290  32.340  1.00  0.00     0.049 A 
ATOM     64  H   UNL A   1      40.928  29.414  31.855  1.00  0.00     0.167 HD
ATOM     65  C   UNL A   1      42.171  29.595  34.388  1.00  0.00     0.074 A 
ATOM     66  C   UNL A   1      42.417  29.958  35.767  1.00  0.00     0.031 C 
ATOM     67  C   UNL A   1      42.916  28.703  33.692  1.00  0.00     0.034 A 
BRANCH  54  68
ATOM     68  C   UNL A   1      40.800  27.535  28.024  1.00  0.00     0.023 A 
ATOM     69  C   UNL A   1      41.400  28.085  26.873  1.00  0.00     0.012 A 
ATOM     70  C   UNL A   1      40.430  26.176  28.031  1.00  0.00     0.148 A 
ATOM     71  C   UNL A   1      41.611  27.300  25.741  1.00  0.00     0.002 A 
ATOM     72  C   UNL A   1      40.688  25.388  26.916  1.00  0.00     0.091 A 
ATOM     73  F   UNL A   1      39.845  25.680  29.130  1.00  0.00    -0.205 F 
ATOM     74  C   UNL A   1      41.269  25.951  25.767  1.00  0.00     0.022 A 
BRANCH  72  75
ATOM     75  S   UNL A   1      40.368  23.621  26.882  1.00  0.00     0.127 S 
ATOM     76  O   UNL A   1      41.386  23.156  25.939  1.00  0.00    -0.237 OA
ATOM     77  O   UNL A   1      40.606  23.241  28.273  1.00  0.00    -0.237 OA
ATOM     78  O   UNL A   1      38.993  23.467  26.430  1.00  0.00    -0.744 OA
ENDBRANCH  72  75
ENDBRANCH  54  68
BRANCH  55  79
ATOM     79  C   UNL A   1      39.293  32.715  36.416  1.00  0.00     0.023 A 
ATOM     80  C   UNL A   1      39.955  33.921  36.718  1.00  0.00     0.012 A 
ATOM     81  C   UNL A   1      38.401  32.169  37.361  1.00  0.00     0.148 A 
ATOM     82  C   UNL A   1      39.776  34.543  37.956  1.00  0.00     0.002 A 
ATOM     83  C   UNL A   1      38.180  32.825  38.565  1.00  0.00     0.091 A 
ATOM     84  F   UNL A   1      37.787  31.015  37.063  1.00  0.00    -0.205 F 
ATOM     85  C   UNL A   1      38.883  33.998  38.876  1.00  0.00     0.022 A 
BRANCH  83  86
ATOM     86  S   UNL A   1      36.952  32.266  39.749  1.00  0.00     0.127 S 
ATOM     87  O   UNL A   1      37.058  33.281  40.794  1.00  0.00    -0.237 OA
ATOM     88  O   UNL A   1      35.722  32.320  38.958  1.00  0.00    -0.237 OA
ATOM     89  O   UNL A   1      37.357  30.919  40.128  1.00  0.00    -0.744 OA
ENDBRANCH  83  86
ENDBRANCH  55  79
BRANCH  67  90
ATOM     90  C   UNL A   1      44.112  28.095  34.378  1.00  0.00     0.023 A 
ATOM     91  C   UNL A   1      45.365  28.736  34.321  1.00  0.00     0.012 A 
ATOM     92  C   UNL A   1      43.968  26.924  35.149  1.00  0.00     0.148 A 
ATOM     93  C   UNL A   1      46.464  28.201  34.993  1.00  0.00     0.002 A 
ATOM     94  C   UNL A   1      45.052  26.428  35.860  1.00  0.00     0.091 A 
ATOM     95  F   UNL A   1      42.770  26.321  35.177  1.00  0.00    -0.205 F 
ATOM     96  C   UNL A   1      46.304  27.056  35.772  1.00  0.00     0.022 A 
BRANCH  94  97
ATOM     97  S   UNL A   1      44.917  25.023  36.970  1.00  0.00     0.127 S 
ATOM     98  O   UNL A   1      46.284  24.911  37.476  1.00  0.00    -0.237 OA
ATOM     99  O   UNL A   1      43.940  25.496  37.951  1.00  0.00    -0.237 OA
ATOM    100  O   UNL A   1      44.464  23.904  36.154  1.00  0.00    -0.744 OA
ENDBRANCH  94  97
ENDBRANCH  67  90
ENDBRANCH  41  42
ENDBRANCH  33  36
ENDBRANCH  31  32
ENDBRANCH  30  31
ENDBRANCH   1  30
TORSDOF 19
ENDMDL
