MODEL 1
REMARK VINA RESULT:     -13.0      0.000      0.000
REMARK SMILES O=C(NCCCCNC(=O)c1ccc(-c2c3nc(c(-c4cccc(S(=O)(=O)[O-])c4F)c4ccc([nH]4)c(-c4cccc(S(=O)(=O)[O-])c4F)c4nc(c(-c5cccc(S(=O)(=O)[O-])c5F)c5ccc2[nH]5)C=C4)C=C3)cc1)C1=Cc2c(cc(Cl)c(Cl)c2Cl)O[C@H]1C(F)(F)F
REMARK SMILES IDX 6 1 5 2 4 3 3 4 1 5 2 6 74 8 75 9 86 10 76 11 85 12 77 13
REMARK SMILES IDX 83 14 78 15 81 16 84 17 79 18 82 19 80 20 87 21 88 22 89 23
REMARK SMILES IDX 90 24 7 25 8 26 9 27 10 29 11 30 12 31 73 32 13 33 72 34
REMARK SMILES IDX 14 35 15 36 16 37 66 38 17 39 71 40 65 41 67 42 18 43 70 44
REMARK SMILES IDX 64 45 63 46 19 48 51 49 31 50 50 51 32 52 35 53 49 54 68 55
REMARK SMILES IDX 33 56 34 57 48 59 69 60 36 61 20 62 21 63 29 64 22 65 24 66
REMARK SMILES IDX 30 67 23 68 25 69 26 70 27 71 28 72 52 73 53 74 61 75 54 76
REMARK SMILES IDX 56 77 62 78 55 79 57 80 58 81 59 82 60 83 37 84 38 85 46 86
REMARK SMILES IDX 39 87 41 88 47 89 40 90 42 91 43 92 44 93 45 94
REMARK H PARENT 3 7 8 28 67 47 35 58
REMARK Flexibility Score: inf
ROOT
ATOM      1  C   UNL A   1      31.360  29.663  25.214  1.00  0.00     0.023 C 
ENDROOT
BRANCH   1   2
ATOM      2  C   UNL A   1      31.868  28.959  23.960  1.00  0.00     0.023 C 
BRANCH   2   3
ATOM      3  C   UNL A   1      33.251  28.331  24.056  1.00  0.00     0.116 C 
BRANCH   3   4
ATOM      4  N   UNL A   1      33.566  27.320  23.063  1.00  0.00    -0.352 N 
ATOM      5  O   UNL A   1      34.052  25.242  22.312  1.00  0.00    -0.270 OA
ATOM      6  C   UNL A   1      33.713  25.968  23.240  1.00  0.00     0.251 C 
ATOM      7  H   UNL A   1      33.689  27.648  22.143  1.00  0.00     0.163 HD
BRANCH   6   8
ATOM      8  C   UNL A   1      33.508  25.366  24.586  1.00  0.00     0.067 C 
ATOM      9  C   UNL A   1      34.604  24.898  25.205  1.00  0.00     0.027 C 
ATOM     10  C   UNL A   1      32.148  24.771  24.827  1.00  0.00     0.314 C 
ATOM     11  C   UNL A   1      34.621  23.421  25.304  1.00  0.00     0.037 A 
ATOM     12  O   UNL A   1      32.182  23.351  25.166  1.00  0.00    -0.475 OA
ATOM     13  C   UNL A   1      33.405  22.732  25.209  1.00  0.00     0.131 A 
ATOM     14  C   UNL A   1      35.837  22.707  25.275  1.00  0.00     0.072 A 
ATOM     15  C   UNL A   1      33.396  21.353  25.032  1.00  0.00     0.069 A 
ATOM     16  C   UNL A   1      35.830  21.318  25.061  1.00  0.00     0.079 A 
ATOM     17  Cl  UNL A   1      37.335  23.580  25.419  1.00  0.00    -0.082 Cl
ATOM     18  C   UNL A   1      34.602  20.654  24.921  1.00  0.00     0.064 A 
ATOM     19  Cl  UNL A   1      37.321  20.443  24.905  1.00  0.00    -0.081 Cl
ATOM     20  Cl  UNL A   1      34.492  18.967  24.552  1.00  0.00    -0.083 Cl
BRANCH  10  21
ATOM     21  C   UNL A   1      31.354  25.556  25.892  1.00  0.00     0.429 C 
ATOM     22  F   UNL A   1      30.338  26.284  25.374  1.00  0.00    -0.167 F 
ATOM     23  F   UNL A   1      30.818  24.720  26.814  1.00  0.00    -0.167 F 
ATOM     24  F   UNL A   1      32.144  26.429  26.567  1.00  0.00    -0.167 F 
ENDBRANCH  10  21
ENDBRANCH   6   8
ENDBRANCH   3   4
ENDBRANCH   2   3
ENDBRANCH   1   2
BRANCH   1  25
ATOM     25  C   UNL A   1      32.405  30.060  26.256  1.00  0.00     0.116 C 
BRANCH  25  26
ATOM     26  N   UNL A   1      32.311  31.438  26.728  1.00  0.00    -0.352 N 
ATOM     27  C   UNL A   1      33.250  32.192  27.401  1.00  0.00     0.251 C 
ATOM     28  H   UNL A   1      31.458  31.892  26.537  1.00  0.00     0.163 HD
ATOM     29  O   UNL A   1      32.975  33.337  27.750  1.00  0.00    -0.269 OA
BRANCH  27  30
ATOM     30  C   UNL A   1      34.554  31.595  27.770  1.00  0.00     0.039 A 
ATOM     31  C   UNL A   1      35.643  32.445  27.984  1.00  0.00     0.014 A 
ATOM     32  C   UNL A   1      34.685  30.222  27.988  1.00  0.00     0.014 A 
ATOM     33  C   UNL A   1      36.821  31.937  28.539  1.00  0.00     0.010 A 
ATOM     34  C   UNL A   1      35.829  29.732  28.614  1.00  0.00     0.010 A 
ATOM     35  C   UNL A   1      36.898  30.588  28.922  1.00  0.00    -0.014 A 
BRANCH  35  36
ATOM     36  C   UNL A   1      38.049  30.073  29.712  1.00  0.00     0.031 A 
ATOM     37  C   UNL A   1      38.294  30.555  31.115  1.00  0.00     0.074 A 
ATOM     38  C   UNL A   1      38.945  29.257  29.117  1.00  0.00     0.049 A 
ATOM     39  N   UNL A   1      39.281  30.268  31.922  1.00  0.00    -0.248 NA
ATOM     40  C   UNL A   1      37.319  31.507  31.672  1.00  0.00     0.031 C 
ATOM     41  C   UNL A   1      38.879  28.798  27.727  1.00  0.00     0.029 A 
ATOM     42  N   UNL A   1      40.103  28.693  29.594  1.00  0.00    -0.354 N 
ATOM     43  C   UNL A   1      39.072  31.031  33.065  1.00  0.00     0.074 A 
ATOM     44  C   UNL A   1      37.878  31.815  32.835  1.00  0.00     0.031 C 
ATOM     45  C   UNL A   1      39.944  28.024  27.466  1.00  0.00     0.029 A 
ATOM     46  C   UNL A   1      40.782  27.948  28.657  1.00  0.00     0.049 A 
ATOM     47  H   UNL A   1      40.418  28.810  30.519  1.00  0.00     0.167 HD
ATOM     48  C   UNL A   1      39.790  31.055  34.214  1.00  0.00     0.034 A 
ATOM     49  C   UNL A   1      41.950  27.278  28.744  1.00  0.00     0.034 A 
ATOM     50  C   UNL A   1      40.945  30.234  34.461  1.00  0.00     0.049 A 
ATOM     51  C   UNL A   1      42.685  27.259  30.057  1.00  0.00     0.074 A 
ATOM     52  C   UNL A   1      41.678  30.111  35.628  1.00  0.00     0.029 A 
ATOM     53  N   UNL A   1      41.535  29.397  33.527  1.00  0.00    -0.354 N 
ATOM     54  N   UNL A   1      42.369  27.847  31.185  1.00  0.00    -0.248 NA
ATOM     55  C   UNL A   1      43.913  26.453  30.123  1.00  0.00     0.031 C 
ATOM     56  C   UNL A   1      42.720  29.206  35.396  1.00  0.00     0.029 A 
ATOM     57  C   UNL A   1      42.627  28.756  34.088  1.00  0.00     0.049 A 
ATOM     58  H   UNL A   1      41.226  29.277  32.600  1.00  0.00     0.167 HD
ATOM     59  C   UNL A   1      43.339  27.458  32.102  1.00  0.00     0.074 A 
ATOM     60  C   UNL A   1      44.240  26.564  31.403  1.00  0.00     0.031 C 
ATOM     61  C   UNL A   1      43.481  27.824  33.400  1.00  0.00     0.034 A 
BRANCH  48  62
ATOM     62  C   UNL A   1      39.305  31.951  35.321  1.00  0.00     0.023 A 
ATOM     63  C   UNL A   1      38.364  31.456  36.248  1.00  0.00     0.012 A 
ATOM     64  C   UNL A   1      39.813  33.254  35.482  1.00  0.00     0.148 A 
ATOM     65  C   UNL A   1      37.912  32.255  37.298  1.00  0.00     0.002 A 
ATOM     66  C   UNL A   1      39.389  34.031  36.557  1.00  0.00     0.091 A 
ATOM     67  F   UNL A   1      40.691  33.716  34.580  1.00  0.00    -0.205 F 
ATOM     68  C   UNL A   1      38.431  33.536  37.457  1.00  0.00     0.022 A 
BRANCH  66  69
ATOM     69  S   UNL A   1      40.051  35.666  36.891  1.00  0.00     0.127 S 
ATOM     70  O   UNL A   1      39.401  35.995  38.159  1.00  0.00    -0.237 OA
ATOM     71  O   UNL A   1      41.487  35.402  36.994  1.00  0.00    -0.237 OA
ATOM     72  O   UNL A   1      39.668  36.494  35.756  1.00  0.00    -0.744 OA
ENDBRANCH  66  69
ENDBRANCH  48  62
BRANCH  49  73
ATOM     73  C   UNL A   1      42.450  26.503  27.573  1.00  0.00     0.023 A 
ATOM     74  C   UNL A   1      43.308  27.129  26.649  1.00  0.00     0.012 A 
ATOM     75  C   UNL A   1      42.117  25.146  27.389  1.00  0.00     0.148 A 
ATOM     76  C   UNL A   1      43.805  26.429  25.548  1.00  0.00     0.002 A 
ATOM     77  C   UNL A   1      42.658  24.439  26.321  1.00  0.00     0.091 A 
ATOM     78  F   UNL A   1      41.287  24.570  28.271  1.00  0.00    -0.205 F 
ATOM     79  C   UNL A   1      43.489  25.082  25.390  1.00  0.00     0.022 A 
BRANCH  77  80
ATOM     80  S   UNL A   1      42.416  22.670  26.121  1.00  0.00     0.127 S 
ATOM     81  O   UNL A   1      43.062  22.142  27.319  1.00  0.00    -0.237 OA
ATOM     82  O   UNL A   1      40.956  22.560  26.109  1.00  0.00    -0.237 OA
ATOM     83  O   UNL A   1      43.049  22.331  24.853  1.00  0.00    -0.744 OA
ENDBRANCH  77  80
ENDBRANCH  49  73
BRANCH  61  84
ATOM     84  C   UNL A   1      44.637  27.241  34.169  1.00  0.00     0.023 A 
ATOM     85  C   UNL A   1      45.868  27.925  34.198  1.00  0.00     0.012 A 
ATOM     86  C   UNL A   1      44.479  26.065  34.929  1.00  0.00     0.148 A 
ATOM     87  C   UNL A   1      46.933  27.434  34.951  1.00  0.00     0.002 A 
ATOM     88  C   UNL A   1      45.532  25.607  35.712  1.00  0.00     0.091 A 
ATOM     89  F   UNL A   1      43.307  25.418  34.870  1.00  0.00    -0.205 F 
ATOM     90  C   UNL A   1      46.761  26.284  35.717  1.00  0.00     0.022 A 
BRANCH  88  91
ATOM     91  S   UNL A   1      45.365  24.186  36.800  1.00  0.00     0.127 S 
ATOM     92  O   UNL A   1      46.740  23.999  37.260  1.00  0.00    -0.237 OA
ATOM     93  O   UNL A   1      44.442  24.682  37.823  1.00  0.00    -0.237 OA
ATOM     94  O   UNL A   1      44.827  23.114  35.975  1.00  0.00    -0.744 OA
ENDBRANCH  88  91
ENDBRANCH  61  84
ENDBRANCH  35  36
ENDBRANCH  27  30
ENDBRANCH  25  26
ENDBRANCH   1  25
TORSDOF 15
ENDMDL
MODEL 2
REMARK VINA RESULT:     -13.0      1.219      1.543
REMARK SMILES O=C(NCCCCNC(=O)c1ccc(-c2c3nc(c(-c4cccc(S(=O)(=O)[O-])c4F)c4ccc([nH]4)c(-c4cccc(S(=O)(=O)[O-])c4F)c4nc(c(-c5cccc(S(=O)(=O)[O-])c5F)c5ccc2[nH]5)C=C4)C=C3)cc1)C1=Cc2c(cc(Cl)c(Cl)c2Cl)O[C@H]1C(F)(F)F
REMARK SMILES IDX 6 1 5 2 4 3 3 4 1 5 2 6 74 8 75 9 86 10 76 11 85 12 77 13
REMARK SMILES IDX 83 14 78 15 81 16 84 17 79 18 82 19 80 20 87 21 88 22 89 23
REMARK SMILES IDX 90 24 7 25 8 26 9 27 10 29 11 30 12 31 73 32 13 33 72 34
REMARK SMILES IDX 14 35 15 36 16 37 66 38 17 39 71 40 65 41 67 42 18 43 70 44
REMARK SMILES IDX 64 45 63 46 19 48 51 49 31 50 50 51 32 52 35 53 49 54 68 55
REMARK SMILES IDX 33 56 34 57 48 59 69 60 36 61 20 62 21 63 29 64 22 65 24 66
REMARK SMILES IDX 30 67 23 68 25 69 26 70 27 71 28 72 52 73 53 74 61 75 54 76
REMARK SMILES IDX 56 77 62 78 55 79 57 80 58 81 59 82 60 83 37 84 38 85 46 86
REMARK SMILES IDX 39 87 41 88 47 89 40 90 42 91 43 92 44 93 45 94
REMARK H PARENT 3 7 8 28 67 47 35 58
REMARK Flexibility Score: inf
ROOT
ATOM      1  C   UNL A   1      31.416  29.705  25.236  1.00  0.00     0.023 C 
ENDROOT
BRANCH   1   2
ATOM      2  C   UNL A   1      31.879  29.031  23.949  1.00  0.00     0.023 C 
BRANCH   2   3
ATOM      3  C   UNL A   1      33.265  28.404  23.981  1.00  0.00     0.116 C 
BRANCH   3   4
ATOM      4  N   UNL A   1      33.528  27.379  22.987  1.00  0.00    -0.352 N 
ATOM      5  O   UNL A   1      33.935  25.283  22.237  1.00  0.00    -0.270 OA
ATOM      6  C   UNL A   1      33.638  26.024  23.169  1.00  0.00     0.251 C 
ATOM      7  H   UNL A   1      33.641  27.699  22.062  1.00  0.00     0.163 HD
BRANCH   6   8
ATOM      8  C   UNL A   1      33.445  25.435  24.522  1.00  0.00     0.067 C 
ATOM      9  C   UNL A   1      34.549  24.996  25.146  1.00  0.00     0.027 C 
ATOM     10  C   UNL A   1      32.096  24.816  24.770  1.00  0.00     0.314 C 
ATOM     11  C   UNL A   1      34.596  23.522  25.264  1.00  0.00     0.037 A 
ATOM     12  O   UNL A   1      32.158  23.402  25.127  1.00  0.00    -0.475 OA
ATOM     13  C   UNL A   1      33.393  22.808  25.178  1.00  0.00     0.131 A 
ATOM     14  C   UNL A   1      35.825  22.831  25.244  1.00  0.00     0.072 A 
ATOM     15  C   UNL A   1      33.411  21.427  25.018  1.00  0.00     0.069 A 
ATOM     16  C   UNL A   1      35.846  21.440  25.047  1.00  0.00     0.079 A 
ATOM     17  Cl  UNL A   1      37.306  23.736  25.377  1.00  0.00    -0.082 Cl
ATOM     18  C   UNL A   1      34.631  20.750  24.917  1.00  0.00     0.064 A 
ATOM     19  Cl  UNL A   1      37.354  20.593  24.903  1.00  0.00    -0.081 Cl
ATOM     20  Cl  UNL A   1      34.554  19.057  24.568  1.00  0.00    -0.083 Cl
BRANCH  10  21
ATOM     21  C   UNL A   1      31.287  25.599  25.825  1.00  0.00     0.429 C 
ATOM     22  F   UNL A   1      30.594  24.801  26.670  1.00  0.00    -0.167 F 
ATOM     23  F   UNL A   1      32.100  26.374  26.585  1.00  0.00    -0.167 F 
ATOM     24  F   UNL A   1      30.379  26.429  25.251  1.00  0.00    -0.167 F 
ENDBRANCH  10  21
ENDBRANCH   6   8
ENDBRANCH   3   4
ENDBRANCH   2   3
ENDBRANCH   1   2
BRANCH   1  25
ATOM     25  C   UNL A   1      32.496  30.077  26.250  1.00  0.00     0.116 C 
BRANCH  25  26
ATOM     26  N   UNL A   1      32.413  31.439  26.766  1.00  0.00    -0.352 N 
ATOM     27  C   UNL A   1      33.358  32.165  27.463  1.00  0.00     0.251 C 
ATOM     28  H   UNL A   1      31.564  31.906  26.592  1.00  0.00     0.163 HD
ATOM     29  O   UNL A   1      33.092  33.300  27.849  1.00  0.00    -0.269 OA
BRANCH  27  30
ATOM     30  C   UNL A   1      34.658  31.547  27.810  1.00  0.00     0.039 A 
ATOM     31  C   UNL A   1      35.774  32.375  27.964  1.00  0.00     0.014 A 
ATOM     32  C   UNL A   1      34.763  30.178  28.066  1.00  0.00     0.014 A 
ATOM     33  C   UNL A   1      36.956  31.855  28.499  1.00  0.00     0.010 A 
ATOM     34  C   UNL A   1      35.914  29.679  28.673  1.00  0.00     0.010 A 
ATOM     35  C   UNL A   1      37.013  30.516  28.921  1.00  0.00    -0.014 A 
BRANCH  35  36
ATOM     36  C   UNL A   1      38.174  29.998  29.691  1.00  0.00     0.031 A 
ATOM     37  C   UNL A   1      38.456  30.492  31.083  1.00  0.00     0.074 A 
ATOM     38  C   UNL A   1      39.047  29.164  29.086  1.00  0.00     0.049 A 
ATOM     39  N   UNL A   1      39.458  30.203  31.872  1.00  0.00    -0.248 NA
ATOM     40  C   UNL A   1      37.505  31.462  31.651  1.00  0.00     0.031 C 
ATOM     41  C   UNL A   1      38.945  28.690  27.704  1.00  0.00     0.029 A 
ATOM     42  N   UNL A   1      40.209  28.592  29.544  1.00  0.00    -0.354 N 
ATOM     43  C   UNL A   1      39.283  30.981  33.010  1.00  0.00     0.074 A 
ATOM     44  C   UNL A   1      38.093  31.777  32.797  1.00  0.00     0.031 C 
ATOM     45  C   UNL A   1      39.995  27.901  27.428  1.00  0.00     0.029 A 
ATOM     46  C   UNL A   1      40.859  27.828  28.601  1.00  0.00     0.049 A 
ATOM     47  H   UNL A   1      40.546  28.716  30.461  1.00  0.00     0.167 HD
ATOM     48  C   UNL A   1      40.027  31.010  34.142  1.00  0.00     0.034 A 
ATOM     49  C   UNL A   1      42.021  27.146  28.670  1.00  0.00     0.034 A 
ATOM     50  C   UNL A   1      41.177  30.178  34.373  1.00  0.00     0.049 A 
ATOM     51  C   UNL A   1      42.784  27.133  29.967  1.00  0.00     0.074 A 
ATOM     52  C   UNL A   1      41.935  30.060  35.525  1.00  0.00     0.029 A 
ATOM     53  N   UNL A   1      41.737  29.324  33.436  1.00  0.00    -0.354 N 
ATOM     54  N   UNL A   1      42.500  27.738  31.095  1.00  0.00    -0.248 NA
ATOM     55  C   UNL A   1      44.004  26.313  30.015  1.00  0.00     0.031 C 
ATOM     56  C   UNL A   1      42.960  29.140  35.280  1.00  0.00     0.029 A 
ATOM     57  C   UNL A   1      42.833  28.677  33.981  1.00  0.00     0.049 A 
ATOM     58  H   UNL A   1      41.405  29.196  32.518  1.00  0.00     0.167 HD
ATOM     59  C   UNL A   1      43.486  27.348  31.994  1.00  0.00     0.074 A 
ATOM     60  C   UNL A   1      44.361  26.435  31.286  1.00  0.00     0.031 C 
ATOM     61  C   UNL A   1      43.661  27.727  33.284  1.00  0.00     0.034 A 
BRANCH  48  62
ATOM     62  C   UNL A   1      39.576  31.925  35.249  1.00  0.00     0.023 A 
ATOM     63  C   UNL A   1      39.911  33.294  35.193  1.00  0.00     0.012 A 
ATOM     64  C   UNL A   1      38.780  31.451  36.310  1.00  0.00     0.148 A 
ATOM     65  C   UNL A   1      39.489  34.170  36.192  1.00  0.00     0.002 A 
ATOM     66  C   UNL A   1      38.328  32.340  37.280  1.00  0.00     0.091 A 
ATOM     67  F   UNL A   1      38.489  30.143  36.358  1.00  0.00    -0.205 F 
ATOM     68  C   UNL A   1      38.690  33.695  37.228  1.00  0.00     0.022 A 
BRANCH  66  69
ATOM     69  S   UNL A   1      37.234  31.842  38.616  1.00  0.00     0.127 S 
ATOM     70  O   UNL A   1      38.061  32.111  39.791  1.00  0.00    -0.237 OA
ATOM     71  O   UNL A   1      36.103  32.754  38.445  1.00  0.00    -0.237 OA
ATOM     72  O   UNL A   1      36.922  30.440  38.376  1.00  0.00    -0.744 OA
ENDBRANCH  66  69
ENDBRANCH  48  62
BRANCH  49  73
ATOM     73  C   UNL A   1      42.485  26.351  27.498  1.00  0.00     0.023 A 
ATOM     74  C   UNL A   1      43.335  26.955  26.551  1.00  0.00     0.012 A 
ATOM     75  C   UNL A   1      42.128  24.998  27.334  1.00  0.00     0.148 A 
ATOM     76  C   UNL A   1      43.798  26.237  25.448  1.00  0.00     0.002 A 
ATOM     77  C   UNL A   1      42.637  24.273  26.263  1.00  0.00     0.091 A 
ATOM     78  F   UNL A   1      41.307  24.444  28.238  1.00  0.00    -0.205 F 
ATOM     79  C   UNL A   1      43.460  24.893  25.310  1.00  0.00     0.022 A 
BRANCH  77  80
ATOM     80  S   UNL A   1      42.364  22.506  26.086  1.00  0.00     0.127 S 
ATOM     81  O   UNL A   1      42.995  21.982  27.294  1.00  0.00    -0.237 OA
ATOM     82  O   UNL A   1      40.903  22.421  26.068  1.00  0.00    -0.237 OA
ATOM     83  O   UNL A   1      42.997  22.138  24.826  1.00  0.00    -0.744 OA
ENDBRANCH  77  80
ENDBRANCH  49  73
BRANCH  61  84
ATOM     84  C   UNL A   1      44.827  27.139  34.035  1.00  0.00     0.023 A 
ATOM     85  C   UNL A   1      46.071  27.800  34.015  1.00  0.00     0.012 A 
ATOM     86  C   UNL A   1      44.669  25.983  34.825  1.00  0.00     0.148 A 
ATOM     87  C   UNL A   1      47.147  27.306  34.750  1.00  0.00     0.002 A 
ATOM     88  C   UNL A   1      45.734  25.522  35.589  1.00  0.00     0.091 A 
ATOM     89  F   UNL A   1      43.484  25.357  34.812  1.00  0.00    -0.205 F 
ATOM     90  C   UNL A   1      46.975  26.176  35.545  1.00  0.00     0.022 A 
BRANCH  88  91
ATOM     91  S   UNL A   1      45.572  24.129  36.712  1.00  0.00     0.127 S 
ATOM     92  O   UNL A   1      44.502  24.582  37.597  1.00  0.00    -0.237 OA
ATOM     93  O   UNL A   1      45.197  23.040  35.808  1.00  0.00    -0.237 OA
ATOM     94  O   UNL A   1      46.878  23.967  37.336  1.00  0.00    -0.744 OA
ENDBRANCH  88  91
ENDBRANCH  61  84
ENDBRANCH  35  36
ENDBRANCH  27  30
ENDBRANCH  25  26
ENDBRANCH   1  25
TORSDOF 15
ENDMDL
MODEL 3
REMARK VINA RESULT:     -12.9      5.012     10.133
REMARK SMILES O=C(NCCCCNC(=O)c1ccc(-c2c3nc(c(-c4cccc(S(=O)(=O)[O-])c4F)c4ccc([nH]4)c(-c4cccc(S(=O)(=O)[O-])c4F)c4nc(c(-c5cccc(S(=O)(=O)[O-])c5F)c5ccc2[nH]5)C=C4)C=C3)cc1)C1=Cc2c(cc(Cl)c(Cl)c2Cl)O[C@H]1C(F)(F)F
REMARK SMILES IDX 6 1 5 2 4 3 3 4 1 5 2 6 74 8 75 9 86 10 76 11 85 12 77 13
REMARK SMILES IDX 83 14 78 15 81 16 84 17 79 18 82 19 80 20 87 21 88 22 89 23
REMARK SMILES IDX 90 24 7 25 8 26 9 27 10 29 11 30 12 31 73 32 13 33 72 34
REMARK SMILES IDX 14 35 15 36 16 37 66 38 17 39 71 40 65 41 67 42 18 43 70 44
REMARK SMILES IDX 64 45 63 46 19 48 51 49 31 50 50 51 32 52 35 53 49 54 68 55
REMARK SMILES IDX 33 56 34 57 48 59 69 60 36 61 20 62 21 63 29 64 22 65 24 66
REMARK SMILES IDX 30 67 23 68 25 69 26 70 27 71 28 72 52 73 53 74 61 75 54 76
REMARK SMILES IDX 56 77 62 78 55 79 57 80 58 81 59 82 60 83 37 84 38 85 46 86
REMARK SMILES IDX 39 87 41 88 47 89 40 90 42 91 43 92 44 93 45 94
REMARK H PARENT 3 7 8 28 67 47 35 58
REMARK Flexibility Score: inf
ROOT
ATOM      1  C   UNL A   1      35.559  20.916  24.982  1.00  0.00     0.023 C 
ENDROOT
BRANCH   1   2
ATOM      2  C   UNL A   1      34.431  21.108  25.991  1.00  0.00     0.023 C 
BRANCH   2   3
ATOM      3  C   UNL A   1      34.444  22.415  26.771  1.00  0.00     0.116 C 
BRANCH   3   4
ATOM      4  N   UNL A   1      33.146  22.969  27.113  1.00  0.00    -0.352 N 
ATOM      5  O   UNL A   1      31.430  24.440  26.993  1.00  0.00    -0.270 OA
ATOM      6  C   UNL A   1      32.501  24.040  26.549  1.00  0.00     0.251 C 
ATOM      7  H   UNL A   1      32.666  22.516  27.844  1.00  0.00     0.163 HD
BRANCH   6   8
ATOM      8  C   UNL A   1      33.123  24.770  25.410  1.00  0.00     0.067 C 
ATOM      9  C   UNL A   1      33.678  25.959  25.693  1.00  0.00     0.027 C 
ATOM     10  C   UNL A   1      32.540  24.470  24.056  1.00  0.00     0.314 C 
ATOM     11  C   UNL A   1      32.927  27.096  25.115  1.00  0.00     0.037 A 
ATOM     12  O   UNL A   1      32.009  25.647  23.374  1.00  0.00    -0.475 OA
ATOM     13  C   UNL A   1      32.081  26.851  24.026  1.00  0.00     0.131 A 
ATOM     14  C   UNL A   1      32.887  28.345  25.768  1.00  0.00     0.072 A 
ATOM     15  C   UNL A   1      31.165  27.816  23.622  1.00  0.00     0.069 A 
ATOM     16  C   UNL A   1      31.938  29.308  25.385  1.00  0.00     0.079 A 
ATOM     17  Cl  UNL A   1      33.964  28.636  27.104  1.00  0.00    -0.082 Cl
ATOM     18  C   UNL A   1      31.068  29.024  24.320  1.00  0.00     0.064 A 
ATOM     19  Cl  UNL A   1      31.798  30.803  26.255  1.00  0.00    -0.081 Cl
ATOM     20  Cl  UNL A   1      29.801  30.100  23.842  1.00  0.00    -0.083 Cl
BRANCH  10  21
ATOM     21  C   UNL A   1      33.545  23.732  23.146  1.00  0.00     0.429 C 
ATOM     22  F   UNL A   1      34.833  23.898  23.525  1.00  0.00    -0.167 F 
ATOM     23  F   UNL A   1      33.301  22.398  23.132  1.00  0.00    -0.167 F 
ATOM     24  F   UNL A   1      33.466  24.157  21.860  1.00  0.00    -0.167 F 
ENDBRANCH  10  21
ENDBRANCH   6   8
ENDBRANCH   3   4
ENDBRANCH   2   3
ENDBRANCH   1   2
BRANCH   1  25
ATOM     25  C   UNL A   1      36.892  21.592  25.299  1.00  0.00     0.116 C 
BRANCH  25  26
ATOM     26  N   UNL A   1      38.029  20.686  25.414  1.00  0.00    -0.352 N 
ATOM     27  C   UNL A   1      39.259  20.904  26.001  1.00  0.00     0.251 C 
ATOM     28  H   UNL A   1      37.900  19.794  25.018  1.00  0.00     0.163 HD
ATOM     29  O   UNL A   1      40.113  20.021  25.972  1.00  0.00    -0.269 OA
BRANCH  27  30
ATOM     30  C   UNL A   1      39.572  22.223  26.596  1.00  0.00     0.039 A 
ATOM     31  C   UNL A   1      40.569  22.297  27.574  1.00  0.00     0.014 A 
ATOM     32  C   UNL A   1      38.955  23.388  26.138  1.00  0.00     0.014 A 
ATOM     33  C   UNL A   1      41.036  23.545  27.995  1.00  0.00     0.010 A 
ATOM     34  C   UNL A   1      39.476  24.630  26.499  1.00  0.00     0.010 A 
ATOM     35  C   UNL A   1      40.539  24.722  27.410  1.00  0.00    -0.014 A 
BRANCH  35  36
ATOM     36  C   UNL A   1      41.168  26.042  27.675  1.00  0.00     0.031 A 
ATOM     37  C   UNL A   1      42.583  26.319  27.248  1.00  0.00     0.074 A 
ATOM     38  C   UNL A   1      40.499  26.956  28.410  1.00  0.00     0.049 A 
ATOM     39  N   UNL A   1      43.312  27.384  27.458  1.00  0.00    -0.248 NA
ATOM     40  C   UNL A   1      43.281  25.248  26.520  1.00  0.00     0.031 C 
ATOM     41  C   UNL A   1      39.159  26.771  28.974  1.00  0.00     0.029 A 
ATOM     42  N   UNL A   1      40.864  28.209  28.839  1.00  0.00    -0.354 N 
ATOM     43  C   UNL A   1      44.564  27.100  26.924  1.00  0.00     0.074 A 
ATOM     44  C   UNL A   1      44.503  25.750  26.406  1.00  0.00     0.031 C 
ATOM     45  C   UNL A   1      38.816  27.867  29.669  1.00  0.00     0.029 A 
ATOM     46  C   UNL A   1      39.915  28.825  29.623  1.00  0.00     0.049 A 
ATOM     47  H   UNL A   1      41.725  28.628  28.607  1.00  0.00     0.167 HD
ATOM     48  C   UNL A   1      45.655  27.899  26.844  1.00  0.00     0.034 A 
ATOM     49  C   UNL A   1      39.927  30.025  30.238  1.00  0.00     0.034 A 
ATOM     50  C   UNL A   1      45.695  29.259  27.309  1.00  0.00     0.049 A 
ATOM     51  C   UNL A   1      41.122  30.924  30.065  1.00  0.00     0.074 A 
ATOM     52  C   UNL A   1      46.718  30.182  27.181  1.00  0.00     0.029 A 
ATOM     53  N   UNL A   1      44.668  29.892  27.993  1.00  0.00    -0.354 N 
ATOM     54  N   UNL A   1      42.229  30.700  29.399  1.00  0.00    -0.248 NA
ATOM     55  C   UNL A   1      41.054  32.252  30.691  1.00  0.00     0.031 C 
ATOM     56  C   UNL A   1      46.313  31.371  27.797  1.00  0.00     0.029 A 
ATOM     57  C   UNL A   1      45.033  31.193  28.297  1.00  0.00     0.049 A 
ATOM     58  H   UNL A   1      43.807  29.479  28.229  1.00  0.00     0.167 HD
ATOM     59  C   UNL A   1      42.975  31.869  29.499  1.00  0.00     0.074 A 
ATOM     60  C   UNL A   1      42.183  32.806  30.270  1.00  0.00     0.031 C 
ATOM     61  C   UNL A   1      44.213  32.134  29.013  1.00  0.00     0.034 A 
BRANCH  48  62
ATOM     62  C   UNL A   1      46.878  27.344  26.164  1.00  0.00     0.023 A 
ATOM     63  C   UNL A   1      47.035  27.520  24.774  1.00  0.00     0.012 A 
ATOM     64  C   UNL A   1      47.893  26.702  26.899  1.00  0.00     0.148 A 
ATOM     65  C   UNL A   1      48.167  27.036  24.120  1.00  0.00     0.002 A 
ATOM     66  C   UNL A   1      49.039  26.259  26.246  1.00  0.00     0.091 A 
ATOM     67  F   UNL A   1      47.718  26.525  28.216  1.00  0.00    -0.205 F 
ATOM     68  C   UNL A   1      49.172  26.416  24.857  1.00  0.00     0.022 A 
BRANCH  66  69
ATOM     69  S   UNL A   1      50.423  25.513  27.115  1.00  0.00     0.127 S 
ATOM     70  O   UNL A   1      49.811  24.303  27.661  1.00  0.00    -0.237 OA
ATOM     71  O   UNL A   1      51.378  25.278  26.032  1.00  0.00    -0.237 OA
ATOM     72  O   UNL A   1      50.854  26.496  28.099  1.00  0.00    -0.744 OA
ENDBRANCH  66  69
ENDBRANCH  48  62
BRANCH  49  73
ATOM     73  C   UNL A   1      38.731  30.478  31.003  1.00  0.00     0.023 A 
ATOM     74  C   UNL A   1      38.683  30.262  32.394  1.00  0.00     0.012 A 
ATOM     75  C   UNL A   1      37.665  31.153  30.377  1.00  0.00     0.148 A 
ATOM     76  C   UNL A   1      37.584  30.684  33.144  1.00  0.00     0.002 A 
ATOM     77  C   UNL A   1      36.598  31.619  31.138  1.00  0.00     0.091 A 
ATOM     78  F   UNL A   1      37.721  31.337  29.050  1.00  0.00    -0.205 F 
ATOM     79  C   UNL A   1      36.547  31.372  32.519  1.00  0.00     0.022 A 
BRANCH  77  80
ATOM     80  S   UNL A   1      35.291  32.633  30.437  1.00  0.00     0.127 S 
ATOM     81  O   UNL A   1      36.023  33.831  30.037  1.00  0.00    -0.237 OA
ATOM     82  O   UNL A   1      34.819  31.802  29.329  1.00  0.00    -0.237 OA
ATOM     83  O   UNL A   1      34.317  32.808  31.506  1.00  0.00    -0.744 OA
ENDBRANCH  77  80
ENDBRANCH  49  73
BRANCH  61  84
ATOM     84  C   UNL A   1      44.788  33.502  29.272  1.00  0.00     0.023 A 
ATOM     85  C   UNL A   1      45.506  33.741  30.459  1.00  0.00     0.012 A 
ATOM     86  C   UNL A   1      44.690  34.521  28.303  1.00  0.00     0.148 A 
ATOM     87  C   UNL A   1      46.098  34.982  30.692  1.00  0.00     0.002 A 
ATOM     88  C   UNL A   1      45.319  35.741  28.523  1.00  0.00     0.091 A 
ATOM     89  F   UNL A   1      43.983  34.281  27.190  1.00  0.00    -0.205 F 
ATOM     90  C   UNL A   1      46.015  35.976  29.720  1.00  0.00     0.022 A 
BRANCH  88  91
ATOM     91  S   UNL A   1      45.341  37.042  27.285  1.00  0.00     0.127 S 
ATOM     92  O   UNL A   1      46.052  38.110  27.985  1.00  0.00    -0.237 OA
ATOM     93  O   UNL A   1      46.094  36.422  26.192  1.00  0.00    -0.237 OA
ATOM     94  O   UNL A   1      43.946  37.316  26.971  1.00  0.00    -0.744 OA
ENDBRANCH  88  91
ENDBRANCH  61  84
ENDBRANCH  35  36
ENDBRANCH  27  30
ENDBRANCH  25  26
ENDBRANCH   1  25
TORSDOF 15
ENDMDL
