MODEL 1
REMARK VINA RESULT:     -10.9      0.000      0.000
REMARK SMILES CC(C)(C[NH2+]CCc1cccnc1)C(=O)NCCCCNC(=O)c1ccc(-c2c3nc(c(-c4cccc(S(=O)(=O)[O-])c4F)c4ccc([nH]4)c(-c4cccc(S(=O)(=O)[O-])c4F)c4nc(c(-c5cccc(S(=O)(=O)[O-])c5F)c5ccc2[nH]5)C=C4)C=C3)cc1
REMARK SMILES IDX 17 1 16 2 14 3 15 4 2 6 1 7 3 8 4 9 5 10 6 13 7 14 8 15 9 16
REMARK SMILES IDX 13 17 10 18 12 19 11 20 18 21 19 22 20 23 21 24 22 25 23 27
REMARK SMILES IDX 24 28 25 29 86 30 26 31 85 32 27 33 28 34 29 35 79 36 30 37
REMARK SMILES IDX 84 38 78 39 80 40 31 41 83 42 77 43 76 44 32 46 64 47 44 48
REMARK SMILES IDX 63 49 45 50 48 51 62 52 81 53 46 54 47 55 61 57 82 58 49 59
REMARK SMILES IDX 33 60 34 61 42 62 35 63 37 64 43 65 36 66 38 67 39 68 40 69
REMARK SMILES IDX 41 70 65 71 66 72 74 73 67 74 69 75 75 76 68 77 70 78 71 79
REMARK SMILES IDX 72 80 73 81 50 82 51 83 59 84 52 85 54 86 60 87 53 88 55 89
REMARK SMILES IDX 56 90 57 91 58 92
REMARK H PARENT 16 5 5 11 5 12 21 26 80 45 48 56
REMARK Flexibility Score: inf
ROOT
ATOM      1  C   UNL A   1      32.581  26.597  26.160  1.00  0.00     0.116 C 
ENDROOT
BRANCH   1   2
ATOM      2  N   UNL A   1      32.237  25.213  26.405  1.00  0.00    -0.355 N 
ATOM      3  C   UNL A   1      32.099  24.140  25.581  1.00  0.00     0.231 C 
ATOM      4  O   UNL A   1      31.807  23.073  26.134  1.00  0.00    -0.274 OA
ATOM      5  H   UNL A   1      32.070  25.008  27.354  1.00  0.00     0.163 HD
BRANCH   3   6
ATOM      6  C   UNL A   1      32.361  24.198  24.059  1.00  0.00     0.092 C 
ATOM      7  C   UNL A   1      32.148  22.776  23.474  1.00  0.00     0.027 C 
ATOM      8  C   UNL A   1      33.840  24.547  23.804  1.00  0.00     0.027 C 
BRANCH   6   9
ATOM      9  C   UNL A   1      31.427  25.185  23.311  1.00  0.00     0.276 C 
BRANCH   9  10
ATOM     10  N   UNL A   1      30.012  25.003  23.638  1.00  0.00    -0.345 N 
ATOM     11  H   UNL A   1      29.954  24.542  24.548  1.00  0.00     0.346 HD
ATOM     12  H   UNL A   1      29.611  24.449  22.882  1.00  0.00     0.346 HD
BRANCH  10  13
ATOM     13  C   UNL A   1      29.234  26.240  23.704  1.00  0.00     0.265 C 
BRANCH  13  14
ATOM     14  C   UNL A   1      29.895  27.509  23.136  1.00  0.00     0.098 C 
BRANCH  14  15
ATOM     15  C   UNL A   1      29.118  28.797  23.233  1.00  0.00    -0.024 A 
ATOM     16  C   UNL A   1      29.786  29.994  23.514  1.00  0.00     0.007 A 
ATOM     17  C   UNL A   1      27.733  28.865  23.107  1.00  0.00     0.114 A 
ATOM     18  C   UNL A   1      29.074  31.185  23.613  1.00  0.00     0.020 A 
ATOM     19  N   UNL A   1      27.016  30.009  23.192  1.00  0.00    -0.264 NA
ATOM     20  C   UNL A   1      27.703  31.142  23.437  1.00  0.00     0.111 A 
ENDBRANCH  14  15
ENDBRANCH  13  14
ENDBRANCH  10  13
ENDBRANCH   9  10
ENDBRANCH   6   9
ENDBRANCH   3   6
ENDBRANCH   1   2
BRANCH   1  21
ATOM     21  C   UNL A   1      31.418  27.547  26.438  1.00  0.00     0.023 C 
BRANCH  21  22
ATOM     22  C   UNL A   1      31.809  28.881  27.076  1.00  0.00     0.023 C 
BRANCH  22  23
ATOM     23  C   UNL A   1      32.596  29.834  26.183  1.00  0.00     0.116 C 
BRANCH  23  24
ATOM     24  N   UNL A   1      32.415  31.238  26.530  1.00  0.00    -0.352 N 
ATOM     25  C   UNL A   1      33.224  32.044  27.294  1.00  0.00     0.251 C 
ATOM     26  H   UNL A   1      31.605  31.666  26.169  1.00  0.00     0.163 HD
ATOM     27  O   UNL A   1      32.874  33.190  27.566  1.00  0.00    -0.269 OA
BRANCH  25  28
ATOM     28  C   UNL A   1      34.498  31.508  27.818  1.00  0.00     0.039 A 
ATOM     29  C   UNL A   1      35.575  32.381  27.997  1.00  0.00     0.014 A 
ATOM     30  C   UNL A   1      34.615  30.161  28.171  1.00  0.00     0.014 A 
ATOM     31  C   UNL A   1      36.747  31.917  28.601  1.00  0.00     0.010 A 
ATOM     32  C   UNL A   1      35.755  29.719  28.834  1.00  0.00     0.010 A 
ATOM     33  C   UNL A   1      36.831  30.592  29.058  1.00  0.00    -0.014 A 
BRANCH  33  34
ATOM     34  C   UNL A   1      38.023  30.102  29.797  1.00  0.00     0.031 A 
ATOM     35  C   UNL A   1      38.280  30.556  31.207  1.00  0.00     0.074 A 
ATOM     36  C   UNL A   1      38.929  29.334  29.159  1.00  0.00     0.049 A 
ATOM     37  N   UNL A   1      39.299  30.297  31.983  1.00  0.00    -0.248 NA
ATOM     38  C   UNL A   1      37.275  31.444  31.814  1.00  0.00     0.031 C 
ATOM     39  C   UNL A   1      38.840  28.902  27.763  1.00  0.00     0.029 A 
ATOM     40  N   UNL A   1      40.121  28.809  29.593  1.00  0.00    -0.354 N 
ATOM     41  C   UNL A   1      39.082  31.019  33.150  1.00  0.00     0.074 A 
ATOM     42  C   UNL A   1      37.847  31.752  32.969  1.00  0.00     0.031 C 
ATOM     43  C   UNL A   1      39.929  28.178  27.456  1.00  0.00     0.029 A 
ATOM     44  C   UNL A   1      40.804  28.115  28.621  1.00  0.00     0.049 A 
ATOM     45  H   UNL A   1      40.455  28.919  30.513  1.00  0.00     0.167 HD
ATOM     46  C   UNL A   1      39.824  31.046  34.282  1.00  0.00     0.034 A 
ATOM     47  C   UNL A   1      42.003  27.499  28.663  1.00  0.00     0.034 A 
ATOM     48  C   UNL A   1      41.019  30.272  34.480  1.00  0.00     0.049 A 
ATOM     49  C   UNL A   1      42.775  27.490  29.955  1.00  0.00     0.074 A 
ATOM     50  C   UNL A   1      41.785  30.150  35.625  1.00  0.00     0.029 A 
ATOM     51  N   UNL A   1      41.624  29.490  33.508  1.00  0.00    -0.354 N 
ATOM     52  N   UNL A   1      42.464  28.036  31.105  1.00  0.00    -0.248 NA
ATOM     53  C   UNL A   1      44.043  26.747  29.967  1.00  0.00     0.031 C 
ATOM     54  C   UNL A   1      42.861  29.302  35.343  1.00  0.00     0.029 A 
ATOM     55  C   UNL A   1      42.756  28.885  34.026  1.00  0.00     0.049 A 
ATOM     56  H   UNL A   1      41.296  29.381  32.586  1.00  0.00     0.167 HD
ATOM     57  C   UNL A   1      43.477  27.675  31.986  1.00  0.00     0.074 A 
ATOM     58  C   UNL A   1      44.401  26.845  31.240  1.00  0.00     0.031 C 
ATOM     59  C   UNL A   1      43.634  28.011  33.289  1.00  0.00     0.034 A 
BRANCH  46  60
ATOM     60  C   UNL A   1      39.323  31.892  35.425  1.00  0.00     0.023 A 
ATOM     61  C   UNL A   1      38.407  31.341  36.343  1.00  0.00     0.012 A 
ATOM     62  C   UNL A   1      39.793  33.206  35.620  1.00  0.00     0.148 A 
ATOM     63  C   UNL A   1      37.938  32.094  37.419  1.00  0.00     0.002 A 
ATOM     64  C   UNL A   1      39.353  33.936  36.718  1.00  0.00     0.091 A 
ATOM     65  F   UNL A   1      40.646  33.722  34.723  1.00  0.00    -0.205 F 
ATOM     66  C   UNL A   1      38.419  33.386  37.611  1.00  0.00     0.022 A 
BRANCH  64  67
ATOM     67  S   UNL A   1      39.973  35.580  37.095  1.00  0.00     0.127 S 
ATOM     68  O   UNL A   1      39.258  35.886  38.334  1.00  0.00    -0.237 OA
ATOM     69  O   UNL A   1      41.406  35.340  37.262  1.00  0.00    -0.237 OA
ATOM     70  O   UNL A   1      39.628  36.408  35.948  1.00  0.00    -0.744 OA
ENDBRANCH  64  67
ENDBRANCH  46  60
BRANCH  47  71
ATOM     71  C   UNL A   1      42.502  26.767  27.465  1.00  0.00     0.023 A 
ATOM     72  C   UNL A   1      43.258  27.461  26.501  1.00  0.00     0.012 A 
ATOM     73  C   UNL A   1      42.271  25.388  27.295  1.00  0.00     0.148 A 
ATOM     74  C   UNL A   1      43.753  26.803  25.375  1.00  0.00     0.002 A 
ATOM     75  C   UNL A   1      42.811  24.727  26.197  1.00  0.00     0.091 A 
ATOM     76  F   UNL A   1      41.538  24.747  28.217  1.00  0.00    -0.205 F 
ATOM     77  C   UNL A   1      43.539  25.435  25.228  1.00  0.00     0.022 A 
BRANCH  75  78
ATOM     78  S   UNL A   1      42.698  22.946  25.995  1.00  0.00     0.127 S 
ATOM     79  O   UNL A   1      41.278  22.706  26.233  1.00  0.00    -0.237 OA
ATOM     80  O   UNL A   1      43.129  22.770  24.607  1.00  0.00    -0.237 OA
ATOM     81  O   UNL A   1      43.613  22.382  26.980  1.00  0.00    -0.744 OA
ENDBRANCH  75  78
ENDBRANCH  47  71
BRANCH  59  82
ATOM     82  C   UNL A   1      44.833  27.461  34.015  1.00  0.00     0.023 A 
ATOM     83  C   UNL A   1      45.991  28.251  34.151  1.00  0.00     0.012 A 
ATOM     84  C   UNL A   1      44.780  26.196  34.636  1.00  0.00     0.148 A 
ATOM     85  C   UNL A   1      47.088  27.782  34.871  1.00  0.00     0.002 A 
ATOM     86  C   UNL A   1      45.860  25.755  35.391  1.00  0.00     0.091 A 
ATOM     87  F   UNL A   1      43.677  25.451  34.478  1.00  0.00    -0.205 F 
ATOM     88  C   UNL A   1      47.019  26.541  35.501  1.00  0.00     0.022 A 
BRANCH  86  89
ATOM     89  S   UNL A   1      45.819  24.212  36.312  1.00  0.00     0.127 S 
ATOM     90  O   UNL A   1      44.807  24.498  37.327  1.00  0.00    -0.237 OA
ATOM     91  O   UNL A   1      45.404  23.250  35.290  1.00  0.00    -0.237 OA
ATOM     92  O   UNL A   1      47.172  24.011  36.813  1.00  0.00    -0.744 OA
ENDBRANCH  86  89
ENDBRANCH  59  82
ENDBRANCH  33  34
ENDBRANCH  25  28
ENDBRANCH  23  24
ENDBRANCH  22  23
ENDBRANCH  21  22
ENDBRANCH   1  21
TORSDOF 19
ENDMDL
MODEL 2
REMARK VINA RESULT:     -10.6      1.600      7.836
REMARK SMILES CC(C)(C[NH2+]CCc1cccnc1)C(=O)NCCCCNC(=O)c1ccc(-c2c3nc(c(-c4cccc(S(=O)(=O)[O-])c4F)c4ccc([nH]4)c(-c4cccc(S(=O)(=O)[O-])c4F)c4nc(c(-c5cccc(S(=O)(=O)[O-])c5F)c5ccc2[nH]5)C=C4)C=C3)cc1
REMARK SMILES IDX 17 1 16 2 14 3 15 4 2 6 1 7 3 8 4 9 5 10 6 13 7 14 8 15 9 16
REMARK SMILES IDX 13 17 10 18 12 19 11 20 18 21 19 22 20 23 21 24 22 25 23 27
REMARK SMILES IDX 24 28 25 29 86 30 26 31 85 32 27 33 28 34 29 35 79 36 30 37
REMARK SMILES IDX 84 38 78 39 80 40 31 41 83 42 77 43 76 44 32 46 64 47 44 48
REMARK SMILES IDX 63 49 45 50 48 51 62 52 81 53 46 54 47 55 61 57 82 58 49 59
REMARK SMILES IDX 33 60 34 61 42 62 35 63 37 64 43 65 36 66 38 67 39 68 40 69
REMARK SMILES IDX 41 70 65 71 66 72 74 73 67 74 69 75 75 76 68 77 70 78 71 79
REMARK SMILES IDX 72 80 73 81 50 82 51 83 59 84 52 85 54 86 60 87 53 88 55 89
REMARK SMILES IDX 56 90 57 91 58 92
REMARK H PARENT 16 5 5 11 5 12 21 26 80 45 48 56
REMARK Flexibility Score: inf
ROOT
ATOM      1  C   UNL A   1      31.271  26.347  26.073  1.00  0.00     0.116 C 
ENDROOT
BRANCH   1   2
ATOM      2  N   UNL A   1      31.867  25.043  25.872  1.00  0.00    -0.355 N 
ATOM      3  C   UNL A   1      32.387  24.428  24.776  1.00  0.00     0.231 C 
ATOM      4  O   UNL A   1      32.840  23.293  24.963  1.00  0.00    -0.274 OA
ATOM      5  H   UNL A   1      31.903  24.494  26.690  1.00  0.00     0.163 HD
BRANCH   3   6
ATOM      6  C   UNL A   1      32.492  25.106  23.392  1.00  0.00     0.092 C 
ATOM      7  C   UNL A   1      32.821  24.014  22.338  1.00  0.00     0.027 C 
ATOM      8  C   UNL A   1      33.686  26.079  23.383  1.00  0.00     0.027 C 
BRANCH   6   9
ATOM      9  C   UNL A   1      31.189  25.831  22.961  1.00  0.00     0.276 C 
BRANCH   9  10
ATOM     10  N   UNL A   1      31.431  27.001  22.115  1.00  0.00    -0.345 N 
ATOM     11  H   UNL A   1      30.836  26.924  21.289  1.00  0.00     0.346 HD
ATOM     12  H   UNL A   1      32.427  26.995  21.894  1.00  0.00     0.346 HD
BRANCH  10  13
ATOM     13  C   UNL A   1      31.158  28.287  22.755  1.00  0.00     0.265 C 
BRANCH  13  14
ATOM     14  C   UNL A   1      29.680  28.634  23.017  1.00  0.00     0.098 C 
BRANCH  14  15
ATOM     15  C   UNL A   1      29.232  30.037  22.700  1.00  0.00    -0.024 A 
ATOM     16  C   UNL A   1      29.167  30.995  23.718  1.00  0.00     0.007 A 
ATOM     17  C   UNL A   1      28.820  30.439  21.432  1.00  0.00     0.114 A 
ATOM     18  C   UNL A   1      28.747  32.290  23.434  1.00  0.00     0.020 A 
ATOM     19  N   UNL A   1      28.413  31.692  21.125  1.00  0.00    -0.264 NA
ATOM     20  C   UNL A   1      28.392  32.589  22.131  1.00  0.00     0.111 A 
ENDBRANCH  14  15
ENDBRANCH  13  14
ENDBRANCH  10  13
ENDBRANCH   9  10
ENDBRANCH   6   9
ENDBRANCH   3   6
ENDBRANCH   1   2
BRANCH   1  21
ATOM     21  C   UNL A   1      32.307  27.419  26.404  1.00  0.00     0.023 C 
BRANCH  21  22
ATOM     22  C   UNL A   1      31.778  28.854  26.400  1.00  0.00     0.023 C 
BRANCH  22  23
ATOM     23  C   UNL A   1      32.766  29.920  25.936  1.00  0.00     0.116 C 
BRANCH  23  24
ATOM     24  N   UNL A   1      32.422  31.264  26.382  1.00  0.00    -0.352 N 
ATOM     25  C   UNL A   1      33.105  32.082  27.249  1.00  0.00     0.251 C 
ATOM     26  H   UNL A   1      31.588  31.636  26.012  1.00  0.00     0.163 HD
ATOM     27  O   UNL A   1      32.623  33.159  27.591  1.00  0.00    -0.269 OA
BRANCH  25  28
ATOM     28  C   UNL A   1      34.404  31.636  27.798  1.00  0.00     0.039 A 
ATOM     29  C   UNL A   1      35.411  32.582  28.000  1.00  0.00     0.014 A 
ATOM     30  C   UNL A   1      34.609  30.300  28.150  1.00  0.00     0.014 A 
ATOM     31  C   UNL A   1      36.601  32.201  28.626  1.00  0.00     0.010 A 
ATOM     32  C   UNL A   1      35.764  29.938  28.835  1.00  0.00     0.010 A 
ATOM     33  C   UNL A   1      36.770  30.884  29.082  1.00  0.00    -0.014 A 
BRANCH  33  34
ATOM     34  C   UNL A   1      37.979  30.477  29.844  1.00  0.00     0.031 A 
ATOM     35  C   UNL A   1      38.949  29.489  29.255  1.00  0.00     0.074 A 
ATOM     36  C   UNL A   1      38.146  30.915  31.107  1.00  0.00     0.049 A 
ATOM     37  N   UNL A   1      40.015  28.960  29.794  1.00  0.00    -0.248 NA
ATOM     38  C   UNL A   1      38.664  29.010  27.892  1.00  0.00     0.031 C 
ATOM     39  C   UNL A   1      37.228  31.803  31.824  1.00  0.00     0.029 A 
ATOM     40  N   UNL A   1      39.130  30.645  32.026  1.00  0.00    -0.354 N 
ATOM     41  C   UNL A   1      40.506  28.057  28.859  1.00  0.00     0.074 A 
ATOM     42  C   UNL A   1      39.603  28.088  27.729  1.00  0.00     0.031 C 
ATOM     43  C   UNL A   1      37.692  32.005  33.068  1.00  0.00     0.029 A 
ATOM     44  C   UNL A   1      38.924  31.243  33.248  1.00  0.00     0.049 A 
ATOM     45  H   UNL A   1      39.910  30.077  31.829  1.00  0.00     0.167 HD
ATOM     46  C   UNL A   1      41.623  27.296  28.920  1.00  0.00     0.034 A 
ATOM     47  C   UNL A   1      39.643  31.183  34.386  1.00  0.00     0.034 A 
ATOM     48  C   UNL A   1      42.549  27.310  30.020  1.00  0.00     0.049 A 
ATOM     49  C   UNL A   1      40.917  30.380  34.404  1.00  0.00     0.074 A 
ATOM     50  C   UNL A   1      43.761  26.654  30.133  1.00  0.00     0.029 A 
ATOM     51  N   UNL A   1      42.363  28.016  31.199  1.00  0.00    -0.354 N 
ATOM     52  N   UNL A   1      41.457  29.669  33.444  1.00  0.00    -0.248 NA
ATOM     53  C   UNL A   1      41.700  30.402  35.647  1.00  0.00     0.031 C 
ATOM     54  C   UNL A   1      44.305  26.954  31.387  1.00  0.00     0.029 A 
ATOM     55  C   UNL A   1      43.437  27.809  32.047  1.00  0.00     0.049 A 
ATOM     56  H   UNL A   1      41.583  28.581  31.402  1.00  0.00     0.167 HD
ATOM     57  C   UNL A   1      42.657  29.189  33.953  1.00  0.00     0.074 A 
ATOM     58  C   UNL A   1      42.776  29.707  35.301  1.00  0.00     0.031 C 
ATOM     59  C   UNL A   1      43.572  28.381  33.363  1.00  0.00     0.034 A 
BRANCH  46  60
ATOM     60  C   UNL A   1      41.943  26.429  27.729  1.00  0.00     0.023 A 
ATOM     61  C   UNL A   1      42.641  26.985  26.638  1.00  0.00     0.012 A 
ATOM     62  C   UNL A   1      41.603  25.062  27.709  1.00  0.00     0.148 A 
ATOM     63  C   UNL A   1      42.964  26.205  25.528  1.00  0.00     0.002 A 
ATOM     64  C   UNL A   1      41.966  24.281  26.617  1.00  0.00     0.091 A 
ATOM     65  F   UNL A   1      40.918  24.556  28.745  1.00  0.00    -0.205 F 
ATOM     66  C   UNL A   1      42.636  24.852  25.523  1.00  0.00     0.022 A 
BRANCH  64  67
ATOM     67  S   UNL A   1      41.657  22.512  26.551  1.00  0.00     0.127 S 
ATOM     68  O   UNL A   1      42.276  22.059  27.796  1.00  0.00    -0.237 OA
ATOM     69  O   UNL A   1      40.195  22.452  26.541  1.00  0.00    -0.237 OA
ATOM     70  O   UNL A   1      42.289  22.043  25.327  1.00  0.00    -0.744 OA
ENDBRANCH  64  67
ENDBRANCH  46  60
BRANCH  47  71
ATOM     71  C   UNL A   1      39.220  31.977  35.574  1.00  0.00     0.023 A 
ATOM     72  C   UNL A   1      39.521  33.351  35.625  1.00  0.00     0.012 A 
ATOM     73  C   UNL A   1      38.489  31.394  36.627  1.00  0.00     0.148 A 
ATOM     74  C   UNL A   1      39.127  34.127  36.715  1.00  0.00     0.002 A 
ATOM     75  C   UNL A   1      38.054  32.184  37.686  1.00  0.00     0.091 A 
ATOM     76  F   UNL A   1      38.223  30.081  36.566  1.00  0.00    -0.205 F 
ATOM     77  C   UNL A   1      38.385  33.546  37.740  1.00  0.00     0.022 A 
BRANCH  75  78
ATOM     78  S   UNL A   1      36.982  31.550  38.981  1.00  0.00     0.127 S 
ATOM     79  O   UNL A   1      35.836  32.450  38.889  1.00  0.00    -0.237 OA
ATOM     80  O   UNL A   1      36.731  30.182  38.524  1.00  0.00    -0.237 OA
ATOM     81  O   UNL A   1      37.761  31.636  40.210  1.00  0.00    -0.744 OA
ENDBRANCH  75  78
ENDBRANCH  47  71
BRANCH  59  82
ATOM     82  C   UNL A   1      44.804  28.025  34.151  1.00  0.00     0.023 A 
ATOM     83  C   UNL A   1      45.926  28.876  34.114  1.00  0.00     0.012 A 
ATOM     84  C   UNL A   1      44.818  26.896  34.994  1.00  0.00     0.148 A 
ATOM     85  C   UNL A   1      47.054  28.595  34.884  1.00  0.00     0.002 A 
ATOM     86  C   UNL A   1      45.928  26.647  35.793  1.00  0.00     0.091 A 
ATOM     87  F   UNL A   1      43.749  26.087  35.000  1.00  0.00    -0.205 F 
ATOM     88  C   UNL A   1      47.050  27.489  35.732  1.00  0.00     0.022 A 
BRANCH  86  89
ATOM     89  S   UNL A   1      45.971  25.300  36.982  1.00  0.00     0.127 S 
ATOM     90  O   UNL A   1      45.858  24.131  36.112  1.00  0.00    -0.237 OA
ATOM     91  O   UNL A   1      47.285  25.474  37.603  1.00  0.00    -0.237 OA
ATOM     92  O   UNL A   1      44.847  25.525  37.880  1.00  0.00    -0.744 OA
ENDBRANCH  86  89
ENDBRANCH  59  82
ENDBRANCH  33  34
ENDBRANCH  25  28
ENDBRANCH  23  24
ENDBRANCH  22  23
ENDBRANCH  21  22
ENDBRANCH   1  21
TORSDOF 19
ENDMDL
MODEL 3
REMARK VINA RESULT:     -10.4      5.691     10.932
REMARK SMILES CC(C)(C[NH2+]CCc1cccnc1)C(=O)NCCCCNC(=O)c1ccc(-c2c3nc(c(-c4cccc(S(=O)(=O)[O-])c4F)c4ccc([nH]4)c(-c4cccc(S(=O)(=O)[O-])c4F)c4nc(c(-c5cccc(S(=O)(=O)[O-])c5F)c5ccc2[nH]5)C=C4)C=C3)cc1
REMARK SMILES IDX 17 1 16 2 14 3 15 4 2 6 1 7 3 8 4 9 5 10 6 13 7 14 8 15 9 16
REMARK SMILES IDX 13 17 10 18 12 19 11 20 18 21 19 22 20 23 21 24 22 25 23 27
REMARK SMILES IDX 24 28 25 29 86 30 26 31 85 32 27 33 28 34 29 35 79 36 30 37
REMARK SMILES IDX 84 38 78 39 80 40 31 41 83 42 77 43 76 44 32 46 64 47 44 48
REMARK SMILES IDX 63 49 45 50 48 51 62 52 81 53 46 54 47 55 61 57 82 58 49 59
REMARK SMILES IDX 33 60 34 61 42 62 35 63 37 64 43 65 36 66 38 67 39 68 40 69
REMARK SMILES IDX 41 70 65 71 66 72 74 73 67 74 69 75 75 76 68 77 70 78 71 79
REMARK SMILES IDX 72 80 73 81 50 82 51 83 59 84 52 85 54 86 60 87 53 88 55 89
REMARK SMILES IDX 56 90 57 91 58 92
REMARK H PARENT 16 5 5 11 5 12 21 26 80 45 48 56
REMARK Flexibility Score: inf
ROOT
ATOM      1  C   UNL A   1      36.899  22.517  25.359  1.00  0.00     0.116 C 
ENDROOT
BRANCH   1   2
ATOM      2  N   UNL A   1      36.010  22.114  26.428  1.00  0.00    -0.355 N 
ATOM      3  C   UNL A   1      34.713  22.413  26.708  1.00  0.00     0.231 C 
ATOM      4  O   UNL A   1      34.243  21.871  27.715  1.00  0.00    -0.274 OA
ATOM      5  H   UNL A   1      36.426  21.504  27.080  1.00  0.00     0.163 HD
BRANCH   3   6
ATOM      6  C   UNL A   1      33.833  23.305  25.804  1.00  0.00     0.092 C 
ATOM      7  C   UNL A   1      34.552  24.669  25.617  1.00  0.00     0.027 C 
ATOM      8  C   UNL A   1      32.507  23.618  26.522  1.00  0.00     0.027 C 
BRANCH   6   9
ATOM      9  C   UNL A   1      33.568  22.692  24.404  1.00  0.00     0.276 C 
BRANCH   9  10
ATOM     10  N   UNL A   1      32.350  21.882  24.348  1.00  0.00    -0.345 N 
ATOM     11  H   UNL A   1      31.701  22.329  23.700  1.00  0.00     0.346 HD
ATOM     12  H   UNL A   1      31.994  21.833  25.303  1.00  0.00     0.346 HD
BRANCH  10  13
ATOM     13  C   UNL A   1      32.552  20.501  23.910  1.00  0.00     0.265 C 
BRANCH  13  14
ATOM     14  C   UNL A   1      33.735  19.738  24.536  1.00  0.00     0.098 C 
BRANCH  14  15
ATOM     15  C   UNL A   1      33.593  18.244  24.684  1.00  0.00    -0.024 A 
ATOM     16  C   UNL A   1      32.683  17.719  25.609  1.00  0.00     0.007 A 
ATOM     17  C   UNL A   1      34.367  17.330  23.974  1.00  0.00     0.114 A 
ATOM     18  C   UNL A   1      32.553  16.342  25.756  1.00  0.00     0.020 A 
ATOM     19  N   UNL A   1      34.258  15.987  24.093  1.00  0.00    -0.264 NA
ATOM     20  C   UNL A   1      33.350  15.524  24.975  1.00  0.00     0.111 A 
ENDBRANCH  14  15
ENDBRANCH  13  14
ENDBRANCH  10  13
ENDBRANCH   9  10
ENDBRANCH   6   9
ENDBRANCH   3   6
ENDBRANCH   1   2
BRANCH   1  21
ATOM     21  C   UNL A   1      37.225  21.369  24.406  1.00  0.00     0.023 C 
BRANCH  21  22
ATOM     22  C   UNL A   1      37.909  20.164  25.053  1.00  0.00     0.023 C 
BRANCH  22  23
ATOM     23  C   UNL A   1      39.088  20.486  25.966  1.00  0.00     0.116 C 
BRANCH  23  24
ATOM     24  N   UNL A   1      40.128  19.466  25.954  1.00  0.00    -0.352 N 
ATOM     25  C   UNL A   1      41.484  19.620  26.116  1.00  0.00     0.251 C 
ATOM     26  H   UNL A   1      39.818  18.542  25.811  1.00  0.00     0.163 HD
ATOM     27  O   UNL A   1      42.235  18.657  25.985  1.00  0.00    -0.269 OA
BRANCH  25  28
ATOM     28  C   UNL A   1      42.033  20.961  26.409  1.00  0.00     0.039 A 
ATOM     29  C   UNL A   1      42.291  21.831  25.347  1.00  0.00     0.014 A 
ATOM     30  C   UNL A   1      42.251  21.371  27.727  1.00  0.00     0.014 A 
ATOM     31  C   UNL A   1      42.698  23.142  25.611  1.00  0.00     0.010 A 
ATOM     32  C   UNL A   1      42.588  22.695  27.989  1.00  0.00     0.010 A 
ATOM     33  C   UNL A   1      42.813  23.594  26.935  1.00  0.00    -0.014 A 
BRANCH  33  34
ATOM     34  C   UNL A   1      43.140  25.009  27.245  1.00  0.00     0.031 A 
ATOM     35  C   UNL A   1      44.533  25.531  27.019  1.00  0.00     0.074 A 
ATOM     36  C   UNL A   1      42.213  25.793  27.831  1.00  0.00     0.049 A 
ATOM     37  N   UNL A   1      45.026  26.709  27.297  1.00  0.00    -0.248 NA
ATOM     38  C   UNL A   1      45.507  24.596  26.433  1.00  0.00     0.031 C 
ATOM     39  C   UNL A   1      40.855  25.376  28.186  1.00  0.00     0.029 A 
ATOM     40  N   UNL A   1      42.283  27.094  28.261  1.00  0.00    -0.354 N 
ATOM     41  C   UNL A   1      46.373  26.646  26.960  1.00  0.00     0.074 A 
ATOM     42  C   UNL A   1      46.627  25.303  26.485  1.00  0.00     0.031 C 
ATOM     43  C   UNL A   1      40.221  26.401  28.778  1.00  0.00     0.029 A 
ATOM     44  C   UNL A   1      41.131  27.537  28.869  1.00  0.00     0.049 A 
ATOM     45  H   UNL A   1      43.082  27.658  28.146  1.00  0.00     0.167 HD
ATOM     46  C   UNL A   1      47.307  27.625  27.010  1.00  0.00     0.034 A 
ATOM     47  C   UNL A   1      40.841  28.724  29.438  1.00  0.00     0.034 A 
ATOM     48  C   UNL A   1      47.038  28.974  27.429  1.00  0.00     0.049 A 
ATOM     49  C   UNL A   1      41.877  29.816  29.420  1.00  0.00     0.074 A 
ATOM     50  C   UNL A   1      47.889  30.064  27.418  1.00  0.00     0.029 A 
ATOM     51  N   UNL A   1      45.826  29.417  27.935  1.00  0.00    -0.354 N 
ATOM     52  N   UNL A   1      43.095  29.789  28.935  1.00  0.00    -0.248 NA
ATOM     53  C   UNL A   1      41.488  31.113  29.992  1.00  0.00     0.031 C 
ATOM     54  C   UNL A   1      47.195  31.166  27.929  1.00  0.00     0.029 A 
ATOM     55  C   UNL A   1      45.907  30.764  28.243  1.00  0.00     0.049 A 
ATOM     56  H   UNL A   1      45.026  28.856  28.056  1.00  0.00     0.167 HD
ATOM     57  C   UNL A   1      43.604  31.070  29.111  1.00  0.00     0.074 A 
ATOM     58  C   UNL A   1      42.555  31.855  29.728  1.00  0.00     0.031 C 
ATOM     59  C   UNL A   1      44.834  31.549  28.801  1.00  0.00     0.034 A 
BRANCH  46  60
ATOM     60  C   UNL A   1      48.697  27.288  26.536  1.00  0.00     0.023 A 
ATOM     61  C   UNL A   1      48.964  27.247  25.153  1.00  0.00     0.012 A 
ATOM     62  C   UNL A   1      49.745  27.064  27.450  1.00  0.00     0.148 A 
ATOM     63  C   UNL A   1      50.244  26.953  24.684  1.00  0.00     0.002 A 
ATOM     64  C   UNL A   1      51.028  26.813  26.975  1.00  0.00     0.091 A 
ATOM     65  F   UNL A   1      49.468  27.083  28.762  1.00  0.00    -0.205 F 
ATOM     66  C   UNL A   1      51.276  26.747  25.594  1.00  0.00     0.022 A 
BRANCH  64  67
ATOM     67  S   UNL A   1      52.439  26.611  28.068  1.00  0.00     0.127 S 
ATOM     68  O   UNL A   1      52.977  27.970  28.109  1.00  0.00    -0.237 OA
ATOM     69  O   UNL A   1      51.808  26.169  29.312  1.00  0.00    -0.237 OA
ATOM     70  O   UNL A   1      53.293  25.615  27.436  1.00  0.00    -0.744 OA
ENDBRANCH  64  67
ENDBRANCH  46  60
BRANCH  47  71
ATOM     71  C   UNL A   1      39.479  28.968  29.992  1.00  0.00     0.023 A 
ATOM     72  C   UNL A   1      39.165  28.485  31.277  1.00  0.00     0.012 A 
ATOM     73  C   UNL A   1      38.514  29.704  29.279  1.00  0.00     0.148 A 
ATOM     74  C   UNL A   1      37.904  28.707  31.833  1.00  0.00     0.002 A 
ATOM     75  C   UNL A   1      37.278  29.968  29.861  1.00  0.00     0.091 A 
ATOM     76  F   UNL A   1      38.828  30.145  28.053  1.00  0.00    -0.205 F 
ATOM     77  C   UNL A   1      36.966  29.457  31.130  1.00  0.00     0.022 A 
BRANCH  75  78
ATOM     78  S   UNL A   1      36.058  31.034  29.085  1.00  0.00     0.127 S 
ATOM     79  O   UNL A   1      36.899  32.065  28.485  1.00  0.00    -0.237 OA
ATOM     80  O   UNL A   1      35.423  30.123  28.130  1.00  0.00    -0.237 OA
ATOM     81  O   UNL A   1      35.182  31.475  30.163  1.00  0.00    -0.744 OA
ENDBRANCH  75  78
ENDBRANCH  47  71
BRANCH  59  82
ATOM     82  C   UNL A   1      45.115  32.999  29.091  1.00  0.00     0.023 A 
ATOM     83  C   UNL A   1      45.678  33.367  30.329  1.00  0.00     0.012 A 
ATOM     84  C   UNL A   1      44.901  33.984  28.106  1.00  0.00     0.148 A 
ATOM     85  C   UNL A   1      46.000  34.698  30.592  1.00  0.00     0.002 A 
ATOM     86  C   UNL A   1      45.267  35.301  28.360  1.00  0.00     0.091 A 
ATOM     87  F   UNL A   1      44.345  33.617  26.943  1.00  0.00    -0.205 F 
ATOM     88  C   UNL A   1      45.807  35.662  29.604  1.00  0.00     0.022 A 
BRANCH  86  89
ATOM     89  S   UNL A   1      45.140  36.588  27.112  1.00  0.00     0.127 S 
ATOM     90  O   UNL A   1      45.700  37.741  27.814  1.00  0.00    -0.237 OA
ATOM     91  O   UNL A   1      45.981  36.062  26.035  1.00  0.00    -0.237 OA
ATOM     92  O   UNL A   1      43.726  36.682  26.778  1.00  0.00    -0.744 OA
ENDBRANCH  86  89
ENDBRANCH  59  82
ENDBRANCH  33  34
ENDBRANCH  25  28
ENDBRANCH  23  24
ENDBRANCH  22  23
ENDBRANCH  21  22
ENDBRANCH   1  21
TORSDOF 19
ENDMDL
