MODEL 1
REMARK VINA RESULT:     -12.5      0.000      0.000
REMARK SMILES CCN(C(=O)Cc1c(C(=O)NCCCCNC(=O)c2ccc(-c3c4nc(c(-c5cccc(S(=O)(=O)[O-])c5F)c5ccc([nH]5)c(-c5cccc(S(=O)(=O)[O-])c5F)c5nc(c(-c6cccc(S(=O)(=O)[O-])c6F)c6ccc3[nH]6)C=C5)C=C4)cc2)[nH]c2ccccc12)c1cccc(C)c1
REMARK SMILES IDX 13 1 12 2 11 3 9 4 10 5 8 7 7 8 88 9 82 10 83 11 87 12 84 14
REMARK SMILES IDX 86 15 85 16 6 17 4 18 5 19 3 20 2 21 1 22 89 23 90 24 95 25
REMARK SMILES IDX 91 26 93 27 92 28 94 29 14 30 15 31 16 32 17 33 18 35 19 36
REMARK SMILES IDX 20 37 81 38 21 39 80 40 22 41 23 42 24 43 74 44 25 45 79 46
REMARK SMILES IDX 73 47 75 48 26 49 78 50 72 51 71 52 27 54 59 55 39 56 58 57
REMARK SMILES IDX 40 58 43 59 57 60 76 61 41 62 42 63 56 65 77 66 44 67 28 68
REMARK SMILES IDX 29 69 37 70 30 71 32 72 38 73 31 74 33 75 34 76 35 77 36 78
REMARK SMILES IDX 60 79 61 80 69 81 62 82 64 83 70 84 63 85 65 86 66 87 67 88
REMARK SMILES IDX 68 89 45 90 46 91 54 92 47 93 49 94 55 95 48 96 50 97 51 98
REMARK SMILES IDX 52 99 53 100
REMARK H PARENT 11 6 82 13 16 34 75 53 43 64
REMARK Flexibility Score: inf
ROOT
ATOM      1  C   UNL A   1      33.588  28.523  25.046  1.00  0.00     0.023 C 
ENDROOT
BRANCH   1   2
ATOM      2  C   UNL A   1      34.278  28.517  23.683  1.00  0.00     0.116 C 
BRANCH   2   3
ATOM      3  N   UNL A   1      33.781  27.458  22.831  1.00  0.00    -0.351 N 
ATOM      4  C   UNL A   1      32.575  27.137  22.271  1.00  0.00     0.268 C 
ATOM      5  O   UNL A   1      32.588  26.090  21.618  1.00  0.00    -0.268 OA
ATOM      6  H   UNL A   1      34.484  26.810  22.597  1.00  0.00     0.163 HD
BRANCH   4   7
ATOM      7  C   UNL A   1      31.363  27.935  22.415  1.00  0.00     0.109 A 
ATOM      8  C   UNL A   1      30.153  27.533  23.008  1.00  0.00    -0.000 A 
ATOM      9  C   UNL A   1      29.202  28.602  22.849  1.00  0.00     0.004 A 
ATOM     10  N   UNL A   1      31.152  29.229  22.002  1.00  0.00    -0.350 N 
ATOM     11  C   UNL A   1      29.874  29.659  22.254  1.00  0.00     0.046 A 
ATOM     12  C   UNL A   1      27.845  28.787  23.190  1.00  0.00     0.010 A 
ATOM     13  H   UNL A   1      31.841  29.786  21.574  1.00  0.00     0.167 HD
ATOM     14  C   UNL A   1      29.279  30.901  22.002  1.00  0.00     0.027 A 
ATOM     15  C   UNL A   1      27.230  30.022  22.952  1.00  0.00     0.001 A 
ATOM     16  C   UNL A   1      27.942  31.066  22.371  1.00  0.00     0.002 A 
BRANCH   8  17
ATOM     17  C   UNL A   1      29.872  26.218  23.696  1.00  0.00     0.139 C 
BRANCH  17  18
ATOM     18  C   UNL A   1      30.408  26.155  25.125  1.00  0.00     0.231 C 
ATOM     19  O   UNL A   1      30.355  27.187  25.808  1.00  0.00    -0.274 OA
BRANCH  18  20
ATOM     20  N   UNL A   1      30.980  24.953  25.578  1.00  0.00    -0.312 N 
BRANCH  20  21
ATOM     21  C   UNL A   1      30.294  24.016  26.491  1.00  0.00     0.122 C 
ATOM     22  C   UNL A   1      30.810  22.584  26.498  1.00  0.00     0.028 C 
ENDBRANCH  20  21
BRANCH  20  23
ATOM     23  C   UNL A   1      32.350  24.663  25.262  1.00  0.00     0.044 A 
ATOM     24  C   UNL A   1      33.388  25.107  26.089  1.00  0.00     0.026 A 
ATOM     25  C   UNL A   1      32.683  23.948  24.104  1.00  0.00     0.029 A 
ATOM     26  C   UNL A   1      34.721  24.830  25.776  1.00  0.00     0.002 A 
ATOM     27  C   UNL A   1      34.018  23.677  23.771  1.00  0.00    -0.049 A 
ATOM     28  C   UNL A   1      35.036  24.119  24.620  1.00  0.00     0.003 A 
ATOM     29  C   UNL A   1      34.358  22.966  22.495  1.00  0.00     0.044 C 
ENDBRANCH  20  23
ENDBRANCH  18  20
ENDBRANCH  17  18
ENDBRANCH   8  17
ENDBRANCH   4   7
ENDBRANCH   2   3
ENDBRANCH   1   2
BRANCH   1  30
ATOM     30  C   UNL A   1      32.581  29.666  25.239  1.00  0.00     0.023 C 
BRANCH  30  31
ATOM     31  C   UNL A   1      32.329  30.086  26.688  1.00  0.00     0.116 C 
BRANCH  31  32
ATOM     32  N   UNL A   1      32.083  31.513  26.850  1.00  0.00    -0.352 N 
ATOM     33  C   UNL A   1      32.908  32.447  27.433  1.00  0.00     0.251 C 
ATOM     34  H   UNL A   1      31.226  31.848  26.501  1.00  0.00     0.163 HD
ATOM     35  O   UNL A   1      32.538  33.609  27.573  1.00  0.00    -0.269 OA
BRANCH  33  36
ATOM     36  C   UNL A   1      34.230  32.013  27.925  1.00  0.00     0.039 A 
ATOM     37  C   UNL A   1      35.265  32.948  28.008  1.00  0.00     0.014 A 
ATOM     38  C   UNL A   1      34.412  30.704  28.375  1.00  0.00     0.014 A 
ATOM     39  C   UNL A   1      36.467  32.590  28.621  1.00  0.00     0.010 A 
ATOM     40  C   UNL A   1      35.587  30.369  29.036  1.00  0.00     0.010 A 
ATOM     41  C   UNL A   1      36.620  31.310  29.174  1.00  0.00    -0.014 A 
BRANCH  41  42
ATOM     42  C   UNL A   1      37.841  30.911  29.916  1.00  0.00     0.031 A 
ATOM     43  C   UNL A   1      38.796  29.931  29.295  1.00  0.00     0.074 A 
ATOM     44  C   UNL A   1      38.012  31.313  31.191  1.00  0.00     0.049 A 
ATOM     45  N   UNL A   1      39.805  29.303  29.838  1.00  0.00    -0.248 NA
ATOM     46  C   UNL A   1      38.558  29.582  27.884  1.00  0.00     0.031 C 
ATOM     47  C   UNL A   1      37.119  32.213  31.924  1.00  0.00     0.029 A 
ATOM     48  N   UNL A   1      38.973  30.980  32.113  1.00  0.00    -0.354 N 
ATOM     49  C   UNL A   1      40.286  28.445  28.857  1.00  0.00     0.074 A 
ATOM     50  C   UNL A   1      39.449  28.621  27.690  1.00  0.00     0.031 C 
ATOM     51  C   UNL A   1      37.567  32.351  33.182  1.00  0.00     0.029 A 
ATOM     52  C   UNL A   1      38.757  31.524  33.358  1.00  0.00     0.049 A 
ATOM     53  H   UNL A   1      39.745  30.405  31.903  1.00  0.00     0.167 HD
ATOM     54  C   UNL A   1      41.344  27.603  28.916  1.00  0.00     0.034 A 
ATOM     55  C   UNL A   1      39.432  31.362  34.513  1.00  0.00     0.034 A 
ATOM     56  C   UNL A   1      42.213  27.484  30.054  1.00  0.00     0.049 A 
ATOM     57  C   UNL A   1      40.647  30.474  34.530  1.00  0.00     0.074 A 
ATOM     58  C   UNL A   1      43.358  26.721  30.186  1.00  0.00     0.029 A 
ATOM     59  N   UNL A   1      42.036  28.157  31.253  1.00  0.00    -0.354 N 
ATOM     60  N   UNL A   1      41.165  29.769  33.553  1.00  0.00    -0.248 NA
ATOM     61  C   UNL A   1      41.391  30.382  35.794  1.00  0.00     0.031 C 
ATOM     62  C   UNL A   1      43.878  26.935  31.466  1.00  0.00     0.029 A 
ATOM     63  C   UNL A   1      43.059  27.837  32.127  1.00  0.00     0.049 A 
ATOM     64  H   UNL A   1      41.294  28.772  31.453  1.00  0.00     0.167 HD
ATOM     65  C   UNL A   1      42.317  29.188  34.070  1.00  0.00     0.074 A 
ATOM     66  C   UNL A   1      42.427  29.629  35.445  1.00  0.00     0.031 C 
ATOM     67  C   UNL A   1      43.196  28.353  33.465  1.00  0.00     0.034 A 
BRANCH  54  68
ATOM     68  C   UNL A   1      41.658  26.793  27.687  1.00  0.00     0.023 A 
ATOM     69  C   UNL A   1      42.199  27.435  26.556  1.00  0.00     0.012 A 
ATOM     70  C   UNL A   1      41.465  25.399  27.665  1.00  0.00     0.148 A 
ATOM     71  C   UNL A   1      42.511  26.709  25.408  1.00  0.00     0.002 A 
ATOM     72  C   UNL A   1      41.817  24.674  26.531  1.00  0.00     0.091 A 
ATOM     73  F   UNL A   1      40.924  24.808  28.741  1.00  0.00    -0.205 F 
ATOM     74  C   UNL A   1      42.331  25.329  25.400  1.00  0.00     0.022 A 
BRANCH  72  75
ATOM     75  S   UNL A   1      41.687  22.884  26.457  1.00  0.00     0.127 S 
ATOM     76  O   UNL A   1      40.238  22.691  26.484  1.00  0.00    -0.237 OA
ATOM     77  O   UNL A   1      42.319  22.579  25.172  1.00  0.00    -0.237 OA
ATOM     78  O   UNL A   1      42.412  22.387  27.617  1.00  0.00    -0.744 OA
ENDBRANCH  72  75
ENDBRANCH  54  68
BRANCH  55  79
ATOM     79  C   UNL A   1      39.021  32.123  35.727  1.00  0.00     0.023 A 
ATOM     80  C   UNL A   1      39.381  33.480  35.837  1.00  0.00     0.012 A 
ATOM     81  C   UNL A   1      38.252  31.532  36.748  1.00  0.00     0.148 A 
ATOM     82  C   UNL A   1      39.006  34.229  36.953  1.00  0.00     0.002 A 
ATOM     83  C   UNL A   1      37.837  32.298  37.833  1.00  0.00     0.091 A 
ATOM     84  F   UNL A   1      37.930  30.236  36.635  1.00  0.00    -0.205 F 
ATOM     85  C   UNL A   1      38.226  33.642  37.945  1.00  0.00     0.022 A 
BRANCH  83  86
ATOM     86  S   UNL A   1      36.721  31.657  39.088  1.00  0.00     0.127 S 
ATOM     87  O   UNL A   1      37.472  31.912  40.314  1.00  0.00    -0.237 OA
ATOM     88  O   UNL A   1      35.538  32.499  38.904  1.00  0.00    -0.237 OA
ATOM     89  O   UNL A   1      36.515  30.257  38.743  1.00  0.00    -0.744 OA
ENDBRANCH  83  86
ENDBRANCH  55  79
BRANCH  67  90
ATOM     90  C   UNL A   1      44.393  27.897  34.253  1.00  0.00     0.023 A 
ATOM     91  C   UNL A   1      45.544  28.704  34.303  1.00  0.00     0.012 A 
ATOM     92  C   UNL A   1      44.328  26.727  35.037  1.00  0.00     0.148 A 
ATOM     93  C   UNL A   1      46.622  28.347  35.113  1.00  0.00     0.002 A 
ATOM     94  C   UNL A   1      45.389  26.400  35.872  1.00  0.00     0.091 A 
ATOM     95  F   UNL A   1      43.229  25.963  34.957  1.00  0.00    -0.205 F 
ATOM     96  C   UNL A   1      46.539  27.205  35.907  1.00  0.00     0.022 A 
BRANCH  94  97
ATOM     97  S   UNL A   1      45.329  24.999  36.996  1.00  0.00     0.127 S 
ATOM     98  O   UNL A   1      46.605  25.124  37.697  1.00  0.00    -0.237 OA
ATOM     99  O   UNL A   1      44.152  25.305  37.811  1.00  0.00    -0.237 OA
ATOM    100  O   UNL A   1      45.189  23.818  36.156  1.00  0.00    -0.744 OA
ENDBRANCH  94  97
ENDBRANCH  67  90
ENDBRANCH  41  42
ENDBRANCH  33  36
ENDBRANCH  31  32
ENDBRANCH  30  31
ENDBRANCH   1  30
TORSDOF 19
ENDMDL
MODEL 2
REMARK VINA RESULT:     -12.0      6.067     11.194
REMARK SMILES CCN(C(=O)Cc1c(C(=O)NCCCCNC(=O)c2ccc(-c3c4nc(c(-c5cccc(S(=O)(=O)[O-])c5F)c5ccc([nH]5)c(-c5cccc(S(=O)(=O)[O-])c5F)c5nc(c(-c6cccc(S(=O)(=O)[O-])c6F)c6ccc3[nH]6)C=C5)C=C4)cc2)[nH]c2ccccc12)c1cccc(C)c1
REMARK SMILES IDX 13 1 12 2 11 3 9 4 10 5 8 7 7 8 88 9 82 10 83 11 87 12 84 14
REMARK SMILES IDX 86 15 85 16 6 17 4 18 5 19 3 20 2 21 1 22 89 23 90 24 95 25
REMARK SMILES IDX 91 26 93 27 92 28 94 29 14 30 15 31 16 32 17 33 18 35 19 36
REMARK SMILES IDX 20 37 81 38 21 39 80 40 22 41 23 42 24 43 74 44 25 45 79 46
REMARK SMILES IDX 73 47 75 48 26 49 78 50 72 51 71 52 27 54 59 55 39 56 58 57
REMARK SMILES IDX 40 58 43 59 57 60 76 61 41 62 42 63 56 65 77 66 44 67 28 68
REMARK SMILES IDX 29 69 37 70 30 71 32 72 38 73 31 74 33 75 34 76 35 77 36 78
REMARK SMILES IDX 60 79 61 80 69 81 62 82 64 83 70 84 63 85 65 86 66 87 67 88
REMARK SMILES IDX 68 89 45 90 46 91 54 92 47 93 49 94 55 95 48 96 50 97 51 98
REMARK SMILES IDX 52 99 53 100
REMARK H PARENT 11 6 82 13 16 34 75 53 43 64
REMARK Flexibility Score: inf
ROOT
ATOM      1  C   UNL A   1      38.589  22.076  25.861  1.00  0.00     0.023 C 
ENDROOT
BRANCH   1   2
ATOM      2  C   UNL A   1      37.319  22.704  25.290  1.00  0.00     0.116 C 
BRANCH   2   3
ATOM      3  N   UNL A   1      36.257  22.761  26.271  1.00  0.00    -0.351 N 
ATOM      4  C   UNL A   1      35.055  22.134  26.450  1.00  0.00     0.268 C 
ATOM      5  O   UNL A   1      34.428  22.522  27.439  1.00  0.00    -0.268 OA
ATOM      6  H   UNL A   1      36.448  23.410  26.987  1.00  0.00     0.163 HD
BRANCH   4   7
ATOM      7  C   UNL A   1      34.529  21.098  25.568  1.00  0.00     0.109 A 
ATOM      8  C   UNL A   1      33.455  21.222  24.668  1.00  0.00    -0.000 A 
ATOM      9  C   UNL A   1      33.222  19.931  24.073  1.00  0.00     0.004 A 
ATOM     10  N   UNL A   1      34.963  19.801  25.438  1.00  0.00    -0.350 N 
ATOM     11  C   UNL A   1      34.209  19.080  24.548  1.00  0.00     0.046 A 
ATOM     12  C   UNL A   1      32.291  19.415  23.147  1.00  0.00     0.010 A 
ATOM     13  H   UNL A   1      35.731  19.430  25.929  1.00  0.00     0.167 HD
ATOM     14  C   UNL A   1      34.338  17.749  24.133  1.00  0.00     0.027 A 
ATOM     15  C   UNL A   1      32.403  18.088  22.714  1.00  0.00     0.001 A 
ATOM     16  C   UNL A   1      33.418  17.270  23.198  1.00  0.00     0.002 A 
BRANCH   8  17
ATOM     17  C   UNL A   1      32.669  22.474  24.359  1.00  0.00     0.139 C 
BRANCH  17  18
ATOM     18  C   UNL A   1      33.420  23.455  23.462  1.00  0.00     0.231 C 
ATOM     19  O   UNL A   1      34.518  23.101  23.010  1.00  0.00    -0.274 OA
BRANCH  18  20
ATOM     20  N   UNL A   1      32.860  24.725  23.234  1.00  0.00    -0.312 N 
BRANCH  20  21
ATOM     21  C   UNL A   1      32.856  25.390  21.915  1.00  0.00     0.122 C 
ATOM     22  C   UNL A   1      32.835  26.913  21.929  1.00  0.00     0.028 C 
ENDBRANCH  20  21
BRANCH  20  23
ATOM     23  C   UNL A   1      32.383  25.493  24.348  1.00  0.00     0.044 A 
ATOM     24  C   UNL A   1      31.046  25.419  24.753  1.00  0.00     0.026 A 
ATOM     25  C   UNL A   1      33.241  26.354  25.045  1.00  0.00     0.029 A 
ATOM     26  C   UNL A   1      30.582  26.172  25.834  1.00  0.00     0.002 A 
ATOM     27  C   UNL A   1      32.784  27.129  26.122  1.00  0.00    -0.049 A 
ATOM     28  C   UNL A   1      31.447  27.026  26.515  1.00  0.00     0.003 A 
ATOM     29  C   UNL A   1      33.700  28.092  26.814  1.00  0.00     0.044 C 
ENDBRANCH  20  23
ENDBRANCH  18  20
ENDBRANCH  17  18
ENDBRANCH   8  17
ENDBRANCH   4   7
ENDBRANCH   2   3
ENDBRANCH   1   2
BRANCH   1  30
ATOM     30  C   UNL A   1      38.852  20.639  25.388  1.00  0.00     0.023 C 
BRANCH  30  31
ATOM     31  C   UNL A   1      39.422  19.690  26.443  1.00  0.00     0.116 C 
BRANCH  31  32
ATOM     32  N   UNL A   1      40.596  18.952  25.994  1.00  0.00    -0.352 N 
ATOM     33  C   UNL A   1      41.888  19.411  25.888  1.00  0.00     0.251 C 
ATOM     34  H   UNL A   1      40.446  18.014  25.734  1.00  0.00     0.163 HD
ATOM     35  O   UNL A   1      42.770  18.699  25.417  1.00  0.00    -0.269 OA
BRANCH  33  36
ATOM     36  C   UNL A   1      42.184  20.793  26.314  1.00  0.00     0.039 A 
ATOM     37  C   UNL A   1      42.465  21.045  27.659  1.00  0.00     0.014 A 
ATOM     38  C   UNL A   1      42.259  21.815  25.366  1.00  0.00     0.014 A 
ATOM     39  C   UNL A   1      42.904  22.313  28.044  1.00  0.00     0.010 A 
ATOM     40  C   UNL A   1      42.751  23.058  25.741  1.00  0.00     0.010 A 
ATOM     41  C   UNL A   1      43.086  23.316  27.081  1.00  0.00    -0.014 A 
BRANCH  41  42
ATOM     42  C   UNL A   1      43.637  24.651  27.424  1.00  0.00     0.031 A 
ATOM     43  C   UNL A   1      42.712  25.727  27.916  1.00  0.00     0.074 A 
ATOM     44  C   UNL A   1      44.928  24.932  27.157  1.00  0.00     0.049 A 
ATOM     45  N   UNL A   1      42.943  27.002  28.083  1.00  0.00    -0.248 NA
ATOM     46  C   UNL A   1      41.330  25.319  28.224  1.00  0.00     0.031 C 
ATOM     47  C   UNL A   1      45.908  23.987  26.618  1.00  0.00     0.029 A 
ATOM     48  N   UNL A   1      45.626  26.109  27.260  1.00  0.00    -0.354 N 
ATOM     49  C   UNL A   1      41.727  27.558  28.459  1.00  0.00     0.074 A 
ATOM     50  C   UNL A   1      40.756  26.485  28.481  1.00  0.00     0.031 C 
ATOM     51  C   UNL A   1      47.075  24.623  26.427  1.00  0.00     0.029 A 
ATOM     52  C   UNL A   1      46.919  26.027  26.796  1.00  0.00     0.049 A 
ATOM     53  H   UNL A   1      45.239  26.934  27.632  1.00  0.00     0.167 HD
ATOM     54  C   UNL A   1      41.448  28.843  28.779  1.00  0.00     0.034 A 
ATOM     55  C   UNL A   1      47.866  26.978  26.670  1.00  0.00     0.034 A 
ATOM     56  C   UNL A   1      42.430  29.891  28.822  1.00  0.00     0.049 A 
ATOM     57  C   UNL A   1      47.549  28.385  27.100  1.00  0.00     0.074 A 
ATOM     58  C   UNL A   1      42.268  31.207  29.212  1.00  0.00     0.029 A 
ATOM     59  N   UNL A   1      43.763  29.734  28.474  1.00  0.00    -0.354 N 
ATOM     60  N   UNL A   1      46.426  28.866  27.578  1.00  0.00    -0.248 NA
ATOM     61  C   UNL A   1      48.633  29.373  27.008  1.00  0.00     0.031 C 
ATOM     62  C   UNL A   1      43.506  31.849  29.102  1.00  0.00     0.029 A 
ATOM     63  C   UNL A   1      44.439  30.929  28.651  1.00  0.00     0.049 A 
ATOM     64  H   UNL A   1      44.169  28.899  28.149  1.00  0.00     0.167 HD
ATOM     65  C   UNL A   1      46.681  30.198  27.885  1.00  0.00     0.074 A 
ATOM     66  C   UNL A   1      48.067  30.446  27.546  1.00  0.00     0.031 C 
ATOM     67  C   UNL A   1      45.840  31.133  28.387  1.00  0.00     0.034 A 
BRANCH  54  68
ATOM     68  C   UNL A   1      40.033  29.172  29.173  1.00  0.00     0.023 A 
ATOM     69  C   UNL A   1      39.077  29.423  28.169  1.00  0.00     0.012 A 
ATOM     70  C   UNL A   1      39.639  29.189  30.524  1.00  0.00     0.148 A 
ATOM     71  C   UNL A   1      37.757  29.719  28.503  1.00  0.00     0.002 A 
ATOM     72  C   UNL A   1      38.311  29.445  30.849  1.00  0.00     0.091 A 
ATOM     73  F   UNL A   1      40.568  28.975  31.468  1.00  0.00    -0.205 F 
ATOM     74  C   UNL A   1      37.372  29.719  29.841  1.00  0.00     0.022 A 
BRANCH  72  75
ATOM     75  S   UNL A   1      37.708  29.393  32.541  1.00  0.00     0.127 S 
ATOM     76  O   UNL A   1      38.716  30.192  33.237  1.00  0.00    -0.237 OA
ATOM     77  O   UNL A   1      36.397  30.033  32.425  1.00  0.00    -0.237 OA
ATOM     78  O   UNL A   1      37.661  27.983  32.901  1.00  0.00    -0.744 OA
ENDBRANCH  72  75
ENDBRANCH  54  68
BRANCH  55  79
ATOM     79  C   UNL A   1      49.227  26.612  26.187  1.00  0.00     0.023 A 
ATOM     80  C   UNL A   1      50.021  25.750  26.970  1.00  0.00     0.012 A 
ATOM     81  C   UNL A   1      49.727  27.072  24.954  1.00  0.00     0.148 A 
ATOM     82  C   UNL A   1      51.296  25.375  26.548  1.00  0.00     0.002 A 
ATOM     83  C   UNL A   1      50.979  26.654  24.514  1.00  0.00     0.091 A 
ATOM     84  F   UNL A   1      48.965  27.903  24.228  1.00  0.00    -0.205 F 
ATOM     85  C   UNL A   1      51.771  25.818  25.316  1.00  0.00     0.022 A 
BRANCH  83  86
ATOM     86  S   UNL A   1      51.610  27.069  22.884  1.00  0.00     0.127 S 
ATOM     87  O   UNL A   1      51.985  28.470  23.055  1.00  0.00    -0.237 OA
ATOM     88  O   UNL A   1      52.735  26.143  22.745  1.00  0.00    -0.237 OA
ATOM     89  O   UNL A   1      50.509  26.808  21.965  1.00  0.00    -0.744 OA
ENDBRANCH  83  86
ENDBRANCH  55  79
BRANCH  67  90
ATOM     90  C   UNL A   1      46.393  32.505  28.663  1.00  0.00     0.023 A 
ATOM     91  C   UNL A   1      46.848  32.826  29.954  1.00  0.00     0.012 A 
ATOM     92  C   UNL A   1      46.568  33.428  27.612  1.00  0.00     0.148 A 
ATOM     93  C   UNL A   1      47.460  34.055  30.201  1.00  0.00     0.002 A 
ATOM     94  C   UNL A   1      47.215  34.633  27.858  1.00  0.00     0.091 A 
ATOM     95  F   UNL A   1      46.107  33.107  26.395  1.00  0.00    -0.205 F 
ATOM     96  C   UNL A   1      47.655  34.950  29.152  1.00  0.00     0.022 A 
BRANCH  94  97
ATOM     97  S   UNL A   1      47.591  35.804  26.548  1.00  0.00     0.127 S 
ATOM     98  O   UNL A   1      46.255  36.213  26.120  1.00  0.00    -0.237 OA
ATOM     99  O   UNL A   1      48.346  36.835  27.260  1.00  0.00    -0.237 OA
ATOM    100  O   UNL A   1      48.365  35.064  25.560  1.00  0.00    -0.744 OA
ENDBRANCH  94  97
ENDBRANCH  67  90
ENDBRANCH  41  42
ENDBRANCH  33  36
ENDBRANCH  31  32
ENDBRANCH  30  31
ENDBRANCH   1  30
TORSDOF 19
ENDMDL
MODEL 3
REMARK VINA RESULT:     -11.9      6.135     10.904
REMARK SMILES CCN(C(=O)Cc1c(C(=O)NCCCCNC(=O)c2ccc(-c3c4nc(c(-c5cccc(S(=O)(=O)[O-])c5F)c5ccc([nH]5)c(-c5cccc(S(=O)(=O)[O-])c5F)c5nc(c(-c6cccc(S(=O)(=O)[O-])c6F)c6ccc3[nH]6)C=C5)C=C4)cc2)[nH]c2ccccc12)c1cccc(C)c1
REMARK SMILES IDX 13 1 12 2 11 3 9 4 10 5 8 7 7 8 88 9 82 10 83 11 87 12 84 14
REMARK SMILES IDX 86 15 85 16 6 17 4 18 5 19 3 20 2 21 1 22 89 23 90 24 95 25
REMARK SMILES IDX 91 26 93 27 92 28 94 29 14 30 15 31 16 32 17 33 18 35 19 36
REMARK SMILES IDX 20 37 81 38 21 39 80 40 22 41 23 42 24 43 74 44 25 45 79 46
REMARK SMILES IDX 73 47 75 48 26 49 78 50 72 51 71 52 27 54 59 55 39 56 58 57
REMARK SMILES IDX 40 58 43 59 57 60 76 61 41 62 42 63 56 65 77 66 44 67 28 68
REMARK SMILES IDX 29 69 37 70 30 71 32 72 38 73 31 74 33 75 34 76 35 77 36 78
REMARK SMILES IDX 60 79 61 80 69 81 62 82 64 83 70 84 63 85 65 86 66 87 67 88
REMARK SMILES IDX 68 89 45 90 46 91 54 92 47 93 49 94 55 95 48 96 50 97 51 98
REMARK SMILES IDX 52 99 53 100
REMARK H PARENT 11 6 82 13 16 34 75 53 43 64
REMARK Flexibility Score: inf
ROOT
ATOM      1  C   UNL A   1      38.681  22.129  26.012  1.00  0.00     0.023 C 
ENDROOT
BRANCH   1   2
ATOM      2  C   UNL A   1      37.405  22.699  25.396  1.00  0.00     0.116 C 
BRANCH   2   3
ATOM      3  N   UNL A   1      36.280  22.603  26.302  1.00  0.00    -0.351 N 
ATOM      4  C   UNL A   1      35.066  23.222  26.424  1.00  0.00     0.268 C 
ATOM      5  O   UNL A   1      34.406  22.844  27.395  1.00  0.00    -0.268 OA
ATOM      6  H   UNL A   1      36.422  21.924  27.000  1.00  0.00     0.163 HD
BRANCH   4   7
ATOM      7  C   UNL A   1      34.568  24.244  25.510  1.00  0.00     0.109 A 
ATOM      8  C   UNL A   1      34.157  24.057  24.178  1.00  0.00    -0.000 A 
ATOM      9  C   UNL A   1      33.832  25.346  23.627  1.00  0.00     0.004 A 
ATOM     10  N   UNL A   1      34.406  25.586  25.754  1.00  0.00    -0.350 N 
ATOM     11  C   UNL A   1      33.961  26.271  24.653  1.00  0.00     0.046 A 
ATOM     12  C   UNL A   1      33.404  25.811  22.365  1.00  0.00     0.010 A 
ATOM     13  H   UNL A   1      34.589  26.010  26.624  1.00  0.00     0.167 HD
ATOM     14  C   UNL A   1      33.662  27.631  24.500  1.00  0.00     0.027 A 
ATOM     15  C   UNL A   1      33.094  27.166  22.191  1.00  0.00     0.001 A 
ATOM     16  C   UNL A   1      33.216  28.060  23.248  1.00  0.00     0.002 A 
BRANCH   8  17
ATOM     17  C   UNL A   1      34.062  22.746  23.433  1.00  0.00     0.139 C 
BRANCH  17  18
ATOM     18  C   UNL A   1      32.656  22.147  23.439  1.00  0.00     0.231 C 
ATOM     19  O   UNL A   1      31.797  22.679  22.723  1.00  0.00    -0.274 OA
BRANCH  18  20
ATOM     20  N   UNL A   1      32.392  21.059  24.290  1.00  0.00    -0.312 N 
BRANCH  20  21
ATOM     21  C   UNL A   1      31.862  21.206  25.661  1.00  0.00     0.122 C 
ATOM     22  C   UNL A   1      31.291  22.572  26.019  1.00  0.00     0.028 C 
ENDBRANCH  20  21
BRANCH  20  23
ATOM     23  C   UNL A   1      32.773  19.738  23.882  1.00  0.00     0.044 A 
ATOM     24  C   UNL A   1      32.155  19.115  22.792  1.00  0.00     0.026 A 
ATOM     25  C   UNL A   1      33.760  19.029  24.579  1.00  0.00     0.029 A 
ATOM     26  C   UNL A   1      32.523  17.826  22.400  1.00  0.00     0.002 A 
ATOM     27  C   UNL A   1      34.128  17.727  24.205  1.00  0.00    -0.049 A 
ATOM     28  C   UNL A   1      33.505  17.133  23.105  1.00  0.00     0.003 A 
ATOM     29  C   UNL A   1      35.141  16.960  25.002  1.00  0.00     0.044 C 
ENDBRANCH  20  23
ENDBRANCH  18  20
ENDBRANCH  17  18
ENDBRANCH   8  17
ENDBRANCH   4   7
ENDBRANCH   2   3
ENDBRANCH   1   2
BRANCH   1  30
ATOM     30  C   UNL A   1      39.080  20.748  25.474  1.00  0.00     0.023 C 
BRANCH  30  31
ATOM     31  C   UNL A   1      39.645  19.774  26.508  1.00  0.00     0.116 C 
BRANCH  31  32
ATOM     32  N   UNL A   1      40.821  19.047  26.048  1.00  0.00    -0.352 N 
ATOM     33  C   UNL A   1      42.106  19.521  25.920  1.00  0.00     0.251 C 
ATOM     34  H   UNL A   1      40.679  18.105  25.798  1.00  0.00     0.163 HD
ATOM     35  O   UNL A   1      42.990  18.816  25.441  1.00  0.00    -0.269 OA
BRANCH  33  36
ATOM     36  C   UNL A   1      42.390  20.910  26.331  1.00  0.00     0.039 A 
ATOM     37  C   UNL A   1      42.639  21.184  27.678  1.00  0.00     0.014 A 
ATOM     38  C   UNL A   1      42.488  21.917  25.368  1.00  0.00     0.014 A 
ATOM     39  C   UNL A   1      43.067  22.458  28.053  1.00  0.00     0.010 A 
ATOM     40  C   UNL A   1      42.969  23.167  25.736  1.00  0.00     0.010 A 
ATOM     41  C   UNL A   1      43.272  23.446  27.078  1.00  0.00    -0.014 A 
BRANCH  41  42
ATOM     42  C   UNL A   1      43.814  24.786  27.414  1.00  0.00     0.031 A 
ATOM     43  C   UNL A   1      42.884  25.853  27.919  1.00  0.00     0.074 A 
ATOM     44  C   UNL A   1      45.097  25.081  27.127  1.00  0.00     0.049 A 
ATOM     45  N   UNL A   1      43.104  27.130  28.083  1.00  0.00    -0.248 NA
ATOM     46  C   UNL A   1      41.512  25.430  28.248  1.00  0.00     0.031 C 
ATOM     47  C   UNL A   1      46.079  24.147  26.574  1.00  0.00     0.029 A 
ATOM     48  N   UNL A   1      45.784  26.266  27.221  1.00  0.00    -0.354 N 
ATOM     49  C   UNL A   1      41.887  27.674  28.477  1.00  0.00     0.074 A 
ATOM     50  C   UNL A   1      40.929  26.590  28.514  1.00  0.00     0.031 C 
ATOM     51  C   UNL A   1      47.237  24.796  26.366  1.00  0.00     0.029 A 
ATOM     52  C   UNL A   1      47.071  26.198  26.738  1.00  0.00     0.049 A 
ATOM     53  H   UNL A   1      45.393  27.088  27.598  1.00  0.00     0.167 HD
ATOM     54  C   UNL A   1      41.600  28.955  28.801  1.00  0.00     0.034 A 
ATOM     55  C   UNL A   1      48.005  27.159  26.597  1.00  0.00     0.034 A 
ATOM     56  C   UNL A   1      42.571  30.013  28.829  1.00  0.00     0.049 A 
ATOM     57  C   UNL A   1      47.679  28.563  27.032  1.00  0.00     0.074 A 
ATOM     58  C   UNL A   1      42.401  31.328  29.221  1.00  0.00     0.029 A 
ATOM     59  N   UNL A   1      43.900  29.872  28.462  1.00  0.00    -0.354 N 
ATOM     60  N   UNL A   1      46.559  29.032  27.527  1.00  0.00    -0.248 NA
ATOM     61  C   UNL A   1      48.751  29.562  26.924  1.00  0.00     0.031 C 
ATOM     62  C   UNL A   1      43.630  31.983  29.094  1.00  0.00     0.029 A 
ATOM     63  C   UNL A   1      44.566  31.073  28.629  1.00  0.00     0.049 A 
ATOM     64  H   UNL A   1      44.311  29.041  28.131  1.00  0.00     0.167 HD
ATOM     65  C   UNL A   1      46.804  30.366  27.830  1.00  0.00     0.074 A 
ATOM     66  C   UNL A   1      48.182  30.630  27.470  1.00  0.00     0.031 C 
ATOM     67  C   UNL A   1      45.960  31.292  28.344  1.00  0.00     0.034 A 
BRANCH  54  68
ATOM     68  C   UNL A   1      40.187  29.269  29.216  1.00  0.00     0.023 A 
ATOM     69  C   UNL A   1      39.238  29.610  28.233  1.00  0.00     0.012 A 
ATOM     70  C   UNL A   1      39.788  29.184  30.563  1.00  0.00     0.148 A 
ATOM     71  C   UNL A   1      37.921  29.895  28.585  1.00  0.00     0.002 A 
ATOM     72  C   UNL A   1      38.462  29.428  30.903  1.00  0.00     0.091 A 
ATOM     73  F   UNL A   1      40.711  28.884  31.489  1.00  0.00    -0.205 F 
ATOM     74  C   UNL A   1      37.531  29.793  29.917  1.00  0.00     0.022 A 
BRANCH  72  75
ATOM     75  S   UNL A   1      37.853  29.250  32.584  1.00  0.00     0.127 S 
ATOM     76  O   UNL A   1      38.791  30.088  33.329  1.00  0.00    -0.237 OA
ATOM     77  O   UNL A   1      36.497  29.794  32.484  1.00  0.00    -0.237 OA
ATOM     78  O   UNL A   1      37.910  27.825  32.876  1.00  0.00    -0.744 OA
ENDBRANCH  72  75
ENDBRANCH  54  68
BRANCH  55  79
ATOM     79  C   UNL A   1      49.363  26.808  26.094  1.00  0.00     0.023 A 
ATOM     80  C   UNL A   1      50.212  26.029  26.906  1.00  0.00     0.012 A 
ATOM     81  C   UNL A   1      49.807  27.200  24.817  1.00  0.00     0.148 A 
ATOM     82  C   UNL A   1      51.486  25.670  26.467  1.00  0.00     0.002 A 
ATOM     83  C   UNL A   1      51.059  26.796  24.364  1.00  0.00     0.091 A 
ATOM     84  F   UNL A   1      48.993  27.953  24.063  1.00  0.00    -0.205 F 
ATOM     85  C   UNL A   1      51.906  26.044  25.193  1.00  0.00     0.022 A 
BRANCH  83  86
ATOM     86  S   UNL A   1      51.623  27.120  22.689  1.00  0.00     0.127 S 
ATOM     87  O   UNL A   1      52.793  26.251  22.594  1.00  0.00    -0.237 OA
ATOM     88  O   UNL A   1      50.473  26.695  21.890  1.00  0.00    -0.237 OA
ATOM     89  O   UNL A   1      51.885  28.552  22.640  1.00  0.00    -0.744 OA
ENDBRANCH  83  86
ENDBRANCH  55  79
BRANCH  67  90
ATOM     90  C   UNL A   1      46.503  32.670  28.612  1.00  0.00     0.023 A 
ATOM     91  C   UNL A   1      47.081  32.961  29.861  1.00  0.00     0.012 A 
ATOM     92  C   UNL A   1      46.543  33.633  27.583  1.00  0.00     0.148 A 
ATOM     93  C   UNL A   1      47.682  34.199  30.088  1.00  0.00     0.002 A 
ATOM     94  C   UNL A   1      47.180  34.848  27.805  1.00  0.00     0.091 A 
ATOM     95  F   UNL A   1      45.966  33.340  26.409  1.00  0.00    -0.205 F 
ATOM     96  C   UNL A   1      47.744  35.135  29.058  1.00  0.00     0.022 A 
BRANCH  94  97
ATOM     97  S   UNL A   1      47.386  36.074  26.507  1.00  0.00     0.127 S 
ATOM     98  O   UNL A   1      48.558  35.563  25.798  1.00  0.00    -0.237 OA
ATOM     99  O   UNL A   1      46.128  35.960  25.769  1.00  0.00    -0.237 OA
ATOM    100  O   UNL A   1      47.573  37.348  27.186  1.00  0.00    -0.744 OA
ENDBRANCH  94  97
ENDBRANCH  67  90
ENDBRANCH  41  42
ENDBRANCH  33  36
ENDBRANCH  31  32
ENDBRANCH  30  31
ENDBRANCH   1  30
TORSDOF 19
ENDMDL
