MODEL 1
REMARK VINA RESULT:     -10.9      0.000      0.000
REMARK SMILES C[C@H](Sc1ccnc(C(=O)NCCCCNC(=O)c2ccc(-c3c4nc(c(-c5cccc(S(=O)(=O)[O-])c5F)c5ccc([nH]5)c(-c5cccc(S(=O)(=O)[O-])c5F)c5nc(c(-c6cccc(S(=O)(=O)[O-])c6F)c6ccc3[nH]6)C=C5)C=C4)cc2)c1)[C@@H](C)O
REMARK SMILES IDX 13 1 12 2 11 3 9 4 10 5 8 7 4 8 5 9 82 10 6 11 7 12 3 13
REMARK SMILES IDX 2 14 1 15 83 16 84 17 85 18 14 20 15 21 16 22 17 23 18 25
REMARK SMILES IDX 19 26 20 27 81 28 21 29 80 30 22 31 23 32 24 33 74 34 25 35
REMARK SMILES IDX 79 36 73 37 75 38 26 39 78 40 72 41 71 42 27 44 59 45 39 46
REMARK SMILES IDX 58 47 40 48 43 49 57 50 76 51 41 52 42 53 56 55 77 56 44 57
REMARK SMILES IDX 28 58 29 59 37 60 30 61 32 62 38 63 31 64 33 65 34 66 35 67
REMARK SMILES IDX 36 68 60 69 61 70 69 71 62 72 64 73 70 74 63 75 65 76 66 77
REMARK SMILES IDX 67 78 68 79 45 80 46 81 54 82 47 83 49 84 55 85 48 86 50 87
REMARK SMILES IDX 51 88 52 89 53 90
REMARK H PARENT 11 6 85 19 16 24 75 43 43 54
REMARK Flexibility Score: inf
ROOT
ATOM      1  C   UNL A   1      34.723  20.533  24.959  1.00  0.00     0.023 C 
ENDROOT
BRANCH   1   2
ATOM      2  C   UNL A   1      33.241  20.787  25.248  1.00  0.00     0.116 C 
BRANCH   2   3
ATOM      3  N   UNL A   1      33.050  21.296  26.591  1.00  0.00    -0.351 N 
ATOM      4  C   UNL A   1      32.620  22.506  27.090  1.00  0.00     0.269 C 
ATOM      5  O   UNL A   1      32.530  22.582  28.318  1.00  0.00    -0.268 OA
ATOM      6  H   UNL A   1      33.275  20.643  27.293  1.00  0.00     0.163 HD
BRANCH   4   7
ATOM      7  C   UNL A   1      32.241  23.701  26.246  1.00  0.00     0.129 A 
ATOM      8  C   UNL A   1      32.537  25.916  25.324  1.00  0.00     0.011 A 
ATOM      9  C   UNL A   1      31.331  25.765  24.655  1.00  0.00     0.035 A 
ATOM     10  C   UNL A   1      32.965  24.881  26.168  1.00  0.00     0.049 A 
ATOM     11  C   UNL A   1      30.643  24.575  24.805  1.00  0.00     0.113 A 
ATOM     12  N   UNL A   1      31.078  23.549  25.559  1.00  0.00    -0.251 NA
BRANCH   8  13
ATOM     13  S   UNL A   1      33.640  27.322  25.220  1.00  0.00    -0.120 SA
BRANCH  13  14
ATOM     14  C   UNL A   1      33.604  28.118  26.880  1.00  0.00     0.077 C 
ATOM     15  C   UNL A   1      34.822  29.040  26.958  1.00  0.00     0.022 C 
BRANCH  14  16
ATOM     16  C   UNL A   1      32.286  28.901  27.101  1.00  0.00     0.124 C 
ATOM     17  C   UNL A   1      31.694  29.473  25.813  1.00  0.00     0.039 C 
BRANCH  16  18
ATOM     18  O   UNL A   1      31.299  28.033  27.678  1.00  0.00    -0.392 OA
ATOM     19  H   UNL A   1      31.484  27.917  28.624  1.00  0.00     0.210 HD
ENDBRANCH  16  18
ENDBRANCH  14  16
ENDBRANCH  13  14
ENDBRANCH   8  13
ENDBRANCH   4   7
ENDBRANCH   2   3
ENDBRANCH   1   2
BRANCH   1  20
ATOM     20  C   UNL A   1      35.528  21.790  24.614  1.00  0.00     0.023 C 
BRANCH  20  21
ATOM     21  C   UNL A   1      36.708  22.080  25.538  1.00  0.00     0.116 C 
BRANCH  21  22
ATOM     22  N   UNL A   1      37.677  20.996  25.603  1.00  0.00    -0.352 N 
ATOM     23  C   UNL A   1      38.978  21.044  26.047  1.00  0.00     0.251 C 
ATOM     24  H   UNL A   1      37.361  20.117  25.292  1.00  0.00     0.163 HD
ATOM     25  O   UNL A   1      39.699  20.057  25.958  1.00  0.00    -0.269 OA
BRANCH  23  26
ATOM     26  C   UNL A   1      39.510  22.313  26.586  1.00  0.00     0.039 A 
ATOM     27  C   UNL A   1      40.526  22.264  27.542  1.00  0.00     0.014 A 
ATOM     28  C   UNL A   1      39.039  23.541  26.115  1.00  0.00     0.014 A 
ATOM     29  C   UNL A   1      41.124  23.449  27.975  1.00  0.00     0.010 A 
ATOM     30  C   UNL A   1      39.677  24.716  26.500  1.00  0.00     0.010 A 
ATOM     31  C   UNL A   1      40.729  24.682  27.429  1.00  0.00    -0.014 A 
BRANCH  31  32
ATOM     32  C   UNL A   1      41.419  25.944  27.793  1.00  0.00     0.031 A 
ATOM     33  C   UNL A   1      40.679  27.028  28.526  1.00  0.00     0.074 A 
ATOM     34  C   UNL A   1      42.682  26.153  27.371  1.00  0.00     0.049 A 
ATOM     35  N   UNL A   1      41.092  28.221  28.866  1.00  0.00    -0.248 NA
ATOM     36  C   UNL A   1      39.283  26.747  28.901  1.00  0.00     0.031 C 
ATOM     37  C   UNL A   1      43.475  25.214  26.573  1.00  0.00     0.029 A 
ATOM     38  N   UNL A   1      43.511  27.236  27.527  1.00  0.00    -0.354 N 
ATOM     39  C   UNL A   1      40.002  28.844  29.462  1.00  0.00     0.074 A 
ATOM     40  C   UNL A   1      38.899  27.909  29.409  1.00  0.00     0.031 C 
ATOM     41  C   UNL A   1      44.673  25.761  26.310  1.00  0.00     0.029 A 
ATOM     42  C   UNL A   1      44.728  27.095  26.899  1.00  0.00     0.049 A 
ATOM     43  H   UNL A   1      43.259  28.038  28.038  1.00  0.00     0.167 HD
ATOM     44  C   UNL A   1      39.934  30.071  30.031  1.00  0.00     0.034 A 
ATOM     45  C   UNL A   1      45.770  27.946  26.808  1.00  0.00     0.034 A 
ATOM     46  C   UNL A   1      41.048  30.974  30.134  1.00  0.00     0.049 A 
ATOM     47  C   UNL A   1      45.687  29.277  27.505  1.00  0.00     0.074 A 
ATOM     48  C   UNL A   1      41.106  32.200  30.775  1.00  0.00     0.029 A 
ATOM     49  N   UNL A   1      42.300  30.751  29.583  1.00  0.00    -0.354 N 
ATOM     50  N   UNL A   1      44.703  29.778  28.212  1.00  0.00    -0.248 NA
ATOM     51  C   UNL A   1      46.872  30.144  27.427  1.00  0.00     0.031 C 
ATOM     52  C   UNL A   1      42.393  32.720  30.605  1.00  0.00     0.029 A 
ATOM     53  C   UNL A   1      43.139  31.815  29.868  1.00  0.00     0.049 A 
ATOM     54  H   UNL A   1      42.555  29.954  29.065  1.00  0.00     0.167 HD
ATOM     55  C   UNL A   1      45.161  31.001  28.689  1.00  0.00     0.074 A 
ATOM     56  C   UNL A   1      46.520  31.154  28.212  1.00  0.00     0.031 C 
ATOM     57  C   UNL A   1      44.509  31.923  29.439  1.00  0.00     0.034 A 
BRANCH  44  58
ATOM     58  C   UNL A   1      38.628  30.478  30.659  1.00  0.00     0.023 A 
ATOM     59  C   UNL A   1      38.353  30.093  31.986  1.00  0.00     0.012 A 
ATOM     60  C   UNL A   1      37.705  31.289  29.968  1.00  0.00     0.148 A 
ATOM     61  C   UNL A   1      37.168  30.481  32.609  1.00  0.00     0.002 A 
ATOM     62  C   UNL A   1      36.544  31.706  30.609  1.00  0.00     0.091 A 
ATOM     63  F   UNL A   1      37.974  31.627  28.699  1.00  0.00    -0.205 F 
ATOM     64  C   UNL A   1      36.270  31.296  31.925  1.00  0.00     0.022 A 
BRANCH  62  65
ATOM     65  S   UNL A   1      35.357  32.813  29.841  1.00  0.00     0.127 S 
ATOM     66  O   UNL A   1      34.889  32.008  28.713  1.00  0.00    -0.237 OA
ATOM     67  O   UNL A   1      34.372  32.998  30.908  1.00  0.00    -0.237 OA
ATOM     68  O   UNL A   1      36.101  34.015  29.487  1.00  0.00    -0.744 OA
ENDBRANCH  62  65
ENDBRANCH  44  58
BRANCH  45  69
ATOM     69  C   UNL A   1      47.012  27.529  26.099  1.00  0.00     0.023 A 
ATOM     70  C   UNL A   1      48.014  26.844  26.815  1.00  0.00     0.012 A 
ATOM     71  C   UNL A   1      47.200  27.782  24.727  1.00  0.00     0.148 A 
ATOM     72  C   UNL A   1      49.193  26.446  26.184  1.00  0.00     0.002 A 
ATOM     73  C   UNL A   1      48.355  27.336  24.094  1.00  0.00     0.091 A 
ATOM     74  F   UNL A   1      46.244  28.450  24.065  1.00  0.00    -0.205 F 
ATOM     75  C   UNL A   1      49.360  26.682  24.823  1.00  0.00     0.022 A 
BRANCH  73  76
ATOM     76  S   UNL A   1      48.585  27.485  22.318  1.00  0.00     0.127 S 
ATOM     77  O   UNL A   1      47.408  28.252  21.925  1.00  0.00    -0.237 OA
ATOM     78  O   UNL A   1      49.853  28.214  22.231  1.00  0.00    -0.237 OA
ATOM     79  O   UNL A   1      48.653  26.116  21.823  1.00  0.00    -0.744 OA
ENDBRANCH  73  76
ENDBRANCH  45  69
BRANCH  57  80
ATOM     80  C   UNL A   1      45.259  33.172  29.818  1.00  0.00     0.023 A 
ATOM     81  C   UNL A   1      46.085  33.167  30.958  1.00  0.00     0.012 A 
ATOM     82  C   UNL A   1      45.210  34.319  29.001  1.00  0.00     0.148 A 
ATOM     83  C   UNL A   1      46.831  34.295  31.296  1.00  0.00     0.002 A 
ATOM     84  C   UNL A   1      45.990  35.424  29.320  1.00  0.00     0.091 A 
ATOM     85  F   UNL A   1      44.400  34.311  27.932  1.00  0.00    -0.205 F 
ATOM     86  C   UNL A   1      46.794  35.417  30.471  1.00  0.00     0.022 A 
BRANCH  84  87
ATOM     87  S   UNL A   1      46.073  36.875  28.263  1.00  0.00     0.127 S 
ATOM     88  O   UNL A   1      44.660  37.218  28.117  1.00  0.00    -0.237 OA
ATOM     89  O   UNL A   1      46.847  37.813  29.077  1.00  0.00    -0.237 OA
ATOM     90  O   UNL A   1      46.744  36.441  27.045  1.00  0.00    -0.744 OA
ENDBRANCH  84  87
ENDBRANCH  57  80
ENDBRANCH  31  32
ENDBRANCH  23  26
ENDBRANCH  21  22
ENDBRANCH  20  21
ENDBRANCH   1  20
TORSDOF 18
ENDMDL
MODEL 2
REMARK VINA RESULT:     -10.9      5.438     10.675
REMARK SMILES C[C@H](Sc1ccnc(C(=O)NCCCCNC(=O)c2ccc(-c3c4nc(c(-c5cccc(S(=O)(=O)[O-])c5F)c5ccc([nH]5)c(-c5cccc(S(=O)(=O)[O-])c5F)c5nc(c(-c6cccc(S(=O)(=O)[O-])c6F)c6ccc3[nH]6)C=C5)C=C4)cc2)c1)[C@@H](C)O
REMARK SMILES IDX 13 1 12 2 11 3 9 4 10 5 8 7 4 8 5 9 82 10 6 11 7 12 3 13
REMARK SMILES IDX 2 14 1 15 83 16 84 17 85 18 14 20 15 21 16 22 17 23 18 25
REMARK SMILES IDX 19 26 20 27 81 28 21 29 80 30 22 31 23 32 24 33 74 34 25 35
REMARK SMILES IDX 79 36 73 37 75 38 26 39 78 40 72 41 71 42 27 44 59 45 39 46
REMARK SMILES IDX 58 47 40 48 43 49 57 50 76 51 41 52 42 53 56 55 77 56 44 57
REMARK SMILES IDX 28 58 29 59 37 60 30 61 32 62 38 63 31 64 33 65 34 66 35 67
REMARK SMILES IDX 36 68 60 69 61 70 69 71 62 72 64 73 70 74 63 75 65 76 66 77
REMARK SMILES IDX 67 78 68 79 45 80 46 81 54 82 47 83 49 84 55 85 48 86 50 87
REMARK SMILES IDX 51 88 52 89 53 90
REMARK H PARENT 11 6 85 19 16 24 75 43 43 54
REMARK Flexibility Score: inf
ROOT
ATOM      1  C   UNL A   1      31.754  29.606  26.314  1.00  0.00     0.023 C 
ENDROOT
BRANCH   1   2
ATOM      2  C   UNL A   1      32.034  28.497  27.332  1.00  0.00     0.116 C 
BRANCH   2   3
ATOM      3  N   UNL A   1      31.083  27.411  27.198  1.00  0.00    -0.351 N 
ATOM      4  C   UNL A   1      31.075  26.249  26.460  1.00  0.00     0.269 C 
ATOM      5  O   UNL A   1      30.101  25.510  26.626  1.00  0.00    -0.268 OA
ATOM      6  H   UNL A   1      30.274  27.531  27.747  1.00  0.00     0.163 HD
BRANCH   4   7
ATOM      7  C   UNL A   1      32.167  25.826  25.504  1.00  0.00     0.129 A 
ATOM      8  C   UNL A   1      34.282  24.825  24.895  1.00  0.00     0.011 A 
ATOM      9  C   UNL A   1      34.032  25.175  23.576  1.00  0.00     0.035 A 
ATOM     10  C   UNL A   1      33.350  25.205  25.873  1.00  0.00     0.049 A 
ATOM     11  C   UNL A   1      32.847  25.825  23.284  1.00  0.00     0.113 A 
ATOM     12  N   UNL A   1      31.916  26.134  24.204  1.00  0.00    -0.251 NA
BRANCH   8  13
ATOM     13  S   UNL A   1      35.697  23.912  25.502  1.00  0.00    -0.120 SA
BRANCH  13  14
ATOM     14  C   UNL A   1      35.656  22.285  24.639  1.00  0.00     0.077 C 
ATOM     15  C   UNL A   1      37.065  22.034  24.098  1.00  0.00     0.022 C 
BRANCH  14  16
ATOM     16  C   UNL A   1      35.206  21.152  25.595  1.00  0.00     0.124 C 
ATOM     17  C   UNL A   1      33.690  20.975  25.658  1.00  0.00     0.039 C 
BRANCH  16  18
ATOM     18  O   UNL A   1      35.767  19.903  25.163  1.00  0.00    -0.392 OA
ATOM     19  H   UNL A   1      35.058  19.330  24.829  1.00  0.00     0.210 HD
ENDBRANCH  16  18
ENDBRANCH  14  16
ENDBRANCH  13  14
ENDBRANCH   8  13
ENDBRANCH   4   7
ENDBRANCH   2   3
ENDBRANCH   1   2
BRANCH   1  20
ATOM     20  C   UNL A   1      31.551  30.995  26.928  1.00  0.00     0.023 C 
BRANCH  20  21
ATOM     21  C   UNL A   1      32.551  32.057  26.476  1.00  0.00     0.116 C 
BRANCH  21  22
ATOM     22  N   UNL A   1      32.340  33.357  27.096  1.00  0.00    -0.352 N 
ATOM     23  C   UNL A   1      33.092  33.965  28.074  1.00  0.00     0.251 C 
ATOM     24  H   UNL A   1      31.561  33.866  26.774  1.00  0.00     0.163 HD
ATOM     25  O   UNL A   1      32.732  35.032  28.558  1.00  0.00    -0.269 OA
BRANCH  23  26
ATOM     26  C   UNL A   1      34.312  33.292  28.568  1.00  0.00     0.039 A 
ATOM     27  C   UNL A   1      35.527  33.978  28.514  1.00  0.00     0.014 A 
ATOM     28  C   UNL A   1      34.245  32.012  29.123  1.00  0.00     0.014 A 
ATOM     29  C   UNL A   1      36.667  33.408  29.084  1.00  0.00     0.010 A 
ATOM     30  C   UNL A   1      35.366  31.473  29.746  1.00  0.00     0.010 A 
ATOM     31  C   UNL A   1      36.586  32.167  29.738  1.00  0.00    -0.014 A 
BRANCH  31  32
ATOM     32  C   UNL A   1      37.757  31.589  30.443  1.00  0.00     0.031 A 
ATOM     33  C   UNL A   1      38.595  30.532  29.779  1.00  0.00     0.074 A 
ATOM     34  C   UNL A   1      38.001  31.943  31.721  1.00  0.00     0.049 A 
ATOM     35  N   UNL A   1      39.609  29.862  30.262  1.00  0.00    -0.248 NA
ATOM     36  C   UNL A   1      38.229  30.156  28.403  1.00  0.00     0.031 C 
ATOM     37  C   UNL A   1      37.204  32.891  32.504  1.00  0.00     0.029 A 
ATOM     38  N   UNL A   1      38.971  31.524  32.597  1.00  0.00    -0.354 N 
ATOM     39  C   UNL A   1      39.980  28.965  29.267  1.00  0.00     0.074 A 
ATOM     40  C   UNL A   1      39.062  29.153  28.165  1.00  0.00     0.031 C 
ATOM     41  C   UNL A   1      37.718  32.981  33.742  1.00  0.00     0.029 A 
ATOM     42  C   UNL A   1      38.863  32.083  33.850  1.00  0.00     0.049 A 
ATOM     43  H   UNL A   1      39.677  30.883  32.353  1.00  0.00     0.167 HD
ATOM     44  C   UNL A   1      41.011  28.088  29.259  1.00  0.00     0.034 A 
ATOM     45  C   UNL A   1      39.604  31.893  34.960  1.00  0.00     0.034 A 
ATOM     46  C   UNL A   1      41.956  27.945  30.333  1.00  0.00     0.049 A 
ATOM     47  C   UNL A   1      40.781  30.958  34.899  1.00  0.00     0.074 A 
ATOM     48  C   UNL A   1      43.090  27.152  30.382  1.00  0.00     0.029 A 
ATOM     49  N   UNL A   1      41.880  28.610  31.547  1.00  0.00    -0.354 N 
ATOM     50  N   UNL A   1      41.218  30.245  33.890  1.00  0.00    -0.248 NA
ATOM     51  C   UNL A   1      41.593  30.832  36.119  1.00  0.00     0.031 C 
ATOM     52  C   UNL A   1      43.696  27.335  31.629  1.00  0.00     0.029 A 
ATOM     53  C   UNL A   1      42.946  28.248  32.352  1.00  0.00     0.049 A 
ATOM     54  H   UNL A   1      41.173  29.247  31.798  1.00  0.00     0.167 HD
ATOM     55  C   UNL A   1      42.371  29.613  34.340  1.00  0.00     0.074 A 
ATOM     56  C   UNL A   1      42.580  30.046  35.706  1.00  0.00     0.031 C 
ATOM     57  C   UNL A   1      43.174  28.737  33.687  1.00  0.00     0.034 A 
BRANCH  44  58
ATOM     58  C   UNL A   1      41.219  27.266  28.016  1.00  0.00     0.023 A 
ATOM     59  C   UNL A   1      41.835  27.858  26.895  1.00  0.00     0.012 A 
ATOM     60  C   UNL A   1      40.867  25.903  27.972  1.00  0.00     0.148 A 
ATOM     61  C   UNL A   1      42.073  27.116  25.739  1.00  0.00     0.002 A 
ATOM     62  C   UNL A   1      41.143  25.158  26.830  1.00  0.00     0.091 A 
ATOM     63  F   UNL A   1      40.261  25.363  29.039  1.00  0.00    -0.205 F 
ATOM     64  C   UNL A   1      41.737  25.765  25.711  1.00  0.00     0.022 A 
BRANCH  62  65
ATOM     65  S   UNL A   1      40.814  23.396  26.718  1.00  0.00     0.127 S 
ATOM     66  O   UNL A   1      39.384  23.382  26.410  1.00  0.00    -0.237 OA
ATOM     67  O   UNL A   1      41.680  22.990  25.611  1.00  0.00    -0.237 OA
ATOM     68  O   UNL A   1      41.182  22.837  28.012  1.00  0.00    -0.744 OA
ENDBRANCH  62  65
ENDBRANCH  44  58
BRANCH  45  69
ATOM     69  C   UNL A   1      39.304  32.668  36.197  1.00  0.00     0.023 A 
ATOM     70  C   UNL A   1      39.890  33.937  36.370  1.00  0.00     0.012 A 
ATOM     71  C   UNL A   1      38.433  32.173  37.185  1.00  0.00     0.148 A 
ATOM     72  C   UNL A   1      39.637  34.687  37.520  1.00  0.00     0.002 A 
ATOM     73  C   UNL A   1      38.144  32.948  38.303  1.00  0.00     0.091 A 
ATOM     74  F   UNL A   1      37.897  30.956  37.012  1.00  0.00    -0.205 F 
ATOM     75  C   UNL A   1      38.758  34.198  38.481  1.00  0.00     0.022 A 
BRANCH  73  76
ATOM     76  S   UNL A   1      36.922  32.446  39.521  1.00  0.00     0.127 S 
ATOM     77  O   UNL A   1      35.689  32.482  38.741  1.00  0.00    -0.237 OA
ATOM     78  O   UNL A   1      37.381  31.104  39.886  1.00  0.00    -0.237 OA
ATOM     79  O   UNL A   1      37.028  33.423  40.597  1.00  0.00    -0.744 OA
ENDBRANCH  73  76
ENDBRANCH  45  69
BRANCH  57  80
ATOM     80  C   UNL A   1      44.372  28.204  34.427  1.00  0.00     0.023 A 
ATOM     81  C   UNL A   1      45.586  28.916  34.387  1.00  0.00     0.012 A 
ATOM     82  C   UNL A   1      44.272  27.047  35.225  1.00  0.00     0.148 A 
ATOM     83  C   UNL A   1      46.692  28.470  35.109  1.00  0.00     0.002 A 
ATOM     84  C   UNL A   1      45.365  26.633  35.976  1.00  0.00     0.091 A 
ATOM     85  F   UNL A   1      43.113  26.372  35.232  1.00  0.00    -0.205 F 
ATOM     86  C   UNL A   1      46.578  27.338  35.913  1.00  0.00     0.022 A 
BRANCH  84  87
ATOM     87  S   UNL A   1      45.277  25.241  37.109  1.00  0.00     0.127 S 
ATOM     88  O   UNL A   1      44.231  25.674  38.033  1.00  0.00    -0.237 OA
ATOM     89  O   UNL A   1      44.892  24.140  36.225  1.00  0.00    -0.237 OA
ATOM     90  O   UNL A   1      46.610  25.112  37.683  1.00  0.00    -0.744 OA
ENDBRANCH  84  87
ENDBRANCH  57  80
ENDBRANCH  31  32
ENDBRANCH  23  26
ENDBRANCH  21  22
ENDBRANCH  20  21
ENDBRANCH   1  20
TORSDOF 18
ENDMDL
MODEL 3
REMARK VINA RESULT:     -10.8      5.960     11.031
REMARK SMILES C[C@H](Sc1ccnc(C(=O)NCCCCNC(=O)c2ccc(-c3c4nc(c(-c5cccc(S(=O)(=O)[O-])c5F)c5ccc([nH]5)c(-c5cccc(S(=O)(=O)[O-])c5F)c5nc(c(-c6cccc(S(=O)(=O)[O-])c6F)c6ccc3[nH]6)C=C5)C=C4)cc2)c1)[C@@H](C)O
REMARK SMILES IDX 13 1 12 2 11 3 9 4 10 5 8 7 4 8 5 9 82 10 6 11 7 12 3 13
REMARK SMILES IDX 2 14 1 15 83 16 84 17 85 18 14 20 15 21 16 22 17 23 18 25
REMARK SMILES IDX 19 26 20 27 81 28 21 29 80 30 22 31 23 32 24 33 74 34 25 35
REMARK SMILES IDX 79 36 73 37 75 38 26 39 78 40 72 41 71 42 27 44 59 45 39 46
REMARK SMILES IDX 58 47 40 48 43 49 57 50 76 51 41 52 42 53 56 55 77 56 44 57
REMARK SMILES IDX 28 58 29 59 37 60 30 61 32 62 38 63 31 64 33 65 34 66 35 67
REMARK SMILES IDX 36 68 60 69 61 70 69 71 62 72 64 73 70 74 63 75 65 76 66 77
REMARK SMILES IDX 67 78 68 79 45 80 46 81 54 82 47 83 49 84 55 85 48 86 50 87
REMARK SMILES IDX 51 88 52 89 53 90
REMARK H PARENT 11 6 85 19 16 24 75 43 43 54
REMARK Flexibility Score: inf
ROOT
ATOM      1  C   UNL A   1      32.175  30.364  26.117  1.00  0.00     0.023 C 
ENDROOT
BRANCH   1   2
ATOM      2  C   UNL A   1      32.796  29.134  26.784  1.00  0.00     0.116 C 
BRANCH   2   3
ATOM      3  N   UNL A   1      31.814  28.084  26.962  1.00  0.00    -0.351 N 
ATOM      4  C   UNL A   1      31.532  26.927  26.271  1.00  0.00     0.269 C 
ATOM      5  O   UNL A   1      30.635  26.222  26.740  1.00  0.00    -0.268 OA
ATOM      6  H   UNL A   1      31.224  28.229  27.738  1.00  0.00     0.163 HD
BRANCH   4   7
ATOM      7  C   UNL A   1      32.252  26.472  25.022  1.00  0.00     0.129 A 
ATOM      8  C   UNL A   1      33.676  25.016  23.720  1.00  0.00     0.011 A 
ATOM      9  C   UNL A   1      33.485  25.855  22.631  1.00  0.00     0.035 A 
ATOM     10  C   UNL A   1      33.085  25.366  24.942  1.00  0.00     0.049 A 
ATOM     11  C   UNL A   1      32.670  26.960  22.791  1.00  0.00     0.113 A 
ATOM     12  N   UNL A   1      32.043  27.268  23.940  1.00  0.00    -0.251 NA
BRANCH   8  13
ATOM     13  S   UNL A   1      34.614  23.491  23.733  1.00  0.00    -0.120 SA
BRANCH  13  14
ATOM     14  C   UNL A   1      33.821  22.421  25.005  1.00  0.00     0.077 C 
ATOM     15  C   UNL A   1      33.554  21.067  24.344  1.00  0.00     0.022 C 
BRANCH  14  16
ATOM     16  C   UNL A   1      34.722  22.271  26.257  1.00  0.00     0.124 C 
ATOM     17  C   UNL A   1      33.943  22.269  27.571  1.00  0.00     0.039 C 
BRANCH  16  18
ATOM     18  O   UNL A   1      35.447  21.035  26.186  1.00  0.00    -0.392 OA
ATOM     19  H   UNL A   1      34.989  20.426  25.584  1.00  0.00     0.210 HD
ENDBRANCH  16  18
ENDBRANCH  14  16
ENDBRANCH  13  14
ENDBRANCH   8  13
ENDBRANCH   4   7
ENDBRANCH   2   3
ENDBRANCH   1   2
BRANCH   1  20
ATOM     20  C   UNL A   1      31.873  31.522  27.075  1.00  0.00     0.023 C 
BRANCH  20  21
ATOM     21  C   UNL A   1      33.041  32.469  27.339  1.00  0.00     0.116 C 
BRANCH  21  22
ATOM     22  N   UNL A   1      32.631  33.838  27.612  1.00  0.00    -0.352 N 
ATOM     23  C   UNL A   1      33.149  34.712  28.540  1.00  0.00     0.251 C 
ATOM     24  H   UNL A   1      31.889  34.183  27.064  1.00  0.00     0.163 HD
ATOM     25  O   UNL A   1      32.634  35.811  28.710  1.00  0.00    -0.269 OA
BRANCH  23  26
ATOM     26  C   UNL A   1      34.303  34.291  29.361  1.00  0.00     0.039 A 
ATOM     27  C   UNL A   1      34.067  33.572  30.534  1.00  0.00     0.014 A 
ATOM     28  C   UNL A   1      35.610  34.564  28.948  1.00  0.00     0.014 A 
ATOM     29  C   UNL A   1      35.145  33.062  31.260  1.00  0.00     0.010 A 
ATOM     30  C   UNL A   1      36.680  34.001  29.637  1.00  0.00     0.010 A 
ATOM     31  C   UNL A   1      36.458  33.241  30.796  1.00  0.00    -0.014 A 
BRANCH  31  32
ATOM     32  C   UNL A   1      37.614  32.620  31.490  1.00  0.00     0.031 A 
ATOM     33  C   UNL A   1      38.341  31.462  30.864  1.00  0.00     0.074 A 
ATOM     34  C   UNL A   1      37.940  33.034  32.731  1.00  0.00     0.049 A 
ATOM     35  N   UNL A   1      39.324  30.749  31.350  1.00  0.00    -0.248 NA
ATOM     36  C   UNL A   1      37.887  31.031  29.532  1.00  0.00     0.031 C 
ATOM     37  C   UNL A   1      37.251  34.086  33.482  1.00  0.00     0.029 A 
ATOM     38  N   UNL A   1      38.915  32.597  33.594  1.00  0.00    -0.354 N 
ATOM     39  C   UNL A   1      39.582  29.766  30.402  1.00  0.00     0.074 A 
ATOM     40  C   UNL A   1      38.633  29.954  29.327  1.00  0.00     0.031 C 
ATOM     41  C   UNL A   1      37.824  34.213  34.690  1.00  0.00     0.029 A 
ATOM     42  C   UNL A   1      38.904  33.239  34.811  1.00  0.00     0.049 A 
ATOM     43  H   UNL A   1      39.560  31.889  33.365  1.00  0.00     0.167 HD
ATOM     44  C   UNL A   1      40.545  28.813  30.410  1.00  0.00     0.034 A 
ATOM     45  C   UNL A   1      39.677  33.063  35.900  1.00  0.00     0.034 A 
ATOM     46  C   UNL A   1      41.524  28.666  31.453  1.00  0.00     0.049 A 
ATOM     47  C   UNL A   1      40.779  32.039  35.855  1.00  0.00     0.074 A 
ATOM     48  C   UNL A   1      42.596  27.793  31.508  1.00  0.00     0.029 A 
ATOM     49  N   UNL A   1      41.551  29.409  32.622  1.00  0.00    -0.354 N 
ATOM     50  N   UNL A   1      41.116  31.233  34.878  1.00  0.00    -0.248 NA
ATOM     51  C   UNL A   1      41.633  31.927  37.047  1.00  0.00     0.031 C 
ATOM     52  C   UNL A   1      43.270  28.006  32.716  1.00  0.00     0.029 A 
ATOM     53  C   UNL A   1      42.622  29.018  33.407  1.00  0.00     0.049 A 
ATOM     54  H   UNL A   1      40.905  30.113  32.859  1.00  0.00     0.167 HD
ATOM     55  C   UNL A   1      42.238  30.543  35.322  1.00  0.00     0.074 A 
ATOM     56  C   UNL A   1      42.539  31.044  36.647  1.00  0.00     0.031 C 
ATOM     57  C   UNL A   1      42.945  29.570  34.697  1.00  0.00     0.034 A 
BRANCH  44  58
ATOM     58  C   UNL A   1      40.635  27.902  29.216  1.00  0.00     0.023 A 
ATOM     59  C   UNL A   1      39.783  26.782  29.139  1.00  0.00     0.012 A 
ATOM     60  C   UNL A   1      41.509  28.180  28.146  1.00  0.00     0.148 A 
ATOM     61  C   UNL A   1      39.818  25.936  28.032  1.00  0.00     0.002 A 
ATOM     62  C   UNL A   1      41.510  27.355  27.027  1.00  0.00     0.091 A 
ATOM     63  F   UNL A   1      42.328  29.237  28.247  1.00  0.00    -0.205 F 
ATOM     64  C   UNL A   1      40.672  26.228  26.973  1.00  0.00     0.022 A 
BRANCH  62  65
ATOM     65  S   UNL A   1      42.522  27.684  25.580  1.00  0.00     0.127 S 
ATOM     66  O   UNL A   1      43.864  27.717  26.160  1.00  0.00    -0.237 OA
ATOM     67  O   UNL A   1      42.249  26.517  24.741  1.00  0.00    -0.237 OA
ATOM     68  O   UNL A   1      42.043  28.948  25.036  1.00  0.00    -0.744 OA
ENDBRANCH  62  65
ENDBRANCH  44  58
BRANCH  45  69
ATOM     69  C   UNL A   1      39.491  33.933  37.095  1.00  0.00     0.023 A 
ATOM     70  C   UNL A   1      39.915  35.276  37.038  1.00  0.00     0.012 A 
ATOM     71  C   UNL A   1      38.881  33.456  38.270  1.00  0.00     0.148 A 
ATOM     72  C   UNL A   1      39.762  36.118  38.142  1.00  0.00     0.002 A 
ATOM     73  C   UNL A   1      38.685  34.314  39.346  1.00  0.00     0.091 A 
ATOM     74  F   UNL A   1      38.499  32.171  38.313  1.00  0.00    -0.205 F 
ATOM     75  C   UNL A   1      39.139  35.641  39.290  1.00  0.00     0.022 A 
BRANCH  73  76
ATOM     76  S   UNL A   1      37.774  33.813  40.811  1.00  0.00     0.127 S 
ATOM     77  O   UNL A   1      36.577  33.213  40.230  1.00  0.00    -0.237 OA
ATOM     78  O   UNL A   1      38.696  32.864  41.440  1.00  0.00    -0.237 OA
ATOM     79  O   UNL A   1      37.571  35.037  41.575  1.00  0.00    -0.744 OA
ENDBRANCH  73  76
ENDBRANCH  45  69
BRANCH  57  80
ATOM     80  C   UNL A   1      44.132  28.994  35.421  1.00  0.00     0.023 A 
ATOM     81  C   UNL A   1      45.406  29.561  35.227  1.00  0.00     0.012 A 
ATOM     82  C   UNL A   1      43.972  27.950  36.353  1.00  0.00     0.148 A 
ATOM     83  C   UNL A   1      46.509  29.078  35.930  1.00  0.00     0.002 A 
ATOM     84  C   UNL A   1      45.068  27.504  37.082  1.00  0.00     0.091 A 
ATOM     85  F   UNL A   1      42.754  27.410  36.509  1.00  0.00    -0.205 F 
ATOM     86  C   UNL A   1      46.339  28.061  36.866  1.00  0.00     0.022 A 
BRANCH  84  87
ATOM     87  S   UNL A   1      44.919  26.262  38.373  1.00  0.00     0.127 S 
ATOM     88  O   UNL A   1      43.545  26.469  38.828  1.00  0.00    -0.237 OA
ATOM     89  O   UNL A   1      45.138  25.017  37.637  1.00  0.00    -0.237 OA
ATOM     90  O   UNL A   1      45.958  26.576  39.346  1.00  0.00    -0.744 OA
ENDBRANCH  84  87
ENDBRANCH  57  80
ENDBRANCH  31  32
ENDBRANCH  23  26
ENDBRANCH  21  22
ENDBRANCH  20  21
ENDBRANCH   1  20
TORSDOF 18
ENDMDL
