MODEL 1
REMARK VINA RESULT:     -11.8      0.000      0.000
REMARK SMILES CC[C@]1(C(=O)NCCCCNC(=O)c2ccc(-c3c4nc(c(-c5cccc(S(=O)(=O)[O-])c5F)c5ccc([nH]5)c(-c5cccc(S(=O)(=O)[O-])c5F)c5nc(c(-c6cccc(S(=O)(=O)[O-])c6F)c6ccc3[nH]6)C=C5)C=C4)cc2)CCC[N@@H+](Cc2cc(OC)ccc2F)C1
REMARK SMILES IDX 8 1 7 2 6 3 4 4 5 5 3 7 77 8 91 9 78 10 80 11 79 12 2 14
REMARK SMILES IDX 1 15 81 16 82 17 83 18 89 19 84 20 88 21 90 22 87 23 85 24
REMARK SMILES IDX 86 25 9 26 10 27 11 28 12 29 13 31 14 32 15 33 76 34 16 35
REMARK SMILES IDX 75 36 17 37 18 38 19 39 69 40 20 41 74 42 68 43 70 44 21 45
REMARK SMILES IDX 73 46 67 47 66 48 22 50 54 51 34 52 53 53 35 54 38 55 52 56
REMARK SMILES IDX 71 57 36 58 37 59 51 61 72 62 39 63 23 64 24 65 32 66 25 67
REMARK SMILES IDX 27 68 33 69 26 70 28 71 29 72 30 73 31 74 55 75 56 76 64 77
REMARK SMILES IDX 57 78 59 79 65 80 58 81 60 82 61 83 62 84 63 85 40 86 41 87
REMARK SMILES IDX 49 88 42 89 44 90 50 91 43 92 45 93 46 94 47 95 48 96
REMARK H PARENT 6 6 80 13 11 30 70 49 38 60
REMARK Flexibility Score: inf
ROOT
ATOM      1  C   UNL A   1      32.133  30.524  26.422  1.00  0.00     0.023 C 
ENDROOT
BRANCH   1   2
ATOM      2  C   UNL A   1      31.304  30.027  25.243  1.00  0.00     0.116 C 
BRANCH   2   3
ATOM      3  N   UNL A   1      32.141  29.674  24.105  1.00  0.00    -0.355 N 
ATOM      4  C   UNL A   1      32.571  28.476  23.610  1.00  0.00     0.231 C 
ATOM      5  O   UNL A   1      33.372  28.543  22.674  1.00  0.00    -0.274 OA
ATOM      6  H   UNL A   1      32.459  30.451  23.591  1.00  0.00     0.163 HD
BRANCH   4   7
ATOM      7  C   UNL A   1      32.103  27.119  24.194  1.00  0.00     0.098 C 
ATOM      8  C   UNL A   1      30.558  27.035  24.041  1.00  0.00     0.028 C 
ATOM      9  C   UNL A   1      32.828  25.974  23.436  1.00  0.00     0.279 C 
ATOM     10  C   UNL A   1      30.026  25.607  24.103  1.00  0.00     0.063 C 
ATOM     11  N   UNL A   1      32.204  24.643  23.503  1.00  0.00    -0.330 N 
ATOM     12  C   UNL A   1      30.784  24.672  23.162  1.00  0.00     0.262 C 
ATOM     13  H   UNL A   1      32.246  24.349  24.479  1.00  0.00     0.348 HD
BRANCH   7  14
ATOM     14  C   UNL A   1      32.410  27.026  25.729  1.00  0.00     0.019 C 
ATOM     15  C   UNL A   1      33.869  27.134  26.173  1.00  0.00     0.005 C 
ENDBRANCH   7  14
BRANCH  11  16
ATOM     16  C   UNL A   1      32.968  23.626  22.741  1.00  0.00     0.302 C 
BRANCH  16  17
ATOM     17  C   UNL A   1      33.837  22.650  23.513  1.00  0.00     0.046 A 
ATOM     18  C   UNL A   1      35.213  22.884  23.683  1.00  0.00     0.059 A 
ATOM     19  C   UNL A   1      33.318  21.457  24.030  1.00  0.00     0.132 A 
ATOM     20  C   UNL A   1      36.025  21.961  24.360  1.00  0.00     0.119 A 
ATOM     21  C   UNL A   1      34.095  20.585  24.786  1.00  0.00     0.043 A 
ATOM     22  F   UNL A   1      32.043  21.118  23.800  1.00  0.00    -0.206 F 
ATOM     23  C   UNL A   1      35.451  20.841  24.963  1.00  0.00     0.049 A 
BRANCH  20  24
ATOM     24  O   UNL A   1      37.365  22.244  24.371  1.00  0.00    -0.497 OA
ATOM     25  C   UNL A   1      38.100  21.644  25.439  1.00  0.00     0.278 C 
ENDBRANCH  20  24
ENDBRANCH  16  17
ENDBRANCH  11  16
ENDBRANCH   4   7
ENDBRANCH   2   3
ENDBRANCH   1   2
BRANCH   1  26
ATOM     26  C   UNL A   1      31.815  31.952  26.858  1.00  0.00     0.023 C 
BRANCH  26  27
ATOM     27  C   UNL A   1      33.021  32.777  27.292  1.00  0.00     0.116 C 
BRANCH  27  28
ATOM     28  N   UNL A   1      32.665  34.120  27.735  1.00  0.00    -0.352 N 
ATOM     29  C   UNL A   1      33.185  34.844  28.780  1.00  0.00     0.251 C 
ATOM     30  H   UNL A   1      31.959  34.567  27.215  1.00  0.00     0.163 HD
ATOM     31  O   UNL A   1      32.685  35.921  29.096  1.00  0.00    -0.269 OA
BRANCH  29  32
ATOM     32  C   UNL A   1      34.335  34.305  29.534  1.00  0.00     0.039 A 
ATOM     33  C   UNL A   1      34.103  33.548  30.684  1.00  0.00     0.014 A 
ATOM     34  C   UNL A   1      35.638  34.515  29.073  1.00  0.00     0.014 A 
ATOM     35  C   UNL A   1      35.179  32.943  31.338  1.00  0.00     0.010 A 
ATOM     36  C   UNL A   1      36.696  33.846  29.679  1.00  0.00     0.010 A 
ATOM     37  C   UNL A   1      36.480  33.059  30.820  1.00  0.00    -0.014 A 
BRANCH  37  38
ATOM     38  C   UNL A   1      37.631  32.364  31.450  1.00  0.00     0.031 A 
ATOM     39  C   UNL A   1      38.175  32.847  32.766  1.00  0.00     0.074 A 
ATOM     40  C   UNL A   1      38.246  31.361  30.793  1.00  0.00     0.049 A 
ATOM     41  N   UNL A   1      39.204  32.410  33.444  1.00  0.00    -0.248 NA
ATOM     42  C   UNL A   1      37.493  33.994  33.387  1.00  0.00     0.031 C 
ATOM     43  C   UNL A   1      37.864  30.852  29.475  1.00  0.00     0.029 A 
ATOM     44  N   UNL A   1      39.340  30.606  31.136  1.00  0.00    -0.354 N 
ATOM     45  C   UNL A   1      39.315  33.248  34.548  1.00  0.00     0.074 A 
ATOM     46  C   UNL A   1      38.276  34.246  34.424  1.00  0.00     0.031 C 
ATOM     47  C   UNL A   1      38.697  29.858  29.129  1.00  0.00     0.029 A 
ATOM     48  C   UNL A   1      39.689  29.677  30.184  1.00  0.00     0.049 A 
ATOM     49  H   UNL A   1      39.827  30.718  31.985  1.00  0.00     0.167 HD
ATOM     50  C   UNL A   1      40.179  33.175  35.589  1.00  0.00     0.034 A 
ATOM     51  C   UNL A   1      40.695  28.779  30.165  1.00  0.00     0.034 A 
ATOM     52  C   UNL A   1      41.183  32.156  35.729  1.00  0.00     0.049 A 
ATOM     53  C   UNL A   1      41.623  28.696  31.347  1.00  0.00     0.074 A 
ATOM     54  C   UNL A   1      42.049  31.938  36.785  1.00  0.00     0.029 A 
ATOM     55  N   UNL A   1      41.462  31.185  34.778  1.00  0.00    -0.354 N 
ATOM     56  N   UNL A   1      41.612  29.394  32.456  1.00  0.00    -0.248 NA
ATOM     57  C   UNL A   1      42.681  27.677  31.287  1.00  0.00     0.031 C 
ATOM     58  C   UNL A   1      42.865  30.848  36.463  1.00  0.00     0.029 A 
ATOM     59  C   UNL A   1      42.492  30.371  35.216  1.00  0.00     0.049 A 
ATOM     60  H   UNL A   1      40.995  31.090  33.916  1.00  0.00     0.167 HD
ATOM     61  C   UNL A   1      42.633  28.875  33.244  1.00  0.00     0.074 A 
ATOM     62  C   UNL A   1      43.232  27.793  32.489  1.00  0.00     0.031 C 
ATOM     63  C   UNL A   1      43.045  29.265  34.476  1.00  0.00     0.034 A 
BRANCH  50  64
ATOM     64  C   UNL A   1      40.030  34.202  36.682  1.00  0.00     0.023 A 
ATOM     65  C   UNL A   1      40.423  35.536  36.440  1.00  0.00     0.012 A 
ATOM     66  C   UNL A   1      39.493  33.861  37.937  1.00  0.00     0.148 A 
ATOM     67  C   UNL A   1      40.332  36.499  37.443  1.00  0.00     0.002 A 
ATOM     68  C   UNL A   1      39.362  34.838  38.918  1.00  0.00     0.091 A 
ATOM     69  F   UNL A   1      39.148  32.585  38.163  1.00  0.00    -0.205 F 
ATOM     70  C   UNL A   1      39.795  36.152  38.679  1.00  0.00     0.022 A 
BRANCH  68  71
ATOM     71  S   UNL A   1      38.606  34.502  40.514  1.00  0.00     0.127 S 
ATOM     72  O   UNL A   1      39.709  33.870  41.236  1.00  0.00    -0.237 OA
ATOM     73  O   UNL A   1      38.261  35.845  40.984  1.00  0.00    -0.237 OA
ATOM     74  O   UNL A   1      37.460  33.648  40.237  1.00  0.00    -0.744 OA
ENDBRANCH  68  71
ENDBRANCH  50  64
BRANCH  51  75
ATOM     75  C   UNL A   1      40.809  27.821  29.029  1.00  0.00     0.023 A 
ATOM     76  C   UNL A   1      39.947  26.707  28.988  1.00  0.00     0.012 A 
ATOM     77  C   UNL A   1      41.718  28.027  27.975  1.00  0.00     0.148 A 
ATOM     78  C   UNL A   1      40.003  25.803  27.929  1.00  0.00     0.002 A 
ATOM     79  C   UNL A   1      41.735  27.148  26.897  1.00  0.00     0.091 A 
ATOM     80  F   UNL A   1      42.532  29.089  28.037  1.00  0.00    -0.205 F 
ATOM     81  C   UNL A   1      40.888  26.028  26.879  1.00  0.00     0.022 A 
BRANCH  79  82
ATOM     82  S   UNL A   1      42.750  27.420  25.440  1.00  0.00     0.127 S 
ATOM     83  O   UNL A   1      44.069  27.634  26.030  1.00  0.00    -0.237 OA
ATOM     84  O   UNL A   1      42.592  26.153  24.726  1.00  0.00    -0.237 OA
ATOM     85  O   UNL A   1      42.170  28.571  24.762  1.00  0.00    -0.744 OA
ENDBRANCH  79  82
ENDBRANCH  51  75
BRANCH  63  86
ATOM     86  C   UNL A   1      44.176  28.500  35.111  1.00  0.00     0.023 A 
ATOM     87  C   UNL A   1      45.509  28.830  34.798  1.00  0.00     0.012 A 
ATOM     88  C   UNL A   1      43.919  27.503  36.073  1.00  0.00     0.148 A 
ATOM     89  C   UNL A   1      46.568  28.162  35.411  1.00  0.00     0.002 A 
ATOM     90  C   UNL A   1      44.979  26.876  36.716  1.00  0.00     0.091 A 
ATOM     91  F   UNL A   1      42.644  27.188  36.342  1.00  0.00    -0.205 F 
ATOM     92  C   UNL A   1      46.304  27.195  36.378  1.00  0.00     0.022 A 
BRANCH  90  93
ATOM     93  S   UNL A   1      44.732  25.688  38.042  1.00  0.00     0.127 S 
ATOM     94  O   UNL A   1      43.896  26.446  38.970  1.00  0.00    -0.237 OA
ATOM     95  O   UNL A   1      44.045  24.594  37.356  1.00  0.00    -0.237 OA
ATOM     96  O   UNL A   1      46.063  25.350  38.530  1.00  0.00    -0.744 OA
ENDBRANCH  90  93
ENDBRANCH  63  86
ENDBRANCH  37  38
ENDBRANCH  29  32
ENDBRANCH  27  28
ENDBRANCH  26  27
ENDBRANCH   1  26
TORSDOF 18
ENDMDL
MODEL 2
REMARK VINA RESULT:     -11.7      0.776      7.764
REMARK SMILES CC[C@]1(C(=O)NCCCCNC(=O)c2ccc(-c3c4nc(c(-c5cccc(S(=O)(=O)[O-])c5F)c5ccc([nH]5)c(-c5cccc(S(=O)(=O)[O-])c5F)c5nc(c(-c6cccc(S(=O)(=O)[O-])c6F)c6ccc3[nH]6)C=C5)C=C4)cc2)CCC[N@@H+](Cc2cc(OC)ccc2F)C1
REMARK SMILES IDX 8 1 7 2 6 3 4 4 5 5 3 7 77 8 91 9 78 10 80 11 79 12 2 14
REMARK SMILES IDX 1 15 81 16 82 17 83 18 89 19 84 20 88 21 90 22 87 23 85 24
REMARK SMILES IDX 86 25 9 26 10 27 11 28 12 29 13 31 14 32 15 33 76 34 16 35
REMARK SMILES IDX 75 36 17 37 18 38 19 39 69 40 20 41 74 42 68 43 70 44 21 45
REMARK SMILES IDX 73 46 67 47 66 48 22 50 54 51 34 52 53 53 35 54 38 55 52 56
REMARK SMILES IDX 71 57 36 58 37 59 51 61 72 62 39 63 23 64 24 65 32 66 25 67
REMARK SMILES IDX 27 68 33 69 26 70 28 71 29 72 30 73 31 74 55 75 56 76 64 77
REMARK SMILES IDX 57 78 59 79 65 80 58 81 60 82 61 83 62 84 63 85 40 86 41 87
REMARK SMILES IDX 49 88 42 89 44 90 50 91 43 92 45 93 46 94 47 95 48 96
REMARK H PARENT 6 6 80 13 11 30 70 49 38 60
REMARK Flexibility Score: inf
ROOT
ATOM      1  C   UNL A   1      31.408  30.505  26.061  1.00  0.00     0.023 C 
ENDROOT
BRANCH   1   2
ATOM      2  C   UNL A   1      32.818  30.022  25.742  1.00  0.00     0.116 C 
BRANCH   2   3
ATOM      3  N   UNL A   1      32.969  29.683  24.334  1.00  0.00    -0.355 N 
ATOM      4  C   UNL A   1      32.807  28.517  23.641  1.00  0.00     0.231 C 
ATOM      5  O   UNL A   1      33.127  28.556  22.450  1.00  0.00    -0.274 OA
ATOM      6  H   UNL A   1      33.241  30.443  23.770  1.00  0.00     0.163 HD
BRANCH   4   7
ATOM      7  C   UNL A   1      32.277  27.222  24.306  1.00  0.00     0.098 C 
ATOM      8  C   UNL A   1      30.730  27.333  24.414  1.00  0.00     0.028 C 
ATOM      9  C   UNL A   1      32.717  26.005  23.448  1.00  0.00     0.279 C 
ATOM     10  C   UNL A   1      30.042  25.982  24.575  1.00  0.00     0.063 C 
ATOM     11  N   UNL A   1      31.952  24.761  23.629  1.00  0.00    -0.330 N 
ATOM     12  C   UNL A   1      30.510  24.972  23.528  1.00  0.00     0.262 C 
ATOM     13  H   UNL A   1      32.119  24.452  24.587  1.00  0.00     0.348 HD
BRANCH   7  14
ATOM     14  C   UNL A   1      32.821  27.072  25.769  1.00  0.00     0.019 C 
ATOM     15  C   UNL A   1      34.071  26.216  25.981  1.00  0.00     0.005 C 
ENDBRANCH   7  14
BRANCH  11  16
ATOM     16  C   UNL A   1      32.445  23.667  22.759  1.00  0.00     0.302 C 
BRANCH  16  17
ATOM     17  C   UNL A   1      32.833  22.350  23.407  1.00  0.00     0.046 A 
ATOM     18  C   UNL A   1      33.828  22.297  24.399  1.00  0.00     0.059 A 
ATOM     19  C   UNL A   1      32.263  21.138  23.001  1.00  0.00     0.132 A 
ATOM     20  C   UNL A   1      34.218  21.075  24.967  1.00  0.00     0.119 A 
ATOM     21  C   UNL A   1      32.572  19.935  23.629  1.00  0.00     0.043 A 
ATOM     22  F   UNL A   1      31.397  21.105  21.980  1.00  0.00    -0.206 F 
ATOM     23  C   UNL A   1      33.545  19.903  24.624  1.00  0.00     0.049 A 
BRANCH  20  24
ATOM     24  O   UNL A   1      35.268  21.136  25.845  1.00  0.00    -0.497 OA
ATOM     25  C   UNL A   1      35.744  22.453  26.125  1.00  0.00     0.278 C 
ENDBRANCH  20  24
ENDBRANCH  16  17
ENDBRANCH  11  16
ENDBRANCH   4   7
ENDBRANCH   2   3
ENDBRANCH   1   2
BRANCH   1  26
ATOM     26  C   UNL A   1      31.330  31.957  26.526  1.00  0.00     0.023 C 
BRANCH  26  27
ATOM     27  C   UNL A   1      32.610  32.503  27.149  1.00  0.00     0.116 C 
BRANCH  27  28
ATOM     28  N   UNL A   1      32.459  33.856  27.671  1.00  0.00    -0.352 N 
ATOM     29  C   UNL A   1      33.191  34.486  28.648  1.00  0.00     0.251 C 
ATOM     30  H   UNL A   1      31.735  34.390  27.269  1.00  0.00     0.163 HD
ATOM     31  O   UNL A   1      32.853  35.593  29.059  1.00  0.00    -0.269 OA
BRANCH  29  32
ATOM     32  C   UNL A   1      34.376  33.809  29.214  1.00  0.00     0.039 A 
ATOM     33  C   UNL A   1      35.652  34.225  28.825  1.00  0.00     0.014 A 
ATOM     34  C   UNL A   1      34.220  32.794  30.162  1.00  0.00     0.014 A 
ATOM     35  C   UNL A   1      36.774  33.666  29.439  1.00  0.00     0.010 A 
ATOM     36  C   UNL A   1      35.335  32.298  30.827  1.00  0.00     0.010 A 
ATOM     37  C   UNL A   1      36.624  32.723  30.470  1.00  0.00    -0.014 A 
BRANCH  37  38
ATOM     38  C   UNL A   1      37.796  32.168  31.193  1.00  0.00     0.031 A 
ATOM     39  C   UNL A   1      38.565  31.015  30.609  1.00  0.00     0.074 A 
ATOM     40  C   UNL A   1      38.109  32.637  32.416  1.00  0.00     0.049 A 
ATOM     41  N   UNL A   1      39.579  30.360  31.112  1.00  0.00    -0.248 NA
ATOM     42  C   UNL A   1      38.118  30.512  29.300  1.00  0.00     0.031 C 
ATOM     43  C   UNL A   1      37.392  33.699  33.125  1.00  0.00     0.029 A 
ATOM     44  N   UNL A   1      39.099  32.264  33.290  1.00  0.00    -0.354 N 
ATOM     45  C   UNL A   1      39.864  29.346  30.204  1.00  0.00     0.074 A 
ATOM     46  C   UNL A   1      38.889  29.448  29.141  1.00  0.00     0.031 C 
ATOM     47  C   UNL A   1      37.976  33.903  34.316  1.00  0.00     0.029 A 
ATOM     48  C   UNL A   1      39.089  32.971  34.470  1.00  0.00     0.049 A 
ATOM     49  H   UNL A   1      39.756  31.558  33.091  1.00  0.00     0.167 HD
ATOM     50  C   UNL A   1      40.867  28.436  30.232  1.00  0.00     0.034 A 
ATOM     51  C   UNL A   1      39.887  32.880  35.552  1.00  0.00     0.034 A 
ATOM     52  C   UNL A   1      41.860  28.367  31.270  1.00  0.00     0.049 A 
ATOM     53  C   UNL A   1      41.014  31.882  35.547  1.00  0.00     0.074 A 
ATOM     54  C   UNL A   1      42.968  27.543  31.348  1.00  0.00     0.029 A 
ATOM     55  N   UNL A   1      41.860  29.148  32.416  1.00  0.00    -0.354 N 
ATOM     56  N   UNL A   1      41.366  31.039  34.607  1.00  0.00    -0.248 NA
ATOM     57  C   UNL A   1      41.874  31.848  36.739  1.00  0.00     0.031 C 
ATOM     58  C   UNL A   1      43.627  27.812  32.553  1.00  0.00     0.029 A 
ATOM     59  C   UNL A   1      42.943  28.820  33.214  1.00  0.00     0.049 A 
ATOM     60  H   UNL A   1      41.188  29.834  32.631  1.00  0.00     0.167 HD
ATOM     61  C   UNL A   1      42.510  30.402  35.074  1.00  0.00     0.074 A 
ATOM     62  C   UNL A   1      42.800  30.969  36.377  1.00  0.00     0.031 C 
ATOM     63  C   UNL A   1      43.248  29.429  34.484  1.00  0.00     0.034 A 
BRANCH  50  64
ATOM     64  C   UNL A   1      40.963  27.480  29.070  1.00  0.00     0.023 A 
ATOM     65  C   UNL A   1      40.192  26.297  29.080  1.00  0.00     0.012 A 
ATOM     66  C   UNL A   1      41.796  27.749  27.969  1.00  0.00     0.148 A 
ATOM     67  C   UNL A   1      40.288  25.376  28.038  1.00  0.00     0.002 A 
ATOM     68  C   UNL A   1      41.851  26.848  26.911  1.00  0.00     0.091 A 
ATOM     69  F   UNL A   1      42.543  28.863  27.985  1.00  0.00    -0.205 F 
ATOM     70  C   UNL A   1      41.111  25.655  26.951  1.00  0.00     0.022 A 
BRANCH  68  71
ATOM     71  S   UNL A   1      42.822  27.161  25.432  1.00  0.00     0.127 S 
ATOM     72  O   UNL A   1      44.144  27.426  25.996  1.00  0.00    -0.237 OA
ATOM     73  O   UNL A   1      42.711  25.891  24.712  1.00  0.00    -0.237 OA
ATOM     74  O   UNL A   1      42.180  28.287  24.769  1.00  0.00    -0.744 OA
ENDBRANCH  68  71
ENDBRANCH  50  64
BRANCH  51  75
ATOM     75  C   UNL A   1      39.708  33.831  36.685  1.00  0.00     0.023 A 
ATOM     76  C   UNL A   1      40.016  35.191  36.489  1.00  0.00     0.012 A 
ATOM     77  C   UNL A   1      39.193  33.414  37.927  1.00  0.00     0.148 A 
ATOM     78  C   UNL A   1      39.836  36.117  37.515  1.00  0.00     0.002 A 
ATOM     79  C   UNL A   1      38.969  34.351  38.931  1.00  0.00     0.091 A 
ATOM     80  F   UNL A   1      38.912  32.115  38.095  1.00  0.00    -0.205 F 
ATOM     81  C   UNL A   1      39.304  35.700  38.732  1.00  0.00     0.022 A 
BRANCH  79  82
ATOM     82  S   UNL A   1      38.173  33.934  40.486  1.00  0.00     0.127 S 
ATOM     83  O   UNL A   1      39.173  33.074  41.113  1.00  0.00    -0.237 OA
ATOM     84  O   UNL A   1      38.018  35.251  41.104  1.00  0.00    -0.237 OA
ATOM     85  O   UNL A   1      36.920  33.285  40.128  1.00  0.00    -0.744 OA
ENDBRANCH  79  82
ENDBRANCH  51  75
BRANCH  63  86
ATOM     86  C   UNL A   1      44.465  28.931  35.220  1.00  0.00     0.023 A 
ATOM     87  C   UNL A   1      45.722  29.517  34.974  1.00  0.00     0.012 A 
ATOM     88  C   UNL A   1      44.349  27.934  36.209  1.00  0.00     0.148 A 
ATOM     89  C   UNL A   1      46.850  29.099  35.679  1.00  0.00     0.002 A 
ATOM     90  C   UNL A   1      45.468  27.557  36.943  1.00  0.00     0.091 A 
ATOM     91  F   UNL A   1      43.148  27.374  36.414  1.00  0.00    -0.205 F 
ATOM     92  C   UNL A   1      46.720  28.130  36.671  1.00  0.00     0.022 A 
BRANCH  90  93
ATOM     93  S   UNL A   1      45.375  26.387  38.303  1.00  0.00     0.127 S 
ATOM     94  O   UNL A   1      45.339  25.109  37.596  1.00  0.00    -0.237 OA
ATOM     95  O   UNL A   1      46.622  26.650  39.024  1.00  0.00    -0.237 OA
ATOM     96  O   UNL A   1      44.168  26.729  39.044  1.00  0.00    -0.744 OA
ENDBRANCH  90  93
ENDBRANCH  63  86
ENDBRANCH  37  38
ENDBRANCH  29  32
ENDBRANCH  27  28
ENDBRANCH  26  27
ENDBRANCH   1  26
TORSDOF 18
ENDMDL
MODEL 3
REMARK VINA RESULT:     -11.7      3.527      4.904
REMARK SMILES CC[C@]1(C(=O)NCCCCNC(=O)c2ccc(-c3c4nc(c(-c5cccc(S(=O)(=O)[O-])c5F)c5ccc([nH]5)c(-c5cccc(S(=O)(=O)[O-])c5F)c5nc(c(-c6cccc(S(=O)(=O)[O-])c6F)c6ccc3[nH]6)C=C5)C=C4)cc2)CCC[N@@H+](Cc2cc(OC)ccc2F)C1
REMARK SMILES IDX 8 1 7 2 6 3 4 4 5 5 3 7 77 8 91 9 78 10 80 11 79 12 2 14
REMARK SMILES IDX 1 15 81 16 82 17 83 18 89 19 84 20 88 21 90 22 87 23 85 24
REMARK SMILES IDX 86 25 9 26 10 27 11 28 12 29 13 31 14 32 15 33 76 34 16 35
REMARK SMILES IDX 75 36 17 37 18 38 19 39 69 40 20 41 74 42 68 43 70 44 21 45
REMARK SMILES IDX 73 46 67 47 66 48 22 50 54 51 34 52 53 53 35 54 38 55 52 56
REMARK SMILES IDX 71 57 36 58 37 59 51 61 72 62 39 63 23 64 24 65 32 66 25 67
REMARK SMILES IDX 27 68 33 69 26 70 28 71 29 72 30 73 31 74 55 75 56 76 64 77
REMARK SMILES IDX 57 78 59 79 65 80 58 81 60 82 61 83 62 84 63 85 40 86 41 87
REMARK SMILES IDX 49 88 42 89 44 90 50 91 43 92 45 93 46 94 47 95 48 96
REMARK H PARENT 6 6 80 13 11 30 70 49 38 60
REMARK Flexibility Score: inf
ROOT
ATOM      1  C   UNL A   1      31.657  28.097  26.563  1.00  0.00     0.023 C 
ENDROOT
BRANCH   1   2
ATOM      2  C   UNL A   1      31.179  26.974  25.649  1.00  0.00     0.116 C 
BRANCH   2   3
ATOM      3  N   UNL A   1      30.555  25.894  26.401  1.00  0.00    -0.355 N 
ATOM      4  C   UNL A   1      30.791  24.550  26.456  1.00  0.00     0.231 C 
ATOM      5  O   UNL A   1      29.990  23.896  27.130  1.00  0.00    -0.274 OA
ATOM      6  H   UNL A   1      29.818  26.190  26.983  1.00  0.00     0.163 HD
BRANCH   4   7
ATOM      7  C   UNL A   1      31.971  23.881  25.708  1.00  0.00     0.098 C 
ATOM      8  C   UNL A   1      33.289  24.541  26.198  1.00  0.00     0.028 C 
ATOM      9  C   UNL A   1      31.941  22.355  25.991  1.00  0.00     0.279 C 
ATOM     10  C   UNL A   1      34.523  23.681  25.942  1.00  0.00     0.063 C 
ATOM     11  N   UNL A   1      33.197  21.620  25.774  1.00  0.00    -0.330 N 
ATOM     12  C   UNL A   1      34.335  22.249  26.440  1.00  0.00     0.262 C 
ATOM     13  H   UNL A   1      33.398  21.674  24.775  1.00  0.00     0.348 HD
BRANCH   7  14
ATOM     14  C   UNL A   1      31.883  24.141  24.164  1.00  0.00     0.019 C 
ATOM     15  C   UNL A   1      30.565  23.820  23.459  1.00  0.00     0.005 C 
ENDBRANCH   7  14
BRANCH  11  16
ATOM     16  C   UNL A   1      33.064  20.176  26.082  1.00  0.00     0.302 C 
BRANCH  16  17
ATOM     17  C   UNL A   1      32.972  19.198  24.925  1.00  0.00     0.046 A 
ATOM     18  C   UNL A   1      33.315  17.845  25.092  1.00  0.00     0.059 A 
ATOM     19  C   UNL A   1      32.604  19.615  23.641  1.00  0.00     0.132 A 
ATOM     20  C   UNL A   1      33.272  16.950  24.012  1.00  0.00     0.119 A 
ATOM     21  C   UNL A   1      32.463  18.716  22.589  1.00  0.00     0.043 A 
ATOM     22  F   UNL A   1      32.381  20.912  23.388  1.00  0.00    -0.206 F 
ATOM     23  C   UNL A   1      32.787  17.375  22.776  1.00  0.00     0.049 A 
BRANCH  20  24
ATOM     24  O   UNL A   1      33.728  15.684  24.271  1.00  0.00    -0.497 OA
ATOM     25  C   UNL A   1      33.172  15.069  25.434  1.00  0.00     0.278 C 
ENDBRANCH  20  24
ENDBRANCH  16  17
ENDBRANCH  11  16
ENDBRANCH   4   7
ENDBRANCH   2   3
ENDBRANCH   1   2
BRANCH   1  26
ATOM     26  C   UNL A   1      33.098  27.947  27.042  1.00  0.00     0.023 C 
BRANCH  26  27
ATOM     27  C   UNL A   1      34.091  28.917  26.411  1.00  0.00     0.116 C 
BRANCH  27  28
ATOM     28  N   UNL A   1      33.801  30.313  26.718  1.00  0.00    -0.352 N 
ATOM     29  C   UNL A   1      34.459  31.155  27.580  1.00  0.00     0.251 C 
ATOM     30  H   UNL A   1      33.031  30.702  26.245  1.00  0.00     0.163 HD
ATOM     31  O   UNL A   1      34.008  32.273  27.819  1.00  0.00    -0.269 OA
BRANCH  29  32
ATOM     32  C   UNL A   1      35.701  30.696  28.236  1.00  0.00     0.039 A 
ATOM     33  C   UNL A   1      35.615  29.857  29.350  1.00  0.00     0.014 A 
ATOM     34  C   UNL A   1      36.946  31.061  27.718  1.00  0.00     0.014 A 
ATOM     35  C   UNL A   1      36.783  29.330  29.905  1.00  0.00     0.010 A 
ATOM     36  C   UNL A   1      38.100  30.472  28.223  1.00  0.00     0.010 A 
ATOM     37  C   UNL A   1      38.032  29.606  29.325  1.00  0.00    -0.014 A 
BRANCH  37  38
ATOM     38  C   UNL A   1      39.283  28.999  29.846  1.00  0.00     0.031 A 
ATOM     39  C   UNL A   1      39.946  29.572  31.068  1.00  0.00     0.074 A 
ATOM     40  C   UNL A   1      39.871  27.995  29.168  1.00  0.00     0.049 A 
ATOM     41  N   UNL A   1      41.067  29.218  31.642  1.00  0.00    -0.248 NA
ATOM     42  C   UNL A   1      39.279  30.715  31.713  1.00  0.00     0.031 C 
ATOM     43  C   UNL A   1      39.368  27.402  27.927  1.00  0.00     0.029 A 
ATOM     44  N   UNL A   1      41.034  27.310  29.415  1.00  0.00    -0.354 N 
ATOM     45  C   UNL A   1      41.258  30.115  32.687  1.00  0.00     0.074 A 
ATOM     46  C   UNL A   1      40.160  31.055  32.640  1.00  0.00     0.031 C 
ATOM     47  C   UNL A   1      40.209  26.433  27.531  1.00  0.00     0.029 A 
ATOM     48  C   UNL A   1      41.322  26.352  28.471  1.00  0.00     0.049 A 
ATOM     49  H   UNL A   1      41.609  27.487  30.196  1.00  0.00     0.167 HD
ATOM     50  C   UNL A   1      42.237  30.135  33.623  1.00  0.00     0.034 A 
ATOM     51  C   UNL A   1      42.365  25.503  28.376  1.00  0.00     0.034 A 
ATOM     52  C   UNL A   1      43.303  29.172  33.691  1.00  0.00     0.049 A 
ATOM     53  C   UNL A   1      43.424  25.523  29.444  1.00  0.00     0.074 A 
ATOM     54  C   UNL A   1      44.293  29.049  34.648  1.00  0.00     0.029 A 
ATOM     55  N   UNL A   1      43.522  28.170  32.757  1.00  0.00    -0.354 N 
ATOM     56  N   UNL A   1      43.503  26.274  30.515  1.00  0.00    -0.248 NA
ATOM     57  C   UNL A   1      44.521  24.553  29.308  1.00  0.00     0.031 C 
ATOM     58  C   UNL A   1      45.124  27.984  34.282  1.00  0.00     0.029 A 
ATOM     59  C   UNL A   1      44.637  27.429  33.109  1.00  0.00     0.049 A 
ATOM     60  H   UNL A   1      42.967  28.010  31.960  1.00  0.00     0.167 HD
ATOM     61  C   UNL A   1      44.632  25.844  31.202  1.00  0.00     0.074 A 
ATOM     62  C   UNL A   1      45.198  24.755  30.431  1.00  0.00     0.031 C 
ATOM     63  C   UNL A   1      45.160  26.314  32.360  1.00  0.00     0.034 A 
BRANCH  50  64
ATOM     64  C   UNL A   1      42.159  31.207  34.680  1.00  0.00     0.023 A 
ATOM     65  C   UNL A   1      41.414  30.969  35.855  1.00  0.00     0.012 A 
ATOM     66  C   UNL A   1      42.825  32.436  34.525  1.00  0.00     0.148 A 
ATOM     67  C   UNL A   1      41.292  31.955  36.833  1.00  0.00     0.002 A 
ATOM     68  C   UNL A   1      42.738  33.398  35.526  1.00  0.00     0.091 A 
ATOM     69  F   UNL A   1      43.508  32.659  33.392  1.00  0.00    -0.205 F 
ATOM     70  C   UNL A   1      41.960  33.166  36.672  1.00  0.00     0.022 A 
BRANCH  68  71
ATOM     71  S   UNL A   1      43.630  34.955  35.443  1.00  0.00     0.127 S 
ATOM     72  O   UNL A   1      43.031  35.576  34.263  1.00  0.00    -0.237 OA
ATOM     73  O   UNL A   1      43.269  35.589  36.713  1.00  0.00    -0.237 OA
ATOM     74  O   UNL A   1      45.036  34.600  35.326  1.00  0.00    -0.744 OA
ENDBRANCH  68  71
ENDBRANCH  50  64
BRANCH  51  75
ATOM     75  C   UNL A   1      42.400  24.496  27.277  1.00  0.00     0.023 A 
ATOM     76  C   UNL A   1      43.228  24.732  26.162  1.00  0.00     0.012 A 
ATOM     77  C   UNL A   1      41.667  23.297  27.349  1.00  0.00     0.148 A 
ATOM     78  C   UNL A   1      43.309  23.802  25.127  1.00  0.00     0.002 A 
ATOM     79  C   UNL A   1      41.791  22.351  26.337  1.00  0.00     0.091 A 
ATOM     80  F   UNL A   1      40.882  23.095  28.416  1.00  0.00    -0.205 F 
ATOM     81  C   UNL A   1      42.600  22.608  25.218  1.00  0.00     0.022 A 
BRANCH  79  82
ATOM     82  S   UNL A   1      41.017  20.732  26.422  1.00  0.00     0.127 S 
ATOM     83  O   UNL A   1      39.748  20.971  25.738  1.00  0.00    -0.237 OA
ATOM     84  O   UNL A   1      41.970  19.906  25.681  1.00  0.00    -0.237 OA
ATOM     85  O   UNL A   1      40.918  20.415  27.839  1.00  0.00    -0.744 OA
ENDBRANCH  79  82
ENDBRANCH  51  75
BRANCH  63  86
ATOM     86  C   UNL A   1      46.395  25.636  32.892  1.00  0.00     0.023 A 
ATOM     87  C   UNL A   1      47.669  26.133  32.556  1.00  0.00     0.012 A 
ATOM     88  C   UNL A   1      46.290  24.551  33.786  1.00  0.00     0.148 A 
ATOM     89  C   UNL A   1      48.821  25.545  33.077  1.00  0.00     0.002 A 
ATOM     90  C   UNL A   1      47.440  24.001  34.340  1.00  0.00     0.091 A 
ATOM     91  F   UNL A   1      45.070  24.078  34.077  1.00  0.00    -0.205 F 
ATOM     92  C   UNL A   1      48.706  24.488  33.978  1.00  0.00     0.022 A 
BRANCH  90  93
ATOM     93  S   UNL A   1      47.383  22.702  35.580  1.00  0.00     0.127 S 
ATOM     94  O   UNL A   1      47.639  21.509  34.776  1.00  0.00    -0.237 OA
ATOM     95  O   UNL A   1      48.477  23.080  36.476  1.00  0.00    -0.237 OA
ATOM     96  O   UNL A   1      46.058  22.781  36.182  1.00  0.00    -0.744 OA
ENDBRANCH  90  93
ENDBRANCH  63  86
ENDBRANCH  37  38
ENDBRANCH  29  32
ENDBRANCH  27  28
ENDBRANCH  26  27
ENDBRANCH   1  26
TORSDOF 18
ENDMDL
