MODEL 1
REMARK VINA RESULT:     -11.9      0.000      0.000
REMARK SMILES O=C(NCCCCNC(=O)[C@@H]1[C@H]2C=C[C@H]3C=C[C@@H]1[C@H]32)c1ccc(-c2c3nc(c(-c4cccc(S(=O)(=O)[O-])c4F)c4ccc([nH]4)c(-c4cccc(S(=O)(=O)[O-])c4F)c4nc(c(-c5cccc(S(=O)(=O)[O-])c5F)c5ccc2[nH]5)C=C4)C=C3)cc1
REMARK SMILES IDX 4 1 3 2 1 3 2 4 20 6 21 7 82 8 22 9 81 10 23 11 24 12 25 13
REMARK SMILES IDX 75 14 26 15 80 16 74 17 76 18 27 19 79 20 73 21 72 22 28 24
REMARK SMILES IDX 60 25 40 26 59 27 41 28 44 29 58 30 77 31 42 32 43 33 57 35
REMARK SMILES IDX 78 36 45 37 29 38 30 39 38 40 31 41 33 42 39 43 32 44 34 45
REMARK SMILES IDX 35 46 36 47 37 48 61 49 62 50 70 51 63 52 65 53 71 54 64 55
REMARK SMILES IDX 66 56 67 57 68 58 69 59 46 60 47 61 55 62 48 63 50 64 56 65
REMARK SMILES IDX 49 66 51 67 52 68 53 69 54 70 5 71 6 72 7 73 8 74 9 75 10 77
REMARK SMILES IDX 11 78 18 79 12 80 17 81 19 82 13 83 16 84 15 85 14 86
REMARK H PARENT 3 5 76 23 44 34 8 76
REMARK Flexibility Score: inf
ROOT
ATOM      1  C   UNL A   1      33.294  29.099  25.001  1.00  0.00     0.116 C 
ENDROOT
BRANCH   1   2
ATOM      2  N   UNL A   1      32.658  30.258  25.608  1.00  0.00    -0.352 N 
ATOM      3  O   UNL A   1      32.247  31.866  27.125  1.00  0.00    -0.269 OA
ATOM      4  C   UNL A   1      33.014  30.999  26.710  1.00  0.00     0.251 C 
ATOM      5  H   UNL A   1      31.836  30.559  25.156  1.00  0.00     0.163 HD
BRANCH   4   6
ATOM      6  C   UNL A   1      34.290  30.734  27.411  1.00  0.00     0.039 A 
ATOM      7  C   UNL A   1      34.609  29.450  27.849  1.00  0.00     0.014 A 
ATOM      8  C   UNL A   1      35.189  31.783  27.626  1.00  0.00     0.014 A 
ATOM      9  C   UNL A   1      35.717  29.254  28.664  1.00  0.00     0.010 A 
ATOM     10  C   UNL A   1      36.371  31.556  28.343  1.00  0.00     0.010 A 
ATOM     11  C   UNL A   1      36.628  30.297  28.904  1.00  0.00    -0.014 A 
BRANCH  11  12
ATOM     12  C   UNL A   1      37.873  29.993  29.659  1.00  0.00     0.031 A 
ATOM     13  C   UNL A   1      38.124  30.540  31.039  1.00  0.00     0.074 A 
ATOM     14  C   UNL A   1      38.774  29.166  29.091  1.00  0.00     0.049 A 
ATOM     15  N   UNL A   1      39.125  30.293  31.847  1.00  0.00    -0.248 NA
ATOM     16  C   UNL A   1      37.140  31.489  31.584  1.00  0.00     0.031 C 
ATOM     17  C   UNL A   1      38.673  28.619  27.733  1.00  0.00     0.029 A 
ATOM     18  N   UNL A   1      39.938  28.627  29.575  1.00  0.00    -0.354 N 
ATOM     19  C   UNL A   1      38.908  31.068  32.981  1.00  0.00     0.074 A 
ATOM     20  C   UNL A   1      37.687  31.811  32.749  1.00  0.00     0.031 C 
ATOM     21  C   UNL A   1      39.704  27.794  27.510  1.00  0.00     0.029 A 
ATOM     22  C   UNL A   1      40.575  27.801  28.679  1.00  0.00     0.049 A 
ATOM     23  H   UNL A   1      40.285  28.814  30.478  1.00  0.00     0.167 HD
ATOM     24  C   UNL A   1      39.646  31.137  34.116  1.00  0.00     0.034 A 
ATOM     25  C   UNL A   1      41.741  27.135  28.770  1.00  0.00     0.034 A 
ATOM     26  C   UNL A   1      40.851  30.382  34.349  1.00  0.00     0.049 A 
ATOM     27  C   UNL A   1      42.523  27.218  30.048  1.00  0.00     0.074 A 
ATOM     28  C   UNL A   1      41.645  30.356  35.483  1.00  0.00     0.029 A 
ATOM     29  N   UNL A   1      41.443  29.526  33.432  1.00  0.00    -0.354 N 
ATOM     30  N   UNL A   1      42.231  27.861  31.153  1.00  0.00    -0.248 NA
ATOM     31  C   UNL A   1      43.777  26.458  30.106  1.00  0.00     0.031 C 
ATOM     32  C   UNL A   1      42.729  29.504  35.244  1.00  0.00     0.029 A 
ATOM     33  C   UNL A   1      42.594  28.972  33.972  1.00  0.00     0.049 A 
ATOM     34  H   UNL A   1      41.097  29.339  32.530  1.00  0.00     0.167 HD
ATOM     35  C   UNL A   1      43.257  27.569  32.042  1.00  0.00     0.074 A 
ATOM     36  C   UNL A   1      44.152  26.654  31.361  1.00  0.00     0.031 C 
ATOM     37  C   UNL A   1      43.456  28.035  33.299  1.00  0.00     0.034 A 
BRANCH  24  38
ATOM     38  C   UNL A   1      39.153  32.030  35.229  1.00  0.00     0.023 A 
ATOM     39  C   UNL A   1      38.198  31.535  36.141  1.00  0.00     0.012 A 
ATOM     40  C   UNL A   1      39.699  33.314  35.431  1.00  0.00     0.148 A 
ATOM     41  C   UNL A   1      37.778  32.310  37.224  1.00  0.00     0.002 A 
ATOM     42  C   UNL A   1      39.306  34.063  36.535  1.00  0.00     0.091 A 
ATOM     43  F   UNL A   1      40.595  33.773  34.547  1.00  0.00    -0.205 F 
ATOM     44  C   UNL A   1      38.340  33.567  37.426  1.00  0.00     0.022 A 
BRANCH  42  45
ATOM     45  S   UNL A   1      40.025  35.662  36.935  1.00  0.00     0.127 S 
ATOM     46  O   UNL A   1      39.653  36.453  35.763  1.00  0.00    -0.237 OA
ATOM     47  O   UNL A   1      39.315  36.020  38.162  1.00  0.00    -0.237 OA
ATOM     48  O   UNL A   1      41.454  35.432  37.100  1.00  0.00    -0.744 OA
ENDBRANCH  42  45
ENDBRANCH  24  38
BRANCH  25  49
ATOM     49  C   UNL A   1      42.229  26.327  27.618  1.00  0.00     0.023 A 
ATOM     50  C   UNL A   1      43.094  26.902  26.668  1.00  0.00     0.012 A 
ATOM     51  C   UNL A   1      41.850  24.978  27.472  1.00  0.00     0.148 A 
ATOM     52  C   UNL A   1      43.542  26.161  25.575  1.00  0.00     0.002 A 
ATOM     53  C   UNL A   1      42.353  24.226  26.420  1.00  0.00     0.091 A 
ATOM     54  F   UNL A   1      41.011  24.452  28.377  1.00  0.00    -0.205 F 
ATOM     55  C   UNL A   1      43.181  24.820  25.457  1.00  0.00     0.022 A 
BRANCH  53  56
ATOM     56  S   UNL A   1      42.059  22.460  26.287  1.00  0.00     0.127 S 
ATOM     57  O   UNL A   1      40.603  22.404  26.205  1.00  0.00    -0.237 OA
ATOM     58  O   UNL A   1      42.761  22.127  25.047  1.00  0.00    -0.237 OA
ATOM     59  O   UNL A   1      42.654  21.876  27.482  1.00  0.00    -0.744 OA
ENDBRANCH  53  56
ENDBRANCH  25  49
BRANCH  37  60
ATOM     60  C   UNL A   1      44.679  27.541  34.027  1.00  0.00     0.023 A 
ATOM     61  C   UNL A   1      45.880  28.277  33.959  1.00  0.00     0.012 A 
ATOM     62  C   UNL A   1      44.635  26.362  34.794  1.00  0.00     0.148 A 
ATOM     63  C   UNL A   1      47.030  27.820  34.601  1.00  0.00     0.002 A 
ATOM     64  C   UNL A   1      45.770  25.940  35.476  1.00  0.00     0.091 A 
ATOM     65  F   UNL A   1      43.490  25.664  34.832  1.00  0.00    -0.205 F 
ATOM     66  C   UNL A   1      46.973  26.658  35.366  1.00  0.00     0.022 A 
BRANCH  64  67
ATOM     67  S   UNL A   1      45.766  24.508  36.558  1.00  0.00     0.127 S 
ATOM     68  O   UNL A   1      45.550  23.417  35.609  1.00  0.00    -0.237 OA
ATOM     69  O   UNL A   1      47.108  24.554  37.140  1.00  0.00    -0.237 OA
ATOM     70  O   UNL A   1      44.688  24.730  37.512  1.00  0.00    -0.744 OA
ENDBRANCH  64  67
ENDBRANCH  37  60
ENDBRANCH  11  12
ENDBRANCH   4   6
ENDBRANCH   1   2
BRANCH   1  71
ATOM     71  C   UNL A   1      33.000  28.953  23.515  1.00  0.00     0.023 C 
BRANCH  71  72
ATOM     72  C   UNL A   1      31.512  28.909  23.164  1.00  0.00     0.023 C 
BRANCH  72  73
ATOM     73  C   UNL A   1      30.976  27.519  22.804  1.00  0.00     0.116 C 
BRANCH  73  74
ATOM     74  N   UNL A   1      31.680  26.921  21.685  1.00  0.00    -0.356 N 
ATOM     75  C   UNL A   1      32.652  25.947  21.641  1.00  0.00     0.224 C 
ATOM     76  H   UNL A   1      31.416  27.272  20.805  1.00  0.00     0.163 HD
ATOM     77  O   UNL A   1      33.278  25.877  20.571  1.00  0.00    -0.275 OA
BRANCH  75  78
ATOM     78  C   UNL A   1      32.933  24.975  22.807  1.00  0.00     0.093 C 
ATOM     79  C   UNL A   1      33.630  23.610  22.542  1.00  0.00     0.029 C 
ATOM     80  C   UNL A   1      34.028  25.340  23.841  1.00  0.00     0.029 C 
ATOM     81  C   UNL A   1      32.974  22.403  23.115  1.00  0.00    -0.026 C 
ATOM     82  C   UNL A   1      34.727  23.991  23.563  1.00  0.00     0.015 C 
ATOM     83  C   UNL A   1      33.666  25.313  25.276  1.00  0.00    -0.026 C 
ATOM     84  C   UNL A   1      33.442  22.146  24.346  1.00  0.00    -0.023 C 
ATOM     85  C   UNL A   1      34.480  23.126  24.814  1.00  0.00     0.038 C 
ATOM     86  C   UNL A   1      33.930  24.110  25.805  1.00  0.00    -0.023 C 
ENDBRANCH  75  78
ENDBRANCH  73  74
ENDBRANCH  72  73
ENDBRANCH  71  72
ENDBRANCH   1  71
TORSDOF 14
ENDMDL
MODEL 2
REMARK VINA RESULT:     -11.7      1.295      1.841
REMARK SMILES O=C(NCCCCNC(=O)[C@@H]1[C@H]2C=C[C@H]3C=C[C@@H]1[C@H]32)c1ccc(-c2c3nc(c(-c4cccc(S(=O)(=O)[O-])c4F)c4ccc([nH]4)c(-c4cccc(S(=O)(=O)[O-])c4F)c4nc(c(-c5cccc(S(=O)(=O)[O-])c5F)c5ccc2[nH]5)C=C4)C=C3)cc1
REMARK SMILES IDX 4 1 3 2 1 3 2 4 20 6 21 7 82 8 22 9 81 10 23 11 24 12 25 13
REMARK SMILES IDX 75 14 26 15 80 16 74 17 76 18 27 19 79 20 73 21 72 22 28 24
REMARK SMILES IDX 60 25 40 26 59 27 41 28 44 29 58 30 77 31 42 32 43 33 57 35
REMARK SMILES IDX 78 36 45 37 29 38 30 39 38 40 31 41 33 42 39 43 32 44 34 45
REMARK SMILES IDX 35 46 36 47 37 48 61 49 62 50 70 51 63 52 65 53 71 54 64 55
REMARK SMILES IDX 66 56 67 57 68 58 69 59 46 60 47 61 55 62 48 63 50 64 56 65
REMARK SMILES IDX 49 66 51 67 52 68 53 69 54 70 5 71 6 72 7 73 8 74 9 75 10 77
REMARK SMILES IDX 11 78 18 79 12 80 17 81 19 82 13 83 16 84 15 85 14 86
REMARK H PARENT 3 5 76 23 44 34 8 76
REMARK Flexibility Score: inf
ROOT
ATOM      1  C   UNL A   1      33.260  29.134  25.163  1.00  0.00     0.116 C 
ENDROOT
BRANCH   1   2
ATOM      2  N   UNL A   1      32.671  30.339  25.725  1.00  0.00    -0.352 N 
ATOM      3  O   UNL A   1      32.333  32.022  27.177  1.00  0.00    -0.269 OA
ATOM      4  C   UNL A   1      33.064  31.112  26.792  1.00  0.00     0.251 C 
ATOM      5  H   UNL A   1      31.857  30.651  25.268  1.00  0.00     0.163 HD
BRANCH   4   6
ATOM      6  C   UNL A   1      34.336  30.830  27.494  1.00  0.00     0.039 A 
ATOM      7  C   UNL A   1      34.613  29.555  27.984  1.00  0.00     0.014 A 
ATOM      8  C   UNL A   1      35.275  31.853  27.655  1.00  0.00     0.014 A 
ATOM      9  C   UNL A   1      35.720  29.353  28.798  1.00  0.00     0.010 A 
ATOM     10  C   UNL A   1      36.455  31.613  28.372  1.00  0.00     0.010 A 
ATOM     11  C   UNL A   1      36.671  30.371  28.985  1.00  0.00    -0.014 A 
BRANCH  11  12
ATOM     12  C   UNL A   1      37.912  30.054  29.742  1.00  0.00     0.031 A 
ATOM     13  C   UNL A   1      38.158  30.584  31.130  1.00  0.00     0.074 A 
ATOM     14  C   UNL A   1      38.813  29.230  29.169  1.00  0.00     0.049 A 
ATOM     15  N   UNL A   1      39.154  30.324  31.939  1.00  0.00    -0.248 NA
ATOM     16  C   UNL A   1      37.175  31.529  31.681  1.00  0.00     0.031 C 
ATOM     17  C   UNL A   1      38.716  28.700  27.804  1.00  0.00     0.029 A 
ATOM     18  N   UNL A   1      39.973  28.682  29.652  1.00  0.00    -0.354 N 
ATOM     19  C   UNL A   1      38.934  31.086  33.082  1.00  0.00     0.074 A 
ATOM     20  C   UNL A   1      37.718  31.836  32.853  1.00  0.00     0.031 C 
ATOM     21  C   UNL A   1      39.745  27.874  27.576  1.00  0.00     0.029 A 
ATOM     22  C   UNL A   1      40.611  27.864  28.749  1.00  0.00     0.049 A 
ATOM     23  H   UNL A   1      40.316  28.857  30.558  1.00  0.00     0.167 HD
ATOM     24  C   UNL A   1      39.667  31.139  34.221  1.00  0.00     0.034 A 
ATOM     25  C   UNL A   1      41.774  27.193  28.837  1.00  0.00     0.034 A 
ATOM     26  C   UNL A   1      40.869  30.377  34.450  1.00  0.00     0.049 A 
ATOM     27  C   UNL A   1      42.550  27.258  30.120  1.00  0.00     0.074 A 
ATOM     28  C   UNL A   1      41.657  30.335  35.587  1.00  0.00     0.029 A 
ATOM     29  N   UNL A   1      41.463  29.530  33.526  1.00  0.00    -0.354 N 
ATOM     30  N   UNL A   1      42.255  27.889  31.231  1.00  0.00    -0.248 NA
ATOM     31  C   UNL A   1      43.801  26.493  30.174  1.00  0.00     0.031 C 
ATOM     32  C   UNL A   1      42.740  29.482  35.343  1.00  0.00     0.029 A 
ATOM     33  C   UNL A   1      42.609  28.966  34.065  1.00  0.00     0.049 A 
ATOM     34  H   UNL A   1      41.120  29.355  32.620  1.00  0.00     0.167 HD
ATOM     35  C   UNL A   1      43.276  27.583  32.121  1.00  0.00     0.074 A 
ATOM     36  C   UNL A   1      44.171  26.674  31.434  1.00  0.00     0.031 C 
ATOM     37  C   UNL A   1      43.471  28.033  33.385  1.00  0.00     0.034 A 
BRANCH  24  38
ATOM     38  C   UNL A   1      39.172  32.020  35.342  1.00  0.00     0.023 A 
ATOM     39  C   UNL A   1      38.245  31.504  36.270  1.00  0.00     0.012 A 
ATOM     40  C   UNL A   1      39.692  33.317  35.535  1.00  0.00     0.148 A 
ATOM     41  C   UNL A   1      37.825  32.269  37.359  1.00  0.00     0.002 A 
ATOM     42  C   UNL A   1      39.300  34.058  36.645  1.00  0.00     0.091 A 
ATOM     43  F   UNL A   1      40.562  33.796  34.636  1.00  0.00    -0.205 F 
ATOM     44  C   UNL A   1      38.361  33.539  37.552  1.00  0.00     0.022 A 
BRANCH  42  45
ATOM     45  S   UNL A   1      39.988  35.672  37.033  1.00  0.00     0.127 S 
ATOM     46  O   UNL A   1      41.409  35.359  37.181  1.00  0.00    -0.237 OA
ATOM     47  O   UNL A   1      39.656  36.443  35.836  1.00  0.00    -0.237 OA
ATOM     48  O   UNL A   1      39.321  36.114  38.250  1.00  0.00    -0.744 OA
ENDBRANCH  42  45
ENDBRANCH  24  38
BRANCH  25  49
ATOM     49  C   UNL A   1      42.264  26.397  27.678  1.00  0.00     0.023 A 
ATOM     50  C   UNL A   1      43.140  26.979  26.742  1.00  0.00     0.012 A 
ATOM     51  C   UNL A   1      41.877  25.053  27.512  1.00  0.00     0.148 A 
ATOM     52  C   UNL A   1      43.591  26.249  25.642  1.00  0.00     0.002 A 
ATOM     53  C   UNL A   1      42.383  24.311  26.454  1.00  0.00     0.091 A 
ATOM     54  F   UNL A   1      41.028  24.521  28.404  1.00  0.00    -0.205 F 
ATOM     55  C   UNL A   1      43.221  24.912  25.504  1.00  0.00     0.022 A 
BRANCH  53  56
ATOM     56  S   UNL A   1      42.078  22.549  26.295  1.00  0.00     0.127 S 
ATOM     57  O   UNL A   1      42.694  22.028  27.512  1.00  0.00    -0.237 OA
ATOM     58  O   UNL A   1      40.616  22.494  26.271  1.00  0.00    -0.237 OA
ATOM     59  O   UNL A   1      42.709  22.157  25.042  1.00  0.00    -0.744 OA
ENDBRANCH  53  56
ENDBRANCH  25  49
BRANCH  37  60
ATOM     60  C   UNL A   1      44.688  27.527  34.112  1.00  0.00     0.023 A 
ATOM     61  C   UNL A   1      45.895  28.254  34.050  1.00  0.00     0.012 A 
ATOM     62  C   UNL A   1      44.634  26.344  34.874  1.00  0.00     0.148 A 
ATOM     63  C   UNL A   1      47.041  27.785  34.692  1.00  0.00     0.002 A 
ATOM     64  C   UNL A   1      45.765  25.911  35.556  1.00  0.00     0.091 A 
ATOM     65  F   UNL A   1      43.484  25.656  34.907  1.00  0.00    -0.205 F 
ATOM     66  C   UNL A   1      46.973  26.620  35.451  1.00  0.00     0.022 A 
BRANCH  64  67
ATOM     67  S   UNL A   1      45.748  24.473  36.631  1.00  0.00     0.127 S 
ATOM     68  O   UNL A   1      47.175  24.250  36.855  1.00  0.00    -0.237 OA
ATOM     69  O   UNL A   1      45.018  24.968  37.799  1.00  0.00    -0.237 OA
ATOM     70  O   UNL A   1      45.059  23.427  35.889  1.00  0.00    -0.744 OA
ENDBRANCH  64  67
ENDBRANCH  37  60
ENDBRANCH  11  12
ENDBRANCH   4   6
ENDBRANCH   1   2
BRANCH   1  71
ATOM     71  C   UNL A   1      32.230  28.139  24.645  1.00  0.00     0.023 C 
BRANCH  71  72
ATOM     72  C   UNL A   1      31.358  27.506  25.731  1.00  0.00     0.023 C 
BRANCH  72  73
ATOM     73  C   UNL A   1      30.515  26.314  25.266  1.00  0.00     0.116 C 
BRANCH  73  74
ATOM     74  N   UNL A   1      30.358  25.305  26.297  1.00  0.00    -0.356 N 
ATOM     75  C   UNL A   1      30.986  24.095  26.486  1.00  0.00     0.224 C 
ATOM     76  H   UNL A   1      29.684  25.524  26.981  1.00  0.00     0.163 HD
ATOM     77  O   UNL A   1      30.415  23.322  27.272  1.00  0.00    -0.275 OA
BRANCH  75  78
ATOM     78  C   UNL A   1      32.325  23.720  25.815  1.00  0.00     0.093 C 
ATOM     79  C   UNL A   1      33.604  24.562  26.087  1.00  0.00     0.029 C 
ATOM     80  C   UNL A   1      33.062  22.438  26.277  1.00  0.00     0.029 C 
ATOM     81  C   UNL A   1      34.372  25.015  24.895  1.00  0.00    -0.026 C 
ATOM     82  C   UNL A   1      34.326  23.279  26.563  1.00  0.00     0.015 C 
ATOM     83  C   UNL A   1      33.463  21.456  25.244  1.00  0.00    -0.026 C 
ATOM     84  C   UNL A   1      35.309  24.115  24.562  1.00  0.00    -0.023 C 
ATOM     85  C   UNL A   1      35.334  22.910  25.458  1.00  0.00     0.038 C 
ATOM     86  C   UNL A   1      34.708  21.707  24.814  1.00  0.00    -0.023 C 
ENDBRANCH  75  78
ENDBRANCH  73  74
ENDBRANCH  72  73
ENDBRANCH  71  72
ENDBRANCH   1  71
TORSDOF 14
ENDMDL
MODEL 3
REMARK VINA RESULT:     -11.7      5.011     10.017
REMARK SMILES O=C(NCCCCNC(=O)[C@@H]1[C@H]2C=C[C@H]3C=C[C@@H]1[C@H]32)c1ccc(-c2c3nc(c(-c4cccc(S(=O)(=O)[O-])c4F)c4ccc([nH]4)c(-c4cccc(S(=O)(=O)[O-])c4F)c4nc(c(-c5cccc(S(=O)(=O)[O-])c5F)c5ccc2[nH]5)C=C4)C=C3)cc1
REMARK SMILES IDX 4 1 3 2 1 3 2 4 20 6 21 7 82 8 22 9 81 10 23 11 24 12 25 13
REMARK SMILES IDX 75 14 26 15 80 16 74 17 76 18 27 19 79 20 73 21 72 22 28 24
REMARK SMILES IDX 60 25 40 26 59 27 41 28 44 29 58 30 77 31 42 32 43 33 57 35
REMARK SMILES IDX 78 36 45 37 29 38 30 39 38 40 31 41 33 42 39 43 32 44 34 45
REMARK SMILES IDX 35 46 36 47 37 48 61 49 62 50 70 51 63 52 65 53 71 54 64 55
REMARK SMILES IDX 66 56 67 57 68 58 69 59 46 60 47 61 55 62 48 63 50 64 56 65
REMARK SMILES IDX 49 66 51 67 52 68 53 69 54 70 5 71 6 72 7 73 8 74 9 75 10 77
REMARK SMILES IDX 11 78 18 79 12 80 17 81 19 82 13 83 16 84 15 85 14 86
REMARK H PARENT 3 5 76 23 44 34 8 76
REMARK Flexibility Score: inf
ROOT
ATOM      1  C   UNL A   1      35.901  22.310  25.794  1.00  0.00     0.116 C 
ENDROOT
BRANCH   1   2
ATOM      2  N   UNL A   1      36.853  21.223  25.621  1.00  0.00    -0.352 N 
ATOM      3  O   UNL A   1      38.843  20.195  25.433  1.00  0.00    -0.269 OA
ATOM      4  C   UNL A   1      38.221  21.203  25.761  1.00  0.00     0.251 C 
ATOM      5  H   UNL A   1      36.452  20.363  25.360  1.00  0.00     0.163 HD
BRANCH   4   6
ATOM      6  C   UNL A   1      38.941  22.392  26.266  1.00  0.00     0.039 A 
ATOM      7  C   UNL A   1      38.550  23.676  25.890  1.00  0.00     0.014 A 
ATOM      8  C   UNL A   1      40.018  22.225  27.141  1.00  0.00     0.014 A 
ATOM      9  C   UNL A   1      39.346  24.765  26.221  1.00  0.00     0.010 A 
ATOM     10  C   UNL A   1      40.746  23.340  27.577  1.00  0.00     0.010 A 
ATOM     11  C   UNL A   1      40.441  24.619  27.089  1.00  0.00    -0.014 A 
BRANCH  11  12
ATOM     12  C   UNL A   1      41.167  25.840  27.530  1.00  0.00     0.031 A 
ATOM     13  C   UNL A   1      42.598  26.104  27.140  1.00  0.00     0.074 A 
ATOM     14  C   UNL A   1      40.494  26.749  28.265  1.00  0.00     0.049 A 
ATOM     15  N   UNL A   1      43.329  27.163  27.383  1.00  0.00    -0.248 NA
ATOM     16  C   UNL A   1      43.304  25.051  26.394  1.00  0.00     0.031 C 
ATOM     17  C   UNL A   1      39.122  26.580  28.758  1.00  0.00     0.029 A 
ATOM     18  N   UNL A   1      40.853  27.993  28.716  1.00  0.00    -0.354 N 
ATOM     19  C   UNL A   1      44.583  26.899  26.843  1.00  0.00     0.074 A 
ATOM     20  C   UNL A   1      44.521  25.568  26.277  1.00  0.00     0.031 C 
ATOM     21  C   UNL A   1      38.743  27.690  29.403  1.00  0.00     0.029 A 
ATOM     22  C   UNL A   1      39.861  28.625  29.429  1.00  0.00     0.049 A 
ATOM     23  H   UNL A   1      41.736  28.395  28.546  1.00  0.00     0.167 HD
ATOM     24  C   UNL A   1      45.677  27.699  26.807  1.00  0.00     0.034 A 
ATOM     25  C   UNL A   1      39.851  29.815  30.058  1.00  0.00     0.034 A 
ATOM     26  C   UNL A   1      45.729  29.030  27.357  1.00  0.00     0.049 A 
ATOM     27  C   UNL A   1      41.072  30.684  29.980  1.00  0.00     0.074 A 
ATOM     28  C   UNL A   1      46.780  29.930  27.333  1.00  0.00     0.029 A 
ATOM     29  N   UNL A   1      44.692  29.650  28.038  1.00  0.00    -0.354 N 
ATOM     30  N   UNL A   1      42.204  30.462  29.356  1.00  0.00    -0.248 NA
ATOM     31  C   UNL A   1      41.004  31.982  30.663  1.00  0.00     0.031 C 
ATOM     32  C   UNL A   1      46.388  31.085  28.019  1.00  0.00     0.029 A 
ATOM     33  C   UNL A   1      45.080  30.919  28.443  1.00  0.00     0.049 A 
ATOM     34  H   UNL A   1      43.810  29.248  28.209  1.00  0.00     0.167 HD
ATOM     35  C   UNL A   1      42.976  31.598  29.559  1.00  0.00     0.074 A 
ATOM     36  C   UNL A   1      42.164  32.524  30.322  1.00  0.00     0.031 C 
ATOM     37  C   UNL A   1      44.251  31.845  29.170  1.00  0.00     0.034 A 
BRANCH  24  38
ATOM     38  C   UNL A   1      46.910  27.182  26.106  1.00  0.00     0.023 A 
ATOM     39  C   UNL A   1      47.074  27.423  24.726  1.00  0.00     0.012 A 
ATOM     40  C   UNL A   1      47.945  26.548  26.823  1.00  0.00     0.148 A 
ATOM     41  C   UNL A   1      48.237  27.023  24.066  1.00  0.00     0.002 A 
ATOM     42  C   UNL A   1      49.118  26.189  26.166  1.00  0.00     0.091 A 
ATOM     43  F   UNL A   1      47.767  26.315  28.131  1.00  0.00    -0.205 F 
ATOM     44  C   UNL A   1      49.262  26.417  24.788  1.00  0.00     0.022 A 
BRANCH  42  45
ATOM     45  S   UNL A   1      50.533  25.476  27.016  1.00  0.00     0.127 S 
ATOM     46  O   UNL A   1      51.457  25.247  25.906  1.00  0.00    -0.237 OA
ATOM     47  O   UNL A   1      50.924  26.556  27.921  1.00  0.00    -0.237 OA
ATOM     48  O   UNL A   1      50.044  24.273  27.675  1.00  0.00    -0.744 OA
ENDBRANCH  42  45
ENDBRANCH  24  38
BRANCH  25  49
ATOM     49  C   UNL A   1      38.639  30.253  30.803  1.00  0.00     0.023 A 
ATOM     50  C   UNL A   1      38.506  29.954  32.172  1.00  0.00     0.012 A 
ATOM     51  C   UNL A   1      37.622  30.985  30.159  1.00  0.00     0.148 A 
ATOM     52  C   UNL A   1      37.366  30.341  32.877  1.00  0.00     0.002 A 
ATOM     53  C   UNL A   1      36.522  31.427  30.881  1.00  0.00     0.091 A 
ATOM     54  F   UNL A   1      37.757  31.246  28.851  1.00  0.00    -0.205 F 
ATOM     55  C   UNL A   1      36.379  31.088  32.234  1.00  0.00     0.022 A 
BRANCH  53  56
ATOM     56  S   UNL A   1      35.291  32.520  30.165  1.00  0.00     0.127 S 
ATOM     57  O   UNL A   1      36.097  33.682  29.803  1.00  0.00    -0.237 OA
ATOM     58  O   UNL A   1      34.803  31.730  29.034  1.00  0.00    -0.237 OA
ATOM     59  O   UNL A   1      34.302  32.731  31.214  1.00  0.00    -0.744 OA
ENDBRANCH  53  56
ENDBRANCH  25  49
BRANCH  37  60
ATOM     60  C   UNL A   1      44.835  33.181  29.546  1.00  0.00     0.023 A 
ATOM     61  C   UNL A   1      45.550  33.319  30.755  1.00  0.00     0.012 A 
ATOM     62  C   UNL A   1      44.696  34.295  28.697  1.00  0.00     0.148 A 
ATOM     63  C   UNL A   1      46.071  34.555  31.134  1.00  0.00     0.002 A 
ATOM     64  C   UNL A   1      45.266  35.511  29.055  1.00  0.00     0.091 A 
ATOM     65  F   UNL A   1      43.998  34.151  27.561  1.00  0.00    -0.205 F 
ATOM     66  C   UNL A   1      45.937  35.647  30.282  1.00  0.00     0.022 A 
BRANCH  64  67
ATOM     67  S   UNL A   1      45.223  36.947  27.979  1.00  0.00     0.127 S 
ATOM     68  O   UNL A   1      45.951  37.937  28.772  1.00  0.00    -0.237 OA
ATOM     69  O   UNL A   1      45.939  36.469  26.795  1.00  0.00    -0.237 OA
ATOM     70  O   UNL A   1      43.814  37.237  27.754  1.00  0.00    -0.744 OA
ENDBRANCH  64  67
ENDBRANCH  37  60
ENDBRANCH  11  12
ENDBRANCH   4   6
ENDBRANCH   1   2
BRANCH   1  71
ATOM     71  C   UNL A   1      34.587  22.089  25.056  1.00  0.00     0.023 C 
BRANCH  71  72
ATOM     72  C   UNL A   1      33.448  21.569  25.934  1.00  0.00     0.023 C 
BRANCH  72  73
ATOM     73  C   UNL A   1      32.079  21.515  25.246  1.00  0.00     0.116 C 
BRANCH  73  74
ATOM     74  N   UNL A   1      31.002  21.962  26.109  1.00  0.00    -0.356 N 
ATOM     75  C   UNL A   1      30.625  23.224  26.511  1.00  0.00     0.224 C 
ATOM     76  H   UNL A   1      30.443  21.237  26.471  1.00  0.00     0.163 HD
ATOM     77  O   UNL A   1      29.868  23.258  27.495  1.00  0.00    -0.275 OA
BRANCH  75  78
ATOM     78  C   UNL A   1      31.063  24.512  25.782  1.00  0.00     0.093 C 
ATOM     79  C   UNL A   1      30.161  25.779  25.814  1.00  0.00     0.029 C 
ATOM     80  C   UNL A   1      32.246  25.332  26.355  1.00  0.00     0.029 C 
ATOM     81  C   UNL A   1      29.869  26.424  24.505  1.00  0.00    -0.026 C 
ATOM     82  C   UNL A   1      31.343  26.585  26.401  1.00  0.00     0.015 C 
ATOM     83  C   UNL A   1      33.360  25.678  25.442  1.00  0.00    -0.026 C 
ATOM     84  C   UNL A   1      30.787  27.361  24.221  1.00  0.00    -0.023 C 
ATOM     85  C   UNL A   1      31.847  27.507  25.275  1.00  0.00     0.038 C 
ATOM     86  C   UNL A   1      33.145  26.871  24.869  1.00  0.00    -0.023 C 
ENDBRANCH  75  78
ENDBRANCH  73  74
ENDBRANCH  72  73
ENDBRANCH  71  72
ENDBRANCH   1  71
TORSDOF 14
ENDMDL
