MODEL 1
REMARK VINA RESULT:     -12.3      0.000      0.000
REMARK SMILES Cc1cscc1-c1nc(C)c(C(=O)NCCCCNC(=O)c2ccc(-c3c4nc(c(-c5cccc(S(=O)(=O)[O-])c5F)c5ccc([nH]5)c(-c5cccc(S(=O)(=O)[O-])c5F)c5nc(c(-c6cccc(S(=O)(=O)[O-])c6F)c6ccc3[nH]6)C=C5)C=C4)cc2)c(C)n1
REMARK SMILES IDX 17 1 16 2 15 3 14 4 12 5 13 6 11 8 7 9 8 10 87 11 9 12 85 13
REMARK SMILES IDX 10 14 86 15 6 16 1 17 2 18 3 19 4 20 5 21 18 22 19 23 20 24
REMARK SMILES IDX 21 26 22 27 23 28 84 29 24 30 83 31 25 32 26 33 27 34 77 35
REMARK SMILES IDX 28 36 82 37 76 38 78 39 29 40 81 41 75 42 74 43 30 45 62 46
REMARK SMILES IDX 42 47 61 48 43 49 46 50 60 51 79 52 44 53 45 54 59 56 80 57
REMARK SMILES IDX 47 58 31 59 32 60 40 61 33 62 35 63 41 64 34 65 36 66 37 67
REMARK SMILES IDX 38 68 39 69 63 70 64 71 72 72 65 73 67 74 73 75 66 76 68 77
REMARK SMILES IDX 69 78 70 79 71 80 48 81 49 82 57 83 50 84 52 85 58 86 51 87
REMARK SMILES IDX 53 88 54 89 55 90 56 91
REMARK H PARENT 14 7 19 25 78 44 46 55
REMARK Flexibility Score: inf
ROOT
ATOM      1  C   UNL A   1      31.480  29.245  25.531  1.00  0.00     0.023 C 
ENDROOT
BRANCH   1   2
ATOM      2  C   UNL A   1      30.886  29.781  24.230  1.00  0.00     0.023 C 
BRANCH   2   3
ATOM      3  C   UNL A   1      30.894  28.795  23.057  1.00  0.00     0.116 C 
BRANCH   3   4
ATOM      4  N   UNL A   1      32.233  28.625  22.538  1.00  0.00    -0.352 N 
ATOM      5  C   UNL A   1      33.239  27.704  22.526  1.00  0.00     0.254 C 
ATOM      6  O   UNL A   1      34.237  28.157  21.953  1.00  0.00    -0.269 OA
ATOM      7  H   UNL A   1      32.504  29.426  22.033  1.00  0.00     0.163 HD
BRANCH   5   8
ATOM      8  C   UNL A   1      33.299  26.297  23.067  1.00  0.00     0.082 A 
ATOM      9  C   UNL A   1      33.394  23.618  23.750  1.00  0.00     0.160 A 
ATOM     10  N   UNL A   1      33.644  24.527  24.688  1.00  0.00    -0.232 NA
ATOM     11  N   UNL A   1      33.101  23.907  22.490  1.00  0.00    -0.232 NA
ATOM     12  C   UNL A   1      33.634  25.842  24.344  1.00  0.00     0.054 A 
ATOM     13  C   UNL A   1      33.034  25.232  22.163  1.00  0.00     0.054 A 
ATOM     14  C   UNL A   1      34.062  26.634  25.524  1.00  0.00     0.068 C 
ATOM     15  C   UNL A   1      32.637  25.414  20.720  1.00  0.00     0.068 C 
BRANCH   9  16
ATOM     16  C   UNL A   1      33.436  22.235  24.184  1.00  0.00     0.033 A 
ATOM     17  C   UNL A   1      36.013  21.991  24.411  1.00  0.00     0.046 C 
ATOM     18  C   UNL A   1      34.618  21.451  24.450  1.00  0.00    -0.029 A 
ATOM     19  C   UNL A   1      34.289  20.141  24.741  1.00  0.00     0.069 A 
ATOM     20  S   UNL A   1      32.604  19.859  24.716  1.00  0.00    -0.151 S 
ATOM     21  C   UNL A   1      32.281  21.487  24.307  1.00  0.00     0.077 A 
ENDBRANCH   9  16
ENDBRANCH   5   8
ENDBRANCH   3   4
ENDBRANCH   2   3
ENDBRANCH   1   2
BRANCH   1  22
ATOM     22  C   UNL A   1      32.715  29.992  26.018  1.00  0.00     0.116 C 
BRANCH  22  23
ATOM     23  N   UNL A   1      32.444  31.345  26.488  1.00  0.00    -0.352 N 
ATOM     24  C   UNL A   1      33.242  32.121  27.296  1.00  0.00     0.251 C 
ATOM     25  H   UNL A   1      31.595  31.749  26.194  1.00  0.00     0.163 HD
ATOM     26  O   UNL A   1      32.871  33.225  27.678  1.00  0.00    -0.269 OA
BRANCH  24  27
ATOM     27  C   UNL A   1      34.534  31.561  27.736  1.00  0.00     0.039 A 
ATOM     28  C   UNL A   1      35.611  32.427  27.933  1.00  0.00     0.014 A 
ATOM     29  C   UNL A   1      34.630  30.208  28.068  1.00  0.00     0.014 A 
ATOM     30  C   UNL A   1      36.770  31.944  28.541  1.00  0.00     0.010 A 
ATOM     31  C   UNL A   1      35.754  29.751  28.743  1.00  0.00     0.010 A 
ATOM     32  C   UNL A   1      36.833  30.614  28.988  1.00  0.00    -0.014 A 
BRANCH  32  33
ATOM     33  C   UNL A   1      38.011  30.104  29.732  1.00  0.00     0.031 A 
ATOM     34  C   UNL A   1      38.275  30.580  31.133  1.00  0.00     0.074 A 
ATOM     35  C   UNL A   1      38.893  29.296  29.111  1.00  0.00     0.049 A 
ATOM     36  N   UNL A   1      39.279  30.301  31.921  1.00  0.00    -0.248 NA
ATOM     37  C   UNL A   1      37.301  31.519  31.713  1.00  0.00     0.031 C 
ATOM     38  C   UNL A   1      38.794  28.841  27.722  1.00  0.00     0.029 A 
ATOM     39  N   UNL A   1      40.060  28.733  29.561  1.00  0.00    -0.354 N 
ATOM     40  C   UNL A   1      39.080  31.057  33.070  1.00  0.00     0.074 A 
ATOM     41  C   UNL A   1      37.880  31.836  32.861  1.00  0.00     0.031 C 
ATOM     42  C   UNL A   1      39.851  28.063  27.437  1.00  0.00     0.029 A 
ATOM     43  C   UNL A   1      40.712  27.978  28.613  1.00  0.00     0.049 A 
ATOM     44  H   UNL A   1      40.399  28.857  30.477  1.00  0.00     0.167 HD
ATOM     45  C   UNL A   1      39.806  31.071  34.212  1.00  0.00     0.034 A 
ATOM     46  C   UNL A   1      41.870  27.294  28.686  1.00  0.00     0.034 A 
ATOM     47  C   UNL A   1      40.961  30.247  34.438  1.00  0.00     0.049 A 
ATOM     48  C   UNL A   1      42.624  27.275  29.989  1.00  0.00     0.074 A 
ATOM     49  C   UNL A   1      41.710  30.113  35.593  1.00  0.00     0.029 A 
ATOM     50  N   UNL A   1      41.535  29.415  33.489  1.00  0.00    -0.354 N 
ATOM     51  N   UNL A   1      42.325  27.863  31.123  1.00  0.00    -0.248 NA
ATOM     52  C   UNL A   1      43.853  26.470  30.035  1.00  0.00     0.031 C 
ATOM     53  C   UNL A   1      42.742  29.203  35.339  1.00  0.00     0.029 A 
ATOM     54  C   UNL A   1      42.629  28.764  34.030  1.00  0.00     0.049 A 
ATOM     55  H   UNL A   1      41.212  29.304  32.566  1.00  0.00     0.167 HD
ATOM     56  C   UNL A   1      43.308  27.472  32.025  1.00  0.00     0.074 A 
ATOM     57  C   UNL A   1      44.198  26.579  31.311  1.00  0.00     0.031 C 
ATOM     58  C   UNL A   1      43.468  27.831  33.322  1.00  0.00     0.034 A 
BRANCH  45  59
ATOM     59  C   UNL A   1      39.323  31.954  35.330  1.00  0.00     0.023 A 
ATOM     60  C   UNL A   1      38.401  31.439  36.265  1.00  0.00     0.012 A 
ATOM     61  C   UNL A   1      39.800  33.269  35.483  1.00  0.00     0.148 A 
ATOM     62  C   UNL A   1      37.935  32.230  37.314  1.00  0.00     0.002 A 
ATOM     63  C   UNL A   1      39.362  34.038  36.555  1.00  0.00     0.091 A 
ATOM     64  F   UNL A   1      40.655  33.752  34.569  1.00  0.00    -0.205 F 
ATOM     65  C   UNL A   1      38.421  33.524  37.464  1.00  0.00     0.022 A 
BRANCH  63  66
ATOM     66  S   UNL A   1      39.986  35.692  36.875  1.00  0.00     0.127 S 
ATOM     67  O   UNL A   1      39.319  36.022  38.133  1.00  0.00    -0.237 OA
ATOM     68  O   UNL A   1      41.427  35.463  36.990  1.00  0.00    -0.237 OA
ATOM     69  O   UNL A   1      39.593  36.495  35.725  1.00  0.00    -0.744 OA
ENDBRANCH  63  66
ENDBRANCH  45  59
BRANCH  46  70
ATOM     70  C   UNL A   1      42.338  26.494  27.519  1.00  0.00     0.023 A 
ATOM     71  C   UNL A   1      43.120  27.120  26.529  1.00  0.00     0.012 A 
ATOM     72  C   UNL A   1      42.047  25.121  27.399  1.00  0.00     0.148 A 
ATOM     73  C   UNL A   1      43.580  26.402  25.425  1.00  0.00     0.002 A 
ATOM     74  C   UNL A   1      42.553  24.399  26.322  1.00  0.00     0.091 A 
ATOM     75  F   UNL A   1      41.290  24.546  28.343  1.00  0.00    -0.205 F 
ATOM     76  C   UNL A   1      43.305  25.040  25.327  1.00  0.00     0.022 A 
BRANCH  74  77
ATOM     77  S   UNL A   1      42.357  22.619  26.186  1.00  0.00     0.127 S 
ATOM     78  O   UNL A   1      40.904  22.479  26.153  1.00  0.00    -0.237 OA
ATOM     79  O   UNL A   1      43.032  22.334  24.919  1.00  0.00    -0.237 OA
ATOM     80  O   UNL A   1      43.024  22.063  27.355  1.00  0.00    -0.744 OA
ENDBRANCH  74  77
ENDBRANCH  46  70
BRANCH  58  81
ATOM     81  C   UNL A   1      44.636  27.245  34.069  1.00  0.00     0.023 A 
ATOM     82  C   UNL A   1      45.885  27.893  34.028  1.00  0.00     0.012 A 
ATOM     83  C   UNL A   1      44.473  26.102  34.878  1.00  0.00     0.148 A 
ATOM     84  C   UNL A   1      46.963  27.398  34.760  1.00  0.00     0.002 A 
ATOM     85  C   UNL A   1      45.541  25.641  35.639  1.00  0.00     0.091 A 
ATOM     86  F   UNL A   1      43.281  25.487  34.886  1.00  0.00    -0.205 F 
ATOM     87  C   UNL A   1      46.789  26.282  35.574  1.00  0.00     0.022 A 
BRANCH  85  88
ATOM     88  S   UNL A   1      45.376  24.267  36.785  1.00  0.00     0.127 S 
ATOM     89  O   UNL A   1      44.969  23.183  35.893  1.00  0.00    -0.237 OA
ATOM     90  O   UNL A   1      46.733  24.140  37.319  1.00  0.00    -0.237 OA
ATOM     91  O   UNL A   1      44.381  24.684  37.764  1.00  0.00    -0.744 OA
ENDBRANCH  85  88
ENDBRANCH  58  81
ENDBRANCH  32  33
ENDBRANCH  24  27
ENDBRANCH  22  23
ENDBRANCH   1  22
TORSDOF 15
ENDMDL
MODEL 2
REMARK VINA RESULT:     -12.0      1.278      1.836
REMARK SMILES Cc1cscc1-c1nc(C)c(C(=O)NCCCCNC(=O)c2ccc(-c3c4nc(c(-c5cccc(S(=O)(=O)[O-])c5F)c5ccc([nH]5)c(-c5cccc(S(=O)(=O)[O-])c5F)c5nc(c(-c6cccc(S(=O)(=O)[O-])c6F)c6ccc3[nH]6)C=C5)C=C4)cc2)c(C)n1
REMARK SMILES IDX 17 1 16 2 15 3 14 4 12 5 13 6 11 8 7 9 8 10 87 11 9 12 85 13
REMARK SMILES IDX 10 14 86 15 6 16 1 17 2 18 3 19 4 20 5 21 18 22 19 23 20 24
REMARK SMILES IDX 21 26 22 27 23 28 84 29 24 30 83 31 25 32 26 33 27 34 77 35
REMARK SMILES IDX 28 36 82 37 76 38 78 39 29 40 81 41 75 42 74 43 30 45 62 46
REMARK SMILES IDX 42 47 61 48 43 49 46 50 60 51 79 52 44 53 45 54 59 56 80 57
REMARK SMILES IDX 47 58 31 59 32 60 40 61 33 62 35 63 41 64 34 65 36 66 37 67
REMARK SMILES IDX 38 68 39 69 63 70 64 71 72 72 65 73 67 74 73 75 66 76 68 77
REMARK SMILES IDX 69 78 70 79 71 80 48 81 49 82 57 83 50 84 52 85 58 86 51 87
REMARK SMILES IDX 53 88 54 89 55 90 56 91
REMARK H PARENT 14 7 19 25 78 44 46 55
REMARK Flexibility Score: inf
ROOT
ATOM      1  C   UNL A   1      31.704  29.488  26.213  1.00  0.00     0.023 C 
ENDROOT
BRANCH   1   2
ATOM      2  C   UNL A   1      31.002  29.970  24.945  1.00  0.00     0.023 C 
BRANCH   2   3
ATOM      3  C   UNL A   1      31.080  29.009  23.754  1.00  0.00     0.116 C 
BRANCH   3   4
ATOM      4  N   UNL A   1      32.436  28.911  23.260  1.00  0.00    -0.352 N 
ATOM      5  C   UNL A   1      33.415  27.980  23.076  1.00  0.00     0.254 C 
ATOM      6  O   UNL A   1      34.450  28.513  22.659  1.00  0.00    -0.269 OA
ATOM      7  H   UNL A   1      32.751  29.796  22.964  1.00  0.00     0.163 HD
BRANCH   5   8
ATOM      8  C   UNL A   1      33.410  26.485  23.281  1.00  0.00     0.082 A 
ATOM      9  C   UNL A   1      33.406  23.807  23.975  1.00  0.00     0.160 A 
ATOM     10  N   UNL A   1      33.165  24.141  22.711  1.00  0.00    -0.232 NA
ATOM     11  N   UNL A   1      33.649  24.679  24.944  1.00  0.00    -0.232 NA
ATOM     12  C   UNL A   1      33.129  25.458  22.377  1.00  0.00     0.054 A 
ATOM     13  C   UNL A   1      33.672  25.998  24.591  1.00  0.00     0.054 A 
ATOM     14  C   UNL A   1      32.721  25.566  20.954  1.00  0.00     0.068 C 
ATOM     15  C   UNL A   1      34.014  26.869  25.773  1.00  0.00     0.068 C 
BRANCH   9  16
ATOM     16  C   UNL A   1      33.415  22.386  24.263  1.00  0.00     0.033 A 
ATOM     17  C   UNL A   1      35.973  22.092  24.616  1.00  0.00     0.046 C 
ATOM     18  C   UNL A   1      34.576  21.566  24.515  1.00  0.00    -0.029 A 
ATOM     19  C   UNL A   1      34.224  20.236  24.648  1.00  0.00     0.069 A 
ATOM     20  S   UNL A   1      32.542  19.977  24.493  1.00  0.00    -0.151 S 
ATOM     21  C   UNL A   1      32.251  21.642  24.238  1.00  0.00     0.077 A 
ENDBRANCH   9  16
ENDBRANCH   5   8
ENDBRANCH   3   4
ENDBRANCH   2   3
ENDBRANCH   1   2
BRANCH   1  22
ATOM     22  C   UNL A   1      33.021  30.192  26.513  1.00  0.00     0.116 C 
BRANCH  22  23
ATOM     23  N   UNL A   1      32.868  31.570  26.966  1.00  0.00    -0.352 N 
ATOM     24  C   UNL A   1      33.761  32.305  27.711  1.00  0.00     0.251 C 
ATOM     25  H   UNL A   1      32.034  32.025  26.708  1.00  0.00     0.163 HD
ATOM     26  O   UNL A   1      33.486  33.438  28.087  1.00  0.00    -0.269 OA
BRANCH  24  27
ATOM     27  C   UNL A   1      35.035  31.666  28.093  1.00  0.00     0.039 A 
ATOM     28  C   UNL A   1      36.180  32.456  28.195  1.00  0.00     0.014 A 
ATOM     29  C   UNL A   1      35.054  30.321  28.468  1.00  0.00     0.014 A 
ATOM     30  C   UNL A   1      37.338  31.910  28.749  1.00  0.00     0.010 A 
ATOM     31  C   UNL A   1      36.182  29.804  29.090  1.00  0.00     0.010 A 
ATOM     32  C   UNL A   1      37.334  30.593  29.239  1.00  0.00    -0.014 A 
BRANCH  32  33
ATOM     33  C   UNL A   1      38.516  30.022  29.930  1.00  0.00     0.031 A 
ATOM     34  C   UNL A   1      38.879  30.495  31.309  1.00  0.00     0.074 A 
ATOM     35  C   UNL A   1      39.316  29.157  29.276  1.00  0.00     0.049 A 
ATOM     36  N   UNL A   1      39.904  30.166  32.049  1.00  0.00    -0.248 NA
ATOM     37  C   UNL A   1      37.992  31.496  31.925  1.00  0.00     0.031 C 
ATOM     38  C   UNL A   1      39.121  28.694  27.899  1.00  0.00     0.029 A 
ATOM     39  N   UNL A   1      40.470  28.531  29.674  1.00  0.00    -0.354 N 
ATOM     40  C   UNL A   1      39.808  30.944  33.197  1.00  0.00     0.074 A 
ATOM     41  C   UNL A   1      38.646  31.791  33.039  1.00  0.00     0.031 C 
ATOM     42  C   UNL A   1      40.114  27.853  27.572  1.00  0.00     0.029 A 
ATOM     43  C   UNL A   1      41.028  27.730  28.704  1.00  0.00     0.049 A 
ATOM     44  H   UNL A   1      40.862  28.644  30.570  1.00  0.00     0.167 HD
ATOM     45  C   UNL A   1      40.591  30.927  34.300  1.00  0.00     0.034 A 
ATOM     46  C   UNL A   1      42.146  26.979  28.728  1.00  0.00     0.034 A 
ATOM     47  C   UNL A   1      41.706  30.039  34.479  1.00  0.00     0.049 A 
ATOM     48  C   UNL A   1      42.963  26.929  29.991  1.00  0.00     0.074 A 
ATOM     49  C   UNL A   1      42.504  29.872  35.596  1.00  0.00     0.029 A 
ATOM     50  N   UNL A   1      42.181  29.164  33.513  1.00  0.00    -0.354 N 
ATOM     51  N   UNL A   1      42.757  27.544  31.131  1.00  0.00    -0.248 NA
ATOM     52  C   UNL A   1      44.143  26.053  29.986  1.00  0.00     0.031 C 
ATOM     53  C   UNL A   1      43.466  28.900  35.303  1.00  0.00     0.029 A 
ATOM     54  C   UNL A   1      43.261  28.455  34.007  1.00  0.00     0.049 A 
ATOM     55  H   UNL A   1      41.805  29.063  32.609  1.00  0.00     0.167 HD
ATOM     56  C   UNL A   1      43.760  27.105  31.988  1.00  0.00     0.074 A 
ATOM     57  C   UNL A   1      44.560  26.154  31.242  1.00  0.00     0.031 C 
ATOM     58  C   UNL A   1      44.007  27.468  33.270  1.00  0.00     0.034 A 
BRANCH  45  59
ATOM     59  C   UNL A   1      40.217  31.848  35.430  1.00  0.00     0.023 A 
ATOM     60  C   UNL A   1      40.919  33.060  35.591  1.00  0.00     0.012 A 
ATOM     61  C   UNL A   1      39.157  31.541  36.304  1.00  0.00     0.148 A 
ATOM     62  C   UNL A   1      40.597  33.936  36.626  1.00  0.00     0.002 A 
ATOM     63  C   UNL A   1      38.814  32.440  37.308  1.00  0.00     0.091 A 
ATOM     64  F   UNL A   1      38.518  30.372  36.153  1.00  0.00    -0.205 F 
ATOM     65  C   UNL A   1      39.540  33.631  37.477  1.00  0.00     0.022 A 
BRANCH  63  66
ATOM     66  S   UNL A   1      37.421  32.170  38.410  1.00  0.00     0.127 S 
ATOM     67  O   UNL A   1      37.237  30.724  38.304  1.00  0.00    -0.237 OA
ATOM     68  O   UNL A   1      37.951  32.625  39.696  1.00  0.00    -0.237 OA
ATOM     69  O   UNL A   1      36.334  32.983  37.884  1.00  0.00    -0.744 OA
ENDBRANCH  63  66
ENDBRANCH  45  59
BRANCH  46  70
ATOM     70  C   UNL A   1      42.506  26.141  27.549  1.00  0.00     0.023 A 
ATOM     71  C   UNL A   1      43.328  26.688  26.545  1.00  0.00     0.012 A 
ATOM     72  C   UNL A   1      42.075  24.805  27.431  1.00  0.00     0.148 A 
ATOM     73  C   UNL A   1      43.689  25.932  25.430  1.00  0.00     0.002 A 
ATOM     74  C   UNL A   1      42.482  24.041  26.343  1.00  0.00     0.091 A 
ATOM     75  F   UNL A   1      41.282  24.306  28.390  1.00  0.00    -0.205 F 
ATOM     76  C   UNL A   1      43.276  24.607  25.334  1.00  0.00     0.022 A 
BRANCH  74  77
ATOM     77  S   UNL A   1      42.103  22.290  26.206  1.00  0.00     0.127 S 
ATOM     78  O   UNL A   1      42.823  21.922  24.989  1.00  0.00    -0.237 OA
ATOM     79  O   UNL A   1      42.673  21.757  27.444  1.00  0.00    -0.237 OA
ATOM     80  O   UNL A   1      40.650  22.211  26.135  1.00  0.00    -0.744 OA
ENDBRANCH  74  77
ENDBRANCH  46  70
BRANCH  58  81
ATOM     81  C   UNL A   1      45.175  26.821  33.965  1.00  0.00     0.023 A 
ATOM     82  C   UNL A   1      46.447  27.420  33.892  1.00  0.00     0.012 A 
ATOM     83  C   UNL A   1      44.994  25.670  34.758  1.00  0.00     0.148 A 
ATOM     84  C   UNL A   1      47.529  26.869  34.576  1.00  0.00     0.002 A 
ATOM     85  C   UNL A   1      46.068  25.153  35.473  1.00  0.00     0.091 A 
ATOM     86  F   UNL A   1      43.780  25.103  34.797  1.00  0.00    -0.205 F 
ATOM     87  C   UNL A   1      47.338  25.744  35.376  1.00  0.00     0.022 A 
BRANCH  85  88
ATOM     88  S   UNL A   1      45.887  23.764  36.599  1.00  0.00     0.127 S 
ATOM     89  O   UNL A   1      47.263  23.564  37.048  1.00  0.00    -0.237 OA
ATOM     90  O   UNL A   1      44.985  24.302  37.619  1.00  0.00    -0.237 OA
ATOM     91  O   UNL A   1      45.320  22.682  35.806  1.00  0.00    -0.744 OA
ENDBRANCH  85  88
ENDBRANCH  58  81
ENDBRANCH  32  33
ENDBRANCH  24  27
ENDBRANCH  22  23
ENDBRANCH   1  22
TORSDOF 15
ENDMDL
MODEL 3
REMARK VINA RESULT:     -12.0      4.949     10.272
REMARK SMILES Cc1cscc1-c1nc(C)c(C(=O)NCCCCNC(=O)c2ccc(-c3c4nc(c(-c5cccc(S(=O)(=O)[O-])c5F)c5ccc([nH]5)c(-c5cccc(S(=O)(=O)[O-])c5F)c5nc(c(-c6cccc(S(=O)(=O)[O-])c6F)c6ccc3[nH]6)C=C5)C=C4)cc2)c(C)n1
REMARK SMILES IDX 17 1 16 2 15 3 14 4 12 5 13 6 11 8 7 9 8 10 87 11 9 12 85 13
REMARK SMILES IDX 10 14 86 15 6 16 1 17 2 18 3 19 4 20 5 21 18 22 19 23 20 24
REMARK SMILES IDX 21 26 22 27 23 28 84 29 24 30 83 31 25 32 26 33 27 34 77 35
REMARK SMILES IDX 28 36 82 37 76 38 78 39 29 40 81 41 75 42 74 43 30 45 62 46
REMARK SMILES IDX 42 47 61 48 43 49 46 50 60 51 79 52 44 53 45 54 59 56 80 57
REMARK SMILES IDX 47 58 31 59 32 60 40 61 33 62 35 63 41 64 34 65 36 66 37 67
REMARK SMILES IDX 38 68 39 69 63 70 64 71 72 72 65 73 67 74 73 75 66 76 68 77
REMARK SMILES IDX 69 78 70 79 71 80 48 81 49 82 57 83 50 84 52 85 58 86 51 87
REMARK SMILES IDX 53 88 54 89 55 90 56 91
REMARK H PARENT 14 7 19 25 78 44 46 55
REMARK Flexibility Score: inf
ROOT
ATOM      1  C   UNL A   1      35.807  21.438  25.504  1.00  0.00     0.023 C 
ENDROOT
BRANCH   1   2
ATOM      2  C   UNL A   1      35.228  22.244  26.665  1.00  0.00     0.023 C 
BRANCH   2   3
ATOM      3  C   UNL A   1      34.058  21.579  27.396  1.00  0.00     0.116 C 
BRANCH   3   4
ATOM      4  N   UNL A   1      33.075  21.089  26.455  1.00  0.00    -0.352 N 
ATOM      5  C   UNL A   1      32.177  21.561  25.543  1.00  0.00     0.254 C 
ATOM      6  O   UNL A   1      31.522  20.632  25.056  1.00  0.00    -0.269 OA
ATOM      7  H   UNL A   1      33.045  20.105  26.481  1.00  0.00     0.163 HD
BRANCH   5   8
ATOM      8  C   UNL A   1      31.897  22.964  25.065  1.00  0.00     0.082 A 
ATOM      9  C   UNL A   1      31.214  25.576  24.461  1.00  0.00     0.160 A 
ATOM     10  N   UNL A   1      32.140  24.970  23.724  1.00  0.00    -0.232 NA
ATOM     11  N   UNL A   1      30.586  25.012  25.483  1.00  0.00    -0.232 NA
ATOM     12  C   UNL A   1      32.504  23.699  24.044  1.00  0.00     0.054 A 
ATOM     13  C   UNL A   1      30.912  23.715  25.763  1.00  0.00     0.054 A 
ATOM     14  C   UNL A   1      33.628  23.302  23.161  1.00  0.00     0.068 C 
ATOM     15  C   UNL A   1      30.085  23.184  26.906  1.00  0.00     0.068 C 
BRANCH   9  16
ATOM     16  C   UNL A   1      30.887  26.934  24.072  1.00  0.00     0.033 A 
ATOM     17  C   UNL A   1      32.310  28.185  25.850  1.00  0.00     0.046 C 
ATOM     18  C   UNL A   1      31.336  28.146  24.716  1.00  0.00    -0.029 A 
ATOM     19  C   UNL A   1      30.745  29.258  24.146  1.00  0.00     0.069 A 
ATOM     20  S   UNL A   1      29.692  28.863  22.859  1.00  0.00    -0.151 S 
ATOM     21  C   UNL A   1      30.001  27.192  23.044  1.00  0.00     0.077 A 
ENDBRANCH   9  16
ENDBRANCH   5   8
ENDBRANCH   3   4
ENDBRANCH   2   3
ENDBRANCH   1   2
BRANCH   1  22
ATOM     22  C   UNL A   1      37.246  21.786  25.147  1.00  0.00     0.116 C 
BRANCH  22  23
ATOM     23  N   UNL A   1      38.202  20.722  25.431  1.00  0.00    -0.352 N 
ATOM     24  C   UNL A   1      39.389  20.831  26.119  1.00  0.00     0.251 C 
ATOM     25  H   UNL A   1      37.972  19.826  25.094  1.00  0.00     0.163 HD
ATOM     26  O   UNL A   1      40.141  19.870  26.235  1.00  0.00    -0.269 OA
BRANCH  24  27
ATOM     27  C   UNL A   1      39.755  22.152  26.663  1.00  0.00     0.039 A 
ATOM     28  C   UNL A   1      40.747  22.226  27.642  1.00  0.00     0.014 A 
ATOM     29  C   UNL A   1      39.204  23.310  26.109  1.00  0.00     0.014 A 
ATOM     30  C   UNL A   1      41.244  23.475  28.014  1.00  0.00     0.010 A 
ATOM     31  C   UNL A   1      39.755  24.544  26.425  1.00  0.00     0.010 A 
ATOM     32  C   UNL A   1      40.782  24.639  27.378  1.00  0.00    -0.014 A 
BRANCH  32  33
ATOM     33  C   UNL A   1      41.368  25.968  27.678  1.00  0.00     0.031 A 
ATOM     34  C   UNL A   1      42.775  26.280  27.251  1.00  0.00     0.074 A 
ATOM     35  C   UNL A   1      40.672  26.852  28.421  1.00  0.00     0.049 A 
ATOM     36  N   UNL A   1      43.483  27.355  27.473  1.00  0.00    -0.248 NA
ATOM     37  C   UNL A   1      43.493  25.232  26.505  1.00  0.00     0.031 C 
ATOM     38  C   UNL A   1      39.334  26.627  28.974  1.00  0.00     0.029 A 
ATOM     39  N   UNL A   1      41.004  28.108  28.860  1.00  0.00    -0.354 N 
ATOM     40  C   UNL A   1      44.738  27.100  26.931  1.00  0.00     0.074 A 
ATOM     41  C   UNL A   1      44.706  25.754  26.404  1.00  0.00     0.031 C 
ATOM     42  C   UNL A   1      38.958  27.711  29.670  1.00  0.00     0.029 A 
ATOM     43  C   UNL A   1      40.031  28.699  29.632  1.00  0.00     0.049 A 
ATOM     44  H   UNL A   1      41.860  28.545  28.644  1.00  0.00     0.167 HD
ATOM     45  C   UNL A   1      45.806  27.926  26.843  1.00  0.00     0.034 A 
ATOM     46  C   UNL A   1      40.007  29.904  30.235  1.00  0.00     0.034 A 
ATOM     47  C   UNL A   1      45.811  29.284  27.311  1.00  0.00     0.049 A 
ATOM     48  C   UNL A   1      41.183  30.827  30.066  1.00  0.00     0.074 A 
ATOM     49  C   UNL A   1      46.807  30.236  27.183  1.00  0.00     0.029 A 
ATOM     50  N   UNL A   1      44.768  29.886  27.998  1.00  0.00    -0.354 N 
ATOM     51  N   UNL A   1      42.297  30.631  29.401  1.00  0.00    -0.248 NA
ATOM     52  C   UNL A   1      41.086  32.151  30.697  1.00  0.00     0.031 C 
ATOM     53  C   UNL A   1      46.367  31.412  27.798  1.00  0.00     0.029 A 
ATOM     54  C   UNL A   1      45.094  31.196  28.300  1.00  0.00     0.049 A 
ATOM     55  H   UNL A   1      43.920  29.446  28.234  1.00  0.00     0.167 HD
ATOM     56  C   UNL A   1      43.016  31.815  29.505  1.00  0.00     0.074 A 
ATOM     57  C   UNL A   1      42.203  32.732  30.278  1.00  0.00     0.031 C 
ATOM     58  C   UNL A   1      44.246  32.113  29.019  1.00  0.00     0.034 A 
BRANCH  45  59
ATOM     59  C   UNL A   1      47.032  27.401  26.147  1.00  0.00     0.023 A 
ATOM     60  C   UNL A   1      47.170  27.591  24.756  1.00  0.00     0.012 A 
ATOM     61  C   UNL A   1      48.061  26.757  26.861  1.00  0.00     0.148 A 
ATOM     62  C   UNL A   1      48.294  27.119  24.081  1.00  0.00     0.002 A 
ATOM     63  C   UNL A   1      49.198  26.326  26.187  1.00  0.00     0.091 A 
ATOM     64  F   UNL A   1      47.901  26.560  28.178  1.00  0.00    -0.205 F 
ATOM     65  C   UNL A   1      49.311  26.496  24.797  1.00  0.00     0.022 A 
BRANCH  63  66
ATOM     66  S   UNL A   1      50.594  25.577  27.033  1.00  0.00     0.127 S 
ATOM     67  O   UNL A   1      49.993  24.360  27.576  1.00  0.00    -0.237 OA
ATOM     68  O   UNL A   1      51.538  25.354  25.937  1.00  0.00    -0.237 OA
ATOM     69  O   UNL A   1      51.034  26.554  28.019  1.00  0.00    -0.744 OA
ENDBRANCH  63  66
ENDBRANCH  45  59
BRANCH  46  70
ATOM     70  C   UNL A   1      38.789  30.342  30.975  1.00  0.00     0.023 A 
ATOM     71  C   UNL A   1      38.694  30.076  32.354  1.00  0.00     0.012 A 
ATOM     72  C   UNL A   1      37.749  31.045  30.337  1.00  0.00     0.148 A 
ATOM     73  C   UNL A   1      37.571  30.476  33.081  1.00  0.00     0.002 A 
ATOM     74  C   UNL A   1      36.657  31.486  31.078  1.00  0.00     0.091 A 
ATOM     75  F   UNL A   1      37.851  31.277  29.021  1.00  0.00    -0.205 F 
ATOM     76  C   UNL A   1      36.559  31.189  32.445  1.00  0.00     0.022 A 
BRANCH  74  77
ATOM     77  S   UNL A   1      35.372  32.522  30.368  1.00  0.00     0.127 S 
ATOM     78  O   UNL A   1      34.329  32.447  31.387  1.00  0.00    -0.237 OA
ATOM     79  O   UNL A   1      36.046  33.818  30.269  1.00  0.00    -0.237 OA
ATOM     80  O   UNL A   1      35.051  31.917  29.082  1.00  0.00    -0.744 OA
ENDBRANCH  74  77
ENDBRANCH  46  70
BRANCH  58  81
ATOM     81  C   UNL A   1      44.786  33.493  29.283  1.00  0.00     0.023 A 
ATOM     82  C   UNL A   1      45.621  33.711  30.395  1.00  0.00     0.012 A 
ATOM     83  C   UNL A   1      44.535  34.549  28.385  1.00  0.00     0.148 A 
ATOM     84  C   UNL A   1      46.178  34.969  30.625  1.00  0.00     0.002 A 
ATOM     85  C   UNL A   1      45.130  35.787  28.596  1.00  0.00     0.091 A 
ATOM     86  F   UNL A   1      43.719  34.326  27.344  1.00  0.00    -0.205 F 
ATOM     87  C   UNL A   1      45.944  36.001  29.720  1.00  0.00     0.022 A 
BRANCH  85  88
ATOM     88  S   UNL A   1      44.956  37.144  27.431  1.00  0.00     0.127 S 
ATOM     89  O   UNL A   1      45.180  38.305  28.290  1.00  0.00    -0.237 OA
ATOM     90  O   UNL A   1      46.032  36.876  26.475  1.00  0.00    -0.237 OA
ATOM     91  O   UNL A   1      43.615  37.021  26.876  1.00  0.00    -0.744 OA
ENDBRANCH  85  88
ENDBRANCH  58  81
ENDBRANCH  32  33
ENDBRANCH  24  27
ENDBRANCH  22  23
ENDBRANCH   1  22
TORSDOF 15
ENDMDL
